MODEL 1
REMARK VINA RESULT:     8.666      0.000      0.000
REMARK INTER + INTRA:          15.890
REMARK INTER:                  14.745
REMARK INTRA:                   1.145
REMARK UNBOUND:                 1.145
REMARK SMILES CCCCCCCCCCCCCC(=O)[O-]
REMARK SMILES IDX 8 1 9 2 10 3 11 4 12 5 13 6 14 7 15 8 16 9 7 10 6 11 5 12
REMARK SMILES IDX 4 13 3 14 2 15 1 16
REMARK H PARENT
REMARK Flexibility Score: inf
ROOT
ATOM      1  C   UNL     1      -1.156  27.494 -19.524  1.00  0.00     0.000 C 
ENDROOT
BRANCH   1   2
ATOM      2  C   UNL     1      -0.901  28.134 -18.151  1.00  0.00     0.000 C 
BRANCH   2   3
ATOM      3  C   UNL     1      -0.961  29.664 -18.240  1.00  0.00     0.000 C 
BRANCH   3   4
ATOM      4  C   UNL     1      -0.897  30.300 -16.847  1.00  0.00     0.000 C 
BRANCH   4   5
ATOM      5  C   UNL     1      -1.833  31.512 -16.750  1.00  0.00     0.006 C 
BRANCH   5   6
ATOM      6  C   UNL     1      -1.356  32.648 -17.659  1.00  0.00     0.053 C 
BRANCH   6   7
ATOM      7  C   UNL     1      -2.522  33.428 -18.177  1.00  0.00     0.041 C 
ATOM      8  O   UNL     1      -2.882  34.488 -17.600  1.00  0.00    -0.550 OA
ATOM      9  O   UNL     1      -3.242  32.961 -19.268  1.00  0.00    -0.550 OA
ENDBRANCH   6   7
ENDBRANCH   5   6
ENDBRANCH   4   5
ENDBRANCH   3   4
ENDBRANCH   2   3
ENDBRANCH   1   2
BRANCH   1  10
ATOM     10  C   UNL     1      -0.910  25.977 -19.527  1.00  0.00     0.000 C 
BRANCH  10  11
ATOM     11  C   UNL     1      -0.952  25.375 -20.943  1.00  0.00    -0.000 C 
BRANCH  11  12
ATOM     12  C   UNL     1      -2.364  25.394 -21.557  1.00  0.00    -0.000 C 
BRANCH  12  13
ATOM     13  C   UNL     1      -3.501  24.952 -20.612  1.00  0.00    -0.000 C 
BRANCH  13  14
ATOM     14  C   UNL     1      -4.899  24.899 -21.253  1.00  0.00    -0.000 C 
BRANCH  14  15
ATOM     15  C   UNL     1      -4.882  25.253 -22.748  1.00  0.00    -0.003 C 
ATOM     16  C   UNL     1      -3.904  26.387 -23.033  1.00  0.00     0.004 C 
ENDBRANCH  14  15
ENDBRANCH  13  14
ENDBRANCH  12  13
ENDBRANCH  11  12
ENDBRANCH  10  11
ENDBRANCH   1  10
TORSDOF 12
ENDMDL
MODEL 2
REMARK VINA RESULT:     9.812     21.345     24.768
REMARK INTER + INTRA:          17.839
REMARK INTER:                  18.453
REMARK INTRA:                  -0.614
REMARK UNBOUND:                 1.145
REMARK SMILES CCCCCCCCCCCCCC(=O)[O-]
REMARK SMILES IDX 8 1 9 2 10 3 11 4 12 5 13 6 14 7 15 8 16 9 7 10 6 11 5 12
REMARK SMILES IDX 4 13 3 14 2 15 1 16
REMARK H PARENT
REMARK Flexibility Score: inf
ROOT
ATOM      1  C   UNL     1     -17.466  41.911  -3.290  1.00  0.00     0.000 C 
ENDROOT
BRANCH   1   2
ATOM      2  C   UNL     1     -15.975  42.094  -2.966  1.00  0.00     0.000 C 
BRANCH   2   3
ATOM      3  C   UNL     1     -15.136  40.973  -3.591  1.00  0.00     0.000 C 
BRANCH   3   4
ATOM      4  C   UNL     1     -13.807  41.514  -4.130  1.00  0.00     0.000 C 
BRANCH   4   5
ATOM      5  C   UNL     1     -13.865  41.700  -5.651  1.00  0.00     0.006 C 
BRANCH   5   6
ATOM      6  C   UNL     1     -12.692  40.992  -6.336  1.00  0.00     0.053 C 
BRANCH   6   7
ATOM      7  C   UNL     1     -11.730  41.992  -6.893  1.00  0.00     0.041 C 
ATOM      8  O   UNL     1     -11.356  41.912  -8.092  1.00  0.00    -0.550 OA
ATOM      9  O   UNL     1     -11.205  42.984  -6.074  1.00  0.00    -0.550 OA
ENDBRANCH   6   7
ENDBRANCH   5   6
ENDBRANCH   4   5
ENDBRANCH   3   4
ENDBRANCH   2   3
ENDBRANCH   1   2
BRANCH   1  10
ATOM     10  C   UNL     1     -18.266  43.216  -3.163  1.00  0.00     0.000 C 
BRANCH  10  11
ATOM     11  C   UNL     1     -19.770  43.014  -3.419  1.00  0.00    -0.000 C 
BRANCH  11  12
ATOM     12  C   UNL     1     -20.212  41.548  -3.253  1.00  0.00    -0.000 C 
BRANCH  12  13
ATOM     13  C   UNL     1     -20.950  40.940  -4.464  1.00  0.00    -0.000 C 
BRANCH  13  14
ATOM     14  C   UNL     1     -20.516  39.514  -4.845  1.00  0.00    -0.000 C 
BRANCH  14  15
ATOM     15  C   UNL     1     -21.125  38.442  -3.930  1.00  0.00    -0.003 C 
ATOM     16  C   UNL     1     -20.082  37.885  -2.966  1.00  0.00     0.004 C 
ENDBRANCH  14  15
ENDBRANCH  13  14
ENDBRANCH  12  13
ENDBRANCH  11  12
ENDBRANCH  10  11
ENDBRANCH   1  10
TORSDOF 12
ENDMDL
MODEL 3
REMARK VINA RESULT:    10.371     19.665     21.390
REMARK INTER + INTRA:          18.791
REMARK INTER:                  19.063
REMARK INTRA:                  -0.272
REMARK UNBOUND:                 1.145
REMARK SMILES CCCCCCCCCCCCCC(=O)[O-]
REMARK SMILES IDX 8 1 9 2 10 3 11 4 12 5 13 6 14 7 15 8 16 9 7 10 6 11 5 12
REMARK SMILES IDX 4 13 3 14 2 15 1 16
REMARK H PARENT
REMARK Flexibility Score: inf
ROOT
ATOM      1  C   UNL     1     -16.263  28.212  -3.255  1.00  0.00     0.000 C 
ENDROOT
BRANCH   1   2
ATOM      2  C   UNL     1     -17.083  26.949  -3.559  1.00  0.00     0.000 C 
BRANCH   2   3
ATOM      3  C   UNL     1     -18.456  27.010  -2.879  1.00  0.00     0.000 C 
BRANCH   3   4
ATOM      4  C   UNL     1     -19.321  25.808  -3.273  1.00  0.00     0.000 C 
BRANCH   4   5
ATOM      5  C   UNL     1     -20.763  26.239  -3.569  1.00  0.00     0.006 C 
BRANCH   5   6
ATOM      6  C   UNL     1     -20.850  27.751  -3.794  1.00  0.00     0.053 C 
BRANCH   6   7
ATOM      7  C   UNL     1     -20.418  28.100  -5.182  1.00  0.00     0.041 C 
ATOM      8  O   UNL     1     -19.564  29.006  -5.371  1.00  0.00    -0.550 OA
ATOM      9  O   UNL     1     -20.994  27.461  -6.272  1.00  0.00    -0.550 OA
ENDBRANCH   6   7
ENDBRANCH   5   6
ENDBRANCH   4   5
ENDBRANCH   3   4
ENDBRANCH   2   3
ENDBRANCH   1   2
BRANCH   1  10
ATOM     10  C   UNL     1     -14.807  27.898  -2.875  1.00  0.00     0.000 C 
BRANCH  10  11
ATOM     11  C   UNL     1     -13.847  29.053  -3.210  1.00  0.00    -0.000 C 
BRANCH  11  12
ATOM     12  C   UNL     1     -12.780  28.660  -4.248  1.00  0.00    -0.000 C 
BRANCH  12  13
ATOM     13  C   UNL     1     -12.078  29.841  -4.951  1.00  0.00    -0.000 C 
BRANCH  13  14
ATOM     14  C   UNL     1     -12.114  29.800  -6.489  1.00  0.00    -0.000 C 
BRANCH  14  15
ATOM     15  C   UNL     1     -10.720  29.932  -7.121  1.00  0.00    -0.003 C 
ATOM     16  C   UNL     1     -10.109  28.561  -7.393  1.00  0.00     0.004 C 
ENDBRANCH  14  15
ENDBRANCH  13  14
ENDBRANCH  12  13
ENDBRANCH  11  12
ENDBRANCH  10  11
ENDBRANCH   1  10
TORSDOF 12
ENDMDL
MODEL 4
REMARK VINA RESULT:    10.516     19.485     21.265
REMARK INTER + INTRA:          19.037
REMARK INTER:                  18.775
REMARK INTRA:                   0.262
REMARK UNBOUND:                 1.145
REMARK SMILES CCCCCCCCCCCCCC(=O)[O-]
REMARK SMILES IDX 8 1 9 2 10 3 11 4 12 5 13 6 14 7 15 8 16 9 7 10 6 11 5 12
REMARK SMILES IDX 4 13 3 14 2 15 1 16
REMARK H PARENT
REMARK Flexibility Score: inf
ROOT
ATOM      1  C   UNL     1     -15.627  27.612  -3.239  1.00  0.00     0.000 C 
ENDROOT
BRANCH   1   2
ATOM      2  C   UNL     1     -17.054  28.054  -2.879  1.00  0.00     0.000 C 
BRANCH   2   3
ATOM      3  C   UNL     1     -18.034  26.879  -2.980  1.00  0.00     0.000 C 
BRANCH   3   4
ATOM      4  C   UNL     1     -19.354  27.316  -3.626  1.00  0.00     0.000 C 
BRANCH   4   5
ATOM      5  C   UNL     1     -20.457  26.278  -3.384  1.00  0.00     0.006 C 
BRANCH   5   6
ATOM      6  C   UNL     1     -20.605  25.343  -4.587  1.00  0.00     0.053 C 
BRANCH   6   7
ATOM      7  C   UNL     1     -20.801  26.132  -5.843  1.00  0.00     0.041 C 
ATOM      8  O   UNL     1     -21.095  27.355  -5.783  1.00  0.00    -0.550 OA
ATOM      9  O   UNL     1     -20.707  25.507  -7.079  1.00  0.00    -0.550 OA
ENDBRANCH   6   7
ENDBRANCH   5   6
ENDBRANCH   4   5
ENDBRANCH   3   4
ENDBRANCH   2   3
ENDBRANCH   1   2
BRANCH   1  10
ATOM     10  C   UNL     1     -14.607  28.756  -3.137  1.00  0.00     0.000 C 
BRANCH  10  11
ATOM     11  C   UNL     1     -13.204  28.341  -3.613  1.00  0.00    -0.000 C 
BRANCH  11  12
ATOM     12  C   UNL     1     -12.447  29.487  -4.309  1.00  0.00    -0.000 C 
BRANCH  12  13
ATOM     13  C   UNL     1     -11.664  29.085  -5.577  1.00  0.00    -0.000 C 
BRANCH  13  14
ATOM     14  C   UNL     1     -10.828  30.211  -6.212  1.00  0.00    -0.000 C 
BRANCH  14  15
ATOM     15  C   UNL     1     -10.187  29.797  -7.545  1.00  0.00    -0.003 C 
ATOM     16  C   UNL     1     -11.232  29.244  -8.508  1.00  0.00     0.004 C 
ENDBRANCH  14  15
ENDBRANCH  13  14
ENDBRANCH  12  13
ENDBRANCH  11  12
ENDBRANCH  10  11
ENDBRANCH   1  10
TORSDOF 12
ENDMDL
MODEL 5
REMARK VINA RESULT:    10.517     18.897     20.280
REMARK INTER + INTRA:          19.039
REMARK INTER:                  19.655
REMARK INTRA:                  -0.616
REMARK UNBOUND:                 1.145
REMARK SMILES CCCCCCCCCCCCCC(=O)[O-]
REMARK SMILES IDX 8 1 9 2 10 3 11 4 12 5 13 6 14 7 15 8 16 9 7 10 6 11 5 12
REMARK SMILES IDX 4 13 3 14 2 15 1 16
REMARK H PARENT
REMARK Flexibility Score: inf
ROOT
ATOM      1  C   UNL     1     -15.575  27.683  -3.668  1.00  0.00     0.000 C 
ENDROOT
BRANCH   1   2
ATOM      2  C   UNL     1     -14.767  28.905  -3.202  1.00  0.00     0.000 C 
BRANCH   2   3
ATOM      3  C   UNL     1     -13.264  28.601  -3.201  1.00  0.00     0.000 C 
BRANCH   3   4
ATOM      4  C   UNL     1     -12.493  29.632  -4.033  1.00  0.00     0.000 C 
BRANCH   4   5
ATOM      5  C   UNL     1     -11.943  29.003  -5.319  1.00  0.00     0.006 C 
BRANCH   5   6
ATOM      6  C   UNL     1     -11.726  30.065  -6.400  1.00  0.00     0.053 C 
BRANCH   6   7
ATOM      7  C   UNL     1     -10.648  29.638  -7.344  1.00  0.00     0.041 C 
ATOM      8  O   UNL     1      -9.439  29.712  -7.001  1.00  0.00    -0.550 OA
ATOM      9  O   UNL     1     -10.974  29.203  -8.622  1.00  0.00    -0.550 OA
ENDBRANCH   6   7
ENDBRANCH   5   6
ENDBRANCH   4   5
ENDBRANCH   3   4
ENDBRANCH   2   3
ENDBRANCH   1   2
BRANCH   1  10
ATOM     10  C   UNL     1     -16.906  27.529  -2.916  1.00  0.00     0.000 C 
BRANCH  10  11
ATOM     11  C   UNL     1     -17.816  26.458  -3.542  1.00  0.00    -0.000 C 
BRANCH  11  12
ATOM     12  C   UNL     1     -19.202  26.388  -2.875  1.00  0.00    -0.000 C 
BRANCH  12  13
ATOM     13  C   UNL     1     -20.391  26.764  -3.784  1.00  0.00    -0.000 C 
BRANCH  13  14
ATOM     14  C   UNL     1     -20.042  26.951  -5.272  1.00  0.00    -0.000 C 
BRANCH  14  15
ATOM     15  C   UNL     1     -20.234  28.397  -5.751  1.00  0.00    -0.003 C 
ATOM     16  C   UNL     1     -20.828  29.267  -4.648  1.00  0.00     0.004 C 
ENDBRANCH  14  15
ENDBRANCH  13  14
ENDBRANCH  12  13
ENDBRANCH  11  12
ENDBRANCH  10  11
ENDBRANCH   1  10
TORSDOF 12
ENDMDL
MODEL 6
REMARK VINA RESULT:    10.544     19.167     20.641
REMARK INTER + INTRA:          19.085
REMARK INTER:                  18.907
REMARK INTRA:                   0.177
REMARK UNBOUND:                 1.145
REMARK SMILES CCCCCCCCCCCCCC(=O)[O-]
REMARK SMILES IDX 8 1 9 2 10 3 11 4 12 5 13 6 14 7 15 8 16 9 7 10 6 11 5 12
REMARK SMILES IDX 4 13 3 14 2 15 1 16
REMARK H PARENT
REMARK Flexibility Score: inf
ROOT
ATOM      1  C   UNL     1     -15.959  28.391  -2.875  1.00  0.00     0.000 C 
ENDROOT
BRANCH   1   2
ATOM      2  C   UNL     1     -14.470  28.046  -3.036  1.00  0.00     0.000 C 
BRANCH   2   3
ATOM      3  C   UNL     1     -13.695  29.226  -3.633  1.00  0.00     0.000 C 
BRANCH   3   4
ATOM      4  C   UNL     1     -12.361  28.763  -4.230  1.00  0.00     0.000 C 
BRANCH   4   5
ATOM      5  C   UNL     1     -11.764  29.838  -5.146  1.00  0.00     0.006 C 
BRANCH   5   6
ATOM      6  C   UNL     1     -11.941  29.464  -6.620  1.00  0.00     0.053 C 
BRANCH   6   7
ATOM      7  C   UNL     1     -10.631  29.525  -7.338  1.00  0.00     0.041 C 
ATOM      8  O   UNL     1     -10.520  29.045  -8.496  1.00  0.00    -0.550 OA
ATOM      9  O   UNL     1      -9.518  30.067  -6.709  1.00  0.00    -0.550 OA
ENDBRANCH   6   7
ENDBRANCH   5   6
ENDBRANCH   4   5
ENDBRANCH   3   4
ENDBRANCH   2   3
ENDBRANCH   1   2
BRANCH   1  10
ATOM     10  C   UNL     1     -16.878  27.435  -3.651  1.00  0.00     0.000 C 
BRANCH  10  11
ATOM     11  C   UNL     1     -18.241  27.239  -2.964  1.00  0.00    -0.000 C 
BRANCH  11  12
ATOM     12  C   UNL     1     -19.197  26.348  -3.778  1.00  0.00    -0.000 C 
BRANCH  12  13
ATOM     13  C   UNL     1     -20.694  26.499  -3.432  1.00  0.00    -0.000 C 
BRANCH  13  14
ATOM     14  C   UNL     1     -21.108  27.888  -2.917  1.00  0.00    -0.000 C 
BRANCH  14  15
ATOM     15  C   UNL     1     -20.356  29.031  -3.616  1.00  0.00    -0.003 C 
ATOM     16  C   UNL     1     -20.991  29.363  -4.963  1.00  0.00     0.004 C 
ENDBRANCH  14  15
ENDBRANCH  13  14
ENDBRANCH  12  13
ENDBRANCH  11  12
ENDBRANCH  10  11
ENDBRANCH   1  10
TORSDOF 12
ENDMDL
MODEL 7
REMARK VINA RESULT:    10.951     20.806     24.528
REMARK INTER + INTRA:          19.779
REMARK INTER:                  19.876
REMARK INTRA:                  -0.098
REMARK UNBOUND:                 1.145
REMARK SMILES CCCCCCCCCCCCCC(=O)[O-]
REMARK SMILES IDX 8 1 9 2 10 3 11 4 12 5 13 6 14 7 15 8 16 9 7 10 6 11 5 12
REMARK SMILES IDX 4 13 3 14 2 15 1 16
REMARK H PARENT
REMARK Flexibility Score: inf
ROOT
ATOM      1  C   UNL     1     -15.921  41.574  -3.985  1.00  0.00     0.000 C 
ENDROOT
BRANCH   1   2
ATOM      2  C   UNL     1     -14.537  41.099  -3.518  1.00  0.00     0.000 C 
BRANCH   2   3
ATOM      3  C   UNL     1     -13.423  41.776  -4.326  1.00  0.00     0.000 C 
BRANCH   3   4
ATOM      4  C   UNL     1     -13.400  41.265  -5.771  1.00  0.00     0.000 C 
BRANCH   4   5
ATOM      5  C   UNL     1     -12.584  42.197  -6.674  1.00  0.00     0.006 C 
BRANCH   5   6
ATOM      6  C   UNL     1     -11.083  41.932  -6.525  1.00  0.00     0.053 C 
BRANCH   6   7
ATOM      7  C   UNL     1     -10.457  41.699  -7.862  1.00  0.00     0.041 C 
ATOM      8  O   UNL     1      -9.256  42.020  -8.064  1.00  0.00    -0.550 OA
ATOM      9  O   UNL     1     -11.212  41.174  -8.903  1.00  0.00    -0.550 OA
ENDBRANCH   6   7
ENDBRANCH   5   6
ENDBRANCH   4   5
ENDBRANCH   3   4
ENDBRANCH   2   3
ENDBRANCH   1   2
BRANCH   1  10
ATOM     10  C   UNL     1     -16.981  41.498  -2.875  1.00  0.00     0.000 C 
BRANCH  10  11
ATOM     11  C   UNL     1     -18.136  42.491  -3.093  1.00  0.00    -0.000 C 
BRANCH  11  12
ATOM     12  C   UNL     1     -19.520  41.853  -2.876  1.00  0.00    -0.000 C 
BRANCH  12  13
ATOM     13  C   UNL     1     -20.304  41.524  -4.164  1.00  0.00    -0.000 C 
BRANCH  13  14
ATOM     14  C   UNL     1     -21.030  42.718  -4.809  1.00  0.00    -0.000 C 
BRANCH  14  15
ATOM     15  C   UNL     1     -20.276  44.044  -4.625  1.00  0.00    -0.003 C 
ATOM     16  C   UNL     1     -21.087  45.025  -3.785  1.00  0.00     0.004 C 
ENDBRANCH  14  15
ENDBRANCH  13  14
ENDBRANCH  12  13
ENDBRANCH  11  12
ENDBRANCH  10  11
ENDBRANCH   1  10
TORSDOF 12
ENDMDL
