MODEL 1
REMARK VINA RESULT:    -5.769      0.000      0.000
REMARK INTER + INTRA:          -7.201
REMARK INTER:                  -6.949
REMARK INTRA:                  -0.252
REMARK UNBOUND:                -0.252
REMARK SMILES O=c1c(O)c(-c2ccc(O)cc2O)oc2cc(O)cc(O)c12
REMARK SMILES IDX 5 1 3 2 2 3 1 4 22 5 20 6 19 7 17 8 16 9 15 10 14 11 6 12
REMARK SMILES IDX 8 13 7 14 9 15 11 16 12 17 10 18 13 20 4 22 21 24 18 26
REMARK H PARENT 10 19 13 21 4 23 21 25 18 27
REMARK Flexibility Score: inf
ROOT
ATOM      1  C   UNL     1     117.937  73.627  44.347  1.00  0.00     0.184 A 
ATOM      2  C   UNL     1     117.803  73.894  42.973  1.00  0.00     0.208 A 
ATOM      3  C   UNL     1     118.869  73.581  42.116  1.00  0.00     0.238 A 
ATOM      4  O   UNL     1     118.757  73.805  40.880  1.00  0.00    -0.285 OA
ATOM      5  C   UNL     1     120.051  73.026  42.648  1.00  0.00     0.111 A 
ATOM      6  C   UNL     1     121.172  72.684  41.853  1.00  0.00     0.134 A 
ATOM      7  C   UNL     1     122.316  72.145  42.459  1.00  0.00     0.093 A 
ATOM      8  C   UNL     1     122.362  71.941  43.841  1.00  0.00     0.123 A 
ATOM      9  C   UNL     1     121.258  72.276  44.631  1.00  0.00     0.094 A 
ATOM     10  C   UNL     1     120.108  72.812  44.046  1.00  0.00     0.146 A 
ATOM     11  O   UNL     1     119.071  73.118  44.819  1.00  0.00    -0.451 OA
ENDROOT
BRANCH   1  12
ATOM     12  C   UNL     1     116.850  73.922  45.303  1.00  0.00     0.063 A 
ATOM     13  C   UNL     1     116.087  75.125  47.274  1.00  0.00     0.047 A 
ATOM     14  C   UNL     1     117.091  74.827  46.349  1.00  0.00     0.020 A 
ATOM     15  C   UNL     1     114.834  74.509  47.174  1.00  0.00     0.119 A 
ATOM     16  C   UNL     1     114.593  73.588  46.150  1.00  0.00     0.093 A 
ATOM     17  C   UNL     1     115.597  73.280  45.221  1.00  0.00     0.130 A 
BRANCH  15  18
ATOM     18  O   UNL     1     113.825  74.801  48.088  1.00  0.00    -0.508 OA
ATOM     19  H   UNL     1     113.268  74.069  48.513  1.00  0.00     0.293 HD
ENDBRANCH  15  18
BRANCH  17  20
ATOM     20  O   UNL     1     115.359  72.323  44.233  1.00  0.00    -0.507 OA
ATOM     21  H   UNL     1     114.445  72.212  43.810  1.00  0.00     0.293 HD
ENDBRANCH  17  20
ENDBRANCH   1  12
BRANCH   2  22
ATOM     22  O   UNL     1     116.637  74.486  42.483  1.00  0.00    -0.502 OA
ATOM     23  H   UNL     1     116.598  75.459  42.208  1.00  0.00     0.293 HD
ENDBRANCH   2  22
BRANCH   6  24
ATOM     24  O   UNL     1     121.158  72.877  40.472  1.00  0.00    -0.507 OA
ATOM     25  H   UNL     1     121.473  73.744  40.050  1.00  0.00     0.293 HD
ENDBRANCH   6  24
BRANCH   8  26
ATOM     26  O   UNL     1     123.511  71.404  44.417  1.00  0.00    -0.508 OA
ATOM     27  H   UNL     1     123.945  71.829  45.229  1.00  0.00     0.293 HD
ENDBRANCH   8  26
TORSDOF 6
ENDMDL
MODEL 2
REMARK VINA RESULT:    -5.619      3.136      6.062
REMARK INTER + INTRA:          -7.021
REMARK INTER:                  -6.614
REMARK INTRA:                  -0.407
REMARK UNBOUND:                -0.252
REMARK SMILES O=c1c(O)c(-c2ccc(O)cc2O)oc2cc(O)cc(O)c12
REMARK SMILES IDX 5 1 3 2 2 3 1 4 22 5 20 6 19 7 17 8 16 9 15 10 14 11 6 12
REMARK SMILES IDX 8 13 7 14 9 15 11 16 12 17 10 18 13 20 4 22 21 24 18 26
REMARK H PARENT 10 19 13 21 4 23 21 25 18 27
REMARK Flexibility Score: inf
ROOT
ATOM      1  C   UNL     1     121.109  70.741  44.826  1.00  0.00     0.184 A 
ATOM      2  C   UNL     1     122.207  71.066  44.009  1.00  0.00     0.208 A 
ATOM      3  C   UNL     1     122.124  72.195  43.180  1.00  0.00     0.238 A 
ATOM      4  O   UNL     1     123.107  72.502  42.452  1.00  0.00    -0.285 OA
ATOM      5  C   UNL     1     120.942  72.965  43.168  1.00  0.00     0.111 A 
ATOM      6  C   UNL     1     120.776  74.115  42.359  1.00  0.00     0.134 A 
ATOM      7  C   UNL     1     119.566  74.823  42.396  1.00  0.00     0.093 A 
ATOM      8  C   UNL     1     118.521  74.404  43.223  1.00  0.00     0.123 A 
ATOM      9  C   UNL     1     118.678  73.269  44.025  1.00  0.00     0.094 A 
ATOM     10  C   UNL     1     119.878  72.551  44.004  1.00  0.00     0.146 A 
ATOM     11  O   UNL     1     120.003  71.479  44.778  1.00  0.00    -0.451 OA
ENDROOT
BRANCH   1  12
ATOM     12  C   UNL     1     121.133  69.573  45.730  1.00  0.00     0.063 A 
ATOM     13  C   UNL     1     121.619  68.660  47.931  1.00  0.00     0.047 A 
ATOM     14  C   UNL     1     121.579  69.745  47.050  1.00  0.00     0.020 A 
ATOM     15  C   UNL     1     121.230  67.388  47.498  1.00  0.00     0.119 A 
ATOM     16  C   UNL     1     120.807  67.203  46.178  1.00  0.00     0.093 A 
ATOM     17  C   UNL     1     120.768  68.286  45.286  1.00  0.00     0.130 A 
BRANCH  15  18
ATOM     18  O   UNL     1     121.263  66.301  48.367  1.00  0.00    -0.508 OA
ATOM     19  H   UNL     1     121.991  65.598  48.309  1.00  0.00     0.293 HD
ENDBRANCH  15  18
BRANCH  17  20
ATOM     20  O   UNL     1     120.391  68.078  43.959  1.00  0.00    -0.507 OA
ATOM     21  H   UNL     1     119.658  67.423  43.711  1.00  0.00     0.293 HD
ENDBRANCH  17  20
ENDBRANCH   1  12
BRANCH   2  22
ATOM     22  O   UNL     1     123.346  70.257  44.012  1.00  0.00    -0.502 OA
ATOM     23  H   UNL     1     123.712  69.836  43.167  1.00  0.00     0.293 HD
ENDBRANCH   2  22
BRANCH   6  24
ATOM     24  O   UNL     1     121.801  74.558  41.522  1.00  0.00    -0.507 OA
ATOM     25  H   UNL     1     122.668  74.933  41.892  1.00  0.00     0.293 HD
ENDBRANCH   6  24
BRANCH   8  26
ATOM     26  O   UNL     1     117.329  75.125  43.240  1.00  0.00    -0.508 OA
ATOM     27  H   UNL     1     117.307  76.107  43.491  1.00  0.00     0.293 HD
ENDBRANCH   8  26
TORSDOF 6
ENDMDL
MODEL 3
REMARK VINA RESULT:    -5.560      1.542      3.012
REMARK INTER + INTRA:          -6.949
REMARK INTER:                  -7.182
REMARK INTRA:                   0.233
REMARK UNBOUND:                -0.252
REMARK SMILES O=c1c(O)c(-c2ccc(O)cc2O)oc2cc(O)cc(O)c12
REMARK SMILES IDX 5 1 3 2 2 3 1 4 22 5 20 6 19 7 17 8 16 9 15 10 14 11 6 12
REMARK SMILES IDX 8 13 7 14 9 15 11 16 12 17 10 18 13 20 4 22 21 24 18 26
REMARK H PARENT 10 19 13 21 4 23 21 25 18 27
REMARK Flexibility Score: inf
ROOT
ATOM      1  C   UNL     1     117.808  73.700  44.361  1.00  0.00     0.184 A 
ATOM      2  C   UNL     1     118.711  73.528  45.425  1.00  0.00     0.208 A 
ATOM      3  C   UNL     1     120.050  73.222  45.134  1.00  0.00     0.238 A 
ATOM      4  O   UNL     1     120.871  73.077  46.080  1.00  0.00    -0.285 OA
ATOM      5  C   UNL     1     120.455  73.076  43.791  1.00  0.00     0.111 A 
ATOM      6  C   UNL     1     121.784  72.766  43.414  1.00  0.00     0.134 A 
ATOM      7  C   UNL     1     122.106  72.627  42.056  1.00  0.00     0.093 A 
ATOM      8  C   UNL     1     121.129  72.791  41.070  1.00  0.00     0.123 A 
ATOM      9  C   UNL     1     119.815  73.098  41.438  1.00  0.00     0.094 A 
ATOM     10  C   UNL     1     119.474  73.243  42.785  1.00  0.00     0.146 A 
ATOM     11  O   UNL     1     118.219  73.538  43.107  1.00  0.00    -0.451 OA
ENDROOT
BRANCH   1  12
ATOM     12  C   UNL     1     116.388  74.033  44.596  1.00  0.00     0.063 A 
ATOM     13  C   UNL     1     114.431  73.892  46.032  1.00  0.00     0.047 A 
ATOM     14  C   UNL     1     115.774  73.598  45.781  1.00  0.00     0.020 A 
ATOM     15  C   UNL     1     113.681  74.611  45.095  1.00  0.00     0.119 A 
ATOM     16  C   UNL     1     114.278  75.028  43.901  1.00  0.00     0.093 A 
ATOM     17  C   UNL     1     115.624  74.733  43.639  1.00  0.00     0.130 A 
BRANCH  15  18
ATOM     18  O   UNL     1     112.343  74.912  45.336  1.00  0.00    -0.508 OA
ATOM     19  H   UNL     1     111.803  74.406  46.028  1.00  0.00     0.293 HD
ENDBRANCH  15  18
BRANCH  17  20
ATOM     20  O   UNL     1     116.194  75.112  42.423  1.00  0.00    -0.507 OA
ATOM     21  H   UNL     1     117.080  75.602  42.381  1.00  0.00     0.293 HD
ENDBRANCH  17  20
ENDBRANCH   1  12
BRANCH   2  22
ATOM     22  O   UNL     1     118.268  73.636  46.746  1.00  0.00    -0.502 OA
ATOM     23  H   UNL     1     117.286  73.684  46.984  1.00  0.00     0.293 HD
ENDBRANCH   2  22
BRANCH   6  24
ATOM     24  O   UNL     1     122.782  72.595  44.373  1.00  0.00    -0.507 OA
ATOM     25  H   UNL     1     123.142  71.677  44.611  1.00  0.00     0.293 HD
ENDBRANCH   6  24
BRANCH   8  26
ATOM     26  O   UNL     1     121.476  72.647  39.729  1.00  0.00    -0.508 OA
ATOM     27  H   UNL     1     121.075  71.915  39.154  1.00  0.00     0.293 HD
ENDBRANCH   8  26
TORSDOF 6
ENDMDL
MODEL 4
REMARK VINA RESULT:    -5.430      1.062      1.591
REMARK INTER + INTRA:          -6.793
REMARK INTER:                  -6.558
REMARK INTRA:                  -0.235
REMARK UNBOUND:                -0.252
REMARK SMILES O=c1c(O)c(-c2ccc(O)cc2O)oc2cc(O)cc(O)c12
REMARK SMILES IDX 5 1 3 2 2 3 1 4 22 5 20 6 19 7 17 8 16 9 15 10 14 11 6 12
REMARK SMILES IDX 8 13 7 14 9 15 11 16 12 17 10 18 13 20 4 22 21 24 18 26
REMARK H PARENT 10 19 13 21 4 23 21 25 18 27
REMARK Flexibility Score: inf
ROOT
ATOM      1  C   UNL     1     117.902  73.485  44.083  1.00  0.00     0.184 A 
ATOM      2  C   UNL     1     118.079  73.756  42.714  1.00  0.00     0.208 A 
ATOM      3  C   UNL     1     119.292  73.402  42.105  1.00  0.00     0.238 A 
ATOM      4  O   UNL     1     119.458  73.630  40.876  1.00  0.00    -0.285 OA
ATOM      5  C   UNL     1     120.309  72.801  42.876  1.00  0.00     0.111 A 
ATOM      6  C   UNL     1     121.562  72.416  42.339  1.00  0.00     0.134 A 
ATOM      7  C   UNL     1     122.527  71.833  43.173  1.00  0.00     0.093 A 
ATOM      8  C   UNL     1     122.265  71.628  44.530  1.00  0.00     0.123 A 
ATOM      9  C   UNL     1     121.030  72.005  45.066  1.00  0.00     0.094 A 
ATOM     10  C   UNL     1     120.054  72.586  44.251  1.00  0.00     0.146 A 
ATOM     11  O   UNL     1     118.888  72.932  44.784  1.00  0.00    -0.451 OA
ENDROOT
BRANCH   1  12
ATOM     12  C   UNL     1     116.646  73.822  44.784  1.00  0.00     0.063 A 
ATOM     13  C   UNL     1     114.220  73.686  44.881  1.00  0.00     0.047 A 
ATOM     14  C   UNL     1     115.427  73.381  44.245  1.00  0.00     0.020 A 
ATOM     15  C   UNL     1     114.216  74.449  46.054  1.00  0.00     0.119 A 
ATOM     16  C   UNL     1     115.425  74.912  46.585  1.00  0.00     0.093 A 
ATOM     17  C   UNL     1     116.640  74.614  45.951  1.00  0.00     0.130 A 
BRANCH  15  18
ATOM     18  O   UNL     1     113.020  74.756  46.697  1.00  0.00    -0.508 OA
ATOM     19  H   UNL     1     112.872  74.532  47.674  1.00  0.00     0.293 HD
ENDBRANCH  15  18
BRANCH  17  20
ATOM     20  O   UNL     1     117.834  75.123  46.463  1.00  0.00    -0.507 OA
ATOM     21  H   UNL     1     117.986  75.218  47.461  1.00  0.00     0.293 HD
ENDBRANCH  17  20
ENDBRANCH   1  12
BRANCH   2  22
ATOM     22  O   UNL     1     117.069  74.393  41.989  1.00  0.00    -0.502 OA
ATOM     23  H   UNL     1     116.116  74.052  41.976  1.00  0.00     0.293 HD
ENDBRANCH   2  22
BRANCH   6  24
ATOM     24  O   UNL     1     121.854  72.609  40.988  1.00  0.00    -0.507 OA
ATOM     25  H   UNL     1     121.153  72.480  40.267  1.00  0.00     0.293 HD
ENDBRANCH   6  24
BRANCH   8  26
ATOM     26  O   UNL     1     123.241  71.047  45.337  1.00  0.00    -0.508 OA
ATOM     27  H   UNL     1     123.614  71.529  46.147  1.00  0.00     0.293 HD
ENDBRANCH   8  26
TORSDOF 6
ENDMDL
MODEL 5
REMARK VINA RESULT:    -5.288      1.735      6.995
REMARK INTER + INTRA:          -6.622
REMARK INTER:                  -6.217
REMARK INTRA:                  -0.405
REMARK UNBOUND:                -0.252
REMARK SMILES O=c1c(O)c(-c2ccc(O)cc2O)oc2cc(O)cc(O)c12
REMARK SMILES IDX 5 1 3 2 2 3 1 4 22 5 20 6 19 7 17 8 16 9 15 10 14 11 6 12
REMARK SMILES IDX 8 13 7 14 9 15 11 16 12 17 10 18 13 20 4 22 21 24 18 26
REMARK H PARENT 10 19 13 21 4 23 21 25 18 27
REMARK Flexibility Score: inf
ROOT
ATOM      1  C   UNL     1     118.527  73.451  44.916  1.00  0.00     0.184 A 
ATOM      2  C   UNL     1     118.391  73.806  46.270  1.00  0.00     0.208 A 
ATOM      3  C   UNL     1     117.126  74.184  46.747  1.00  0.00     0.238 A 
ATOM      4  O   UNL     1     116.990  74.494  47.962  1.00  0.00    -0.285 OA
ATOM      5  C   UNL     1     116.029  74.218  45.861  1.00  0.00     0.111 A 
ATOM      6  C   UNL     1     114.723  74.591  46.262  1.00  0.00     0.134 A 
ATOM      7  C   UNL     1     113.685  74.610  45.319  1.00  0.00     0.093 A 
ATOM      8  C   UNL     1     113.927  74.264  43.986  1.00  0.00     0.123 A 
ATOM      9  C   UNL     1     115.214  73.895  43.585  1.00  0.00     0.094 A 
ATOM     10  C   UNL     1     116.262  73.868  44.510  1.00  0.00     0.146 A 
ATOM     11  O   UNL     1     117.475  73.510  44.104  1.00  0.00    -0.451 OA
ENDROOT
BRANCH   1  12
ATOM     12  C   UNL     1     119.826  73.032  44.350  1.00  0.00     0.063 A 
ATOM     13  C   UNL     1     121.599  71.373  44.226  1.00  0.00     0.047 A 
ATOM     14  C   UNL     1     120.369  71.797  44.738  1.00  0.00     0.020 A 
ATOM     15  C   UNL     1     122.307  72.185  43.333  1.00  0.00     0.119 A 
ATOM     16  C   UNL     1     121.783  73.428  42.960  1.00  0.00     0.093 A 
ATOM     17  C   UNL     1     120.553  73.863  43.472  1.00  0.00     0.130 A 
BRANCH  15  18
ATOM     18  O   UNL     1     123.531  71.771  42.813  1.00  0.00    -0.508 OA
ATOM     19  H   UNL     1     123.754  71.881  41.831  1.00  0.00     0.293 HD
ENDBRANCH  15  18
BRANCH  17  20
ATOM     20  O   UNL     1     120.066  75.125  43.131  1.00  0.00    -0.507 OA
ATOM     21  H   UNL     1     120.395  75.965  43.595  1.00  0.00     0.293 HD
ENDBRANCH  17  20
ENDBRANCH   1  12
BRANCH   2  22
ATOM     22  O   UNL     1     119.506  73.804  47.110  1.00  0.00    -0.502 OA
ATOM     23  H   UNL     1     119.541  73.258  47.962  1.00  0.00     0.293 HD
ENDBRANCH   2  22
BRANCH   6  24
ATOM     24  O   UNL     1     114.450  74.942  47.584  1.00  0.00    -0.507 OA
ATOM     25  H   UNL     1     115.176  75.281  48.207  1.00  0.00     0.293 HD
ENDBRANCH   6  24
BRANCH   8  26
ATOM     26  O   UNL     1     112.878  74.292  43.070  1.00  0.00    -0.508 OA
ATOM     27  H   UNL     1     112.551  73.448  42.613  1.00  0.00     0.293 HD
ENDBRANCH   8  26
TORSDOF 6
ENDMDL
MODEL 6
REMARK VINA RESULT:    -5.274      1.597      6.928
REMARK INTER + INTRA:          -6.606
REMARK INTER:                  -6.601
REMARK INTRA:                  -0.004
REMARK UNBOUND:                -0.252
REMARK SMILES O=c1c(O)c(-c2ccc(O)cc2O)oc2cc(O)cc(O)c12
REMARK SMILES IDX 5 1 3 2 2 3 1 4 22 5 20 6 19 7 17 8 16 9 15 10 14 11 6 12
REMARK SMILES IDX 8 13 7 14 9 15 11 16 12 17 10 18 13 20 4 22 21 24 18 26
REMARK H PARENT 10 19 13 21 4 23 21 25 18 27
REMARK Flexibility Score: inf
ROOT
ATOM      1  C   UNL     1     118.246  73.781  44.458  1.00  0.00     0.184 A 
ATOM      2  C   UNL     1     118.809  74.306  45.635  1.00  0.00     0.208 A 
ATOM      3  C   UNL     1     117.966  74.590  46.721  1.00  0.00     0.238 A 
ATOM      4  O   UNL     1     118.461  75.051  47.785  1.00  0.00    -0.285 OA
ATOM      5  C   UNL     1     116.579  74.361  46.604  1.00  0.00     0.111 A 
ATOM      6  C   UNL     1     115.661  74.623  47.650  1.00  0.00     0.134 A 
ATOM      7  C   UNL     1     114.295  74.377  47.454  1.00  0.00     0.093 A 
ATOM      8  C   UNL     1     113.828  73.877  46.235  1.00  0.00     0.123 A 
ATOM      9  C   UNL     1     114.730  73.616  45.199  1.00  0.00     0.094 A 
ATOM     10  C   UNL     1     116.096  73.852  45.375  1.00  0.00     0.146 A 
ATOM     11  O   UNL     1     116.932  73.592  44.376  1.00  0.00    -0.451 OA
ENDROOT
BRANCH   1  12
ATOM     12  C   UNL     1     119.077  73.450  43.282  1.00  0.00     0.063 A 
ATOM     13  C   UNL     1     121.161  72.568  42.394  1.00  0.00     0.047 A 
ATOM     14  C   UNL     1     120.347  72.888  43.484  1.00  0.00     0.020 A 
ATOM     15  C   UNL     1     120.721  72.819  41.090  1.00  0.00     0.119 A 
ATOM     16  C   UNL     1     119.465  73.400  40.880  1.00  0.00     0.093 A 
ATOM     17  C   UNL     1     118.645  73.728  41.969  1.00  0.00     0.130 A 
BRANCH  15  18
ATOM     18  O   UNL     1     121.521  72.500  39.995  1.00  0.00    -0.508 OA
ATOM     19  H   UNL     1     121.787  71.543  39.794  1.00  0.00     0.293 HD
ENDBRANCH  15  18
BRANCH  17  20
ATOM     20  O   UNL     1     117.416  74.353  41.749  1.00  0.00    -0.507 OA
ATOM     21  H   UNL     1     117.182  75.235  42.189  1.00  0.00     0.293 HD
ENDBRANCH  17  20
ENDBRANCH   1  12
BRANCH   2  22
ATOM     22  O   UNL     1     120.180  74.564  45.703  1.00  0.00    -0.502 OA
ATOM     23  H   UNL     1     120.796  74.054  46.324  1.00  0.00     0.293 HD
ENDBRANCH   2  22
BRANCH   6  24
ATOM     24  O   UNL     1     116.096  75.123  48.878  1.00  0.00    -0.507 OA
ATOM     25  H   UNL     1     115.965  76.096  49.134  1.00  0.00     0.293 HD
ENDBRANCH   6  24
BRANCH   8  26
ATOM     26  O   UNL     1     112.465  73.643  46.066  1.00  0.00    -0.508 OA
ATOM     27  H   UNL     1     112.005  72.853  46.504  1.00  0.00     0.293 HD
ENDBRANCH   8  26
TORSDOF 6
ENDMDL
MODEL 7
REMARK VINA RESULT:    -5.260      2.327      3.519
REMARK INTER + INTRA:          -6.589
REMARK INTER:                  -6.183
REMARK INTRA:                  -0.405
REMARK UNBOUND:                -0.252
REMARK SMILES O=c1c(O)c(-c2ccc(O)cc2O)oc2cc(O)cc(O)c12
REMARK SMILES IDX 5 1 3 2 2 3 1 4 22 5 20 6 19 7 17 8 16 9 15 10 14 11 6 12
REMARK SMILES IDX 8 13 7 14 9 15 11 16 12 17 10 18 13 20 4 22 21 24 18 26
REMARK H PARENT 10 19 13 21 4 23 21 25 18 27
REMARK Flexibility Score: inf
ROOT
ATOM      1  C   UNL     1     118.418  73.688  45.069  1.00  0.00     0.184 A 
ATOM      2  C   UNL     1     118.869  74.349  46.227  1.00  0.00     0.208 A 
ATOM      3  C   UNL     1     120.207  74.190  46.619  1.00  0.00     0.238 A 
ATOM      4  O   UNL     1     120.626  74.786  47.649  1.00  0.00    -0.285 OA
ATOM      5  C   UNL     1     121.062  73.363  45.861  1.00  0.00     0.111 A 
ATOM      6  C   UNL     1     122.422  73.148  46.190  1.00  0.00     0.134 A 
ATOM      7  C   UNL     1     123.206  72.303  45.391  1.00  0.00     0.093 A 
ATOM      8  C   UNL     1     122.658  71.669  44.273  1.00  0.00     0.123 A 
ATOM      9  C   UNL     1     121.315  71.878  43.943  1.00  0.00     0.094 A 
ATOM     10  C   UNL     1     120.518  72.718  44.725  1.00  0.00     0.146 A 
ATOM     11  O   UNL     1     119.246  72.903  44.387  1.00  0.00    -0.451 OA
ENDROOT
BRANCH   1  12
ATOM     12  C   UNL     1     117.026  73.820  44.594  1.00  0.00     0.063 A 
ATOM     13  C   UNL     1     115.407  74.990  43.207  1.00  0.00     0.047 A 
ATOM     14  C   UNL     1     116.715  74.834  43.674  1.00  0.00     0.020 A 
ATOM     15  C   UNL     1     114.391  74.145  43.667  1.00  0.00     0.119 A 
ATOM     16  C   UNL     1     114.687  73.147  44.602  1.00  0.00     0.093 A 
ATOM     17  C   UNL     1     115.997  72.987  45.078  1.00  0.00     0.130 A 
BRANCH  15  18
ATOM     18  O   UNL     1     113.085  74.288  43.207  1.00  0.00    -0.508 OA
ATOM     19  H   UNL     1     112.856  74.928  42.454  1.00  0.00     0.293 HD
ENDBRANCH  15  18
BRANCH  17  20
ATOM     20  O   UNL     1     116.269  72.021  46.048  1.00  0.00    -0.507 OA
ATOM     21  H   UNL     1     116.182  71.030  45.849  1.00  0.00     0.293 HD
ENDBRANCH  17  20
ENDBRANCH   1  12
BRANCH   2  22
ATOM     22  O   UNL     1     117.986  75.125  46.980  1.00  0.00    -0.502 OA
ATOM     23  H   UNL     1     117.320  75.756  46.552  1.00  0.00     0.293 HD
ENDBRANCH   2  22
BRANCH   6  24
ATOM     24  O   UNL     1     122.999  73.765  47.300  1.00  0.00    -0.507 OA
ATOM     25  H   UNL     1     123.977  74.034  47.314  1.00  0.00     0.293 HD
ENDBRANCH   6  24
BRANCH   8  26
ATOM     26  O   UNL     1     123.458  70.834  43.497  1.00  0.00    -0.508 OA
ATOM     27  H   UNL     1     123.062  70.076  42.953  1.00  0.00     0.293 HD
ENDBRANCH   8  26
TORSDOF 6
ENDMDL
MODEL 8
REMARK VINA RESULT:    -5.209      2.035      6.201
REMARK INTER + INTRA:          -6.527
REMARK INTER:                  -6.113
REMARK INTRA:                  -0.414
REMARK UNBOUND:                -0.252
REMARK SMILES O=c1c(O)c(-c2ccc(O)cc2O)oc2cc(O)cc(O)c12
REMARK SMILES IDX 5 1 3 2 2 3 1 4 22 5 20 6 19 7 17 8 16 9 15 10 14 11 6 12
REMARK SMILES IDX 8 13 7 14 9 15 11 16 12 17 10 18 13 20 4 22 21 24 18 26
REMARK H PARENT 10 19 13 21 4 23 21 25 18 27
REMARK Flexibility Score: inf
ROOT
ATOM      1  C   UNL     1     120.305  72.048  44.445  1.00  0.00     0.184 A 
ATOM      2  C   UNL     1     120.413  72.236  43.055  1.00  0.00     0.208 A 
ATOM      3  C   UNL     1     119.443  73.007  42.398  1.00  0.00     0.238 A 
ATOM      4  O   UNL     1     119.536  73.192  41.154  1.00  0.00    -0.285 OA
ATOM      5  C   UNL     1     118.375  73.559  43.136  1.00  0.00     0.111 A 
ATOM      6  C   UNL     1     117.354  74.345  42.550  1.00  0.00     0.134 A 
ATOM      7  C   UNL     1     116.319  74.852  43.350  1.00  0.00     0.093 A 
ATOM      8  C   UNL     1     116.285  74.587  44.722  1.00  0.00     0.123 A 
ATOM      9  C   UNL     1     117.290  73.811  45.307  1.00  0.00     0.094 A 
ATOM     10  C   UNL     1     118.331  73.299  44.527  1.00  0.00     0.146 A 
ATOM     11  O   UNL     1     119.277  72.568  45.108  1.00  0.00    -0.451 OA
ENDROOT
BRANCH   1  12
ATOM     12  C   UNL     1     121.298  71.257  45.200  1.00  0.00     0.063 A 
ATOM     13  C   UNL     1     121.940  69.131  46.192  1.00  0.00     0.047 A 
ATOM     14  C   UNL     1     121.025  69.907  45.475  1.00  0.00     0.020 A 
ATOM     15  C   UNL     1     123.132  69.699  46.655  1.00  0.00     0.119 A 
ATOM     16  C   UNL     1     123.402  71.048  46.405  1.00  0.00     0.093 A 
ATOM     17  C   UNL     1     122.486  71.835  45.691  1.00  0.00     0.130 A 
BRANCH  15  18
ATOM     18  O   UNL     1     124.053  68.934  47.367  1.00  0.00    -0.508 OA
ATOM     19  H   UNL     1     124.972  69.293  47.599  1.00  0.00     0.293 HD
ENDBRANCH  15  18
BRANCH  17  20
ATOM     20  O   UNL     1     122.744  73.192  45.492  1.00  0.00    -0.507 OA
ATOM     21  H   UNL     1     122.086  73.906  45.782  1.00  0.00     0.293 HD
ENDBRANCH  17  20
ENDBRANCH   1  12
BRANCH   2  22
ATOM     22  O   UNL     1     121.458  71.639  42.346  1.00  0.00    -0.502 OA
ATOM     23  H   UNL     1     121.679  70.654  42.434  1.00  0.00     0.293 HD
ENDBRANCH   2  22
BRANCH   6  24
ATOM     24  O   UNL     1     117.360  74.627  41.183  1.00  0.00    -0.507 OA
ATOM     25  H   UNL     1     118.175  74.452  40.606  1.00  0.00     0.293 HD
ENDBRANCH   6  24
BRANCH   8  26
ATOM     26  O   UNL     1     115.245  75.101  45.494  1.00  0.00    -0.508 OA
ATOM     27  H   UNL     1     115.269  75.064  46.507  1.00  0.00     0.293 HD
ENDBRANCH   8  26
TORSDOF 6
ENDMDL
MODEL 9
REMARK VINA RESULT:    -5.161      3.077      6.600
REMARK INTER + INTRA:          -6.468
REMARK INTER:                  -6.124
REMARK INTRA:                  -0.344
REMARK UNBOUND:                -0.252
REMARK SMILES O=c1c(O)c(-c2ccc(O)cc2O)oc2cc(O)cc(O)c12
REMARK SMILES IDX 5 1 3 2 2 3 1 4 22 5 20 6 19 7 17 8 16 9 15 10 14 11 6 12
REMARK SMILES IDX 8 13 7 14 9 15 11 16 12 17 10 18 13 20 4 22 21 24 18 26
REMARK H PARENT 10 19 13 21 4 23 21 25 18 27
REMARK Flexibility Score: inf
ROOT
ATOM      1  C   UNL     1     121.165  70.715  45.568  1.00  0.00     0.184 A 
ATOM      2  C   UNL     1     120.053  71.380  46.114  1.00  0.00     0.208 A 
ATOM      3  C   UNL     1     119.368  72.316  45.324  1.00  0.00     0.238 A 
ATOM      4  O   UNL     1     118.362  72.910  45.799  1.00  0.00    -0.285 OA
ATOM      5  C   UNL     1     119.817  72.582  44.014  1.00  0.00     0.111 A 
ATOM      6  C   UNL     1     119.185  73.513  43.153  1.00  0.00     0.134 A 
ATOM      7  C   UNL     1     119.698  73.730  41.866  1.00  0.00     0.093 A 
ATOM      8  C   UNL     1     120.829  73.037  41.423  1.00  0.00     0.123 A 
ATOM      9  C   UNL     1     121.457  72.117  42.268  1.00  0.00     0.094 A 
ATOM     10  C   UNL     1     120.959  71.885  43.554  1.00  0.00     0.146 A 
ATOM     11  O   UNL     1     121.573  71.002  44.335  1.00  0.00    -0.451 OA
ENDROOT
BRANCH   1  12
ATOM     12  C   UNL     1     121.925  69.711  46.341  1.00  0.00     0.063 A 
ATOM     13  C   UNL     1     121.951  67.589  47.528  1.00  0.00     0.047 A 
ATOM     14  C   UNL     1     121.264  68.557  46.790  1.00  0.00     0.020 A 
ATOM     15  C   UNL     1     123.303  67.771  47.839  1.00  0.00     0.119 A 
ATOM     16  C   UNL     1     123.963  68.929  47.417  1.00  0.00     0.093 A 
ATOM     17  C   UNL     1     123.280  69.907  46.680  1.00  0.00     0.130 A 
BRANCH  15  18
ATOM     18  O   UNL     1     123.999  66.812  48.571  1.00  0.00    -0.508 OA
ATOM     19  H   UNL     1     123.544  65.972  48.911  1.00  0.00     0.293 HD
ENDBRANCH  15  18
BRANCH  17  20
ATOM     20  O   UNL     1     123.936  71.081  46.307  1.00  0.00    -0.507 OA
ATOM     21  H   UNL     1     123.961  71.392  45.342  1.00  0.00     0.293 HD
ENDBRANCH  17  20
ENDBRANCH   1  12
BRANCH   2  22
ATOM     22  O   UNL     1     119.660  71.126  47.431  1.00  0.00    -0.502 OA
ATOM     23  H   UNL     1     118.746  70.758  47.661  1.00  0.00     0.293 HD
ENDBRANCH   2  22
BRANCH   6  24
ATOM     24  O   UNL     1     118.056  74.221  43.566  1.00  0.00    -0.507 OA
ATOM     25  H   UNL     1     117.368  73.811  44.188  1.00  0.00     0.293 HD
ENDBRANCH   6  24
BRANCH   8  26
ATOM     26  O   UNL     1     121.318  73.272  40.141  1.00  0.00    -0.508 OA
ATOM     27  H   UNL     1     121.249  74.186  39.706  1.00  0.00     0.293 HD
ENDBRANCH   8  26
TORSDOF 6
ENDMDL
