MODEL 1
REMARK VINA RESULT:    -6.080      0.000      0.000
REMARK INTER + INTRA:         -14.338
REMARK INTER:                 -11.767
REMARK INTRA:                  -2.572
REMARK UNBOUND:                -2.572
REMARK SMILES CCCCCCCCCCCCCCCCCC(=O)[O-]
REMARK SMILES IDX 10 1 11 2 12 3 13 4 14 5 15 6 16 7 17 8 18 9 19 10 20 11
REMARK SMILES IDX 9 12 8 13 7 14 6 15 5 16 4 17 3 18 2 19 1 20
REMARK H PARENT
REMARK Flexibility Score: inf
ROOT
ATOM      1  C   UNL     1      13.952   1.879  14.607  1.00  0.00     0.000 C 
ENDROOT
BRANCH   1   2
ATOM      2  C   UNL     1      12.906   2.596  15.479  1.00  0.00     0.000 C 
BRANCH   2   3
ATOM      3  C   UNL     1      13.468   3.660  16.440  1.00  0.00     0.000 C 
BRANCH   3   4
ATOM      4  C   UNL     1      12.968   3.489  17.885  1.00  0.00     0.000 C 
BRANCH   4   5
ATOM      5  C   UNL     1      13.984   2.770  18.791  1.00  0.00     0.000 C 
BRANCH   5   6
ATOM      6  C   UNL     1      13.918   1.233  18.762  1.00  0.00     0.000 C 
BRANCH   6   7
ATOM      7  C   UNL     1      15.048   0.597  17.938  1.00  0.00     0.006 C 
BRANCH   7   8
ATOM      8  C   UNL     1      16.260   1.531  17.857  1.00  0.00     0.053 C 
BRANCH   8   9
ATOM      9  C   UNL     1      17.482   0.851  18.386  1.00  0.00     0.041 C 
ATOM     10  O   UNL     1      18.579   0.955  17.776  1.00  0.00    -0.550 OA
ATOM     11  O   UNL     1      17.401   0.059  19.525  1.00  0.00    -0.550 OA
ENDBRANCH   8   9
ENDBRANCH   7   8
ENDBRANCH   6   7
ENDBRANCH   5   6
ENDBRANCH   4   5
ENDBRANCH   3   4
ENDBRANCH   2   3
ENDBRANCH   1   2
BRANCH   1  12
ATOM     12  C   UNL     1      15.267   2.661  14.479  1.00  0.00     0.000 C 
BRANCH  12  13
ATOM     13  C   UNL     1      15.517   3.086  13.028  1.00  0.00    -0.000 C 
BRANCH  13  14
ATOM     14  C   UNL     1      15.518   1.870  12.090  1.00  0.00    -0.000 C 
BRANCH  14  15
ATOM     15  C   UNL     1      16.650   1.920  11.049  1.00  0.00    -0.000 C 
BRANCH  15  16
ATOM     16  C   UNL     1      17.827   0.963  11.321  1.00  0.00    -0.000 C 
BRANCH  16  17
ATOM     17  C   UNL     1      17.512  -0.210  12.271  1.00  0.00    -0.000 C 
BRANCH  17  18
ATOM     18  C   UNL     1      18.525  -0.410  13.412  1.00  0.00    -0.000 C 
BRANCH  18  19
ATOM     19  C   UNL     1      17.894  -0.256  14.803  1.00  0.00    -0.003 C 
ATOM     20  C   UNL     1      16.474  -0.815  14.826  1.00  0.00     0.004 C 
ENDBRANCH  18  19
ENDBRANCH  17  18
ENDBRANCH  16  17
ENDBRANCH  15  16
ENDBRANCH  14  15
ENDBRANCH  13  14
ENDBRANCH  12  13
ENDBRANCH   1  12
TORSDOF 16
ENDMDL
MODEL 2
REMARK VINA RESULT:    -6.012      1.937      4.096
REMARK INTER + INTRA:         -14.208
REMARK INTER:                 -11.851
REMARK INTRA:                  -2.357
REMARK UNBOUND:                -2.572
REMARK SMILES CCCCCCCCCCCCCCCCCC(=O)[O-]
REMARK SMILES IDX 10 1 11 2 12 3 13 4 14 5 15 6 16 7 17 8 18 9 19 10 20 11
REMARK SMILES IDX 9 12 8 13 7 14 6 15 5 16 4 17 3 18 2 19 1 20
REMARK H PARENT
REMARK Flexibility Score: inf
ROOT
ATOM      1  C   UNL     1      16.480  -1.843  16.644  1.00  0.00     0.000 C 
ENDROOT
BRANCH   1   2
ATOM      2  C   UNL     1      17.415  -1.647  17.852  1.00  0.00     0.000 C 
BRANCH   2   3
ATOM      3  C   UNL     1      16.708  -1.413  19.199  1.00  0.00     0.000 C 
BRANCH   3   4
ATOM      4  C   UNL     1      16.616   0.075  19.579  1.00  0.00     0.000 C 
BRANCH   4   5
ATOM      5  C   UNL     1      15.200   0.500  20.008  1.00  0.00     0.000 C 
BRANCH   5   6
ATOM      6  C   UNL     1      14.064   0.024  19.084  1.00  0.00     0.000 C 
BRANCH   6   7
ATOM      7  C   UNL     1      13.985   0.817  17.770  1.00  0.00     0.006 C 
BRANCH   7   8
ATOM      8  C   UNL     1      13.581   2.271  18.031  1.00  0.00     0.053 C 
BRANCH   8   9
ATOM      9  C   UNL     1      14.664   3.203  17.590  1.00  0.00     0.041 C 
ATOM     10  O   UNL     1      14.488   4.449  17.642  1.00  0.00    -0.550 OA
ATOM     11  O   UNL     1      15.851   2.698  17.073  1.00  0.00    -0.550 OA
ENDBRANCH   8   9
ENDBRANCH   7   8
ENDBRANCH   6   7
ENDBRANCH   5   6
ENDBRANCH   4   5
ENDBRANCH   3   4
ENDBRANCH   2   3
ENDBRANCH   1   2
BRANCH   1  12
ATOM     12  C   UNL     1      16.623  -0.739  15.586  1.00  0.00     0.000 C 
BRANCH  12  13
ATOM     13  C   UNL     1      18.076  -0.261  15.483  1.00  0.00    -0.000 C 
BRANCH  13  14
ATOM     14  C   UNL     1      18.633  -0.496  14.071  1.00  0.00    -0.000 C 
BRANCH  14  15
ATOM     15  C   UNL     1      17.545  -0.447  12.983  1.00  0.00    -0.000 C 
BRANCH  15  16
ATOM     16  C   UNL     1      17.569   0.813  12.096  1.00  0.00    -0.000 C 
BRANCH  16  17
ATOM     17  C   UNL     1      16.200   1.244  11.532  1.00  0.00    -0.000 C 
BRANCH  17  18
ATOM     18  C   UNL     1      15.695   2.610  12.029  1.00  0.00    -0.000 C 
BRANCH  18  19
ATOM     19  C   UNL     1      15.460   2.642  13.546  1.00  0.00    -0.003 C 
ATOM     20  C   UNL     1      14.447   1.582  13.967  1.00  0.00     0.004 C 
ENDBRANCH  18  19
ENDBRANCH  17  18
ENDBRANCH  16  17
ENDBRANCH  15  16
ENDBRANCH  14  15
ENDBRANCH  13  14
ENDBRANCH  12  13
ENDBRANCH   1  12
TORSDOF 16
ENDMDL
MODEL 3
REMARK VINA RESULT:    -5.987      2.514      6.711
REMARK INTER + INTRA:         -14.158
REMARK INTER:                 -11.545
REMARK INTRA:                  -2.613
REMARK UNBOUND:                -2.572
REMARK SMILES CCCCCCCCCCCCCCCCCC(=O)[O-]
REMARK SMILES IDX 10 1 11 2 12 3 13 4 14 5 15 6 16 7 17 8 18 9 19 10 20 11
REMARK SMILES IDX 9 12 8 13 7 14 6 15 5 16 4 17 3 18 2 19 1 20
REMARK H PARENT
REMARK Flexibility Score: inf
ROOT
ATOM      1  C   UNL     1      16.888  -2.007  17.233  1.00  0.00     0.000 C 
ENDROOT
BRANCH   1   2
ATOM      2  C   UNL     1      18.059  -1.629  16.307  1.00  0.00     0.000 C 
BRANCH   2   3
ATOM      3  C   UNL     1      17.770  -0.487  15.316  1.00  0.00     0.000 C 
BRANCH   3   4
ATOM      4  C   UNL     1      16.286  -0.083  15.280  1.00  0.00     0.000 C 
BRANCH   4   5
ATOM      5  C   UNL     1      16.079   1.442  15.229  1.00  0.00     0.000 C 
BRANCH   5   6
ATOM      6  C   UNL     1      14.970   1.922  14.276  1.00  0.00     0.000 C 
BRANCH   6   7
ATOM      7  C   UNL     1      15.509   2.716  13.077  1.00  0.00     0.006 C 
BRANCH   7   8
ATOM      8  C   UNL     1      15.549   1.847  11.817  1.00  0.00     0.053 C 
BRANCH   8   9
ATOM      9  C   UNL     1      16.953   1.438  11.506  1.00  0.00     0.041 C 
ATOM     10  O   UNL     1      17.405   0.346  11.939  1.00  0.00    -0.550 OA
ATOM     11  O   UNL     1      17.781   2.286  10.781  1.00  0.00    -0.550 OA
ENDBRANCH   8   9
ENDBRANCH   7   8
ENDBRANCH   6   7
ENDBRANCH   5   6
ENDBRANCH   4   5
ENDBRANCH   3   4
ENDBRANCH   2   3
ENDBRANCH   1   2
BRANCH   1  12
ATOM     12  C   UNL     1      17.199  -1.778  18.720  1.00  0.00     0.000 C 
BRANCH  12  13
ATOM     13  C   UNL     1      17.810  -0.391  18.947  1.00  0.00    -0.000 C 
BRANCH  13  14
ATOM     14  C   UNL     1      16.731   0.700  18.905  1.00  0.00    -0.000 C 
BRANCH  14  15
ATOM     15  C   UNL     1      15.702   0.567  20.043  1.00  0.00    -0.000 C 
BRANCH  15  16
ATOM     16  C   UNL     1      14.232   0.745  19.616  1.00  0.00    -0.000 C 
BRANCH  16  17
ATOM     17  C   UNL     1      13.998   0.836  18.094  1.00  0.00    -0.000 C 
BRANCH  17  18
ATOM     18  C   UNL     1      13.259   2.102  17.626  1.00  0.00    -0.000 C 
BRANCH  18  19
ATOM     19  C   UNL     1      13.699   3.362  18.384  1.00  0.00    -0.003 C 
ATOM     20  C   UNL     1      14.776   4.118  17.613  1.00  0.00     0.004 C 
ENDBRANCH  18  19
ENDBRANCH  17  18
ENDBRANCH  16  17
ENDBRANCH  15  16
ENDBRANCH  14  15
ENDBRANCH  13  14
ENDBRANCH  12  13
ENDBRANCH   1  12
TORSDOF 16
ENDMDL
MODEL 4
REMARK VINA RESULT:    -5.967      1.207      2.721
REMARK INTER + INTRA:         -14.120
REMARK INTER:                 -11.607
REMARK INTRA:                  -2.513
REMARK UNBOUND:                -2.572
REMARK SMILES CCCCCCCCCCCCCCCCCC(=O)[O-]
REMARK SMILES IDX 10 1 11 2 12 3 13 4 14 5 15 6 16 7 17 8 18 9 19 10 20 11
REMARK SMILES IDX 9 12 8 13 7 14 6 15 5 16 4 17 3 18 2 19 1 20
REMARK H PARENT
REMARK Flexibility Score: inf
ROOT
ATOM      1  C   UNL     1      16.295   1.694  16.223  1.00  0.00     0.000 C 
ENDROOT
BRANCH   1   2
ATOM      2  C   UNL     1      15.487   2.993  16.398  1.00  0.00     0.000 C 
BRANCH   2   3
ATOM      3  C   UNL     1      13.987   2.800  16.687  1.00  0.00     0.000 C 
BRANCH   3   4
ATOM      4  C   UNL     1      13.590   3.224  18.111  1.00  0.00     0.000 C 
BRANCH   4   5
ATOM      5  C   UNL     1      14.060   2.228  19.187  1.00  0.00     0.000 C 
BRANCH   5   6
ATOM      6  C   UNL     1      13.740   0.750  18.899  1.00  0.00     0.000 C 
BRANCH   6   7
ATOM      7  C   UNL     1      14.644  -0.223  19.670  1.00  0.00     0.006 C 
BRANCH   7   8
ATOM      8  C   UNL     1      16.036   0.376  19.887  1.00  0.00     0.053 C 
BRANCH   8   9
ATOM      9  C   UNL     1      17.078  -0.464  19.220  1.00  0.00     0.041 C 
ATOM     10  O   UNL     1      18.047   0.080  18.627  1.00  0.00    -0.550 OA
ATOM     11  O   UNL     1      16.955  -1.848  19.209  1.00  0.00    -0.550 OA
ENDBRANCH   8   9
ENDBRANCH   7   8
ENDBRANCH   6   7
ENDBRANCH   5   6
ENDBRANCH   4   5
ENDBRANCH   3   4
ENDBRANCH   2   3
ENDBRANCH   1   2
BRANCH   1  12
ATOM     12  C   UNL     1      15.437   0.509  15.758  1.00  0.00     0.000 C 
BRANCH  12  13
ATOM     13  C   UNL     1      16.242  -0.436  14.861  1.00  0.00    -0.000 C 
BRANCH  13  14
ATOM     14  C   UNL     1      17.751  -0.245  15.074  1.00  0.00    -0.000 C 
BRANCH  14  15
ATOM     15  C   UNL     1      18.554  -0.324  13.763  1.00  0.00    -0.000 C 
BRANCH  15  16
ATOM     16  C   UNL     1      17.714  -0.205  12.477  1.00  0.00    -0.000 C 
BRANCH  16  17
ATOM     17  C   UNL     1      17.981   1.057  11.632  1.00  0.00    -0.000 C 
BRANCH  17  18
ATOM     18  C   UNL     1      16.726   1.709  11.025  1.00  0.00    -0.000 C 
BRANCH  18  19
ATOM     19  C   UNL     1      15.526   1.697  11.983  1.00  0.00    -0.003 C 
ATOM     20  C   UNL     1      15.465   2.983  12.801  1.00  0.00     0.004 C 
ENDBRANCH  18  19
ENDBRANCH  17  18
ENDBRANCH  16  17
ENDBRANCH  15  16
ENDBRANCH  14  15
ENDBRANCH  13  14
ENDBRANCH  12  13
ENDBRANCH   1  12
TORSDOF 16
ENDMDL
MODEL 5
REMARK VINA RESULT:    -5.941      1.315      5.558
REMARK INTER + INTRA:         -14.069
REMARK INTER:                 -11.672
REMARK INTRA:                  -2.398
REMARK UNBOUND:                -2.572
REMARK SMILES CCCCCCCCCCCCCCCCCC(=O)[O-]
REMARK SMILES IDX 10 1 11 2 12 3 13 4 14 5 15 6 16 7 17 8 18 9 19 10 20 11
REMARK SMILES IDX 9 12 8 13 7 14 6 15 5 16 4 17 3 18 2 19 1 20
REMARK H PARENT
REMARK Flexibility Score: inf
ROOT
ATOM      1  C   UNL     1      15.433   2.557  14.708  1.00  0.00     0.000 C 
ENDROOT
BRANCH   1   2
ATOM      2  C   UNL     1      15.484   2.981  13.228  1.00  0.00     0.000 C 
BRANCH   2   3
ATOM      3  C   UNL     1      15.521   1.824  12.213  1.00  0.00     0.000 C 
BRANCH   3   4
ATOM      4  C   UNL     1      16.708   1.918  11.239  1.00  0.00     0.000 C 
BRANCH   4   5
ATOM      5  C   UNL     1      17.786   0.849  11.500  1.00  0.00     0.000 C 
BRANCH   5   6
ATOM      6  C   UNL     1      17.448  -0.167  12.606  1.00  0.00     0.000 C 
BRANCH   6   7
ATOM      7  C   UNL     1      18.568  -0.318  13.647  1.00  0.00     0.006 C 
BRANCH   7   8
ATOM      8  C   UNL     1      17.995  -0.360  15.066  1.00  0.00     0.053 C 
BRANCH   8   9
ATOM      9  C   UNL     1      18.757  -1.331  15.911  1.00  0.00     0.041 C 
ATOM     10  O   UNL     1      20.015  -1.291  15.945  1.00  0.00    -0.550 OA
ATOM     11  O   UNL     1      18.081  -2.315  16.622  1.00  0.00    -0.550 OA
ENDBRANCH   8   9
ENDBRANCH   7   8
ENDBRANCH   6   7
ENDBRANCH   5   6
ENDBRANCH   4   5
ENDBRANCH   3   4
ENDBRANCH   2   3
ENDBRANCH   1   2
BRANCH   1  12
ATOM     12  C   UNL     1      14.216   1.682  15.041  1.00  0.00     0.000 C 
BRANCH  12  13
ATOM     13  C   UNL     1      13.000   2.542  15.401  1.00  0.00    -0.000 C 
BRANCH  13  14
ATOM     14  C   UNL     1      13.374   3.622  16.427  1.00  0.00    -0.000 C 
BRANCH  14  15
ATOM     15  C   UNL     1      12.966   3.248  17.863  1.00  0.00    -0.000 C 
BRANCH  15  16
ATOM     16  C   UNL     1      14.104   3.311  18.901  1.00  0.00    -0.000 C 
BRANCH  16  17
ATOM     17  C   UNL     1      14.699   1.947  19.306  1.00  0.00    -0.000 C 
BRANCH  17  18
ATOM     18  C   UNL     1      15.782   1.405  18.357  1.00  0.00    -0.000 C 
BRANCH  18  19
ATOM     19  C   UNL     1      15.557  -0.066  17.976  1.00  0.00    -0.003 C 
ATOM     20  C   UNL     1      14.123  -0.495  18.269  1.00  0.00     0.004 C 
ENDBRANCH  18  19
ENDBRANCH  17  18
ENDBRANCH  16  17
ENDBRANCH  15  16
ENDBRANCH  14  15
ENDBRANCH  13  14
ENDBRANCH  12  13
ENDBRANCH   1  12
TORSDOF 16
ENDMDL
MODEL 6
REMARK VINA RESULT:    -5.923      2.491      5.576
REMARK INTER + INTRA:         -14.035
REMARK INTER:                 -11.849
REMARK INTRA:                  -2.186
REMARK UNBOUND:                -2.572
REMARK SMILES CCCCCCCCCCCCCCCCCC(=O)[O-]
REMARK SMILES IDX 10 1 11 2 12 3 13 4 14 5 15 6 16 7 17 8 18 9 19 10 20 11
REMARK SMILES IDX 9 12 8 13 7 14 6 15 5 16 4 17 3 18 2 19 1 20
REMARK H PARENT
REMARK Flexibility Score: inf
ROOT
ATOM      1  C   UNL     1      13.654   1.776  18.534  1.00  0.00     0.000 C 
ENDROOT
BRANCH   1   2
ATOM      2  C   UNL     1      13.282   3.179  18.021  1.00  0.00     0.000 C 
BRANCH   2   3
ATOM      3  C   UNL     1      13.269   3.337  16.489  1.00  0.00     0.000 C 
BRANCH   3   4
ATOM      4  C   UNL     1      13.900   2.140  15.757  1.00  0.00     0.000 C 
BRANCH   4   5
ATOM      5  C   UNL     1      15.291   2.457  15.175  1.00  0.00     0.000 C 
BRANCH   5   6
ATOM      6  C   UNL     1      15.312   2.794  13.673  1.00  0.00     0.000 C 
BRANCH   6   7
ATOM      7  C   UNL     1      15.407   1.550  12.778  1.00  0.00     0.006 C 
BRANCH   7   8
ATOM      8  C   UNL     1      16.125   1.873  11.464  1.00  0.00     0.053 C 
BRANCH   8   9
ATOM      9  C   UNL     1      17.296   0.964  11.269  1.00  0.00     0.041 C 
ATOM     10  O   UNL     1      17.804   0.364  12.253  1.00  0.00    -0.550 OA
ATOM     11  O   UNL     1      17.861   0.816  10.008  1.00  0.00    -0.550 OA
ENDBRANCH   8   9
ENDBRANCH   7   8
ENDBRANCH   6   7
ENDBRANCH   5   6
ENDBRANCH   4   5
ENDBRANCH   3   4
ENDBRANCH   2   3
ENDBRANCH   1   2
BRANCH   1  12
ATOM     12  C   UNL     1      14.884   1.778  19.454  1.00  0.00     0.000 C 
BRANCH  12  13
ATOM     13  C   UNL     1      16.093   1.145  18.758  1.00  0.00    -0.000 C 
BRANCH  13  14
ATOM     14  C   UNL     1      16.780   0.119  19.671  1.00  0.00    -0.000 C 
BRANCH  14  15
ATOM     15  C   UNL     1      16.466  -1.336  19.276  1.00  0.00    -0.000 C 
BRANCH  15  16
ATOM     16  C   UNL     1      15.515  -1.493  18.074  1.00  0.00    -0.000 C 
BRANCH  16  17
ATOM     17  C   UNL     1      16.170  -2.031  16.785  1.00  0.00    -0.000 C 
BRANCH  17  18
ATOM     18  C   UNL     1      16.597  -0.952  15.775  1.00  0.00    -0.000 C 
BRANCH  18  19
ATOM     19  C   UNL     1      18.121  -0.855  15.616  1.00  0.00    -0.003 C 
ATOM     20  C   UNL     1      18.668   0.388  16.311  1.00  0.00     0.004 C 
ENDBRANCH  18  19
ENDBRANCH  17  18
ENDBRANCH  16  17
ENDBRANCH  15  16
ENDBRANCH  14  15
ENDBRANCH  13  14
ENDBRANCH  12  13
ENDBRANCH   1  12
TORSDOF 16
ENDMDL
MODEL 7
REMARK VINA RESULT:    -5.902      1.656      4.626
REMARK INTER + INTRA:         -13.994
REMARK INTER:                 -12.095
REMARK INTRA:                  -1.899
REMARK UNBOUND:                -2.572
REMARK SMILES CCCCCCCCCCCCCCCCCC(=O)[O-]
REMARK SMILES IDX 10 1 11 2 12 3 13 4 14 5 15 6 16 7 17 8 18 9 19 10 20 11
REMARK SMILES IDX 9 12 8 13 7 14 6 15 5 16 4 17 3 18 2 19 1 20
REMARK H PARENT
REMARK Flexibility Score: inf
ROOT
ATOM      1  C   UNL     1      14.747   2.013  20.022  1.00  0.00     0.000 C 
ENDROOT
BRANCH   1   2
ATOM      2  C   UNL     1      15.272   0.653  20.518  1.00  0.00     0.000 C 
BRANCH   2   3
ATOM      3  C   UNL     1      15.363  -0.448  19.445  1.00  0.00     0.000 C 
BRANCH   3   4
ATOM      4  C   UNL     1      16.810  -0.863  19.131  1.00  0.00     0.000 C 
BRANCH   4   5
ATOM      5  C   UNL     1      17.734   0.339  18.856  1.00  0.00     0.000 C 
BRANCH   5   6
ATOM      6  C   UNL     1      17.690   0.885  17.418  1.00  0.00     0.000 C 
BRANCH   6   7
ATOM      7  C   UNL     1      16.888  -0.008  16.459  1.00  0.00     0.006 C 
BRANCH   7   8
ATOM      8  C   UNL     1      17.745  -0.440  15.266  1.00  0.00     0.053 C 
BRANCH   8   9
ATOM      9  C   UNL     1      18.832  -1.367  15.709  1.00  0.00     0.041 C 
ATOM     10  O   UNL     1      20.030  -1.128  15.407  1.00  0.00    -0.550 OA
ATOM     11  O   UNL     1      18.517  -2.523  16.413  1.00  0.00    -0.550 OA
ENDBRANCH   8   9
ENDBRANCH   7   8
ENDBRANCH   6   7
ENDBRANCH   5   6
ENDBRANCH   4   5
ENDBRANCH   3   4
ENDBRANCH   2   3
ENDBRANCH   1   2
BRANCH   1  12
ATOM     12  C   UNL     1      14.037   1.925  18.664  1.00  0.00     0.000 C 
BRANCH  12  13
ATOM     13  C   UNL     1      14.195   3.228  17.874  1.00  0.00    -0.000 C 
BRANCH  13  14
ATOM     14  C   UNL     1      13.108   3.355  16.797  1.00  0.00    -0.000 C 
BRANCH  14  15
ATOM     15  C   UNL     1      13.478   2.637  15.487  1.00  0.00    -0.000 C 
BRANCH  15  16
ATOM     16  C   UNL     1      14.985   2.611  15.162  1.00  0.00    -0.000 C 
BRANCH  16  17
ATOM     17  C   UNL     1      15.341   2.850  13.681  1.00  0.00    -0.000 C 
BRANCH  17  18
ATOM     18  C   UNL     1      15.638   1.576  12.871  1.00  0.00    -0.000 C 
BRANCH  18  19
ATOM     19  C   UNL     1      15.905   1.862  11.387  1.00  0.00    -0.003 C 
ATOM     20  C   UNL     1      17.312   1.426  10.988  1.00  0.00     0.004 C 
ENDBRANCH  18  19
ENDBRANCH  17  18
ENDBRANCH  16  17
ENDBRANCH  15  16
ENDBRANCH  14  15
ENDBRANCH  13  14
ENDBRANCH  12  13
ENDBRANCH   1  12
TORSDOF 16
ENDMDL
MODEL 8
REMARK VINA RESULT:    -5.890      1.839      2.659
REMARK INTER + INTRA:         -13.972
REMARK INTER:                 -11.573
REMARK INTRA:                  -2.398
REMARK UNBOUND:                -2.572
REMARK SMILES CCCCCCCCCCCCCCCCCC(=O)[O-]
REMARK SMILES IDX 10 1 11 2 12 3 13 4 14 5 15 6 16 7 17 8 18 9 19 10 20 11
REMARK SMILES IDX 9 12 8 13 7 14 6 15 5 16 4 17 3 18 2 19 1 20
REMARK H PARENT
REMARK Flexibility Score: inf
ROOT
ATOM      1  C   UNL     1      16.041   2.561  17.012  1.00  0.00     0.000 C 
ENDROOT
BRANCH   1   2
ATOM      2  C   UNL     1      14.651   3.218  17.096  1.00  0.00     0.000 C 
BRANCH   2   3
ATOM      3  C   UNL     1      13.864   2.930  18.388  1.00  0.00     0.000 C 
BRANCH   3   4
ATOM      4  C   UNL     1      14.016   1.478  18.873  1.00  0.00     0.000 C 
BRANCH   4   5
ATOM      5  C   UNL     1      14.757   1.368  20.218  1.00  0.00     0.000 C 
BRANCH   5   6
ATOM      6  C   UNL     1      15.949   0.393  20.233  1.00  0.00     0.000 C 
BRANCH   6   7
ATOM      7  C   UNL     1      15.801  -0.755  19.222  1.00  0.00     0.006 C 
BRANCH   7   8
ATOM      8  C   UNL     1      17.130  -1.040  18.518  1.00  0.00     0.053 C 
BRANCH   8   9
ATOM      9  C   UNL     1      16.917  -1.932  17.337  1.00  0.00     0.041 C 
ATOM     10  O   UNL     1      15.793  -1.977  16.772  1.00  0.00    -0.550 OA
ATOM     11  O   UNL     1      17.945  -2.753  16.890  1.00  0.00    -0.550 OA
ENDBRANCH   8   9
ENDBRANCH   7   8
ENDBRANCH   6   7
ENDBRANCH   5   6
ENDBRANCH   4   5
ENDBRANCH   3   4
ENDBRANCH   2   3
ENDBRANCH   1   2
BRANCH   1  12
ATOM     12  C   UNL     1      16.161   1.553  15.860  1.00  0.00     0.000 C 
BRANCH  12  13
ATOM     13  C   UNL     1      14.780   1.175  15.312  1.00  0.00    -0.000 C 
BRANCH  13  14
ATOM     14  C   UNL     1      14.736   1.317  13.784  1.00  0.00    -0.000 C 
BRANCH  14  15
ATOM     15  C   UNL     1      15.393   2.617  13.285  1.00  0.00    -0.000 C 
BRANCH  15  16
ATOM     16  C   UNL     1      15.940   2.559  11.846  1.00  0.00    -0.000 C 
BRANCH  16  17
ATOM     17  C   UNL     1      16.381   1.161  11.367  1.00  0.00    -0.000 C 
BRANCH  17  18
ATOM     18  C   UNL     1      17.782   0.728  11.834  1.00  0.00    -0.000 C 
BRANCH  18  19
ATOM     19  C   UNL     1      17.756  -0.545  12.692  1.00  0.00    -0.003 C 
ATOM     20  C   UNL     1      18.614  -0.381  13.943  1.00  0.00     0.004 C 
ENDBRANCH  18  19
ENDBRANCH  17  18
ENDBRANCH  16  17
ENDBRANCH  15  16
ENDBRANCH  14  15
ENDBRANCH  13  14
ENDBRANCH  12  13
ENDBRANCH   1  12
TORSDOF 16
ENDMDL
MODEL 9
REMARK VINA RESULT:    -5.881      1.501      3.663
REMARK INTER + INTRA:         -13.954
REMARK INTER:                 -12.066
REMARK INTRA:                  -1.888
REMARK UNBOUND:                -2.572
REMARK SMILES CCCCCCCCCCCCCCCCCC(=O)[O-]
REMARK SMILES IDX 10 1 11 2 12 3 13 4 14 5 15 6 16 7 17 8 18 9 19 10 20 11
REMARK SMILES IDX 9 12 8 13 7 14 6 15 5 16 4 17 3 18 2 19 1 20
REMARK H PARENT
REMARK Flexibility Score: inf
ROOT
ATOM      1  C   UNL     1      14.104   2.964  18.730  1.00  0.00     0.000 C 
ENDROOT
BRANCH   1   2
ATOM      2  C   UNL     1      14.166   1.469  19.094  1.00  0.00     0.000 C 
BRANCH   2   3
ATOM      3  C   UNL     1      14.962   1.135  20.369  1.00  0.00     0.000 C 
BRANCH   3   4
ATOM      4  C   UNL     1      15.571  -0.278  20.343  1.00  0.00     0.000 C 
BRANCH   4   5
ATOM      5  C   UNL     1      16.369  -0.565  19.058  1.00  0.00     0.000 C 
BRANCH   5   6
ATOM      6  C   UNL     1      17.717   0.169  18.944  1.00  0.00     0.000 C 
BRANCH   6   7
ATOM      7  C   UNL     1      17.785   1.120  17.739  1.00  0.00     0.006 C 
BRANCH   7   8
ATOM      8  C   UNL     1      17.649   0.348  16.423  1.00  0.00     0.053 C 
BRANCH   8   9
ATOM      9  C   UNL     1      18.869  -0.480  16.172  1.00  0.00     0.041 C 
ATOM     10  O   UNL     1      19.931   0.064  15.770  1.00  0.00    -0.550 OA
ATOM     11  O   UNL     1      18.820  -1.859  16.331  1.00  0.00    -0.550 OA
ENDBRANCH   8   9
ENDBRANCH   7   8
ENDBRANCH   6   7
ENDBRANCH   5   6
ENDBRANCH   4   5
ENDBRANCH   3   4
ENDBRANCH   2   3
ENDBRANCH   1   2
BRANCH   1  12
ATOM     12  C   UNL     1      13.420   3.227  17.381  1.00  0.00     0.000 C 
BRANCH  12  13
ATOM     13  C   UNL     1      13.806   2.160  16.351  1.00  0.00    -0.000 C 
BRANCH  13  14
ATOM     14  C   UNL     1      14.975   2.636  15.477  1.00  0.00    -0.000 C 
BRANCH  14  15
ATOM     15  C   UNL     1      14.969   2.003  14.074  1.00  0.00    -0.000 C 
BRANCH  15  16
ATOM     16  C   UNL     1      15.529   2.900  12.953  1.00  0.00    -0.000 C 
BRANCH  16  17
ATOM     17  C   UNL     1      15.659   2.222  11.573  1.00  0.00    -0.000 C 
BRANCH  17  18
ATOM     18  C   UNL     1      17.099   1.884  11.150  1.00  0.00    -0.000 C 
BRANCH  18  19
ATOM     19  C   UNL     1      17.415   0.385  11.258  1.00  0.00    -0.003 C 
ATOM     20  C   UNL     1      17.998   0.044  12.626  1.00  0.00     0.004 C 
ENDBRANCH  18  19
ENDBRANCH  17  18
ENDBRANCH  16  17
ENDBRANCH  15  16
ENDBRANCH  14  15
ENDBRANCH  13  14
ENDBRANCH  12  13
ENDBRANCH   1  12
TORSDOF 16
ENDMDL
