MODEL 1
REMARK VINA RESULT:    -3.785      0.000      0.000
REMARK INTER + INTRA:          -7.971
REMARK INTER:                  -6.882
REMARK INTRA:                  -1.088
REMARK UNBOUND:                -1.088
REMARK SMILES CCCCCCCCCCCCCCCC(=O)[O-]
REMARK SMILES IDX 9 1 10 2 11 3 12 4 13 5 14 6 15 7 16 8 17 9 18 10 8 11 7 12
REMARK SMILES IDX 6 13 5 14 4 15 3 16 2 17 1 18
REMARK H PARENT
REMARK Flexibility Score: inf
ROOT
ATOM      1  C   UNL     1      34.927  29.004  16.885  1.00  0.00     0.000 C 
ENDROOT
BRANCH   1   2
ATOM      2  C   UNL     1      36.378  28.720  16.456  1.00  0.00     0.000 C 
BRANCH   2   3
ATOM      3  C   UNL     1      36.562  27.319  15.849  1.00  0.00     0.000 C 
BRANCH   3   4
ATOM      4  C   UNL     1      35.350  26.875  15.012  1.00  0.00     0.000 C 
BRANCH   4   5
ATOM      5  C   UNL     1      35.569  27.066  13.500  1.00  0.00     0.000 C 
BRANCH   5   6
ATOM      6  C   UNL     1      34.258  27.034  12.694  1.00  0.00     0.006 C 
BRANCH   6   7
ATOM      7  C   UNL     1      33.850  28.398  12.111  1.00  0.00     0.053 C 
BRANCH   7   8
ATOM      8  C   UNL     1      32.975  29.186  13.039  1.00  0.00     0.041 C 
ATOM      9  O   UNL     1      32.373  28.612  13.985  1.00  0.00    -0.550 OA
ATOM     10  O   UNL     1      32.851  30.560  12.880  1.00  0.00    -0.550 OA
ENDBRANCH   7   8
ENDBRANCH   6   7
ENDBRANCH   5   6
ENDBRANCH   4   5
ENDBRANCH   3   4
ENDBRANCH   2   3
ENDBRANCH   1   2
BRANCH   1  11
ATOM     11  C   UNL     1      34.691  29.083  18.406  1.00  0.00     0.000 C 
BRANCH  11  12
ATOM     12  C   UNL     1      34.374  27.718  19.037  1.00  0.00    -0.000 C 
BRANCH  12  13
ATOM     13  C   UNL     1      35.602  27.059  19.693  1.00  0.00    -0.000 C 
BRANCH  13  14
ATOM     14  C   UNL     1      36.481  28.001  20.535  1.00  0.00    -0.000 C 
BRANCH  14  15
ATOM     15  C   UNL     1      35.712  28.681  21.678  1.00  0.00    -0.000 C 
BRANCH  15  16
ATOM     16  C   UNL     1      35.882  27.909  22.991  1.00  0.00    -0.000 C 
BRANCH  16  17
ATOM     17  C   UNL     1      35.184  28.633  24.149  1.00  0.00    -0.003 C 
ATOM     18  C   UNL     1      35.710  30.057  24.305  1.00  0.00     0.004 C 
ENDBRANCH  16  17
ENDBRANCH  15  16
ENDBRANCH  14  15
ENDBRANCH  13  14
ENDBRANCH  12  13
ENDBRANCH  11  12
ENDBRANCH   1  11
TORSDOF 14
ENDMDL
MODEL 2
REMARK VINA RESULT:    -3.490      3.972      8.577
REMARK INTER + INTRA:          -7.435
REMARK INTER:                  -6.446
REMARK INTRA:                  -0.990
REMARK UNBOUND:                -1.088
REMARK SMILES CCCCCCCCCCCCCCCC(=O)[O-]
REMARK SMILES IDX 9 1 10 2 11 3 12 4 13 5 14 6 15 7 16 8 17 9 18 10 8 11 7 12
REMARK SMILES IDX 6 13 5 14 4 15 3 16 2 17 1 18
REMARK H PARENT
REMARK Flexibility Score: inf
ROOT
ATOM      1  C   UNL     1      34.727  29.118  17.230  1.00  0.00     0.000 C 
ENDROOT
BRANCH   1   2
ATOM      2  C   UNL     1      34.450  28.724  18.693  1.00  0.00     0.000 C 
BRANCH   2   3
ATOM      3  C   UNL     1      35.694  28.834  19.591  1.00  0.00     0.000 C 
BRANCH   3   4
ATOM      4  C   UNL     1      36.045  27.503  20.278  1.00  0.00     0.000 C 
BRANCH   4   5
ATOM      5  C   UNL     1      36.561  27.694  21.715  1.00  0.00     0.000 C 
BRANCH   5   6
ATOM      6  C   UNL     1      35.771  28.757  22.501  1.00  0.00     0.006 C 
BRANCH   6   7
ATOM      7  C   UNL     1      35.516  28.384  23.972  1.00  0.00     0.053 C 
BRANCH   7   8
ATOM      8  C   UNL     1      34.694  29.409  24.694  1.00  0.00     0.041 C 
ATOM      9  O   UNL     1      33.538  29.124  25.104  1.00  0.00    -0.550 OA
ATOM     10  O   UNL     1      35.220  30.670  24.945  1.00  0.00    -0.550 OA
ENDBRANCH   7   8
ENDBRANCH   6   7
ENDBRANCH   5   6
ENDBRANCH   4   5
ENDBRANCH   3   4
ENDBRANCH   2   3
ENDBRANCH   1   2
BRANCH   1  11
ATOM     11  C   UNL     1      36.157  28.840  16.730  1.00  0.00     0.000 C 
BRANCH  11  12
ATOM     12  C   UNL     1      36.383  27.370  16.342  1.00  0.00    -0.000 C 
BRANCH  12  13
ATOM     13  C   UNL     1      35.402  26.875  15.263  1.00  0.00    -0.000 C 
BRANCH  13  14
ATOM     14  C   UNL     1      35.564  27.527  13.878  1.00  0.00    -0.000 C 
BRANCH  14  15
ATOM     15  C   UNL     1      34.519  27.046  12.861  1.00  0.00    -0.000 C 
BRANCH  15  16
ATOM     16  C   UNL     1      33.993  28.213  12.018  1.00  0.00    -0.000 C 
BRANCH  16  17
ATOM     17  C   UNL     1      33.437  29.329  12.911  1.00  0.00    -0.003 C 
ATOM     18  C   UNL     1      32.313  28.811  13.805  1.00  0.00     0.004 C 
ENDBRANCH  16  17
ENDBRANCH  15  16
ENDBRANCH  14  15
ENDBRANCH  13  14
ENDBRANCH  12  13
ENDBRANCH  11  12
ENDBRANCH   1  11
TORSDOF 14
ENDMDL
MODEL 3
REMARK VINA RESULT:    -3.412      3.802      8.801
REMARK INTER + INTRA:          -7.293
REMARK INTER:                  -6.358
REMARK INTRA:                  -0.935
REMARK UNBOUND:                -1.088
REMARK SMILES CCCCCCCCCCCCCCCC(=O)[O-]
REMARK SMILES IDX 9 1 10 2 11 3 12 4 13 5 14 6 15 7 16 8 17 9 18 10 8 11 7 12
REMARK SMILES IDX 6 13 5 14 4 15 3 16 2 17 1 18
REMARK H PARENT
REMARK Flexibility Score: inf
ROOT
ATOM      1  C   UNL     1      34.794  29.131  18.720  1.00  0.00     0.000 C 
ENDROOT
BRANCH   1   2
ATOM      2  C   UNL     1      34.939  27.971  19.723  1.00  0.00     0.000 C 
BRANCH   2   3
ATOM      3  C   UNL     1      36.060  28.202  20.751  1.00  0.00     0.000 C 
BRANCH   3   4
ATOM      4  C   UNL     1      36.103  27.109  21.832  1.00  0.00     0.000 C 
BRANCH   4   5
ATOM      5  C   UNL     1      36.022  27.680  23.259  1.00  0.00     0.000 C 
BRANCH   5   6
ATOM      6  C   UNL     1      35.215  28.988  23.338  1.00  0.00     0.006 C 
BRANCH   6   7
ATOM      7  C   UNL     1      35.630  29.909  24.498  1.00  0.00     0.053 C 
BRANCH   7   8
ATOM      8  C   UNL     1      36.300  31.165  24.028  1.00  0.00     0.041 C 
ATOM      9  O   UNL     1      36.363  32.173  24.782  1.00  0.00    -0.550 OA
ATOM     10  O   UNL     1      36.885  31.212  22.769  1.00  0.00    -0.550 OA
ENDBRANCH   7   8
ENDBRANCH   6   7
ENDBRANCH   5   6
ENDBRANCH   4   5
ENDBRANCH   3   4
ENDBRANCH   2   3
ENDBRANCH   1   2
BRANCH   1  11
ATOM     11  C   UNL     1      34.863  28.733  17.234  1.00  0.00     0.000 C 
BRANCH  11  12
ATOM     12  C   UNL     1      36.276  28.862  16.642  1.00  0.00    -0.000 C 
BRANCH  12  13
ATOM     13  C   UNL     1      36.599  27.765  15.610  1.00  0.00    -0.000 C 
BRANCH  13  14
ATOM     14  C   UNL     1      35.410  26.875  15.204  1.00  0.00    -0.000 C 
BRANCH  14  15
ATOM     15  C   UNL     1      34.925  27.137  13.770  1.00  0.00    -0.000 C 
BRANCH  15  16
ATOM     16  C   UNL     1      33.756  28.127  13.756  1.00  0.00    -0.000 C 
BRANCH  16  17
ATOM     17  C   UNL     1      33.381  28.516  12.321  1.00  0.00    -0.003 C 
ATOM     18  C   UNL     1      34.083  27.619  11.306  1.00  0.00     0.004 C 
ENDBRANCH  16  17
ENDBRANCH  15  16
ENDBRANCH  14  15
ENDBRANCH  13  14
ENDBRANCH  12  13
ENDBRANCH  11  12
ENDBRANCH   1  11
TORSDOF 14
ENDMDL
MODEL 4
REMARK VINA RESULT:    -3.274      3.773      8.632
REMARK INTER + INTRA:          -7.042
REMARK INTER:                  -6.186
REMARK INTRA:                  -0.855
REMARK UNBOUND:                -1.088
REMARK SMILES CCCCCCCCCCCCCCCC(=O)[O-]
REMARK SMILES IDX 9 1 10 2 11 3 12 4 13 5 14 6 15 7 16 8 17 9 18 10 8 11 7 12
REMARK SMILES IDX 6 13 5 14 4 15 3 16 2 17 1 18
REMARK H PARENT
REMARK Flexibility Score: inf
ROOT
ATOM      1  C   UNL     1      34.836  28.766  17.820  1.00  0.00     0.000 C 
ENDROOT
BRANCH   1   2
ATOM      2  C   UNL     1      35.403  28.125  19.100  1.00  0.00     0.000 C 
BRANCH   2   3
ATOM      3  C   UNL     1      36.251  29.099  19.935  1.00  0.00     0.000 C 
BRANCH   3   4
ATOM      4  C   UNL     1      36.764  28.465  21.239  1.00  0.00     0.000 C 
BRANCH   4   5
ATOM      5  C   UNL     1      35.624  28.011  22.169  1.00  0.00     0.000 C 
BRANCH   5   6
ATOM      6  C   UNL     1      35.318  29.026  23.284  1.00  0.00     0.006 C 
BRANCH   6   7
ATOM      7  C   UNL     1      36.558  29.769  23.812  1.00  0.00     0.053 C 
BRANCH   7   8
ATOM      8  C   UNL     1      36.405  31.259  23.762  1.00  0.00     0.041 C 
ATOM      9  O   UNL     1      35.996  31.890  24.773  1.00  0.00    -0.550 OA
ATOM     10  O   UNL     1      36.745  31.955  22.610  1.00  0.00    -0.550 OA
ENDBRANCH   7   8
ENDBRANCH   6   7
ENDBRANCH   5   6
ENDBRANCH   4   5
ENDBRANCH   3   4
ENDBRANCH   2   3
ENDBRANCH   1   2
BRANCH   1  11
ATOM     11  C   UNL     1      35.809  28.833  16.627  1.00  0.00     0.000 C 
BRANCH  11  12
ATOM     12  C   UNL     1      36.186  27.447  16.080  1.00  0.00    -0.000 C 
BRANCH  12  13
ATOM     13  C   UNL     1      35.133  26.875  15.114  1.00  0.00    -0.000 C 
BRANCH  13  14
ATOM     14  C   UNL     1      35.448  27.053  13.617  1.00  0.00    -0.000 C 
BRANCH  14  15
ATOM     15  C   UNL     1      34.191  27.252  12.757  1.00  0.00    -0.000 C 
BRANCH  15  16
ATOM     16  C   UNL     1      34.173  28.647  12.123  1.00  0.00    -0.000 C 
BRANCH  16  17
ATOM     17  C   UNL     1      33.011  29.485  12.669  1.00  0.00    -0.003 C 
ATOM     18  C   UNL     1      32.598  29.013  14.061  1.00  0.00     0.004 C 
ENDBRANCH  16  17
ENDBRANCH  15  16
ENDBRANCH  14  15
ENDBRANCH  13  14
ENDBRANCH  12  13
ENDBRANCH  11  12
ENDBRANCH   1  11
TORSDOF 14
ENDMDL
MODEL 5
REMARK VINA RESULT:    -3.256      1.251      2.437
REMARK INTER + INTRA:          -7.010
REMARK INTER:                  -5.893
REMARK INTRA:                  -1.117
REMARK UNBOUND:                -1.088
REMARK SMILES CCCCCCCCCCCCCCCC(=O)[O-]
REMARK SMILES IDX 9 1 10 2 11 3 12 4 13 5 14 6 15 7 16 8 17 9 18 10 8 11 7 12
REMARK SMILES IDX 6 13 5 14 4 15 3 16 2 17 1 18
REMARK H PARENT
REMARK Flexibility Score: inf
ROOT
ATOM      1  C   UNL     1      35.819  29.043  19.406  1.00  0.00     0.000 C 
ENDROOT
BRANCH   1   2
ATOM      2  C   UNL     1      34.741  29.023  18.307  1.00  0.00     0.000 C 
BRANCH   2   3
ATOM      3  C   UNL     1      35.329  28.874  16.893  1.00  0.00     0.000 C 
BRANCH   3   4
ATOM      4  C   UNL     1      35.558  27.405  16.502  1.00  0.00     0.000 C 
BRANCH   4   5
ATOM      5  C   UNL     1      36.610  27.242  15.390  1.00  0.00     0.000 C 
BRANCH   5   6
ATOM      6  C   UNL     1      36.039  27.486  13.982  1.00  0.00     0.006 C 
BRANCH   6   7
ATOM      7  C   UNL     1      34.568  27.062  13.822  1.00  0.00     0.053 C 
BRANCH   7   8
ATOM      8  C   UNL     1      33.722  28.132  13.202  1.00  0.00     0.041 C 
ATOM      9  O   UNL     1      32.882  28.761  13.898  1.00  0.00    -0.550 OA
ATOM     10  O   UNL     1      33.885  28.458  11.862  1.00  0.00    -0.550 OA
ENDBRANCH   7   8
ENDBRANCH   6   7
ENDBRANCH   5   6
ENDBRANCH   4   5
ENDBRANCH   3   4
ENDBRANCH   2   3
ENDBRANCH   1   2
BRANCH   1  11
ATOM     11  C   UNL     1      35.366  28.530  20.786  1.00  0.00     0.000 C 
BRANCH  11  12
ATOM     12  C   UNL     1      36.015  27.190  21.172  1.00  0.00    -0.000 C 
BRANCH  12  13
ATOM     13  C   UNL     1      36.024  26.943  22.692  1.00  0.00    -0.000 C 
BRANCH  13  14
ATOM     14  C   UNL     1      36.608  28.087  23.541  1.00  0.00    -0.000 C 
BRANCH  14  15
ATOM     15  C   UNL     1      35.544  28.830  24.363  1.00  0.00    -0.000 C 
BRANCH  15  16
ATOM     16  C   UNL     1      35.862  30.327  24.450  1.00  0.00    -0.000 C 
BRANCH  16  17
ATOM     17  C   UNL     1      37.067  30.685  23.572  1.00  0.00    -0.003 C 
ATOM     18  C   UNL     1      36.710  31.773  22.562  1.00  0.00     0.004 C 
ENDBRANCH  16  17
ENDBRANCH  15  16
ENDBRANCH  14  15
ENDBRANCH  13  14
ENDBRANCH  12  13
ENDBRANCH  11  12
ENDBRANCH   1  11
TORSDOF 14
ENDMDL
MODEL 6
REMARK VINA RESULT:    -3.156      1.015      1.461
REMARK INTER + INTRA:          -6.827
REMARK INTER:                  -6.167
REMARK INTRA:                  -0.660
REMARK UNBOUND:                -1.088
REMARK SMILES CCCCCCCCCCCCCCCC(=O)[O-]
REMARK SMILES IDX 9 1 10 2 11 3 12 4 13 5 14 6 15 7 16 8 17 9 18 10 8 11 7 12
REMARK SMILES IDX 6 13 5 14 4 15 3 16 2 17 1 18
REMARK H PARENT
REMARK Flexibility Score: inf
ROOT
ATOM      1  C   UNL     1      35.704  29.159  18.277  1.00  0.00     0.000 C 
ENDROOT
BRANCH   1   2
ATOM      2  C   UNL     1      35.284  28.724  16.860  1.00  0.00     0.000 C 
BRANCH   2   3
ATOM      3  C   UNL     1      35.763  27.308  16.500  1.00  0.00     0.000 C 
BRANCH   3   4
ATOM      4  C   UNL     1      36.845  27.311  15.407  1.00  0.00     0.000 C 
BRANCH   4   5
ATOM      5  C   UNL     1      36.257  27.193  13.989  1.00  0.00     0.000 C 
BRANCH   5   6
ATOM      6  C   UNL     1      34.740  26.934  13.986  1.00  0.00     0.006 C 
BRANCH   6   7
ATOM      7  C   UNL     1      34.041  27.332  12.675  1.00  0.00     0.053 C 
BRANCH   7   8
ATOM      8  C   UNL     1      33.581  28.759  12.675  1.00  0.00     0.041 C 
ATOM      9  O   UNL     1      34.157  29.613  11.949  1.00  0.00    -0.550 OA
ATOM     10  O   UNL     1      32.495  29.140  13.453  1.00  0.00    -0.550 OA
ENDBRANCH   7   8
ENDBRANCH   6   7
ENDBRANCH   5   6
ENDBRANCH   4   5
ENDBRANCH   3   4
ENDBRANCH   2   3
ENDBRANCH   1   2
BRANCH   1  11
ATOM     11  C   UNL     1      34.929  28.493  19.430  1.00  0.00     0.000 C 
BRANCH  11  12
ATOM     12  C   UNL     1      35.334  27.028  19.658  1.00  0.00    -0.000 C 
BRANCH  12  13
ATOM     13  C   UNL     1      36.785  26.875  20.152  1.00  0.00    -0.000 C 
BRANCH  13  14
ATOM     14  C   UNL     1      37.076  27.483  21.536  1.00  0.00    -0.000 C 
BRANCH  14  15
ATOM     15  C   UNL     1      36.189  26.900  22.647  1.00  0.00    -0.000 C 
BRANCH  15  16
ATOM     16  C   UNL     1      36.123  27.846  23.851  1.00  0.00    -0.000 C 
BRANCH  16  17
ATOM     17  C   UNL     1      35.187  29.028  23.573  1.00  0.00    -0.003 C 
ATOM     18  C   UNL     1      34.206  29.236  24.723  1.00  0.00     0.004 C 
ENDBRANCH  16  17
ENDBRANCH  15  16
ENDBRANCH  14  15
ENDBRANCH  13  14
ENDBRANCH  12  13
ENDBRANCH  11  12
ENDBRANCH   1  11
TORSDOF 14
ENDMDL
MODEL 7
REMARK VINA RESULT:    -3.140      3.231      8.015
REMARK INTER + INTRA:          -6.799
REMARK INTER:                  -5.809
REMARK INTRA:                  -0.990
REMARK UNBOUND:                -1.088
REMARK SMILES CCCCCCCCCCCCCCCC(=O)[O-]
REMARK SMILES IDX 9 1 10 2 11 3 12 4 13 5 14 6 15 7 16 8 17 9 18 10 8 11 7 12
REMARK SMILES IDX 6 13 5 14 4 15 3 16 2 17 1 18
REMARK H PARENT
REMARK Flexibility Score: inf
ROOT
ATOM      1  C   UNL     1      35.631  28.169  15.898  1.00  0.00     0.000 C 
ENDROOT
BRANCH   1   2
ATOM      2  C   UNL     1      36.024  28.971  17.153  1.00  0.00     0.000 C 
BRANCH   2   3
ATOM      3  C   UNL     1      34.874  29.100  18.167  1.00  0.00     0.000 C 
BRANCH   3   4
ATOM      4  C   UNL     1      34.545  27.767  18.858  1.00  0.00     0.000 C 
BRANCH   4   5
ATOM      5  C   UNL     1      35.801  27.016  19.334  1.00  0.00     0.000 C 
BRANCH   5   6
ATOM      6  C   UNL     1      36.579  27.776  20.423  1.00  0.00     0.006 C 
BRANCH   6   7
ATOM      7  C   UNL     1      35.940  27.694  21.820  1.00  0.00     0.053 C 
BRANCH   7   8
ATOM      8  C   UNL     1      35.515  29.033  22.342  1.00  0.00     0.041 C 
ATOM      9  O   UNL     1      35.952  30.089  21.812  1.00  0.00    -0.550 OA
ATOM     10  O   UNL     1      34.611  29.115  23.393  1.00  0.00    -0.550 OA
ENDBRANCH   7   8
ENDBRANCH   6   7
ENDBRANCH   5   6
ENDBRANCH   4   5
ENDBRANCH   3   4
ENDBRANCH   2   3
ENDBRANCH   1   2
BRANCH   1  11
ATOM     11  C   UNL     1      36.756  27.965  14.865  1.00  0.00     0.000 C 
BRANCH  11  12
ATOM     12  C   UNL     1      36.305  27.157  13.638  1.00  0.00    -0.000 C 
BRANCH  12  13
ATOM     13  C   UNL     1      34.791  26.876  13.627  1.00  0.00    -0.000 C 
BRANCH  13  14
ATOM     14  C   UNL     1      34.042  27.356  12.370  1.00  0.00    -0.000 C 
BRANCH  14  15
ATOM     15  C   UNL     1      33.848  28.880  12.331  1.00  0.00    -0.000 C 
BRANCH  15  16
ATOM     16  C   UNL     1      32.640  29.303  13.174  1.00  0.00    -0.000 C 
BRANCH  16  17
ATOM     17  C   UNL     1      32.614  30.823  13.374  1.00  0.00    -0.003 C 
ATOM     18  C   UNL     1      31.330  31.430  12.815  1.00  0.00     0.004 C 
ENDBRANCH  16  17
ENDBRANCH  15  16
ENDBRANCH  14  15
ENDBRANCH  13  14
ENDBRANCH  12  13
ENDBRANCH  11  12
ENDBRANCH   1  11
TORSDOF 14
ENDMDL
MODEL 8
REMARK VINA RESULT:    -2.551      3.819      8.565
REMARK INTER + INTRA:          -5.727
REMARK INTER:                  -5.024
REMARK INTRA:                  -0.703
REMARK UNBOUND:                -1.088
REMARK SMILES CCCCCCCCCCCCCCCC(=O)[O-]
REMARK SMILES IDX 9 1 10 2 11 3 12 4 13 5 14 6 15 7 16 8 17 9 18 10 8 11 7 12
REMARK SMILES IDX 6 13 5 14 4 15 3 16 2 17 1 18
REMARK H PARENT
REMARK Flexibility Score: inf
ROOT
ATOM      1  C   UNL     1      36.772  27.418  17.391  1.00  0.00     0.000 C 
ENDROOT
BRANCH   1   2
ATOM      2  C   UNL     1      37.026  28.853  17.889  1.00  0.00     0.000 C 
BRANCH   2   3
ATOM      3  C   UNL     1      36.963  28.977  19.421  1.00  0.00     0.000 C 
BRANCH   3   4
ATOM      4  C   UNL     1      36.932  27.609  20.122  1.00  0.00     0.000 C 
BRANCH   4   5
ATOM      5  C   UNL     1      36.111  27.626  21.424  1.00  0.00     0.000 C 
BRANCH   5   6
ATOM      6  C   UNL     1      35.015  28.707  21.429  1.00  0.00     0.006 C 
BRANCH   6   7
ATOM      7  C   UNL     1      34.855  29.428  22.780  1.00  0.00     0.053 C 
BRANCH   7   8
ATOM      8  C   UNL     1      36.158  29.604  23.499  1.00  0.00     0.041 C 
ATOM      9  O   UNL     1      36.395  28.955  24.553  1.00  0.00    -0.550 OA
ATOM     10  O   UNL     1      37.125  30.460  22.988  1.00  0.00    -0.550 OA
ENDBRANCH   7   8
ENDBRANCH   6   7
ENDBRANCH   5   6
ENDBRANCH   4   5
ENDBRANCH   3   4
ENDBRANCH   2   3
ENDBRANCH   1   2
BRANCH   1  11
ATOM     11  C   UNL     1      35.343  27.134  16.891  1.00  0.00     0.000 C 
BRANCH  11  12
ATOM     12  C   UNL     1      35.200  27.274  15.367  1.00  0.00    -0.000 C 
BRANCH  12  13
ATOM     13  C   UNL     1      34.491  28.575  14.947  1.00  0.00    -0.000 C 
BRANCH  13  14
ATOM     14  C   UNL     1      33.109  28.389  14.294  1.00  0.00    -0.000 C 
BRANCH  14  15
ATOM     15  C   UNL     1      32.861  29.356  13.126  1.00  0.00    -0.000 C 
BRANCH  15  16
ATOM     16  C   UNL     1      34.034  29.339  12.140  1.00  0.00    -0.000 C 
BRANCH  16  17
ATOM     17  C   UNL     1      33.929  28.147  11.180  1.00  0.00    -0.003 C 
ATOM     18  C   UNL     1      34.478  26.875  11.821  1.00  0.00     0.004 C 
ENDBRANCH  16  17
ENDBRANCH  15  16
ENDBRANCH  14  15
ENDBRANCH  13  14
ENDBRANCH  12  13
ENDBRANCH  11  12
ENDBRANCH   1  11
TORSDOF 14
ENDMDL
