MODEL 1
REMARK VINA RESULT:    -4.270      0.000      0.000
REMARK INTER + INTRA:         -10.751
REMARK INTER:                  -8.265
REMARK INTRA:                  -2.487
REMARK UNBOUND:                -2.487
REMARK SMILES CCCCCCCCCCCCCCCCCC(=O)[O-]
REMARK SMILES IDX 10 1 11 2 12 3 13 4 14 5 15 6 16 7 17 8 18 9 19 10 20 11
REMARK SMILES IDX 9 12 8 13 7 14 6 15 5 16 4 17 3 18 2 19 1 20
REMARK H PARENT
REMARK Flexibility Score: inf
ROOT
ATOM      1  C   UNL     1     -13.373  21.651 -17.752  1.00  0.00     0.000 C 
ENDROOT
BRANCH   1   2
ATOM      2  C   UNL     1     -14.786  22.146 -18.120  1.00  0.00     0.000 C 
BRANCH   2   3
ATOM      3  C   UNL     1     -15.937  21.447 -17.370  1.00  0.00     0.000 C 
BRANCH   3   4
ATOM      4  C   UNL     1     -16.499  20.188 -18.059  1.00  0.00     0.000 C 
BRANCH   4   5
ATOM      5  C   UNL     1     -15.968  18.851 -17.513  1.00  0.00     0.000 C 
BRANCH   5   6
ATOM      6  C   UNL     1     -15.224  18.025 -18.577  1.00  0.00     0.000 C 
BRANCH   6   7
ATOM      7  C   UNL     1     -13.720  17.903 -18.282  1.00  0.00     0.006 C 
BRANCH   7   8
ATOM      8  C   UNL     1     -12.864  17.904 -19.556  1.00  0.00     0.053 C 
BRANCH   8   9
ATOM      9  C   UNL     1     -12.789  16.527 -20.134  1.00  0.00     0.041 C 
ATOM     10  O   UNL     1     -11.896  15.727 -19.753  1.00  0.00    -0.550 OA
ATOM     11  O   UNL     1     -13.676  16.144 -21.133  1.00  0.00    -0.550 OA
ENDBRANCH   8   9
ENDBRANCH   7   8
ENDBRANCH   6   7
ENDBRANCH   5   6
ENDBRANCH   4   5
ENDBRANCH   3   4
ENDBRANCH   2   3
ENDBRANCH   1   2
BRANCH   1  12
ATOM     12  C   UNL     1     -13.119  21.462 -16.246  1.00  0.00     0.000 C 
BRANCH  12  13
ATOM     13  C   UNL     1     -12.244  20.236 -15.936  1.00  0.00    -0.000 C 
BRANCH  13  14
ATOM     14  C   UNL     1     -12.188  19.920 -14.433  1.00  0.00    -0.000 C 
BRANCH  14  15
ATOM     15  C   UNL     1     -11.890  18.436 -14.156  1.00  0.00    -0.000 C 
BRANCH  15  16
ATOM     16  C   UNL     1     -13.053  17.514 -14.553  1.00  0.00    -0.000 C 
BRANCH  16  17
ATOM     17  C   UNL     1     -14.405  17.991 -14.001  1.00  0.00    -0.000 C 
BRANCH  17  18
ATOM     18  C   UNL     1     -15.488  16.923 -14.206  1.00  0.00    -0.000 C 
BRANCH  18  19
ATOM     19  C   UNL     1     -15.100  15.954 -15.329  1.00  0.00    -0.003 C 
ATOM     20  C   UNL     1     -15.782  14.602 -15.149  1.00  0.00     0.004 C 
ENDBRANCH  18  19
ENDBRANCH  17  18
ENDBRANCH  16  17
ENDBRANCH  15  16
ENDBRANCH  14  15
ENDBRANCH  13  14
ENDBRANCH  12  13
ENDBRANCH   1  12
TORSDOF 16
ENDMDL
MODEL 2
REMARK VINA RESULT:    -4.251      3.447      5.706
REMARK INTER + INTRA:         -10.714
REMARK INTER:                  -8.147
REMARK INTRA:                  -2.568
REMARK UNBOUND:                -2.487
REMARK SMILES CCCCCCCCCCCCCCCCCC(=O)[O-]
REMARK SMILES IDX 10 1 11 2 12 3 13 4 14 5 15 6 16 7 17 8 18 9 19 10 20 11
REMARK SMILES IDX 9 12 8 13 7 14 6 15 5 16 4 17 3 18 2 19 1 20
REMARK H PARENT
REMARK Flexibility Score: inf
ROOT
ATOM      1  C   UNL     1     -17.259  17.461 -21.081  1.00  0.00     0.000 C 
ENDROOT
BRANCH   1   2
ATOM      2  C   UNL     1     -18.795  17.559 -20.993  1.00  0.00     0.000 C 
BRANCH   2   3
ATOM      3  C   UNL     1     -19.325  18.774 -20.207  1.00  0.00     0.000 C 
BRANCH   3   4
ATOM      4  C   UNL     1     -20.098  18.432 -18.918  1.00  0.00     0.000 C 
BRANCH   4   5
ATOM      5  C   UNL     1     -19.345  18.721 -17.607  1.00  0.00     0.000 C 
BRANCH   5   6
ATOM      6  C   UNL     1     -18.642  17.478 -17.037  1.00  0.00     0.000 C 
BRANCH   6   7
ATOM      7  C   UNL     1     -19.364  16.171 -17.406  1.00  0.00     0.006 C 
BRANCH   7   8
ATOM      8  C   UNL     1     -18.444  15.164 -18.109  1.00  0.00     0.053 C 
BRANCH   8   9
ATOM      9  C   UNL     1     -18.277  13.937 -17.269  1.00  0.00     0.041 C 
ATOM     10  O   UNL     1     -17.418  13.911 -16.349  1.00  0.00    -0.550 OA
ATOM     11  O   UNL     1     -19.035  12.804 -17.536  1.00  0.00    -0.550 OA
ENDBRANCH   8   9
ENDBRANCH   7   8
ENDBRANCH   6   7
ENDBRANCH   5   6
ENDBRANCH   4   5
ENDBRANCH   3   4
ENDBRANCH   2   3
ENDBRANCH   1   2
BRANCH   1  12
ATOM     12  C   UNL     1     -16.493  18.166 -19.948  1.00  0.00     0.000 C 
BRANCH  12  13
ATOM     13  C   UNL     1     -15.525  17.229 -19.206  1.00  0.00    -0.000 C 
BRANCH  13  14
ATOM     14  C   UNL     1     -14.259  16.928 -20.024  1.00  0.00    -0.000 C 
BRANCH  14  15
ATOM     15  C   UNL     1     -12.994  17.533 -19.391  1.00  0.00    -0.000 C 
BRANCH  15  16
ATOM     16  C   UNL     1     -13.296  18.336 -18.116  1.00  0.00    -0.000 C 
BRANCH  16  17
ATOM     17  C   UNL     1     -12.575  19.692 -18.082  1.00  0.00    -0.000 C 
BRANCH  17  18
ATOM     18  C   UNL     1     -13.466  20.771 -17.456  1.00  0.00    -0.000 C 
BRANCH  18  19
ATOM     19  C   UNL     1     -14.803  20.180 -16.992  1.00  0.00    -0.003 C 
ATOM     20  C   UNL     1     -15.980  20.973 -17.552  1.00  0.00     0.004 C 
ENDBRANCH  18  19
ENDBRANCH  17  18
ENDBRANCH  16  17
ENDBRANCH  15  16
ENDBRANCH  14  15
ENDBRANCH  13  14
ENDBRANCH  12  13
ENDBRANCH   1  12
TORSDOF 16
ENDMDL
MODEL 3
REMARK VINA RESULT:    -4.245      2.599      5.167
REMARK INTER + INTRA:         -10.702
REMARK INTER:                  -7.647
REMARK INTRA:                  -3.055
REMARK UNBOUND:                -2.487
REMARK SMILES CCCCCCCCCCCCCCCCCC(=O)[O-]
REMARK SMILES IDX 10 1 11 2 12 3 13 4 14 5 15 6 16 7 17 8 18 9 19 10 20 11
REMARK SMILES IDX 9 12 8 13 7 14 6 15 5 16 4 17 3 18 2 19 1 20
REMARK H PARENT
REMARK Flexibility Score: inf
ROOT
ATOM      1  C   UNL     1     -16.056  16.594 -20.702  1.00  0.00     0.000 C 
ENDROOT
BRANCH   1   2
ATOM      2  C   UNL     1     -14.840  15.647 -20.751  1.00  0.00     0.000 C 
BRANCH   2   3
ATOM      3  C   UNL     1     -13.473  16.348 -20.872  1.00  0.00     0.000 C 
BRANCH   3   4
ATOM      4  C   UNL     1     -12.783  16.672 -19.531  1.00  0.00     0.000 C 
BRANCH   4   5
ATOM      5  C   UNL     1     -12.878  18.142 -19.086  1.00  0.00     0.000 C 
BRANCH   5   6
ATOM      6  C   UNL     1     -13.618  18.313 -17.748  1.00  0.00     0.000 C 
BRANCH   6   7
ATOM      7  C   UNL     1     -14.824  19.261 -17.860  1.00  0.00     0.006 C 
BRANCH   7   8
ATOM      8  C   UNL     1     -14.794  20.383 -16.814  1.00  0.00     0.053 C 
BRANCH   8   9
ATOM      9  C   UNL     1     -13.509  21.143 -16.901  1.00  0.00     0.041 C 
ATOM     10  O   UNL     1     -12.763  21.243 -15.892  1.00  0.00    -0.550 OA
ATOM     11  O   UNL     1     -13.160  21.783 -18.083  1.00  0.00    -0.550 OA
ENDBRANCH   8   9
ENDBRANCH   7   8
ENDBRANCH   6   7
ENDBRANCH   5   6
ENDBRANCH   4   5
ENDBRANCH   3   4
ENDBRANCH   2   3
ENDBRANCH   1   2
BRANCH   1  12
ATOM     12  C   UNL     1     -16.796  16.638 -19.354  1.00  0.00     0.000 C 
BRANCH  12  13
ATOM     13  C   UNL     1     -16.490  15.422 -18.464  1.00  0.00    -0.000 C 
BRANCH  13  14
ATOM     14  C   UNL     1     -16.140  15.823 -17.022  1.00  0.00    -0.000 C 
BRANCH  14  15
ATOM     15  C   UNL     1     -17.226  16.704 -16.379  1.00  0.00    -0.000 C 
BRANCH  15  16
ATOM     16  C   UNL     1     -16.690  17.547 -15.211  1.00  0.00    -0.000 C 
BRANCH  16  17
ATOM     17  C   UNL     1     -15.366  17.008 -14.648  1.00  0.00    -0.000 C 
BRANCH  17  18
ATOM     18  C   UNL     1     -14.701  18.040 -13.728  1.00  0.00    -0.000 C 
BRANCH  18  19
ATOM     19  C   UNL     1     -13.238  18.270 -14.125  1.00  0.00    -0.003 C 
ATOM     20  C   UNL     1     -12.546  16.953 -14.464  1.00  0.00     0.004 C 
ENDBRANCH  18  19
ENDBRANCH  17  18
ENDBRANCH  16  17
ENDBRANCH  15  16
ENDBRANCH  14  15
ENDBRANCH  13  14
ENDBRANCH  12  13
ENDBRANCH   1  12
TORSDOF 16
ENDMDL
MODEL 4
REMARK VINA RESULT:    -4.242     13.296     15.631
REMARK INTER + INTRA:         -10.696
REMARK INTER:                  -7.897
REMARK INTRA:                  -2.799
REMARK UNBOUND:                -2.487
REMARK SMILES CCCCCCCCCCCCCCCCCC(=O)[O-]
REMARK SMILES IDX 10 1 11 2 12 3 13 4 14 5 15 6 16 7 17 8 18 9 19 10 20 11
REMARK SMILES IDX 9 12 8 13 7 14 6 15 5 16 4 17 3 18 2 19 1 20
REMARK H PARENT
REMARK Flexibility Score: inf
ROOT
ATOM      1  C   UNL     1       0.075  11.332  -9.106  1.00  0.00     0.000 C 
ENDROOT
BRANCH   1   2
ATOM      2  C   UNL     1      -0.830  10.138  -8.743  1.00  0.00     0.000 C 
BRANCH   2   3
ATOM      3  C   UNL     1      -1.490   9.432  -9.943  1.00  0.00     0.000 C 
BRANCH   3   4
ATOM      4  C   UNL     1      -3.031   9.468  -9.956  1.00  0.00     0.000 C 
BRANCH   4   5
ATOM      5  C   UNL     1      -3.663  10.700  -9.282  1.00  0.00     0.000 C 
BRANCH   5   6
ATOM      6  C   UNL     1      -4.334  11.651 -10.287  1.00  0.00     0.000 C 
BRANCH   6   7
ATOM      7  C   UNL     1      -4.153  13.131  -9.909  1.00  0.00     0.006 C 
BRANCH   7   8
ATOM      8  C   UNL     1      -3.659  13.317  -8.468  1.00  0.00     0.053 C 
BRANCH   8   9
ATOM      9  C   UNL     1      -4.725  13.945  -7.628  1.00  0.00     0.041 C 
ATOM     10  O   UNL     1      -4.689  13.841  -6.374  1.00  0.00    -0.550 OA
ATOM     11  O   UNL     1      -5.788  14.603  -8.234  1.00  0.00    -0.550 OA
ENDBRANCH   8   9
ENDBRANCH   7   8
ENDBRANCH   6   7
ENDBRANCH   5   6
ENDBRANCH   4   5
ENDBRANCH   3   4
ENDBRANCH   2   3
ENDBRANCH   1   2
BRANCH   1  12
ATOM     12  C   UNL     1      -0.123  11.892 -10.526  1.00  0.00     0.000 C 
BRANCH  12  13
ATOM     13  C   UNL     1      -0.176  13.428 -10.561  1.00  0.00    -0.000 C 
BRANCH  13  14
ATOM     14  C   UNL     1      -1.093  13.958 -11.675  1.00  0.00    -0.000 C 
BRANCH  14  15
ATOM     15  C   UNL     1      -1.524  12.853 -12.655  1.00  0.00    -0.000 C 
BRANCH  15  16
ATOM     16  C   UNL     1      -2.861  13.162 -13.346  1.00  0.00    -0.000 C 
BRANCH  16  17
ATOM     17  C   UNL     1      -3.423  11.958 -14.119  1.00  0.00    -0.000 C 
BRANCH  17  18
ATOM     18  C   UNL     1      -2.731  10.659 -13.688  1.00  0.00    -0.000 C 
BRANCH  18  19
ATOM     19  C   UNL     1      -1.905  10.068 -14.837  1.00  0.00    -0.003 C 
ATOM     20  C   UNL     1      -2.628  10.225 -16.172  1.00  0.00     0.004 C 
ENDBRANCH  18  19
ENDBRANCH  17  18
ENDBRANCH  16  17
ENDBRANCH  15  16
ENDBRANCH  14  15
ENDBRANCH  13  14
ENDBRANCH  12  13
ENDBRANCH   1  12
TORSDOF 16
ENDMDL
MODEL 5
REMARK VINA RESULT:    -4.231      4.565      6.273
REMARK INTER + INTRA:         -10.675
REMARK INTER:                  -8.097
REMARK INTRA:                  -2.578
REMARK UNBOUND:                -2.487
REMARK SMILES CCCCCCCCCCCCCCCCCC(=O)[O-]
REMARK SMILES IDX 10 1 11 2 12 3 13 4 14 5 15 6 16 7 17 8 18 9 19 10 20 11
REMARK SMILES IDX 9 12 8 13 7 14 6 15 5 16 4 17 3 18 2 19 1 20
REMARK H PARENT
REMARK Flexibility Score: inf
ROOT
ATOM      1  C   UNL     1     -17.833  17.538 -13.526  1.00  0.00     0.000 C 
ENDROOT
BRANCH   1   2
ATOM      2  C   UNL     1     -19.358  17.628 -13.736  1.00  0.00     0.000 C 
BRANCH   2   3
ATOM      3  C   UNL     1     -19.838  17.314 -15.166  1.00  0.00     0.000 C 
BRANCH   3   4
ATOM      4  C   UNL     1     -19.128  16.129 -15.850  1.00  0.00     0.000 C 
BRANCH   4   5
ATOM      5  C   UNL     1     -19.246  16.092 -17.384  1.00  0.00     0.000 C 
BRANCH   5   6
ATOM      6  C   UNL     1     -18.533  14.880 -18.008  1.00  0.00     0.000 C 
BRANCH   6   7
ATOM      7  C   UNL     1     -18.245  13.773 -16.980  1.00  0.00     0.006 C 
BRANCH   7   8
ATOM      8  C   UNL     1     -19.011  12.477 -17.275  1.00  0.00     0.053 C 
BRANCH   8   9
ATOM      9  C   UNL     1     -18.374  11.322 -16.569  1.00  0.00     0.041 C 
ATOM     10  O   UNL     1     -17.890  11.473 -15.417  1.00  0.00    -0.550 OA
ATOM     11  O   UNL     1     -18.270  10.092 -17.205  1.00  0.00    -0.550 OA
ENDBRANCH   8   9
ENDBRANCH   7   8
ENDBRANCH   6   7
ENDBRANCH   5   6
ENDBRANCH   4   5
ENDBRANCH   3   4
ENDBRANCH   2   3
ENDBRANCH   1   2
BRANCH   1  12
ATOM     12  C   UNL     1     -17.392  16.817 -12.239  1.00  0.00     0.000 C 
BRANCH  12  13
ATOM     13  C   UNL     1     -16.322  15.742 -12.493  1.00  0.00    -0.000 C 
BRANCH  13  14
ATOM     14  C   UNL     1     -16.823  14.624 -13.421  1.00  0.00    -0.000 C 
BRANCH  14  15
ATOM     15  C   UNL     1     -15.825  14.308 -14.550  1.00  0.00    -0.000 C 
BRANCH  15  16
ATOM     16  C   UNL     1     -14.981  15.527 -14.953  1.00  0.00    -0.000 C 
BRANCH  16  17
ATOM     17  C   UNL     1     -15.532  16.248 -16.193  1.00  0.00    -0.000 C 
BRANCH  17  18
ATOM     18  C   UNL     1     -14.511  16.227 -17.337  1.00  0.00    -0.000 C 
BRANCH  18  19
ATOM     19  C   UNL     1     -14.847  15.131 -18.355  1.00  0.00    -0.003 C 
ATOM     20  C   UNL     1     -14.042  13.863 -18.084  1.00  0.00     0.004 C 
ENDBRANCH  18  19
ENDBRANCH  17  18
ENDBRANCH  16  17
ENDBRANCH  15  16
ENDBRANCH  14  15
ENDBRANCH  13  14
ENDBRANCH  12  13
ENDBRANCH   1  12
TORSDOF 16
ENDMDL
MODEL 6
REMARK VINA RESULT:    -4.218     12.417     15.033
REMARK INTER + INTRA:         -10.651
REMARK INTER:                  -8.085
REMARK INTRA:                  -2.566
REMARK UNBOUND:                -2.487
REMARK SMILES CCCCCCCCCCCCCCCCCC(=O)[O-]
REMARK SMILES IDX 10 1 11 2 12 3 13 4 14 5 15 6 16 7 17 8 18 9 19 10 20 11
REMARK SMILES IDX 9 12 8 13 7 14 6 15 5 16 4 17 3 18 2 19 1 20
REMARK H PARENT
REMARK Flexibility Score: inf
ROOT
ATOM      1  C   UNL     1       0.017  10.966 -10.578  1.00  0.00     0.000 C 
ENDROOT
BRANCH   1   2
ATOM      2  C   UNL     1       0.069  10.903  -9.038  1.00  0.00     0.000 C 
BRANCH   2   3
ATOM      3  C   UNL     1      -1.109  10.161  -8.377  1.00  0.00     0.000 C 
BRANCH   3   4
ATOM      4  C   UNL     1      -1.854   9.169  -9.291  1.00  0.00     0.000 C 
BRANCH   4   5
ATOM      5  C   UNL     1      -3.322   9.525  -9.586  1.00  0.00     0.000 C 
BRANCH   5   6
ATOM      6  C   UNL     1      -3.517  10.151 -10.977  1.00  0.00     0.000 C 
BRANCH   6   7
ATOM      7  C   UNL     1      -5.000  10.368 -11.323  1.00  0.00     0.006 C 
BRANCH   7   8
ATOM      8  C   UNL     1      -5.903  10.366 -10.083  1.00  0.00     0.053 C 
BRANCH   8   9
ATOM      9  C   UNL     1      -7.225  10.990 -10.400  1.00  0.00     0.041 C 
ATOM     10  O   UNL     1      -7.297  12.213 -10.686  1.00  0.00    -0.550 OA
ATOM     11  O   UNL     1      -8.386  10.230 -10.330  1.00  0.00    -0.550 OA
ENDBRANCH   8   9
ENDBRANCH   7   8
ENDBRANCH   6   7
ENDBRANCH   5   6
ENDBRANCH   4   5
ENDBRANCH   3   4
ENDBRANCH   2   3
ENDBRANCH   1   2
BRANCH   1  12
ATOM     12  C   UNL     1      -0.138  12.380 -11.167  1.00  0.00     0.000 C 
BRANCH  12  13
ATOM     13  C   UNL     1      -1.031  13.291 -10.310  1.00  0.00    -0.000 C 
BRANCH  13  14
ATOM     14  C   UNL     1      -2.311  13.719 -11.046  1.00  0.00    -0.000 C 
BRANCH  14  15
ATOM     15  C   UNL     1      -3.557  13.654 -10.145  1.00  0.00    -0.000 C 
BRANCH  15  16
ATOM     16  C   UNL     1      -3.220  13.266  -8.697  1.00  0.00    -0.000 C 
BRANCH  16  17
ATOM     17  C   UNL     1      -4.201  13.868  -7.678  1.00  0.00    -0.000 C 
BRANCH  17  18
ATOM     18  C   UNL     1      -5.587  14.067  -8.303  1.00  0.00    -0.000 C 
BRANCH  18  19
ATOM     19  C   UNL     1      -6.569  14.662  -7.286  1.00  0.00    -0.003 C 
ATOM     20  C   UNL     1      -5.830  15.259  -6.092  1.00  0.00     0.004 C 
ENDBRANCH  18  19
ENDBRANCH  17  18
ENDBRANCH  16  17
ENDBRANCH  15  16
ENDBRANCH  14  15
ENDBRANCH  13  14
ENDBRANCH  12  13
ENDBRANCH   1  12
TORSDOF 16
ENDMDL
MODEL 7
REMARK VINA RESULT:    -4.147     12.449     14.900
REMARK INTER + INTRA:         -10.512
REMARK INTER:                  -8.074
REMARK INTRA:                  -2.438
REMARK UNBOUND:                -2.487
REMARK SMILES CCCCCCCCCCCCCCCCCC(=O)[O-]
REMARK SMILES IDX 10 1 11 2 12 3 13 4 14 5 15 6 16 7 17 8 18 9 19 10 20 11
REMARK SMILES IDX 9 12 8 13 7 14 6 15 5 16 4 17 3 18 2 19 1 20
REMARK H PARENT
REMARK Flexibility Score: inf
ROOT
ATOM      1  C   UNL     1      -0.064  11.074  -9.255  1.00  0.00     0.000 C 
ENDROOT
BRANCH   1   2
ATOM      2  C   UNL     1      -0.793  12.209 -10.003  1.00  0.00     0.000 C 
BRANCH   2   3
ATOM      3  C   UNL     1       0.084  13.010 -10.985  1.00  0.00     0.000 C 
BRANCH   3   4
ATOM      4  C   UNL     1      -0.655  13.561 -12.221  1.00  0.00     0.000 C 
BRANCH   4   5
ATOM      5  C   UNL     1      -1.832  12.703 -12.717  1.00  0.00     0.000 C 
BRANCH   5   6
ATOM      6  C   UNL     1      -1.375  11.429 -13.448  1.00  0.00     0.000 C 
BRANCH   6   7
ATOM      7  C   UNL     1      -2.504  10.787 -14.273  1.00  0.00     0.006 C 
BRANCH   7   8
ATOM      8  C   UNL     1      -1.991  10.113 -15.552  1.00  0.00     0.053 C 
BRANCH   8   9
ATOM      9  C   UNL     1      -2.902  10.414 -16.700  1.00  0.00     0.041 C 
ATOM     10  O   UNL     1      -3.185  11.606 -16.989  1.00  0.00    -0.550 OA
ATOM     11  O   UNL     1      -3.479   9.375 -17.419  1.00  0.00    -0.550 OA
ENDBRANCH   8   9
ENDBRANCH   7   8
ENDBRANCH   6   7
ENDBRANCH   5   6
ENDBRANCH   4   5
ENDBRANCH   3   4
ENDBRANCH   2   3
ENDBRANCH   1   2
BRANCH   1  12
ATOM     12  C   UNL     1      -0.975   9.958  -8.715  1.00  0.00     0.000 C 
BRANCH  12  13
ATOM     13  C   UNL     1      -2.303  10.490  -8.152  1.00  0.00    -0.000 C 
BRANCH  13  14
ATOM     14  C   UNL     1      -3.525   9.825  -8.804  1.00  0.00    -0.000 C 
BRANCH  14  15
ATOM     15  C   UNL     1      -3.427   9.795 -10.340  1.00  0.00    -0.000 C 
BRANCH  15  16
ATOM     16  C   UNL     1      -4.426  10.747 -11.016  1.00  0.00    -0.000 C 
BRANCH  16  17
ATOM     17  C   UNL     1      -5.473  11.302 -10.039  1.00  0.00    -0.000 C 
BRANCH  17  18
ATOM     18  C   UNL     1      -5.614  12.822 -10.191  1.00  0.00    -0.000 C 
BRANCH  18  19
ATOM     19  C   UNL     1      -4.258  13.520 -10.023  1.00  0.00    -0.003 C 
ATOM     20  C   UNL     1      -3.928  13.731  -8.549  1.00  0.00     0.004 C 
ENDBRANCH  18  19
ENDBRANCH  17  18
ENDBRANCH  16  17
ENDBRANCH  15  16
ENDBRANCH  14  15
ENDBRANCH  13  14
ENDBRANCH  12  13
ENDBRANCH   1  12
TORSDOF 16
ENDMDL
MODEL 8
REMARK VINA RESULT:    -4.108     12.396     14.838
REMARK INTER + INTRA:         -10.436
REMARK INTER:                  -7.515
REMARK INTRA:                  -2.922
REMARK UNBOUND:                -2.487
REMARK SMILES CCCCCCCCCCCCCCCCCC(=O)[O-]
REMARK SMILES IDX 10 1 11 2 12 3 13 4 14 5 15 6 16 7 17 8 18 9 19 10 20 11
REMARK SMILES IDX 9 12 8 13 7 14 6 15 5 16 4 17 3 18 2 19 1 20
REMARK H PARENT
REMARK Flexibility Score: inf
ROOT
ATOM      1  C   UNL     1       0.034  12.369 -11.548  1.00  0.00     0.000 C 
ENDROOT
BRANCH   1   2
ATOM      2  C   UNL     1      -1.028  13.129 -12.368  1.00  0.00     0.000 C 
BRANCH   2   3
ATOM      3  C   UNL     1      -1.506  14.454 -11.744  1.00  0.00     0.000 C 
BRANCH   3   4
ATOM      4  C   UNL     1      -2.998  14.779 -11.962  1.00  0.00     0.000 C 
BRANCH   4   5
ATOM      5  C   UNL     1      -3.974  14.011 -11.054  1.00  0.00     0.000 C 
BRANCH   5   6
ATOM      6  C   UNL     1      -3.422  13.789  -9.636  1.00  0.00     0.000 C 
BRANCH   6   7
ATOM      7  C   UNL     1      -4.525  13.442  -8.622  1.00  0.00     0.006 C 
BRANCH   7   8
ATOM      8  C   UNL     1      -5.936  13.688  -9.174  1.00  0.00     0.053 C 
BRANCH   8   9
ATOM      9  C   UNL     1      -6.733  14.516  -8.216  1.00  0.00     0.041 C 
ATOM     10  O   UNL     1      -6.170  15.070  -7.236  1.00  0.00    -0.550 OA
ATOM     11  O   UNL     1      -8.107  14.633  -8.378  1.00  0.00    -0.550 OA
ENDBRANCH   8   9
ENDBRANCH   7   8
ENDBRANCH   6   7
ENDBRANCH   5   6
ENDBRANCH   4   5
ENDBRANCH   3   4
ENDBRANCH   2   3
ENDBRANCH   1   2
BRANCH   1  12
ATOM     12  C   UNL     1      -0.371  12.040 -10.100  1.00  0.00     0.000 C 
BRANCH  12  13
ATOM     13  C   UNL     1      -0.417  10.528  -9.821  1.00  0.00    -0.000 C 
BRANCH  13  14
ATOM     14  C   UNL     1      -1.034  10.204  -8.451  1.00  0.00    -0.000 C 
BRANCH  14  15
ATOM     15  C   UNL     1      -2.570  10.292  -8.463  1.00  0.00    -0.000 C 
BRANCH  15  16
ATOM     16  C   UNL     1      -3.202   9.468  -9.596  1.00  0.00    -0.000 C 
BRANCH  16  17
ATOM     17  C   UNL     1      -4.657   9.870  -9.883  1.00  0.00    -0.000 C 
BRANCH  17  18
ATOM     18  C   UNL     1      -4.814  10.364 -11.327  1.00  0.00    -0.000 C 
BRANCH  18  19
ATOM     19  C   UNL     1      -3.450  10.501 -12.013  1.00  0.00    -0.003 C 
ATOM     20  C   UNL     1      -3.609  10.884 -13.482  1.00  0.00     0.004 C 
ENDBRANCH  18  19
ENDBRANCH  17  18
ENDBRANCH  16  17
ENDBRANCH  15  16
ENDBRANCH  14  15
ENDBRANCH  13  14
ENDBRANCH  12  13
ENDBRANCH   1  12
TORSDOF 16
ENDMDL
MODEL 9
REMARK VINA RESULT:    -4.101     12.112     14.932
REMARK INTER + INTRA:         -10.424
REMARK INTER:                  -7.479
REMARK INTRA:                  -2.945
REMARK UNBOUND:                -2.487
REMARK SMILES CCCCCCCCCCCCCCCCCC(=O)[O-]
REMARK SMILES IDX 10 1 11 2 12 3 13 4 14 5 15 6 16 7 17 8 18 9 19 10 20 11
REMARK SMILES IDX 9 12 8 13 7 14 6 15 5 16 4 17 3 18 2 19 1 20
REMARK H PARENT
REMARK Flexibility Score: inf
ROOT
ATOM      1  C   UNL     1      -2.360  10.533  -8.403  1.00  0.00     0.000 C 
ENDROOT
BRANCH   1   2
ATOM      2  C   UNL     1      -1.009   9.861  -8.718  1.00  0.00     0.000 C 
BRANCH   2   3
ATOM      3  C   UNL     1       0.125  10.829  -9.108  1.00  0.00     0.000 C 
BRANCH   3   4
ATOM      4  C   UNL     1      -0.106  11.612 -10.416  1.00  0.00     0.000 C 
BRANCH   4   5
ATOM      5  C   UNL     1      -0.181  13.141 -10.258  1.00  0.00     0.000 C 
BRANCH   5   6
ATOM      6  C   UNL     1      -0.899  13.828 -11.433  1.00  0.00     0.000 C 
BRANCH   6   7
ATOM      7  C   UNL     1      -1.466  12.820 -12.447  1.00  0.00     0.006 C 
BRANCH   7   8
ATOM      8  C   UNL     1      -2.856  13.215 -12.961  1.00  0.00     0.053 C 
BRANCH   8   9
ATOM      9  C   UNL     1      -3.283  12.300 -14.065  1.00  0.00     0.041 C 
ATOM     10  O   UNL     1      -2.855  11.118 -14.110  1.00  0.00    -0.550 OA
ATOM     11  O   UNL     1      -4.114  12.771 -15.073  1.00  0.00    -0.550 OA
ENDBRANCH   8   9
ENDBRANCH   7   8
ENDBRANCH   6   7
ENDBRANCH   5   6
ENDBRANCH   4   5
ENDBRANCH   3   4
ENDBRANCH   2   3
ENDBRANCH   1   2
BRANCH   1  12
ATOM     12  C   UNL     1      -3.571   9.944  -9.148  1.00  0.00     0.000 C 
BRANCH  12  13
ATOM     13  C   UNL     1      -3.545  10.239 -10.657  1.00  0.00    -0.000 C 
BRANCH  13  14
ATOM     14  C   UNL     1      -4.956  10.347 -11.258  1.00  0.00    -0.000 C 
BRANCH  14  15
ATOM     15  C   UNL     1      -6.028  10.631 -10.191  1.00  0.00    -0.000 C 
BRANCH  15  16
ATOM     16  C   UNL     1      -6.656  12.026 -10.339  1.00  0.00    -0.000 C 
BRANCH  16  17
ATOM     17  C   UNL     1      -6.100  13.040  -9.328  1.00  0.00    -0.000 C 
BRANCH  17  18
ATOM     18  C   UNL     1      -4.950  13.850  -9.940  1.00  0.00    -0.000 C 
BRANCH  18  19
ATOM     19  C   UNL     1      -3.703  13.797  -9.048  1.00  0.00    -0.003 C 
ATOM     20  C   UNL     1      -4.084  13.794  -7.570  1.00  0.00     0.004 C 
ENDBRANCH  18  19
ENDBRANCH  17  18
ENDBRANCH  16  17
ENDBRANCH  15  16
ENDBRANCH  14  15
ENDBRANCH  13  14
ENDBRANCH  12  13
ENDBRANCH   1  12
TORSDOF 16
ENDMDL
