MODEL 1
REMARK VINA RESULT:    -4.778      0.000      0.000
REMARK INTER + INTRA:          -5.618
REMARK INTER:                  -5.476
REMARK INTRA:                  -0.142
REMARK UNBOUND:                -0.142
REMARK SMILES O=C([O-])C=Cc1ccc(O)cc1
REMARK SMILES IDX 6 1 7 2 12 3 8 4 11 5 9 6 5 7 4 8 2 9 1 10 3 11 10 12
REMARK H PARENT 10 13
REMARK Flexibility Score: inf
ROOT
ATOM      1  C   UNL     1      34.568  21.994  26.041  1.00  0.00    -0.025 A 
ATOM      2  C   UNL     1      33.229  21.615  25.841  1.00  0.00     0.012 A 
ATOM      3  C   UNL     1      35.065  23.121  25.355  1.00  0.00     0.012 A 
ATOM      4  C   UNL     1      32.397  22.358  24.999  1.00  0.00     0.047 A 
ATOM      5  C   UNL     1      34.229  23.862  24.512  1.00  0.00     0.047 A 
ATOM      6  C   UNL     1      32.896  23.485  24.333  1.00  0.00     0.115 A 
ENDROOT
BRANCH   1   7
ATOM      7  C   UNL     1      35.413  21.167  26.937  1.00  0.00     0.010 C 
ATOM      8  C   UNL     1      35.073  20.844  28.194  1.00  0.00     0.025 C 
BRANCH   8   9
ATOM      9  C   UNL     1      35.933  20.012  29.051  1.00  0.00     0.064 C 
ATOM     10  O   UNL     1      35.958  20.170  30.301  1.00  0.00    -0.545 OA
ATOM     11  O   UNL     1      36.731  19.034  28.471  1.00  0.00    -0.545 OA
ENDBRANCH   8   9
ENDBRANCH   1   7
BRANCH   6  12
ATOM     12  O   UNL     1      32.076  24.233  23.491  1.00  0.00    -0.508 OA
ATOM     13  H   UNL     1      32.441  25.005  22.944  1.00  0.00     0.293 HD
ENDBRANCH   6  12
TORSDOF 3
ENDMDL
MODEL 2
REMARK VINA RESULT:    -4.761      0.121      1.403
REMARK INTER + INTRA:          -5.599
REMARK INTER:                  -5.461
REMARK INTRA:                  -0.138
REMARK UNBOUND:                -0.142
REMARK SMILES O=C([O-])C=Cc1ccc(O)cc1
REMARK SMILES IDX 6 1 7 2 12 3 8 4 11 5 9 6 5 7 4 8 2 9 1 10 3 11 10 12
REMARK H PARENT 10 13
REMARK Flexibility Score: inf
ROOT
ATOM      1  C   UNL     1      34.536  21.959  26.059  1.00  0.00    -0.025 A 
ATOM      2  C   UNL     1      35.035  23.101  25.407  1.00  0.00     0.012 A 
ATOM      3  C   UNL     1      33.189  21.596  25.854  1.00  0.00     0.012 A 
ATOM      4  C   UNL     1      34.220  23.846  24.552  1.00  0.00     0.047 A 
ATOM      5  C   UNL     1      32.376  22.346  24.997  1.00  0.00     0.047 A 
ATOM      6  C   UNL     1      32.887  23.469  24.344  1.00  0.00     0.115 A 
ENDROOT
BRANCH   1   7
ATOM      7  C   UNL     1      35.438  21.207  26.965  1.00  0.00     0.010 C 
ATOM      8  C   UNL     1      35.100  20.826  28.206  1.00  0.00     0.025 C 
BRANCH   8   9
ATOM      9  C   UNL     1      36.019  20.070  29.073  1.00  0.00     0.064 C 
ATOM     10  O   UNL     1      36.219  20.414  30.269  1.00  0.00    -0.545 OA
ATOM     11  O   UNL     1      36.676  18.958  28.564  1.00  0.00    -0.545 OA
ENDBRANCH   8   9
ENDBRANCH   1   7
BRANCH   6  12
ATOM     12  O   UNL     1      32.065  24.204  23.493  1.00  0.00    -0.508 OA
ATOM     13  H   UNL     1      31.530  23.758  22.756  1.00  0.00     0.293 HD
ENDBRANCH   6  12
TORSDOF 3
ENDMDL
MODEL 3
REMARK VINA RESULT:    -4.513     13.325     15.230
REMARK INTER + INTRA:          -5.314
REMARK INTER:                  -5.174
REMARK INTRA:                  -0.140
REMARK UNBOUND:                -0.142
REMARK SMILES O=C([O-])C=Cc1ccc(O)cc1
REMARK SMILES IDX 6 1 7 2 12 3 8 4 11 5 9 6 5 7 4 8 2 9 1 10 3 11 10 12
REMARK H PARENT 10 13
REMARK Flexibility Score: inf
ROOT
ATOM      1  C   UNL     1      20.871  24.433  22.456  1.00  0.00    -0.025 A 
ATOM      2  C   UNL     1      19.971  23.483  21.942  1.00  0.00     0.012 A 
ATOM      3  C   UNL     1      22.254  24.218  22.287  1.00  0.00     0.012 A 
ATOM      4  C   UNL     1      20.437  22.359  21.255  1.00  0.00     0.047 A 
ATOM      5  C   UNL     1      22.717  23.091  21.599  1.00  0.00     0.047 A 
ATOM      6  C   UNL     1      21.813  22.162  21.080  1.00  0.00     0.115 A 
ENDROOT
BRANCH   1   7
ATOM      7  C   UNL     1      20.327  25.604  23.186  1.00  0.00     0.010 C 
ATOM      8  C   UNL     1      19.514  25.508  24.249  1.00  0.00     0.025 C 
BRANCH   8   9
ATOM      9  C   UNL     1      19.002  26.693  24.955  1.00  0.00     0.064 C 
ATOM     10  O   UNL     1      17.876  27.185  24.675  1.00  0.00    -0.545 OA
ATOM     11  O   UNL     1      19.774  27.280  25.950  1.00  0.00    -0.545 OA
ENDBRANCH   8   9
ENDBRANCH   1   7
BRANCH   6  12
ATOM     12  O   UNL     1      22.289  21.045  20.397  1.00  0.00    -0.508 OA
ATOM     13  H   UNL     1      22.969  20.419  20.814  1.00  0.00     0.293 HD
ENDBRANCH   6  12
TORSDOF 3
ENDMDL
MODEL 4
REMARK VINA RESULT:    -4.497      4.974      6.109
REMARK INTER + INTRA:          -5.296
REMARK INTER:                  -5.152
REMARK INTRA:                  -0.144
REMARK UNBOUND:                -0.142
REMARK SMILES O=C([O-])C=Cc1ccc(O)cc1
REMARK SMILES IDX 6 1 7 2 12 3 8 4 11 5 9 6 5 7 4 8 2 9 1 10 3 11 10 12
REMARK H PARENT 10 13
REMARK Flexibility Score: inf
ROOT
ATOM      1  C   UNL     1      36.315  25.404  28.551  1.00  0.00    -0.025 A 
ATOM      2  C   UNL     1      35.436  25.488  29.645  1.00  0.00     0.012 A 
ATOM      3  C   UNL     1      37.294  26.405  28.388  1.00  0.00     0.012 A 
ATOM      4  C   UNL     1      35.546  26.531  30.568  1.00  0.00     0.047 A 
ATOM      5  C   UNL     1      37.401  27.448  29.314  1.00  0.00     0.047 A 
ATOM      6  C   UNL     1      36.531  27.514  30.405  1.00  0.00     0.115 A 
ENDROOT
BRANCH   1   7
ATOM      7  C   UNL     1      36.151  24.283  27.593  1.00  0.00     0.010 C 
ATOM      8  C   UNL     1      34.991  23.981  26.990  1.00  0.00     0.025 C 
BRANCH   8   9
ATOM      9  C   UNL     1      34.869  22.867  26.036  1.00  0.00     0.064 C 
ATOM     10  O   UNL     1      35.675  21.898  26.057  1.00  0.00    -0.545 OA
ATOM     11  O   UNL     1      33.846  22.883  25.097  1.00  0.00    -0.545 OA
ENDBRANCH   8   9
ENDBRANCH   1   7
BRANCH   6  12
ATOM     12  O   UNL     1      36.651  28.558  31.319  1.00  0.00    -0.508 OA
ATOM     13  H   UNL     1      37.530  29.045  31.456  1.00  0.00     0.293 HD
ENDBRANCH   6  12
TORSDOF 3
ENDMDL
MODEL 5
REMARK VINA RESULT:    -4.472     13.925     16.647
REMARK INTER + INTRA:          -5.267
REMARK INTER:                  -5.130
REMARK INTRA:                  -0.137
REMARK UNBOUND:                -0.142
REMARK SMILES O=C([O-])C=Cc1ccc(O)cc1
REMARK SMILES IDX 6 1 7 2 12 3 8 4 11 5 9 6 5 7 4 8 2 9 1 10 3 11 10 12
REMARK H PARENT 10 13
REMARK Flexibility Score: inf
ROOT
ATOM      1  C   UNL     1      25.857  33.149  20.075  1.00  0.00    -0.025 A 
ATOM      2  C   UNL     1      26.150  34.426  20.587  1.00  0.00     0.012 A 
ATOM      3  C   UNL     1      26.822  32.129  20.202  1.00  0.00     0.012 A 
ATOM      4  C   UNL     1      27.363  34.672  21.234  1.00  0.00     0.047 A 
ATOM      5  C   UNL     1      28.037  32.381  20.850  1.00  0.00     0.047 A 
ATOM      6  C   UNL     1      28.310  33.648  21.368  1.00  0.00     0.115 A 
ENDROOT
BRANCH   1   7
ATOM      7  C   UNL     1      24.559  32.941  19.388  1.00  0.00     0.010 C 
ATOM      8  C   UNL     1      23.368  33.057  19.995  1.00  0.00     0.025 C 
BRANCH   8   9
ATOM      9  C   UNL     1      22.099  32.853  19.278  1.00  0.00     0.064 C 
ATOM     10  O   UNL     1      21.540  33.798  18.658  1.00  0.00    -0.545 OA
ATOM     11  O   UNL     1      21.507  31.596  19.283  1.00  0.00    -0.545 OA
ENDBRANCH   8   9
ENDBRANCH   1   7
BRANCH   6  12
ATOM     12  O   UNL     1      29.523  33.882  22.011  1.00  0.00    -0.508 OA
ATOM     13  H   UNL     1      30.122  33.119  22.308  1.00  0.00     0.293 HD
ENDBRANCH   6  12
TORSDOF 3
ENDMDL
MODEL 6
REMARK VINA RESULT:    -4.334     13.520     15.712
REMARK INTER + INTRA:          -5.109
REMARK INTER:                  -4.969
REMARK INTRA:                  -0.140
REMARK UNBOUND:                -0.142
REMARK SMILES O=C([O-])C=Cc1ccc(O)cc1
REMARK SMILES IDX 6 1 7 2 12 3 8 4 11 5 9 6 5 7 4 8 2 9 1 10 3 11 10 12
REMARK H PARENT 10 13
REMARK Flexibility Score: inf
ROOT
ATOM      1  C   UNL     1      27.973  34.039  21.053  1.00  0.00    -0.025 A 
ATOM      2  C   UNL     1      28.377  35.140  21.828  1.00  0.00     0.012 A 
ATOM      3  C   UNL     1      28.921  33.043  20.742  1.00  0.00     0.012 A 
ATOM      4  C   UNL     1      29.688  35.233  22.304  1.00  0.00     0.047 A 
ATOM      5  C   UNL     1      30.233  33.140  21.220  1.00  0.00     0.047 A 
ATOM      6  C   UNL     1      30.619  34.231  22.002  1.00  0.00     0.115 A 
ENDROOT
BRANCH   1   7
ATOM      7  C   UNL     1      26.573  33.991  20.564  1.00  0.00     0.010 C 
ATOM      8  C   UNL     1      26.064  32.969  19.859  1.00  0.00     0.025 C 
BRANCH   8   9
ATOM      9  C   UNL     1      24.666  32.952  19.399  1.00  0.00     0.064 C 
ATOM     10  O   UNL     1      24.306  32.228  18.432  1.00  0.00    -0.545 OA
ATOM     11  O   UNL     1      23.727  33.746  20.044  1.00  0.00    -0.545 OA
ENDBRANCH   8   9
ENDBRANCH   1   7
BRANCH   6  12
ATOM     12  O   UNL     1      31.928  34.313  22.470  1.00  0.00    -0.508 OA
ATOM     13  H   UNL     1      32.448  35.183  22.443  1.00  0.00     0.293 HD
ENDBRANCH   6  12
TORSDOF 3
ENDMDL
MODEL 7
REMARK VINA RESULT:    -4.332      4.525      5.437
REMARK INTER + INTRA:          -5.107
REMARK INTER:                  -4.959
REMARK INTRA:                  -0.148
REMARK UNBOUND:                -0.142
REMARK SMILES O=C([O-])C=Cc1ccc(O)cc1
REMARK SMILES IDX 6 1 7 2 12 3 8 4 11 5 9 6 5 7 4 8 2 9 1 10 3 11 10 12
REMARK H PARENT 10 13
REMARK Flexibility Score: inf
ROOT
ATOM      1  C   UNL     1      35.869  24.243  28.521  1.00  0.00    -0.025 A 
ATOM      2  C   UNL     1      36.164  22.991  29.090  1.00  0.00     0.012 A 
ATOM      3  C   UNL     1      35.302  24.286  27.231  1.00  0.00     0.012 A 
ATOM      4  C   UNL     1      35.876  21.811  28.400  1.00  0.00     0.047 A 
ATOM      5  C   UNL     1      35.016  23.102  26.544  1.00  0.00     0.047 A 
ATOM      6  C   UNL     1      35.300  21.864  27.124  1.00  0.00     0.115 A 
ENDROOT
BRANCH   1   7
ATOM      7  C   UNL     1      36.202  25.468  29.290  1.00  0.00     0.010 C 
ATOM      8  C   UNL     1      36.263  25.514  30.629  1.00  0.00     0.025 C 
BRANCH   8   9
ATOM      9  C   UNL     1      36.608  26.745  31.357  1.00  0.00     0.064 C 
ATOM     10  O   UNL     1      37.467  26.740  32.279  1.00  0.00    -0.545 OA
ATOM     11  O   UNL     1      35.975  27.936  31.021  1.00  0.00    -0.545 OA
ENDBRANCH   8   9
ENDBRANCH   1   7
BRANCH   6  12
ATOM     12  O   UNL     1      35.009  20.693  26.427  1.00  0.00    -0.508 OA
ATOM     13  H   UNL     1      34.070  20.489  26.102  1.00  0.00     0.293 HD
ENDBRANCH   6  12
TORSDOF 3
ENDMDL
MODEL 8
REMARK VINA RESULT:    -4.255      3.797      6.192
REMARK INTER + INTRA:          -5.019
REMARK INTER:                  -4.880
REMARK INTRA:                  -0.138
REMARK UNBOUND:                -0.142
REMARK SMILES O=C([O-])C=Cc1ccc(O)cc1
REMARK SMILES IDX 6 1 7 2 12 3 8 4 11 5 9 6 5 7 4 8 2 9 1 10 3 11 10 12
REMARK H PARENT 10 13
REMARK Flexibility Score: inf
ROOT
ATOM      1  C   UNL     1      35.861  24.185  28.777  1.00  0.00    -0.025 A 
ATOM      2  C   UNL     1      36.183  23.178  29.705  1.00  0.00     0.012 A 
ATOM      3  C   UNL     1      35.501  25.461  29.258  1.00  0.00     0.012 A 
ATOM      4  C   UNL     1      36.174  23.445  31.076  1.00  0.00     0.047 A 
ATOM      5  C   UNL     1      35.492  25.723  30.632  1.00  0.00     0.047 A 
ATOM      6  C   UNL     1      35.829  24.719  31.543  1.00  0.00     0.115 A 
ENDROOT
BRANCH   1   7
ATOM      7  C   UNL     1      35.876  23.850  27.332  1.00  0.00     0.010 C 
ATOM      8  C   UNL     1      34.797  23.922  26.538  1.00  0.00     0.025 C 
BRANCH   8   9
ATOM      9  C   UNL     1      34.853  23.593  25.105  1.00  0.00     0.064 C 
ATOM     10  O   UNL     1      35.953  23.527  24.493  1.00  0.00    -0.545 OA
ATOM     11  O   UNL     1      33.672  23.348  24.415  1.00  0.00    -0.545 OA
ENDBRANCH   8   9
ENDBRANCH   1   7
BRANCH   6  12
ATOM     12  O   UNL     1      35.815  24.996  32.908  1.00  0.00    -0.508 OA
ATOM     13  H   UNL     1      35.609  25.925  33.259  1.00  0.00     0.293 HD
ENDBRANCH   6  12
TORSDOF 3
ENDMDL
MODEL 9
REMARK VINA RESULT:    -4.184     13.130     14.507
REMARK INTER + INTRA:          -4.938
REMARK INTER:                  -4.798
REMARK INTRA:                  -0.139
REMARK UNBOUND:                -0.142
REMARK SMILES O=C([O-])C=Cc1ccc(O)cc1
REMARK SMILES IDX 6 1 7 2 12 3 8 4 11 5 9 6 5 7 4 8 2 9 1 10 3 11 10 12
REMARK H PARENT 10 13
REMARK Flexibility Score: inf
ROOT
ATOM      1  C   UNL     1      21.481  23.199  20.838  1.00  0.00    -0.025 A 
ATOM      2  C   UNL     1      21.923  21.869  20.953  1.00  0.00     0.012 A 
ATOM      3  C   UNL     1      20.730  23.569  19.703  1.00  0.00     0.012 A 
ATOM      4  C   UNL     1      21.602  20.925  19.974  1.00  0.00     0.047 A 
ATOM      5  C   UNL     1      20.412  22.620  18.725  1.00  0.00     0.047 A 
ATOM      6  C   UNL     1      20.843  21.299  18.857  1.00  0.00     0.115 A 
ENDROOT
BRANCH   1   7
ATOM      7  C   UNL     1      21.856  24.166  21.898  1.00  0.00     0.010 C 
ATOM      8  C   UNL     1      21.560  24.000  23.196  1.00  0.00     0.025 C 
BRANCH   8   9
ATOM      9  C   UNL     1      21.958  24.976  24.223  1.00  0.00     0.064 C 
ATOM     10  O   UNL     1      23.165  25.118  24.556  1.00  0.00    -0.545 OA
ATOM     11  O   UNL     1      20.986  25.757  24.836  1.00  0.00    -0.545 OA
ENDBRANCH   8   9
ENDBRANCH   1   7
BRANCH   6  12
ATOM     12  O   UNL     1      20.517  20.366  17.875  1.00  0.00    -0.508 OA
ATOM     13  H   UNL     1      21.114  19.569  17.682  1.00  0.00     0.293 HD
ENDBRANCH   6  12
TORSDOF 3
ENDMDL
