MODEL 1
REMARK VINA RESULT:    -4.189      0.000      0.000
REMARK INTER + INTRA:         -10.116
REMARK INTER:                  -7.618
REMARK INTRA:                  -2.498
REMARK UNBOUND:                -2.498
REMARK SMILES CCCCCCCCCCCCCCCC(=O)[O-]
REMARK SMILES IDX 9 1 10 2 11 3 12 4 13 5 14 6 15 7 16 8 17 9 18 10 8 11 7 12
REMARK SMILES IDX 6 13 5 14 4 15 3 16 2 17 1 18
REMARK H PARENT
REMARK Flexibility Score: inf
ROOT
ATOM      1  C   UNL     1      42.962  59.807  12.367  1.00  0.00     0.000 C 
ENDROOT
BRANCH   1   2
ATOM      2  C   UNL     1      42.973  59.903  10.834  1.00  0.00     0.000 C 
BRANCH   2   3
ATOM      3  C   UNL     1      44.396  59.851  10.249  1.00  0.00     0.000 C 
BRANCH   3   4
ATOM      4  C   UNL     1      44.571  60.780   9.037  1.00  0.00     0.000 C 
BRANCH   4   5
ATOM      5  C   UNL     1      43.230  61.226   8.431  1.00  0.00     0.000 C 
BRANCH   5   6
ATOM      6  C   UNL     1      43.431  62.397   7.457  1.00  0.00     0.006 C 
BRANCH   6   7
ATOM      7  C   UNL     1      42.229  63.349   7.436  1.00  0.00     0.053 C 
BRANCH   7   8
ATOM      8  C   UNL     1      42.655  64.784   7.386  1.00  0.00     0.041 C 
ATOM      9  O   UNL     1      43.379  65.196   6.442  1.00  0.00    -0.550 OA
ATOM     10  O   UNL     1      42.224  65.673   8.362  1.00  0.00    -0.550 OA
ENDBRANCH   7   8
ENDBRANCH   6   7
ENDBRANCH   5   6
ENDBRANCH   4   5
ENDBRANCH   3   4
ENDBRANCH   2   3
ENDBRANCH   1   2
BRANCH   1  11
ATOM     11  C   UNL     1      44.335  60.099  12.991  1.00  0.00     0.000 C 
BRANCH  11  12
ATOM     12  C   UNL     1      44.380  61.512  13.584  1.00  0.00    -0.000 C 
BRANCH  12  13
ATOM     13  C   UNL     1      45.022  62.502  12.601  1.00  0.00    -0.000 C 
BRANCH  13  14
ATOM     14  C   UNL     1      44.187  63.782  12.411  1.00  0.00    -0.000 C 
BRANCH  14  15
ATOM     15  C   UNL     1      43.193  63.747  11.234  1.00  0.00    -0.000 C 
BRANCH  15  16
ATOM     16  C   UNL     1      41.776  63.262  11.590  1.00  0.00    -0.000 C 
BRANCH  16  17
ATOM     17  C   UNL     1      41.279  63.811  12.935  1.00  0.00    -0.003 C 
ATOM     18  C   UNL     1      40.931  62.677  13.895  1.00  0.00     0.004 C 
ENDBRANCH  16  17
ENDBRANCH  15  16
ENDBRANCH  14  15
ENDBRANCH  13  14
ENDBRANCH  12  13
ENDBRANCH  11  12
ENDBRANCH   1  11
TORSDOF 14
ENDMDL
MODEL 2
REMARK VINA RESULT:    -4.130      1.378      2.798
REMARK INTER + INTRA:         -10.008
REMARK INTER:                  -8.283
REMARK INTRA:                  -1.725
REMARK UNBOUND:                -2.498
REMARK SMILES CCCCCCCCCCCCCCCC(=O)[O-]
REMARK SMILES IDX 9 1 10 2 11 3 12 4 13 5 14 6 15 7 16 8 17 9 18 10 8 11 7 12
REMARK SMILES IDX 6 13 5 14 4 15 3 16 2 17 1 18
REMARK H PARENT
REMARK Flexibility Score: inf
ROOT
ATOM      1  C   UNL     1      44.680  60.749   9.044  1.00  0.00     0.000 C 
ENDROOT
BRANCH   1   2
ATOM      2  C   UNL     1      43.164  60.509   8.978  1.00  0.00     0.000 C 
BRANCH   2   3
ATOM      3  C   UNL     1      42.476  61.367   7.902  1.00  0.00     0.000 C 
BRANCH   3   4
ATOM      4  C   UNL     1      43.406  62.445   7.322  1.00  0.00     0.000 C 
BRANCH   4   5
ATOM      5  C   UNL     1      42.654  63.721   6.912  1.00  0.00     0.000 C 
BRANCH   5   6
ATOM      6  C   UNL     1      43.596  64.711   6.209  1.00  0.00     0.006 C 
BRANCH   6   7
ATOM      7  C   UNL     1      42.915  66.054   5.919  1.00  0.00     0.053 C 
BRANCH   7   8
ATOM      8  C   UNL     1      42.948  66.964   7.108  1.00  0.00     0.041 C 
ATOM      9  O   UNL     1      42.074  67.859   7.244  1.00  0.00    -0.550 OA
ATOM     10  O   UNL     1      43.925  66.801   8.082  1.00  0.00    -0.550 OA
ENDBRANCH   7   8
ENDBRANCH   6   7
ENDBRANCH   5   6
ENDBRANCH   4   5
ENDBRANCH   3   4
ENDBRANCH   2   3
ENDBRANCH   1   2
BRANCH   1  11
ATOM     11  C   UNL     1      45.229  60.695  10.478  1.00  0.00     0.000 C 
BRANCH  11  12
ATOM     12  C   UNL     1      44.136  60.279  11.468  1.00  0.00    -0.000 C 
BRANCH  12  13
ATOM     13  C   UNL     1      44.594  60.497  12.918  1.00  0.00    -0.000 C 
BRANCH  13  14
ATOM     14  C   UNL     1      43.601  61.340  13.739  1.00  0.00    -0.000 C 
BRANCH  14  15
ATOM     15  C   UNL     1      42.354  61.817  12.968  1.00  0.00    -0.000 C 
BRANCH  15  16
ATOM     16  C   UNL     1      42.291  63.331  12.699  1.00  0.00    -0.000 C 
BRANCH  16  17
ATOM     17  C   UNL     1      43.430  63.823  11.794  1.00  0.00    -0.003 C 
ATOM     18  C   UNL     1      42.882  64.480  10.530  1.00  0.00     0.004 C 
ENDBRANCH  16  17
ENDBRANCH  15  16
ENDBRANCH  14  15
ENDBRANCH  13  14
ENDBRANCH  12  13
ENDBRANCH  11  12
ENDBRANCH   1  11
TORSDOF 14
ENDMDL
MODEL 3
REMARK VINA RESULT:    -4.028      1.365      2.454
REMARK INTER + INTRA:          -9.824
REMARK INTER:                  -7.468
REMARK INTRA:                  -2.356
REMARK UNBOUND:                -2.498
REMARK SMILES CCCCCCCCCCCCCCCC(=O)[O-]
REMARK SMILES IDX 9 1 10 2 11 3 12 4 13 5 14 6 15 7 16 8 17 9 18 10 8 11 7 12
REMARK SMILES IDX 6 13 5 14 4 15 3 16 2 17 1 18
REMARK H PARENT
REMARK Flexibility Score: inf
ROOT
ATOM      1  C   UNL     1      44.342  60.222   9.823  1.00  0.00     0.000 C 
ENDROOT
BRANCH   1   2
ATOM      2  C   UNL     1      44.234  61.063   8.541  1.00  0.00     0.000 C 
BRANCH   2   3
ATOM      3  C   UNL     1      42.805  61.578   8.292  1.00  0.00     0.000 C 
BRANCH   3   4
ATOM      4  C   UNL     1      42.726  63.113   8.267  1.00  0.00     0.000 C 
BRANCH   4   5
ATOM      5  C   UNL     1      41.331  63.643   8.637  1.00  0.00     0.000 C 
BRANCH   5   6
ATOM      6  C   UNL     1      41.368  65.159   8.881  1.00  0.00     0.006 C 
BRANCH   6   7
ATOM      7  C   UNL     1      42.712  65.780   8.479  1.00  0.00     0.053 C 
BRANCH   7   8
ATOM      8  C   UNL     1      42.568  66.716   7.318  1.00  0.00     0.041 C 
ATOM      9  O   UNL     1      41.693  67.620   7.339  1.00  0.00    -0.550 OA
ATOM     10  O   UNL     1      43.423  66.610   6.229  1.00  0.00    -0.550 OA
ENDBRANCH   7   8
ENDBRANCH   6   7
ENDBRANCH   5   6
ENDBRANCH   4   5
ENDBRANCH   3   4
ENDBRANCH   2   3
ENDBRANCH   1   2
BRANCH   1  11
ATOM     11  C   UNL     1      45.222  60.883  10.895  1.00  0.00     0.000 C 
BRANCH  11  12
ATOM     12  C   UNL     1      44.658  60.633  12.298  1.00  0.00    -0.000 C 
BRANCH  12  13
ATOM     13  C   UNL     1      44.606  61.936  13.111  1.00  0.00    -0.000 C 
BRANCH  13  14
ATOM     14  C   UNL     1      44.541  63.192  12.223  1.00  0.00    -0.000 C 
BRANCH  14  15
ATOM     15  C   UNL     1      43.127  63.766  12.003  1.00  0.00    -0.000 C 
BRANCH  15  16
ATOM     16  C   UNL     1      42.017  63.108  12.843  1.00  0.00    -0.000 C 
BRANCH  16  17
ATOM     17  C   UNL     1      40.837  62.618  11.992  1.00  0.00    -0.003 C 
ATOM     18  C   UNL     1      41.041  61.172  11.552  1.00  0.00     0.004 C 
ENDBRANCH  16  17
ENDBRANCH  15  16
ENDBRANCH  14  15
ENDBRANCH  13  14
ENDBRANCH  12  13
ENDBRANCH  11  12
ENDBRANCH   1  11
TORSDOF 14
ENDMDL
MODEL 4
REMARK VINA RESULT:    -3.999      1.302      2.645
REMARK INTER + INTRA:          -9.770
REMARK INTER:                  -7.877
REMARK INTRA:                  -1.893
REMARK UNBOUND:                -2.498
REMARK SMILES CCCCCCCCCCCCCCCC(=O)[O-]
REMARK SMILES IDX 9 1 10 2 11 3 12 4 13 5 14 6 15 7 16 8 17 9 18 10 8 11 7 12
REMARK SMILES IDX 6 13 5 14 4 15 3 16 2 17 1 18
REMARK H PARENT
REMARK Flexibility Score: inf
ROOT
ATOM      1  C   UNL     1      43.661  59.959   9.450  1.00  0.00     0.000 C 
ENDROOT
BRANCH   1   2
ATOM      2  C   UNL     1      42.637  60.746   8.617  1.00  0.00     0.000 C 
BRANCH   2   3
ATOM      3  C   UNL     1      43.234  62.024   8.003  1.00  0.00     0.000 C 
BRANCH   3   4
ATOM      4  C   UNL     1      42.314  63.245   8.169  1.00  0.00     0.000 C 
BRANCH   4   5
ATOM      5  C   UNL     1      42.102  64.012   6.854  1.00  0.00     0.000 C 
BRANCH   5   6
ATOM      6  C   UNL     1      43.440  64.506   6.285  1.00  0.00     0.006 C 
BRANCH   6   7
ATOM      7  C   UNL     1      43.428  66.012   5.994  1.00  0.00     0.053 C 
BRANCH   7   8
ATOM      8  C   UNL     1      43.130  66.814   7.223  1.00  0.00     0.041 C 
ATOM      9  O   UNL     1      43.942  66.825   8.185  1.00  0.00    -0.550 OA
ATOM     10  O   UNL     1      41.971  67.577   7.291  1.00  0.00    -0.550 OA
ENDBRANCH   7   8
ENDBRANCH   6   7
ENDBRANCH   5   6
ENDBRANCH   4   5
ENDBRANCH   3   4
ENDBRANCH   2   3
ENDBRANCH   1   2
BRANCH   1  11
ATOM     11  C   UNL     1      45.043  60.627   9.479  1.00  0.00     0.000 C 
BRANCH  11  12
ATOM     12  C   UNL     1      45.553  60.772  10.918  1.00  0.00    -0.000 C 
BRANCH  12  13
ATOM     13  C   UNL     1      44.411  60.584  11.928  1.00  0.00    -0.000 C 
BRANCH  13  14
ATOM     14  C   UNL     1      44.423  61.641  13.048  1.00  0.00    -0.000 C 
BRANCH  14  15
ATOM     15  C   UNL     1      44.639  63.092  12.576  1.00  0.00    -0.000 C 
BRANCH  15  16
ATOM     16  C   UNL     1      43.439  63.729  11.852  1.00  0.00    -0.000 C 
BRANCH  16  17
ATOM     17  C   UNL     1      42.105  63.463  12.563  1.00  0.00    -0.003 C 
ATOM     18  C   UNL     1      41.168  62.642  11.683  1.00  0.00     0.004 C 
ENDBRANCH  16  17
ENDBRANCH  15  16
ENDBRANCH  14  15
ENDBRANCH  13  14
ENDBRANCH  12  13
ENDBRANCH  11  12
ENDBRANCH   1  11
TORSDOF 14
ENDMDL
MODEL 5
REMARK VINA RESULT:    -3.967      2.832      6.016
REMARK INTER + INTRA:          -9.713
REMARK INTER:                  -7.612
REMARK INTRA:                  -2.101
REMARK UNBOUND:                -2.498
REMARK SMILES CCCCCCCCCCCCCCCC(=O)[O-]
REMARK SMILES IDX 9 1 10 2 11 3 12 4 13 5 14 6 15 7 16 8 17 9 18 10 8 11 7 12
REMARK SMILES IDX 6 13 5 14 4 15 3 16 2 17 1 18
REMARK H PARENT
REMARK Flexibility Score: inf
ROOT
ATOM      1  C   UNL     1      42.922  62.029   8.661  1.00  0.00     0.000 C 
ENDROOT
BRANCH   1   2
ATOM      2  C   UNL     1      41.539  62.603   9.008  1.00  0.00     0.000 C 
BRANCH   2   3
ATOM      3  C   UNL     1      41.479  63.178  10.434  1.00  0.00     0.000 C 
BRANCH   3   4
ATOM      4  C   UNL     1      42.811  63.803  10.876  1.00  0.00     0.000 C 
BRANCH   4   5
ATOM      5  C   UNL     1      43.088  63.615  12.377  1.00  0.00     0.000 C 
BRANCH   5   6
ATOM      6  C   UNL     1      44.519  63.108  12.611  1.00  0.00     0.006 C 
BRANCH   6   7
ATOM      7  C   UNL     1      44.843  61.871  11.764  1.00  0.00     0.053 C 
BRANCH   7   8
ATOM      8  C   UNL     1      44.140  60.649  12.270  1.00  0.00     0.041 C 
ATOM      9  O   UNL     1      43.127  60.207  11.667  1.00  0.00    -0.550 OA
ATOM     10  O   UNL     1      44.625  59.980  13.386  1.00  0.00    -0.550 OA
ENDBRANCH   7   8
ENDBRANCH   6   7
ENDBRANCH   5   6
ENDBRANCH   4   5
ENDBRANCH   3   4
ENDBRANCH   2   3
ENDBRANCH   1   2
BRANCH   1  11
ATOM     11  C   UNL     1      43.437  62.504   7.295  1.00  0.00     0.000 C 
BRANCH  11  12
ATOM     12  C   UNL     1      42.274  62.768   6.331  1.00  0.00    -0.000 C 
BRANCH  12  13
ATOM     13  C   UNL     1      42.636  63.865   5.319  1.00  0.00    -0.000 C 
BRANCH  13  14
ATOM     14  C   UNL     1      43.628  64.898   5.885  1.00  0.00    -0.000 C 
BRANCH  14  15
ATOM     15  C   UNL     1      43.202  66.371   5.726  1.00  0.00    -0.000 C 
BRANCH  15  16
ATOM     16  C   UNL     1      42.847  67.093   7.039  1.00  0.00    -0.000 C 
BRANCH  16  17
ATOM     17  C   UNL     1      42.388  66.130   8.143  1.00  0.00    -0.003 C 
ATOM     18  C   UNL     1      40.882  66.233   8.369  1.00  0.00     0.004 C 
ENDBRANCH  16  17
ENDBRANCH  15  16
ENDBRANCH  14  15
ENDBRANCH  13  14
ENDBRANCH  12  13
ENDBRANCH  11  12
ENDBRANCH   1  11
TORSDOF 14
ENDMDL
MODEL 6
REMARK VINA RESULT:    -3.955      1.894      5.277
REMARK INTER + INTRA:          -9.690
REMARK INTER:                  -8.129
REMARK INTRA:                  -1.560
REMARK UNBOUND:                -2.498
REMARK SMILES CCCCCCCCCCCCCCCC(=O)[O-]
REMARK SMILES IDX 9 1 10 2 11 3 12 4 13 5 14 6 15 7 16 8 17 9 18 10 8 11 7 12
REMARK SMILES IDX 6 13 5 14 4 15 3 16 2 17 1 18
REMARK H PARENT
REMARK Flexibility Score: inf
ROOT
ATOM      1  C   UNL     1      44.542  61.071   8.806  1.00  0.00     0.000 C 
ENDROOT
BRANCH   1   2
ATOM      2  C   UNL     1      45.008  60.708  10.225  1.00  0.00     0.000 C 
BRANCH   2   3
ATOM      3  C   UNL     1      43.867  60.160  11.099  1.00  0.00     0.000 C 
BRANCH   3   4
ATOM      4  C   UNL     1      44.123  60.365  12.601  1.00  0.00     0.000 C 
BRANCH   4   5
ATOM      5  C   UNL     1      42.930  61.012  13.324  1.00  0.00     0.000 C 
BRANCH   5   6
ATOM      6  C   UNL     1      42.101  61.869  12.356  1.00  0.00     0.006 C 
BRANCH   6   7
ATOM      7  C   UNL     1      42.213  63.368  12.665  1.00  0.00     0.053 C 
BRANCH   7   8
ATOM      8  C   UNL     1      43.338  64.009  11.912  1.00  0.00     0.041 C 
ATOM      9  O   UNL     1      44.526  63.863  12.303  1.00  0.00    -0.550 OA
ATOM     10  O   UNL     1      43.078  64.739  10.759  1.00  0.00    -0.550 OA
ENDBRANCH   7   8
ENDBRANCH   6   7
ENDBRANCH   5   6
ENDBRANCH   4   5
ENDBRANCH   3   4
ENDBRANCH   2   3
ENDBRANCH   1   2
BRANCH   1  11
ATOM     11  C   UNL     1      43.013  61.157   8.687  1.00  0.00     0.000 C 
BRANCH  11  12
ATOM     12  C   UNL     1      42.580  62.529   8.156  1.00  0.00    -0.000 C 
BRANCH  12  13
ATOM     13  C   UNL     1      43.457  62.962   6.971  1.00  0.00    -0.000 C 
BRANCH  13  14
ATOM     14  C   UNL     1      42.681  63.779   5.921  1.00  0.00    -0.000 C 
BRANCH  14  15
ATOM     15  C   UNL     1      43.476  64.926   5.267  1.00  0.00    -0.000 C 
BRANCH  15  16
ATOM     16  C   UNL     1      42.938  66.340   5.555  1.00  0.00    -0.000 C 
BRANCH  16  17
ATOM     17  C   UNL     1      42.460  66.512   7.004  1.00  0.00    -0.003 C 
ATOM     18  C   UNL     1      43.637  66.751   7.945  1.00  0.00     0.004 C 
ENDBRANCH  16  17
ENDBRANCH  15  16
ENDBRANCH  14  15
ENDBRANCH  13  14
ENDBRANCH  12  13
ENDBRANCH  11  12
ENDBRANCH   1  11
TORSDOF 14
ENDMDL
MODEL 7
REMARK VINA RESULT:    -3.952      1.380      3.654
REMARK INTER + INTRA:          -9.685
REMARK INTER:                  -7.671
REMARK INTRA:                  -2.014
REMARK UNBOUND:                -2.498
REMARK SMILES CCCCCCCCCCCCCCCC(=O)[O-]
REMARK SMILES IDX 9 1 10 2 11 3 12 4 13 5 14 6 15 7 16 8 17 9 18 10 8 11 7 12
REMARK SMILES IDX 6 13 5 14 4 15 3 16 2 17 1 18
REMARK H PARENT
REMARK Flexibility Score: inf
ROOT
ATOM      1  C   UNL     1      43.088  63.883  10.644  1.00  0.00     0.000 C 
ENDROOT
BRANCH   1   2
ATOM      2  C   UNL     1      41.673  63.636  10.097  1.00  0.00     0.000 C 
BRANCH   2   3
ATOM      3  C   UNL     1      41.653  62.605   8.955  1.00  0.00     0.000 C 
BRANCH   3   4
ATOM      4  C   UNL     1      41.670  63.262   7.565  1.00  0.00     0.000 C 
BRANCH   4   5
ATOM      5  C   UNL     1      43.055  63.210   6.900  1.00  0.00     0.000 C 
BRANCH   5   6
ATOM      6  C   UNL     1      43.505  64.612   6.462  1.00  0.00     0.006 C 
BRANCH   6   7
ATOM      7  C   UNL     1      42.373  65.643   6.560  1.00  0.00     0.053 C 
BRANCH   7   8
ATOM      8  C   UNL     1      42.785  66.850   7.346  1.00  0.00     0.041 C 
ATOM      9  O   UNL     1      43.802  66.806   8.086  1.00  0.00    -0.550 OA
ATOM     10  O   UNL     1      42.066  68.033   7.233  1.00  0.00    -0.550 OA
ENDBRANCH   7   8
ENDBRANCH   6   7
ENDBRANCH   5   6
ENDBRANCH   4   5
ENDBRANCH   3   4
ENDBRANCH   2   3
ENDBRANCH   1   2
BRANCH   1  11
ATOM     11  C   UNL     1      43.184  63.667  12.162  1.00  0.00     0.000 C 
BRANCH  11  12
ATOM     12  C   UNL     1      44.573  63.153  12.557  1.00  0.00    -0.000 C 
BRANCH  12  13
ATOM     13  C   UNL     1      44.472  62.075  13.646  1.00  0.00    -0.000 C 
BRANCH  13  14
ATOM     14  C   UNL     1      44.652  60.649  13.094  1.00  0.00    -0.000 C 
BRANCH  14  15
ATOM     15  C   UNL     1      43.408  60.050  12.409  1.00  0.00    -0.000 C 
BRANCH  15  16
ATOM     16  C   UNL     1      43.461  60.020  10.871  1.00  0.00    -0.000 C 
BRANCH  16  17
ATOM     17  C   UNL     1      44.867  60.296  10.318  1.00  0.00    -0.003 C 
ATOM     18  C   UNL     1      44.809  60.692   8.845  1.00  0.00     0.004 C 
ENDBRANCH  16  17
ENDBRANCH  15  16
ENDBRANCH  14  15
ENDBRANCH  13  14
ENDBRANCH  12  13
ENDBRANCH  11  12
ENDBRANCH   1  11
TORSDOF 14
ENDMDL
MODEL 8
REMARK VINA RESULT:    -3.945      2.422      5.219
REMARK INTER + INTRA:          -9.672
REMARK INTER:                  -7.379
REMARK INTRA:                  -2.293
REMARK UNBOUND:                -2.498
REMARK SMILES CCCCCCCCCCCCCCCC(=O)[O-]
REMARK SMILES IDX 9 1 10 2 11 3 12 4 13 5 14 6 15 7 16 8 17 9 18 10 8 11 7 12
REMARK SMILES IDX 6 13 5 14 4 15 3 16 2 17 1 18
REMARK H PARENT
REMARK Flexibility Score: inf
ROOT
ATOM      1  C   UNL     1      42.423  63.425  12.353  1.00  0.00     0.000 C 
ENDROOT
BRANCH   1   2
ATOM      2  C   UNL     1      43.918  63.743  12.200  1.00  0.00     0.000 C 
BRANCH   2   3
ATOM      3  C   UNL     1      44.810  62.794  13.020  1.00  0.00     0.000 C 
BRANCH   3   4
ATOM      4  C   UNL     1      44.688  61.330  12.568  1.00  0.00     0.000 C 
BRANCH   4   5
ATOM      5  C   UNL     1      45.176  61.110  11.127  1.00  0.00     0.000 C 
BRANCH   5   6
ATOM      6  C   UNL     1      44.169  60.268  10.330  1.00  0.00     0.006 C 
BRANCH   6   7
ATOM      7  C   UNL     1      42.956  59.859  11.175  1.00  0.00     0.053 C 
BRANCH   7   8
ATOM      8  C   UNL     1      41.713  59.745  10.347  1.00  0.00     0.041 C 
ATOM      9  O   UNL     1      41.784  59.367   9.149  1.00  0.00    -0.550 OA
ATOM     10  O   UNL     1      40.474  60.024  10.909  1.00  0.00    -0.550 OA
ENDBRANCH   7   8
ENDBRANCH   6   7
ENDBRANCH   5   6
ENDBRANCH   4   5
ENDBRANCH   3   4
ENDBRANCH   2   3
ENDBRANCH   1   2
BRANCH   1  11
ATOM     11  C   UNL     1      41.676  63.421  11.010  1.00  0.00     0.000 C 
BRANCH  11  12
ATOM     12  C   UNL     1      42.657  63.519   9.836  1.00  0.00    -0.000 C 
BRANCH  12  13
ATOM     13  C   UNL     1      42.026  62.978   8.545  1.00  0.00    -0.000 C 
BRANCH  13  14
ATOM     14  C   UNL     1      43.073  62.563   7.495  1.00  0.00    -0.000 C 
BRANCH  14  15
ATOM     15  C   UNL     1      43.191  63.504   6.280  1.00  0.00    -0.000 C 
BRANCH  15  16
ATOM     16  C   UNL     1      42.524  64.881   6.453  1.00  0.00    -0.000 C 
BRANCH  16  17
ATOM     17  C   UNL     1      43.540  66.016   6.642  1.00  0.00    -0.003 C 
ATOM     18  C   UNL     1      43.182  66.877   7.850  1.00  0.00     0.004 C 
ENDBRANCH  16  17
ENDBRANCH  15  16
ENDBRANCH  14  15
ENDBRANCH  13  14
ENDBRANCH  12  13
ENDBRANCH  11  12
ENDBRANCH   1  11
TORSDOF 14
ENDMDL
MODEL 9
REMARK VINA RESULT:    -3.912      1.417      3.866
REMARK INTER + INTRA:          -9.611
REMARK INTER:                  -7.512
REMARK INTRA:                  -2.099
REMARK UNBOUND:                -2.498
REMARK SMILES CCCCCCCCCCCCCCCC(=O)[O-]
REMARK SMILES IDX 9 1 10 2 11 3 12 4 13 5 14 6 15 7 16 8 17 9 18 10 8 11 7 12
REMARK SMILES IDX 6 13 5 14 4 15 3 16 2 17 1 18
REMARK H PARENT
REMARK Flexibility Score: inf
ROOT
ATOM      1  C   UNL     1      44.249  63.650  12.253  1.00  0.00     0.000 C 
ENDROOT
BRANCH   1   2
ATOM      2  C   UNL     1      42.715  63.563  12.223  1.00  0.00     0.000 C 
BRANCH   2   3
ATOM      3  C   UNL     1      42.144  63.691  10.800  1.00  0.00     0.000 C 
BRANCH   3   4
ATOM      4  C   UNL     1      42.778  64.848  10.010  1.00  0.00     0.000 C 
BRANCH   4   5
ATOM      5  C   UNL     1      42.009  65.179   8.721  1.00  0.00     0.000 C 
BRANCH   5   6
ATOM      6  C   UNL     1      42.748  66.247   7.901  1.00  0.00     0.006 C 
BRANCH   6   7
ATOM      7  C   UNL     1      43.530  65.641   6.729  1.00  0.00     0.053 C 
BRANCH   7   8
ATOM      8  C   UNL     1      42.635  64.892   5.790  1.00  0.00     0.041 C 
ATOM      9  O   UNL     1      42.821  63.665   5.582  1.00  0.00    -0.550 OA
ATOM     10  O   UNL     1      41.575  65.542   5.171  1.00  0.00    -0.550 OA
ENDBRANCH   7   8
ENDBRANCH   6   7
ENDBRANCH   5   6
ENDBRANCH   4   5
ENDBRANCH   3   4
ENDBRANCH   2   3
ENDBRANCH   1   2
BRANCH   1  11
ATOM     11  C   UNL     1      44.905  62.387  12.830  1.00  0.00     0.000 C 
BRANCH  11  12
ATOM     12  C   UNL     1      43.867  61.500  13.527  1.00  0.00    -0.000 C 
BRANCH  12  13
ATOM     13  C   UNL     1      43.785  60.119  12.859  1.00  0.00    -0.000 C 
BRANCH  13  14
ATOM     14  C   UNL     1      42.652  60.024  11.820  1.00  0.00    -0.000 C 
BRANCH  14  15
ATOM     15  C   UNL     1      43.096  59.618  10.402  1.00  0.00    -0.000 C 
BRANCH  15  16
ATOM     16  C   UNL     1      44.529  60.034  10.022  1.00  0.00    -0.000 C 
BRANCH  16  17
ATOM     17  C   UNL     1      44.571  61.292   9.143  1.00  0.00    -0.003 C 
ATOM     18  C   UNL     1      43.364  61.351   8.212  1.00  0.00     0.004 C 
ENDBRANCH  16  17
ENDBRANCH  15  16
ENDBRANCH  14  15
ENDBRANCH  13  14
ENDBRANCH  12  13
ENDBRANCH  11  12
ENDBRANCH   1  11
TORSDOF 14
ENDMDL
