MODEL 1
REMARK VINA RESULT:    -6.433      0.000      0.000
REMARK INTER + INTRA:          -8.081
REMARK INTER:                  -7.750
REMARK INTRA:                  -0.331
REMARK UNBOUND:                -0.331
REMARK SMILES O=c1c(O)c(-c2ccc(O)c(O)c2)oc2cc(O)cc(O)c12
REMARK SMILES IDX 5 1 3 2 2 3 1 4 22 5 20 6 19 7 17 8 16 9 15 10 14 11 6 12
REMARK SMILES IDX 7 13 8 14 9 15 13 16 11 17 10 18 12 20 4 22 21 24 18 26
REMARK H PARENT 10 19 12 21 4 23 21 25 18 27
REMARK Flexibility Score: inf
ROOT
ATOM      1  C   UNL     1      -2.337   7.485   3.252  1.00  0.00     0.180 A 
ATOM      2  C   UNL     1      -1.242   7.885   2.468  1.00  0.00     0.208 A 
ATOM      3  C   UNL     1      -1.402   7.990   1.077  1.00  0.00     0.238 A 
ATOM      4  O   UNL     1      -0.399   8.276   0.374  1.00  0.00    -0.285 OA
ATOM      5  C   UNL     1      -2.670   7.751   0.493  1.00  0.00     0.111 A 
ATOM      6  C   UNL     1      -2.959   7.873  -0.900  1.00  0.00     0.134 A 
ATOM      7  C   UNL     1      -4.224   7.507  -1.377  1.00  0.00     0.093 A 
ATOM      8  C   UNL     1      -5.229   7.087  -0.507  1.00  0.00     0.123 A 
ATOM      9  C   UNL     1      -4.974   7.017   0.863  1.00  0.00     0.094 A 
ATOM     10  C   UNL     1      -3.711   7.337   1.366  1.00  0.00     0.146 A 
ATOM     11  O   UNL     1      -3.505   7.236   2.673  1.00  0.00    -0.452 OA
ENDROOT
BRANCH   1  12
ATOM     12  C   UNL     1      -2.242   7.337   4.722  1.00  0.00     0.025 A 
ATOM     13  C   UNL     1      -2.565   8.423   5.547  1.00  0.00     0.016 A 
ATOM     14  C   UNL     1      -2.501   8.299   6.936  1.00  0.00     0.051 A 
ATOM     15  C   UNL     1      -2.130   7.088   7.529  1.00  0.00     0.157 A 
ATOM     16  C   UNL     1      -1.890   6.111   5.314  1.00  0.00     0.062 A 
ATOM     17  C   UNL     1      -1.826   5.977   6.706  1.00  0.00     0.158 A 
BRANCH  15  18
ATOM     18  O   UNL     1      -2.079   7.032   8.923  1.00  0.00    -0.504 OA
ATOM     19  H   UNL     1      -2.124   7.842   9.523  1.00  0.00     0.293 HD
ENDBRANCH  15  18
BRANCH  17  20
ATOM     20  O   UNL     1      -1.468   4.731   7.225  1.00  0.00    -0.504 OA
ATOM     21  H   UNL     1      -2.049   4.192   7.851  1.00  0.00     0.293 HD
ENDBRANCH  17  20
ENDBRANCH   1  12
BRANCH   2  22
ATOM     22  O   UNL     1      -0.019   8.191   3.071  1.00  0.00    -0.502 OA
ATOM     23  H   UNL     1       0.068   8.890   3.799  1.00  0.00     0.293 HD
ENDBRANCH   2  22
BRANCH   6  24
ATOM     24  O   UNL     1      -2.057   8.367  -1.847  1.00  0.00    -0.507 OA
ATOM     25  H   UNL     1      -1.469   9.176  -1.718  1.00  0.00     0.293 HD
ENDBRANCH   6  24
BRANCH   8  26
ATOM     26  O   UNL     1      -6.481   6.747  -1.015  1.00  0.00    -0.508 OA
ATOM     27  H   UNL     1      -7.180   6.289  -0.442  1.00  0.00     0.293 HD
ENDBRANCH   8  26
TORSDOF 6
ENDMDL
MODEL 2
REMARK VINA RESULT:    -6.433      3.421      5.305
REMARK INTER + INTRA:          -8.080
REMARK INTER:                  -7.750
REMARK INTRA:                  -0.331
REMARK UNBOUND:                -0.331
REMARK SMILES O=c1c(O)c(-c2ccc(O)c(O)c2)oc2cc(O)cc(O)c12
REMARK SMILES IDX 5 1 3 2 2 3 1 4 22 5 20 6 19 7 17 8 16 9 15 10 14 11 6 12
REMARK SMILES IDX 7 13 8 14 9 15 13 16 11 17 10 18 12 20 4 22 21 24 18 26
REMARK H PARENT 10 19 12 21 4 23 21 25 18 27
REMARK Flexibility Score: inf
ROOT
ATOM      1  C   UNL     1      -4.672   7.284   0.379  1.00  0.00     0.180 A 
ATOM      2  C   UNL     1      -5.044   7.475  -0.962  1.00  0.00     0.208 A 
ATOM      3  C   UNL     1      -6.382   7.268  -1.335  1.00  0.00     0.238 A 
ATOM      4  O   UNL     1      -6.691   7.369  -2.550  1.00  0.00    -0.285 OA
ATOM      5  C   UNL     1      -7.343   6.929  -0.353  1.00  0.00     0.111 A 
ATOM      6  C   UNL     1      -8.735   6.741  -0.609  1.00  0.00     0.134 A 
ATOM      7  C   UNL     1      -9.574   6.302   0.423  1.00  0.00     0.093 A 
ATOM      8  C   UNL     1      -9.087   6.108   1.714  1.00  0.00     0.123 A 
ATOM      9  C   UNL     1      -7.740   6.342   1.989  1.00  0.00     0.094 A 
ATOM     10  C   UNL     1      -6.869   6.742   0.972  1.00  0.00     0.146 A 
ATOM     11  O   UNL     1      -5.591   6.934   1.272  1.00  0.00    -0.452 OA
ENDROOT
BRANCH   1  12
ATOM     12  C   UNL     1      -3.280   7.467   0.845  1.00  0.00     0.025 A 
ATOM     13  C   UNL     1      -2.875   8.718   1.333  1.00  0.00     0.016 A 
ATOM     14  C   UNL     1      -1.572   8.908   1.796  1.00  0.00     0.051 A 
ATOM     15  C   UNL     1      -0.653   7.853   1.798  1.00  0.00     0.157 A 
ATOM     16  C   UNL     1      -2.367   6.399   0.867  1.00  0.00     0.062 A 
ATOM     17  C   UNL     1      -1.058   6.579   1.333  1.00  0.00     0.158 A 
BRANCH  15  18
ATOM     18  O   UNL     1       0.636   8.111   2.268  1.00  0.00    -0.504 OA
ATOM     19  H   UNL     1       0.906   8.053   3.238  1.00  0.00     0.293 HD
ENDBRANCH  15  18
BRANCH  17  20
ATOM     20  O   UNL     1      -0.205   5.474   1.323  1.00  0.00    -0.504 OA
ATOM     21  H   UNL     1      -0.280   4.697   1.963  1.00  0.00     0.293 HD
ENDBRANCH  17  20
ENDBRANCH   1  12
BRANCH   2  22
ATOM     22  O   UNL     1      -4.095   7.884  -1.903  1.00  0.00    -0.502 OA
ATOM     23  H   UNL     1      -3.858   7.326  -2.715  1.00  0.00     0.293 HD
ENDBRANCH   2  22
BRANCH   6  24
ATOM     24  O   UNL     1      -9.346   6.992  -1.842  1.00  0.00    -0.507 OA
ATOM     25  H   UNL     1     -10.131   6.479  -2.212  1.00  0.00     0.293 HD
ENDBRANCH   6  24
BRANCH   8  26
ATOM     26  O   UNL     1      -9.954   5.687   2.720  1.00  0.00    -0.508 OA
ATOM     27  H   UNL     1      -9.798   5.930   3.692  1.00  0.00     0.293 HD
ENDBRANCH   8  26
TORSDOF 6
ENDMDL
MODEL 3
REMARK VINA RESULT:    -6.427      3.254      5.283
REMARK INTER + INTRA:          -8.073
REMARK INTER:                  -7.783
REMARK INTRA:                  -0.290
REMARK UNBOUND:                -0.331
REMARK SMILES O=c1c(O)c(-c2ccc(O)c(O)c2)oc2cc(O)cc(O)c12
REMARK SMILES IDX 5 1 3 2 2 3 1 4 22 5 20 6 19 7 17 8 16 9 15 10 14 11 6 12
REMARK SMILES IDX 7 13 8 14 9 15 13 16 11 17 10 18 12 20 4 22 21 24 18 26
REMARK H PARENT 10 19 12 21 4 23 21 25 18 27
REMARK Flexibility Score: inf
ROOT
ATOM      1  C   UNL     1      -4.952   7.128   1.679  1.00  0.00     0.180 A 
ATOM      2  C   UNL     1      -5.734   6.801   2.800  1.00  0.00     0.208 A 
ATOM      3  C   UNL     1      -7.121   6.650   2.643  1.00  0.00     0.238 A 
ATOM      4  O   UNL     1      -7.823   6.431   3.663  1.00  0.00    -0.285 OA
ATOM      5  C   UNL     1      -7.702   6.771   1.357  1.00  0.00     0.111 A 
ATOM      6  C   UNL     1      -9.090   6.593   1.073  1.00  0.00     0.134 A 
ATOM      7  C   UNL     1      -9.568   6.842  -0.219  1.00  0.00     0.093 A 
ATOM      8  C   UNL     1      -8.702   7.199  -1.252  1.00  0.00     0.123 A 
ATOM      9  C   UNL     1      -7.335   7.322  -0.998  1.00  0.00     0.094 A 
ATOM     10  C   UNL     1      -6.833   7.119   0.290  1.00  0.00     0.146 A 
ATOM     11  O   UNL     1      -5.530   7.267   0.492  1.00  0.00    -0.452 OA
ENDROOT
BRANCH   1  12
ATOM     12  C   UNL     1      -3.487   7.318   1.768  1.00  0.00     0.025 A 
ATOM     13  C   UNL     1      -2.977   8.527   2.262  1.00  0.00     0.016 A 
ATOM     14  C   UNL     1      -1.599   8.720   2.374  1.00  0.00     0.051 A 
ATOM     15  C   UNL     1      -0.704   7.708   2.012  1.00  0.00     0.157 A 
ATOM     16  C   UNL     1      -2.592   6.290   1.425  1.00  0.00     0.062 A 
ATOM     17  C   UNL     1      -1.208   6.474   1.536  1.00  0.00     0.158 A 
BRANCH  15  18
ATOM     18  O   UNL     1       0.662   7.967   2.140  1.00  0.00    -0.504 OA
ATOM     19  H   UNL     1       1.268   7.491   2.791  1.00  0.00     0.293 HD
ENDBRANCH  15  18
BRANCH  17  20
ATOM     20  O   UNL     1      -0.378   5.410   1.175  1.00  0.00    -0.504 OA
ATOM     21  H   UNL     1      -0.672   4.444   1.159  1.00  0.00     0.293 HD
ENDBRANCH  17  20
ENDBRANCH   1  12
BRANCH   2  22
ATOM     22  O   UNL     1      -5.131   6.611   4.046  1.00  0.00    -0.502 OA
ATOM     23  H   UNL     1      -4.509   5.833   4.237  1.00  0.00     0.293 HD
ENDBRANCH   2  22
BRANCH   6  24
ATOM     24  O   UNL     1     -10.031   6.152   2.009  1.00  0.00    -0.507 OA
ATOM     25  H   UNL     1      -9.975   5.285   2.520  1.00  0.00     0.293 HD
ENDBRANCH   6  24
BRANCH   8  26
ATOM     26  O   UNL     1      -9.210   7.424  -2.529  1.00  0.00    -0.508 OA
ATOM     27  H   UNL     1      -9.932   8.114  -2.700  1.00  0.00     0.293 HD
ENDBRANCH   8  26
TORSDOF 6
ENDMDL
MODEL 4
REMARK VINA RESULT:    -6.343      1.648      2.292
REMARK INTER + INTRA:          -7.971
REMARK INTER:                  -8.298
REMARK INTRA:                   0.327
REMARK UNBOUND:                -0.331
REMARK SMILES O=c1c(O)c(-c2ccc(O)c(O)c2)oc2cc(O)cc(O)c12
REMARK SMILES IDX 5 1 3 2 2 3 1 4 22 5 20 6 19 7 17 8 16 9 15 10 14 11 6 12
REMARK SMILES IDX 7 13 8 14 9 15 13 16 11 17 10 18 12 20 4 22 21 24 18 26
REMARK H PARENT 10 19 12 21 4 23 21 25 18 27
REMARK Flexibility Score: inf
ROOT
ATOM      1  C   UNL     1      -2.428   6.705   2.686  1.00  0.00     0.180 A 
ATOM      2  C   UNL     1      -1.926   6.888   1.386  1.00  0.00     0.208 A 
ATOM      3  C   UNL     1      -2.830   7.054   0.324  1.00  0.00     0.238 A 
ATOM      4  O   UNL     1      -2.376   7.142  -0.845  1.00  0.00    -0.285 OA
ATOM      5  C   UNL     1      -4.221   7.093   0.582  1.00  0.00     0.111 A 
ATOM      6  C   UNL     1      -5.226   7.302  -0.411  1.00  0.00     0.134 A 
ATOM      7  C   UNL     1      -6.578   7.214  -0.054  1.00  0.00     0.093 A 
ATOM      8  C   UNL     1      -6.962   6.991   1.267  1.00  0.00     0.123 A 
ATOM      9  C   UNL     1      -5.989   6.840   2.255  1.00  0.00     0.094 A 
ATOM     10  C   UNL     1      -4.632   6.883   1.925  1.00  0.00     0.146 A 
ATOM     11  O   UNL     1      -3.739   6.714   2.892  1.00  0.00    -0.452 OA
ENDROOT
BRANCH   1  12
ATOM     12  C   UNL     1      -1.539   6.509   3.853  1.00  0.00     0.025 A 
ATOM     13  C   UNL     1      -0.270   7.105   3.862  1.00  0.00     0.016 A 
ATOM     14  C   UNL     1       0.577   6.949   4.961  1.00  0.00     0.051 A 
ATOM     15  C   UNL     1       0.169   6.212   6.077  1.00  0.00     0.157 A 
ATOM     16  C   UNL     1      -1.961   5.786   4.983  1.00  0.00     0.062 A 
ATOM     17  C   UNL     1      -1.120   5.628   6.091  1.00  0.00     0.158 A 
BRANCH  15  18
ATOM     18  O   UNL     1       1.066   6.088   7.141  1.00  0.00    -0.504 OA
ATOM     19  H   UNL     1       1.572   6.862   7.545  1.00  0.00     0.293 HD
ENDBRANCH  15  18
BRANCH  17  20
ATOM     20  O   UNL     1      -1.604   4.896   7.178  1.00  0.00    -0.504 OA
ATOM     21  H   UNL     1      -1.232   4.002   7.467  1.00  0.00     0.293 HD
ENDBRANCH  17  20
ENDBRANCH   1  12
BRANCH   2  22
ATOM     22  O   UNL     1      -0.548   6.923   1.163  1.00  0.00    -0.502 OA
ATOM     23  H   UNL     1       0.085   6.235   1.556  1.00  0.00     0.293 HD
ENDBRANCH   2  22
BRANCH   6  24
ATOM     24  O   UNL     1      -4.956   7.620  -1.745  1.00  0.00    -0.507 OA
ATOM     25  H   UNL     1      -5.524   7.346  -2.531  1.00  0.00     0.293 HD
ENDBRANCH   6  24
BRANCH   8  26
ATOM     26  O   UNL     1      -8.316   6.926   1.588  1.00  0.00    -0.508 OA
ATOM     27  H   UNL     1      -8.863   6.090   1.418  1.00  0.00     0.293 HD
ENDBRANCH   8  26
TORSDOF 6
ENDMDL
MODEL 5
REMARK VINA RESULT:    -6.294      2.283      7.023
REMARK INTER + INTRA:          -7.912
REMARK INTER:                  -8.323
REMARK INTRA:                   0.411
REMARK UNBOUND:                -0.331
REMARK SMILES O=c1c(O)c(-c2ccc(O)c(O)c2)oc2cc(O)cc(O)c12
REMARK SMILES IDX 5 1 3 2 2 3 1 4 22 5 20 6 19 7 17 8 16 9 15 10 14 11 6 12
REMARK SMILES IDX 7 13 8 14 9 15 13 16 11 17 10 18 12 20 4 22 21 24 18 26
REMARK H PARENT 10 19 12 21 4 23 21 25 18 27
REMARK Flexibility Score: inf
ROOT
ATOM      1  C   UNL     1      -1.159   6.512   3.906  1.00  0.00     0.180 A 
ATOM      2  C   UNL     1       0.199   6.736   3.624  1.00  0.00     0.208 A 
ATOM      3  C   UNL     1       1.141   6.606   4.658  1.00  0.00     0.238 A 
ATOM      4  O   UNL     1       2.344   6.880   4.415  1.00  0.00    -0.285 OA
ATOM      5  C   UNL     1       0.720   6.196   5.946  1.00  0.00     0.111 A 
ATOM      6  C   UNL     1       1.594   5.987   7.057  1.00  0.00     0.134 A 
ATOM      7  C   UNL     1       1.052   5.685   8.313  1.00  0.00     0.093 A 
ATOM      8  C   UNL     1      -0.321   5.521   8.486  1.00  0.00     0.123 A 
ATOM      9  C   UNL     1      -1.179   5.669   7.395  1.00  0.00     0.094 A 
ATOM     10  C   UNL     1      -0.674   6.008   6.138  1.00  0.00     0.146 A 
ATOM     11  O   UNL     1      -1.527   6.160   5.133  1.00  0.00    -0.452 OA
ENDROOT
BRANCH   1  12
ATOM     12  C   UNL     1      -2.211   6.645   2.874  1.00  0.00     0.025 A 
ATOM     13  C   UNL     1      -3.547   6.811   3.267  1.00  0.00     0.016 A 
ATOM     14  C   UNL     1      -4.552   6.958   2.310  1.00  0.00     0.051 A 
ATOM     15  C   UNL     1      -4.245   6.959   0.946  1.00  0.00     0.157 A 
ATOM     16  C   UNL     1      -1.896   6.668   1.504  1.00  0.00     0.062 A 
ATOM     17  C   UNL     1      -2.897   6.818   0.537  1.00  0.00     0.158 A 
BRANCH  15  18
ATOM     18  O   UNL     1      -5.298   7.104   0.039  1.00  0.00    -0.504 OA
ATOM     19  H   UNL     1      -6.259   6.884   0.252  1.00  0.00     0.293 HD
ENDBRANCH  15  18
BRANCH  17  20
ATOM     20  O   UNL     1      -2.512   6.830  -0.805  1.00  0.00    -0.504 OA
ATOM     21  H   UNL     1      -1.551   6.856  -1.116  1.00  0.00     0.293 HD
ENDBRANCH  17  20
ENDBRANCH   1  12
BRANCH   2  22
ATOM     22  O   UNL     1       0.603   7.065   2.327  1.00  0.00    -0.502 OA
ATOM     23  H   UNL     1       0.322   7.925   1.871  1.00  0.00     0.293 HD
ENDBRANCH   2  22
BRANCH   6  24
ATOM     24  O   UNL     1       2.988   6.037   6.977  1.00  0.00    -0.507 OA
ATOM     25  H   UNL     1       3.533   6.883   6.910  1.00  0.00     0.293 HD
ENDBRANCH   6  24
BRANCH   8  26
ATOM     26  O   UNL     1      -0.823   5.204   9.746  1.00  0.00    -0.508 OA
ATOM     27  H   UNL     1      -0.471   5.652  10.585  1.00  0.00     0.293 HD
ENDBRANCH   8  26
TORSDOF 6
ENDMDL
MODEL 6
REMARK VINA RESULT:    -6.255      2.321      6.810
REMARK INTER + INTRA:          -7.865
REMARK INTER:                  -8.115
REMARK INTRA:                   0.249
REMARK UNBOUND:                -0.331
REMARK SMILES O=c1c(O)c(-c2ccc(O)c(O)c2)oc2cc(O)cc(O)c12
REMARK SMILES IDX 5 1 3 2 2 3 1 4 22 5 20 6 19 7 17 8 16 9 15 10 14 11 6 12
REMARK SMILES IDX 7 13 8 14 9 15 13 16 11 17 10 18 12 20 4 22 21 24 18 26
REMARK H PARENT 10 19 12 21 4 23 21 25 18 27
REMARK Flexibility Score: inf
ROOT
ATOM      1  C   UNL     1      -2.637   6.484   4.178  1.00  0.00     0.180 A 
ATOM      2  C   UNL     1      -2.737   5.940   5.470  1.00  0.00     0.208 A 
ATOM      3  C   UNL     1      -1.564   5.722   6.211  1.00  0.00     0.238 A 
ATOM      4  O   UNL     1      -1.655   5.166   7.335  1.00  0.00    -0.285 OA
ATOM      5  C   UNL     1      -0.311   6.102   5.673  1.00  0.00     0.111 A 
ATOM      6  C   UNL     1       0.938   5.970   6.353  1.00  0.00     0.134 A 
ATOM      7  C   UNL     1       2.127   6.282   5.680  1.00  0.00     0.093 A 
ATOM      8  C   UNL     1       2.109   6.782   4.379  1.00  0.00     0.123 A 
ATOM      9  C   UNL     1       0.890   6.967   3.725  1.00  0.00     0.094 A 
ATOM     10  C   UNL     1      -0.310   6.629   4.354  1.00  0.00     0.146 A 
ATOM     11  O   UNL     1      -1.445   6.801   3.689  1.00  0.00    -0.452 OA
ENDROOT
BRANCH   1  12
ATOM     12  C   UNL     1      -3.827   6.729   3.333  1.00  0.00     0.025 A 
ATOM     13  C   UNL     1      -5.021   7.156   3.929  1.00  0.00     0.016 A 
ATOM     14  C   UNL     1      -6.150   7.412   3.148  1.00  0.00     0.051 A 
ATOM     15  C   UNL     1      -6.105   7.264   1.758  1.00  0.00     0.157 A 
ATOM     16  C   UNL     1      -3.771   6.600   1.934  1.00  0.00     0.062 A 
ATOM     17  C   UNL     1      -4.897   6.858   1.142  1.00  0.00     0.158 A 
BRANCH  15  18
ATOM     18  O   UNL     1      -7.270   7.528   1.035  1.00  0.00    -0.504 OA
ATOM     19  H   UNL     1      -7.346   7.432   0.033  1.00  0.00     0.293 HD
ENDBRANCH  15  18
BRANCH  17  20
ATOM     20  O   UNL     1      -4.769   6.707  -0.241  1.00  0.00    -0.504 OA
ATOM     21  H   UNL     1      -3.891   6.759  -0.736  1.00  0.00     0.293 HD
ENDBRANCH  17  20
ENDBRANCH   1  12
BRANCH   2  22
ATOM     22  O   UNL     1      -3.990   5.642   6.013  1.00  0.00    -0.502 OA
ATOM     23  H   UNL     1      -4.114   4.960   6.752  1.00  0.00     0.293 HD
ENDBRANCH   2  22
BRANCH   6  24
ATOM     24  O   UNL     1       1.067   5.565   7.685  1.00  0.00    -0.507 OA
ATOM     25  H   UNL     1       1.919   5.230   8.107  1.00  0.00     0.293 HD
ENDBRANCH   6  24
BRANCH   8  26
ATOM     26  O   UNL     1       3.310   7.097   3.747  1.00  0.00    -0.508 OA
ATOM     27  H   UNL     1       4.095   7.480   4.260  1.00  0.00     0.293 HD
ENDBRANCH   8  26
TORSDOF 6
ENDMDL
MODEL 7
REMARK VINA RESULT:    -6.215      1.212      2.948
REMARK INTER + INTRA:          -7.817
REMARK INTER:                  -7.495
REMARK INTRA:                  -0.322
REMARK UNBOUND:                -0.331
REMARK SMILES O=c1c(O)c(-c2ccc(O)c(O)c2)oc2cc(O)cc(O)c12
REMARK SMILES IDX 5 1 3 2 2 3 1 4 22 5 20 6 19 7 17 8 16 9 15 10 14 11 6 12
REMARK SMILES IDX 7 13 8 14 9 15 13 16 11 17 10 18 12 20 4 22 21 24 18 26
REMARK H PARENT 10 19 12 21 4 23 21 25 18 27
REMARK Flexibility Score: inf
ROOT
ATOM      1  C   UNL     1      -3.679   7.165   3.307  1.00  0.00     0.180 A 
ATOM      2  C   UNL     1      -4.971   6.739   2.953  1.00  0.00     0.208 A 
ATOM      3  C   UNL     1      -5.357   6.784   1.604  1.00  0.00     0.238 A 
ATOM      4  O   UNL     1      -6.538   6.472   1.304  1.00  0.00    -0.285 OA
ATOM      5  C   UNL     1      -4.429   7.199   0.619  1.00  0.00     0.111 A 
ATOM      6  C   UNL     1      -4.697   7.240  -0.784  1.00  0.00     0.134 A 
ATOM      7  C   UNL     1      -3.736   7.771  -1.654  1.00  0.00     0.093 A 
ATOM      8  C   UNL     1      -2.496   8.200  -1.185  1.00  0.00     0.123 A 
ATOM      9  C   UNL     1      -2.203   8.113   0.176  1.00  0.00     0.094 A 
ATOM     10  C   UNL     1      -3.154   7.626   1.076  1.00  0.00     0.146 A 
ATOM     11  O   UNL     1      -2.842   7.580   2.364  1.00  0.00    -0.452 OA
ENDROOT
BRANCH   1  12
ATOM     12  C   UNL     1      -3.205   7.161   4.709  1.00  0.00     0.025 A 
ATOM     13  C   UNL     1      -3.405   8.295   5.508  1.00  0.00     0.016 A 
ATOM     14  C   UNL     1      -2.984   8.306   6.839  1.00  0.00     0.051 A 
ATOM     15  C   UNL     1      -2.372   7.182   7.403  1.00  0.00     0.157 A 
ATOM     16  C   UNL     1      -2.611   6.021   5.279  1.00  0.00     0.062 A 
ATOM     17  C   UNL     1      -2.188   6.021   6.614  1.00  0.00     0.158 A 
BRANCH  15  18
ATOM     18  O   UNL     1      -1.967   7.260   8.738  1.00  0.00    -0.504 OA
ATOM     19  H   UNL     1      -2.599   7.400   9.512  1.00  0.00     0.293 HD
ENDBRANCH  15  18
BRANCH  17  20
ATOM     20  O   UNL     1      -1.604   4.855   7.114  1.00  0.00    -0.504 OA
ATOM     21  H   UNL     1      -2.092   3.976   7.210  1.00  0.00     0.293 HD
ENDBRANCH  17  20
ENDBRANCH   1  12
BRANCH   2  22
ATOM     22  O   UNL     1      -5.847   6.260   3.931  1.00  0.00    -0.502 OA
ATOM     23  H   UNL     1      -5.556   5.605   4.648  1.00  0.00     0.293 HD
ENDBRANCH   2  22
BRANCH   6  24
ATOM     24  O   UNL     1      -5.869   6.755  -1.372  1.00  0.00    -0.507 OA
ATOM     25  H   UNL     1      -5.906   6.028  -2.070  1.00  0.00     0.293 HD
ENDBRANCH   6  24
BRANCH   8  26
ATOM     26  O   UNL     1      -1.559   8.706  -2.083  1.00  0.00    -0.508 OA
ATOM     27  H   UNL     1      -1.794   9.445  -2.736  1.00  0.00     0.293 HD
ENDBRANCH   8  26
TORSDOF 6
ENDMDL
MODEL 8
REMARK VINA RESULT:    -6.206      1.625      6.801
REMARK INTER + INTRA:          -7.807
REMARK INTER:                  -8.243
REMARK INTRA:                   0.436
REMARK UNBOUND:                -0.331
REMARK SMILES O=c1c(O)c(-c2ccc(O)c(O)c2)oc2cc(O)cc(O)c12
REMARK SMILES IDX 5 1 3 2 2 3 1 4 22 5 20 6 19 7 17 8 16 9 15 10 14 11 6 12
REMARK SMILES IDX 7 13 8 14 9 15 13 16 11 17 10 18 12 20 4 22 21 24 18 26
REMARK H PARENT 10 19 12 21 4 23 21 25 18 27
REMARK Flexibility Score: inf
ROOT
ATOM      1  C   UNL     1      -4.077   6.821   1.265  1.00  0.00     0.180 A 
ATOM      2  C   UNL     1      -2.778   6.788   0.731  1.00  0.00     0.208 A 
ATOM      3  C   UNL     1      -1.681   6.741   1.606  1.00  0.00     0.238 A 
ATOM      4  O   UNL     1      -0.521   6.787   1.123  1.00  0.00    -0.285 OA
ATOM      5  C   UNL     1      -1.898   6.671   3.004  1.00  0.00     0.111 A 
ATOM      6  C   UNL     1      -0.862   6.573   3.982  1.00  0.00     0.134 A 
ATOM      7  C   UNL     1      -1.192   6.617   5.343  1.00  0.00     0.093 A 
ATOM      8  C   UNL     1      -2.519   6.689   5.761  1.00  0.00     0.123 A 
ATOM      9  C   UNL     1      -3.543   6.728   4.814  1.00  0.00     0.094 A 
ATOM     10  C   UNL     1      -3.245   6.726   3.449  1.00  0.00     0.146 A 
ATOM     11  O   UNL     1      -4.247   6.786   2.582  1.00  0.00    -0.452 OA
ENDROOT
BRANCH   1  12
ATOM     12  C   UNL     1      -5.281   6.885   0.407  1.00  0.00     0.025 A 
ATOM     13  C   UNL     1      -6.550   6.741   0.987  1.00  0.00     0.016 A 
ATOM     14  C   UNL     1      -7.700   6.818   0.199  1.00  0.00     0.051 A 
ATOM     15  C   UNL     1      -7.609   7.056  -1.176  1.00  0.00     0.157 A 
ATOM     16  C   UNL     1      -5.186   7.147  -0.971  1.00  0.00     0.062 A 
ATOM     17  C   UNL     1      -6.334   7.229  -1.768  1.00  0.00     0.158 A 
BRANCH  15  18
ATOM     18  O   UNL     1      -8.796   7.115  -1.909  1.00  0.00    -0.504 OA
ATOM     19  H   UNL     1      -9.580   7.701  -1.666  1.00  0.00     0.293 HD
ENDBRANCH  15  18
BRANCH  17  20
ATOM     20  O   UNL     1      -6.165   7.490  -3.130  1.00  0.00    -0.504 OA
ATOM     21  H   UNL     1      -5.841   6.808  -3.799  1.00  0.00     0.293 HD
ENDBRANCH  17  20
ENDBRANCH   1  12
BRANCH   2  22
ATOM     22  O   UNL     1      -2.587   6.781  -0.654  1.00  0.00    -0.502 OA
ATOM     23  H   UNL     1      -3.359   6.805  -1.310  1.00  0.00     0.293 HD
ENDBRANCH   2  22
BRANCH   6  24
ATOM     24  O   UNL     1       0.492   6.409   3.677  1.00  0.00    -0.507 OA
ATOM     25  H   UNL     1       0.957   6.811   2.877  1.00  0.00     0.293 HD
ENDBRANCH   6  24
BRANCH   8  26
ATOM     26  O   UNL     1      -2.811   6.713   7.123  1.00  0.00    -0.508 OA
ATOM     27  H   UNL     1      -2.888   5.861   7.665  1.00  0.00     0.293 HD
ENDBRANCH   8  26
TORSDOF 6
ENDMDL
MODEL 9
REMARK VINA RESULT:    -6.143     15.623     16.727
REMARK INTER + INTRA:          -7.731
REMARK INTER:                  -8.204
REMARK INTRA:                   0.473
REMARK UNBOUND:                -0.331
REMARK SMILES O=c1c(O)c(-c2ccc(O)c(O)c2)oc2cc(O)cc(O)c12
REMARK SMILES IDX 5 1 3 2 2 3 1 4 22 5 20 6 19 7 17 8 16 9 15 10 14 11 6 12
REMARK SMILES IDX 7 13 8 14 9 15 13 16 11 17 10 18 12 20 4 22 21 24 18 26
REMARK H PARENT 10 19 12 21 4 23 21 25 18 27
REMARK Flexibility Score: inf
ROOT
ATOM      1  C   UNL     1      -0.655  -7.840  -0.666  1.00  0.00     0.180 A 
ATOM      2  C   UNL     1      -1.707  -7.491  -1.530  1.00  0.00     0.208 A 
ATOM      3  C   UNL     1      -3.026  -7.538  -1.051  1.00  0.00     0.238 A 
ATOM      4  O   UNL     1      -3.967  -7.297  -1.850  1.00  0.00    -0.285 OA
ATOM      5  C   UNL     1      -3.273  -7.877   0.302  1.00  0.00     0.111 A 
ATOM      6  C   UNL     1      -4.566  -7.912   0.907  1.00  0.00     0.134 A 
ATOM      7  C   UNL     1      -4.698  -8.366   2.226  1.00  0.00     0.093 A 
ATOM      8  C   UNL     1      -3.583  -8.723   2.981  1.00  0.00     0.123 A 
ATOM      9  C   UNL     1      -2.309  -8.640   2.417  1.00  0.00     0.094 A 
ATOM     10  C   UNL     1      -2.147  -8.229   1.092  1.00  0.00     0.146 A 
ATOM     11  O   UNL     1      -0.920  -8.185   0.588  1.00  0.00    -0.452 OA
ENDROOT
BRANCH   1  12
ATOM     12  C   UNL     1       0.759  -7.829  -1.103  1.00  0.00     0.025 A 
ATOM     13  C   UNL     1       1.757  -8.264  -0.219  1.00  0.00     0.016 A 
ATOM     14  C   UNL     1       3.095  -8.281  -0.617  1.00  0.00     0.051 A 
ATOM     15  C   UNL     1       3.462  -7.881  -1.906  1.00  0.00     0.157 A 
ATOM     16  C   UNL     1       1.121  -7.448  -2.406  1.00  0.00     0.062 A 
ATOM     17  C   UNL     1       2.461  -7.465  -2.815  1.00  0.00     0.158 A 
BRANCH  15  18
ATOM     18  O   UNL     1       4.818  -7.915  -2.239  1.00  0.00    -0.504 OA
ATOM     19  H   UNL     1       5.504  -7.269  -1.877  1.00  0.00     0.293 HD
ENDBRANCH  15  18
BRANCH  17  20
ATOM     20  O   UNL     1       2.748  -7.072  -4.124  1.00  0.00    -0.504 OA
ATOM     21  H   UNL     1       3.369  -7.575  -4.742  1.00  0.00     0.293 HD
ENDBRANCH  17  20
ENDBRANCH   1  12
BRANCH   2  22
ATOM     22  O   UNL     1      -1.437  -7.085  -2.839  1.00  0.00    -0.502 OA
ATOM     23  H   UNL     1      -1.140  -6.143  -3.067  1.00  0.00     0.293 HD
ENDBRANCH   2  22
BRANCH   6  24
ATOM     24  O   UNL     1      -5.740  -7.493   0.274  1.00  0.00    -0.507 OA
ATOM     25  H   UNL     1      -6.650  -7.461   0.707  1.00  0.00     0.293 HD
ENDBRANCH   6  24
BRANCH   8  26
ATOM     26  O   UNL     1      -3.751  -9.154   4.295  1.00  0.00    -0.508 OA
ATOM     27  H   UNL     1      -4.629  -9.030   4.786  1.00  0.00     0.293 HD
ENDBRANCH   8  26
TORSDOF 6
ENDMDL
