MODEL 1
REMARK VINA RESULT:    -4.493      0.000      0.000
REMARK INTER + INTRA:         -12.806
REMARK INTER:                  -9.747
REMARK INTRA:                  -3.060
REMARK UNBOUND:                -3.060
REMARK SMILES CCCCCCCCCCCCCCCCCCCCCC(=O)[O-]
REMARK SMILES IDX 12 1 11 2 10 3 9 4 8 5 7 6 6 7 5 8 4 9 3 10 2 11 1 12 13 13
REMARK SMILES IDX 14 14 15 15 16 16 17 17 18 18 19 19 20 20 21 21 22 22 23 23
REMARK SMILES IDX 24 24
REMARK H PARENT
REMARK Flexibility Score: inf
ROOT
ATOM      1  C   UNL     1      61.878 -28.944  -0.473  1.00  0.00     0.000 C 
ENDROOT
BRANCH   1   2
ATOM      2  C   UNL     1      60.526 -28.932  -1.205  1.00  0.00     0.000 C 
BRANCH   2   3
ATOM      3  C   UNL     1      59.335 -28.759  -0.249  1.00  0.00     0.000 C 
BRANCH   3   4
ATOM      4  C   UNL     1      59.272 -29.836   0.856  1.00  0.00    -0.000 C 
BRANCH   4   5
ATOM      5  C   UNL     1      59.544 -29.250   2.252  1.00  0.00    -0.000 C 
BRANCH   5   6
ATOM      6  C   UNL     1      58.403 -28.346   2.755  1.00  0.00    -0.000 C 
BRANCH   6   7
ATOM      7  C   UNL     1      56.984 -28.883   2.495  1.00  0.00    -0.000 C 
BRANCH   7   8
ATOM      8  C   UNL     1      56.024 -27.807   1.960  1.00  0.00    -0.000 C 
BRANCH   8   9
ATOM      9  C   UNL     1      56.755 -26.700   1.183  1.00  0.00    -0.000 C 
BRANCH   9  10
ATOM     10  C   UNL     1      56.155 -26.465  -0.212  1.00  0.00    -0.000 C 
BRANCH  10  11
ATOM     11  C   UNL     1      55.325 -27.673  -0.663  1.00  0.00    -0.003 C 
ATOM     12  C   UNL     1      56.083 -28.509  -1.690  1.00  0.00     0.004 C 
ENDBRANCH  10  11
ENDBRANCH   9  10
ENDBRANCH   8   9
ENDBRANCH   7   8
ENDBRANCH   6   7
ENDBRANCH   5   6
ENDBRANCH   4   5
ENDBRANCH   3   4
ENDBRANCH   2   3
ENDBRANCH   1   2
BRANCH   1  13
ATOM     13  C   UNL     1      63.072 -28.856  -1.434  1.00  0.00     0.000 C 
BRANCH  13  14
ATOM     14  C   UNL     1      63.655 -27.435  -1.522  1.00  0.00     0.000 C 
BRANCH  14  15
ATOM     15  C   UNL     1      63.554 -26.849  -2.938  1.00  0.00     0.000 C 
BRANCH  15  16
ATOM     16  C   UNL     1      62.579 -25.662  -3.020  1.00  0.00     0.000 C 
BRANCH  16  17
ATOM     17  C   UNL     1      61.147 -26.087  -3.390  1.00  0.00     0.000 C 
BRANCH  17  18
ATOM     18  C   UNL     1      60.037 -25.472  -2.511  1.00  0.00     0.000 C 
BRANCH  18  19
ATOM     19  C   UNL     1      58.616 -26.010  -2.774  1.00  0.00     0.000 C 
BRANCH  19  20
ATOM     20  C   UNL     1      58.369 -26.511  -4.209  1.00  0.00     0.006 C 
BRANCH  20  21
ATOM     21  C   UNL     1      57.581 -25.506  -5.060  1.00  0.00     0.053 C 
BRANCH  21  22
ATOM     22  C   UNL     1      58.465 -24.378  -5.495  1.00  0.00     0.041 C 
ATOM     23  O   UNL     1      59.336 -24.562  -6.386  1.00  0.00    -0.550 OA
ATOM     24  O   UNL     1      58.312 -23.114  -4.932  1.00  0.00    -0.550 OA
ENDBRANCH  21  22
ENDBRANCH  20  21
ENDBRANCH  19  20
ENDBRANCH  18  19
ENDBRANCH  17  18
ENDBRANCH  16  17
ENDBRANCH  15  16
ENDBRANCH  14  15
ENDBRANCH  13  14
ENDBRANCH   1  13
TORSDOF 20
ENDMDL
MODEL 2
REMARK VINA RESULT:    -4.488      2.235      5.618
REMARK INTER + INTRA:         -12.794
REMARK INTER:                  -9.682
REMARK INTRA:                  -3.112
REMARK UNBOUND:                -3.060
REMARK SMILES CCCCCCCCCCCCCCCCCCCCCC(=O)[O-]
REMARK SMILES IDX 12 1 11 2 10 3 9 4 8 5 7 6 6 7 5 8 4 9 3 10 2 11 1 12 13 13
REMARK SMILES IDX 14 14 15 15 16 16 17 17 18 18 19 19 20 20 21 21 22 22 23 23
REMARK SMILES IDX 24 24
REMARK H PARENT
REMARK Flexibility Score: inf
ROOT
ATOM      1  C   UNL     1      63.612 -27.019  -1.739  1.00  0.00     0.000 C 
ENDROOT
BRANCH   1   2
ATOM      2  C   UNL     1      63.150 -26.396  -3.066  1.00  0.00     0.000 C 
BRANCH   2   3
ATOM      3  C   UNL     1      61.784 -25.700  -2.951  1.00  0.00     0.000 C 
BRANCH   3   4
ATOM      4  C   UNL     1      60.588 -26.660  -3.130  1.00  0.00    -0.000 C 
BRANCH   4   5
ATOM      5  C   UNL     1      59.363 -26.217  -2.313  1.00  0.00    -0.000 C 
BRANCH   5   6
ATOM      6  C   UNL     1      58.069 -26.939  -2.734  1.00  0.00    -0.000 C 
BRANCH   6   7
ATOM      7  C   UNL     1      57.147 -26.132  -3.666  1.00  0.00    -0.000 C 
BRANCH   7   8
ATOM      8  C   UNL     1      57.296 -24.611  -3.486  1.00  0.00    -0.000 C 
BRANCH   8   9
ATOM      9  C   UNL     1      57.606 -23.890  -4.809  1.00  0.00    -0.000 C 
BRANCH   9  10
ATOM     10  C   UNL     1      59.111 -23.843  -5.114  1.00  0.00    -0.000 C 
BRANCH  10  11
ATOM     11  C   UNL     1      59.506 -24.948  -6.101  1.00  0.00    -0.003 C 
ATOM     12  C   UNL     1      60.962 -24.804  -6.535  1.00  0.00     0.004 C 
ENDBRANCH  10  11
ENDBRANCH   9  10
ENDBRANCH   8   9
ENDBRANCH   7   8
ENDBRANCH   6   7
ENDBRANCH   5   6
ENDBRANCH   4   5
ENDBRANCH   3   4
ENDBRANCH   2   3
ENDBRANCH   1   2
BRANCH   1  13
ATOM     13  C   UNL     1      63.382 -28.536  -1.686  1.00  0.00     0.000 C 
BRANCH  13  14
ATOM     14  C   UNL     1      62.690 -28.982  -0.387  1.00  0.00     0.000 C 
BRANCH  14  15
ATOM     15  C   UNL     1      61.169 -29.121  -0.555  1.00  0.00     0.000 C 
BRANCH  15  16
ATOM     16  C   UNL     1      60.433 -29.242   0.791  1.00  0.00     0.000 C 
BRANCH  16  17
ATOM     17  C   UNL     1      59.169 -30.117   0.706  1.00  0.00     0.000 C 
BRANCH  17  18
ATOM     18  C   UNL     1      58.081 -29.595  -0.256  1.00  0.00     0.000 C 
BRANCH  18  19
ATOM     19  C   UNL     1      56.920 -28.833   0.415  1.00  0.00     0.000 C 
BRANCH  19  20
ATOM     20  C   UNL     1      57.202 -27.346   0.700  1.00  0.00     0.006 C 
BRANCH  20  21
ATOM     21  C   UNL     1      55.928 -26.550   1.013  1.00  0.00     0.053 C 
BRANCH  21  22
ATOM     22  C   UNL     1      55.386 -25.915  -0.230  1.00  0.00     0.041 C 
ATOM     23  O   UNL     1      55.548 -24.682  -0.434  1.00  0.00    -0.550 OA
ATOM     24  O   UNL     1      54.723 -26.688  -1.177  1.00  0.00    -0.550 OA
ENDBRANCH  21  22
ENDBRANCH  20  21
ENDBRANCH  19  20
ENDBRANCH  18  19
ENDBRANCH  17  18
ENDBRANCH  16  17
ENDBRANCH  15  16
ENDBRANCH  14  15
ENDBRANCH  13  14
ENDBRANCH   1  13
TORSDOF 20
ENDMDL
MODEL 3
REMARK VINA RESULT:    -4.455      1.775      3.546
REMARK INTER + INTRA:         -12.724
REMARK INTER:                 -10.240
REMARK INTRA:                  -2.484
REMARK UNBOUND:                -3.060
REMARK SMILES CCCCCCCCCCCCCCCCCCCCCC(=O)[O-]
REMARK SMILES IDX 12 1 11 2 10 3 9 4 8 5 7 6 6 7 5 8 4 9 3 10 2 11 1 12 13 13
REMARK SMILES IDX 14 14 15 15 16 16 17 17 18 18 19 19 20 20 21 21 22 22 23 23
REMARK SMILES IDX 24 24
REMARK H PARENT
REMARK Flexibility Score: inf
ROOT
ATOM      1  C   UNL     1      63.709 -27.247  -1.716  1.00  0.00     0.000 C 
ENDROOT
BRANCH   1   2
ATOM      2  C   UNL     1      63.160 -28.679  -1.612  1.00  0.00     0.000 C 
BRANCH   2   3
ATOM      3  C   UNL     1      62.776 -29.065  -0.174  1.00  0.00     0.000 C 
BRANCH   3   4
ATOM      4  C   UNL     1      61.255 -29.230   0.033  1.00  0.00    -0.000 C 
BRANCH   4   5
ATOM      5  C   UNL     1      60.457 -28.881  -1.235  1.00  0.00    -0.000 C 
BRANCH   5   6
ATOM      6  C   UNL     1      58.941 -28.776  -0.979  1.00  0.00    -0.000 C 
BRANCH   6   7
ATOM      7  C   UNL     1      58.355 -29.881  -0.082  1.00  0.00    -0.000 C 
BRANCH   7   8
ATOM      8  C   UNL     1      57.178 -29.392   0.780  1.00  0.00    -0.000 C 
BRANCH   8   9
ATOM      9  C   UNL     1      57.558 -29.236   2.262  1.00  0.00    -0.000 C 
BRANCH   9  10
ATOM     10  C   UNL     1      58.455 -28.015   2.513  1.00  0.00    -0.000 C 
BRANCH  10  11
ATOM     11  C   UNL     1      59.335 -28.226   3.751  1.00  0.00    -0.003 C 
ATOM     12  C   UNL     1      60.396 -29.293   3.498  1.00  0.00     0.004 C 
ENDBRANCH  10  11
ENDBRANCH   9  10
ENDBRANCH   8   9
ENDBRANCH   7   8
ENDBRANCH   6   7
ENDBRANCH   5   6
ENDBRANCH   4   5
ENDBRANCH   3   4
ENDBRANCH   2   3
ENDBRANCH   1   2
BRANCH   1  13
ATOM     13  C   UNL     1      63.487 -26.628  -3.104  1.00  0.00     0.000 C 
BRANCH  13  14
ATOM     14  C   UNL     1      62.379 -25.561  -3.103  1.00  0.00     0.000 C 
BRANCH  14  15
ATOM     15  C   UNL     1      60.974 -26.180  -3.152  1.00  0.00     0.000 C 
BRANCH  15  16
ATOM     16  C   UNL     1      59.875 -25.188  -2.733  1.00  0.00     0.000 C 
BRANCH  16  17
ATOM     17  C   UNL     1      58.488 -25.562  -3.287  1.00  0.00     0.000 C 
BRANCH  17  18
ATOM     18  C   UNL     1      58.508 -26.496  -4.515  1.00  0.00     0.000 C 
BRANCH  18  19
ATOM     19  C   UNL     1      58.224 -25.812  -5.868  1.00  0.00     0.000 C 
BRANCH  19  20
ATOM     20  C   UNL     1      59.261 -24.753  -6.287  1.00  0.00     0.006 C 
BRANCH  20  21
ATOM     21  C   UNL     1      60.602 -25.371  -6.705  1.00  0.00     0.053 C 
BRANCH  21  22
ATOM     22  C   UNL     1      60.756 -25.334  -8.194  1.00  0.00     0.041 C 
ATOM     23  O   UNL     1      61.641 -26.032  -8.757  1.00  0.00    -0.550 OA
ATOM     24  O   UNL     1      59.906 -24.546  -8.965  1.00  0.00    -0.550 OA
ENDBRANCH  21  22
ENDBRANCH  20  21
ENDBRANCH  19  20
ENDBRANCH  18  19
ENDBRANCH  17  18
ENDBRANCH  16  17
ENDBRANCH  15  16
ENDBRANCH  14  15
ENDBRANCH  13  14
ENDBRANCH   1  13
TORSDOF 20
ENDMDL
MODEL 4
REMARK VINA RESULT:    -4.447      3.874      7.077
REMARK INTER + INTRA:         -12.706
REMARK INTER:                  -9.958
REMARK INTRA:                  -2.748
REMARK UNBOUND:                -3.060
REMARK SMILES CCCCCCCCCCCCCCCCCCCCCC(=O)[O-]
REMARK SMILES IDX 12 1 11 2 10 3 9 4 8 5 7 6 6 7 5 8 4 9 3 10 2 11 1 12 13 13
REMARK SMILES IDX 14 14 15 15 16 16 17 17 18 18 19 19 20 20 21 21 22 22 23 23
REMARK SMILES IDX 24 24
REMARK H PARENT
REMARK Flexibility Score: inf
ROOT
ATOM      1  C   UNL     1      63.769 -26.808  -2.179  1.00  0.00     0.000 C 
ENDROOT
BRANCH   1   2
ATOM      2  C   UNL     1      62.960 -25.887  -3.106  1.00  0.00     0.000 C 
BRANCH   2   3
ATOM      3  C   UNL     1      61.471 -26.266  -3.168  1.00  0.00     0.000 C 
BRANCH   3   4
ATOM      4  C   UNL     1      60.536 -25.182  -2.590  1.00  0.00    -0.000 C 
BRANCH   4   5
ATOM      5  C   UNL     1      59.082 -25.670  -2.479  1.00  0.00    -0.000 C 
BRANCH   5   6
ATOM      6  C   UNL     1      58.706 -26.687  -3.573  1.00  0.00    -0.000 C 
BRANCH   6   7
ATOM      7  C   UNL     1      57.693 -26.179  -4.614  1.00  0.00    -0.000 C 
BRANCH   7   8
ATOM      8  C   UNL     1      57.389 -24.678  -4.472  1.00  0.00    -0.000 C 
BRANCH   8   9
ATOM      9  C   UNL     1      57.473 -23.930  -5.814  1.00  0.00    -0.000 C 
BRANCH   9  10
ATOM     10  C   UNL     1      58.597 -24.463  -6.714  1.00  0.00    -0.000 C 
BRANCH  10  11
ATOM     11  C   UNL     1      59.975 -24.106  -6.142  1.00  0.00    -0.003 C 
ATOM     12  C   UNL     1      61.018 -25.151  -6.526  1.00  0.00     0.004 C 
ENDBRANCH  10  11
ENDBRANCH   9  10
ENDBRANCH   8   9
ENDBRANCH   7   8
ENDBRANCH   6   7
ENDBRANCH   5   6
ENDBRANCH   4   5
ENDBRANCH   3   4
ENDBRANCH   2   3
ENDBRANCH   1   2
BRANCH   1  13
ATOM     13  C   UNL     1      63.135 -28.198  -2.024  1.00  0.00     0.000 C 
BRANCH  13  14
ATOM     14  C   UNL     1      63.150 -28.694  -0.569  1.00  0.00     0.000 C 
BRANCH  14  15
ATOM     15  C   UNL     1      61.770 -29.186  -0.106  1.00  0.00     0.000 C 
BRANCH  15  16
ATOM     16  C   UNL     1      60.670 -28.932  -1.151  1.00  0.00     0.000 C 
BRANCH  16  17
ATOM     17  C   UNL     1      59.264 -28.843  -0.531  1.00  0.00     0.000 C 
BRANCH  17  18
ATOM     18  C   UNL     1      59.043 -29.729   0.713  1.00  0.00     0.000 C 
BRANCH  18  19
ATOM     19  C   UNL     1      58.000 -29.203   1.720  1.00  0.00     0.000 C 
BRANCH  19  20
ATOM     20  C   UNL     1      58.591 -28.612   3.013  1.00  0.00     0.006 C 
BRANCH  20  21
ATOM     21  C   UNL     1      60.104 -28.841   3.132  1.00  0.00     0.053 C 
BRANCH  21  22
ATOM     22  C   UNL     1      60.468 -29.239   4.529  1.00  0.00     0.041 C 
ATOM     23  O   UNL     1      61.472 -28.728   5.092  1.00  0.00    -0.550 OA
ATOM     24  O   UNL     1      59.684 -30.158   5.220  1.00  0.00    -0.550 OA
ENDBRANCH  21  22
ENDBRANCH  20  21
ENDBRANCH  19  20
ENDBRANCH  18  19
ENDBRANCH  17  18
ENDBRANCH  16  17
ENDBRANCH  15  16
ENDBRANCH  14  15
ENDBRANCH  13  14
ENDBRANCH   1  13
TORSDOF 20
ENDMDL
MODEL 5
REMARK VINA RESULT:    -4.409      3.872      7.101
REMARK INTER + INTRA:         -12.623
REMARK INTER:                 -10.272
REMARK INTRA:                  -2.350
REMARK UNBOUND:                -3.060
REMARK SMILES CCCCCCCCCCCCCCCCCCCCCC(=O)[O-]
REMARK SMILES IDX 12 1 11 2 10 3 9 4 8 5 7 6 6 7 5 8 4 9 3 10 2 11 1 12 13 13
REMARK SMILES IDX 14 14 15 15 16 16 17 17 18 18 19 19 20 20 21 21 22 22 23 23
REMARK SMILES IDX 24 24
REMARK H PARENT
REMARK Flexibility Score: inf
ROOT
ATOM      1  C   UNL     1      61.935 -29.171  -0.213  1.00  0.00     0.000 C 
ENDROOT
BRANCH   1   2
ATOM      2  C   UNL     1      62.987 -29.088  -1.331  1.00  0.00     0.000 C 
BRANCH   2   3
ATOM      3  C   UNL     1      63.577 -27.677  -1.489  1.00  0.00     0.000 C 
BRANCH   3   4
ATOM      4  C   UNL     1      63.427 -27.104  -2.915  1.00  0.00    -0.000 C 
BRANCH   4   5
ATOM      5  C   UNL     1      62.478 -25.894  -2.956  1.00  0.00    -0.000 C 
BRANCH   5   6
ATOM      6  C   UNL     1      60.992 -26.297  -2.911  1.00  0.00    -0.000 C 
BRANCH   6   7
ATOM      7  C   UNL     1      60.088 -25.566  -3.921  1.00  0.00    -0.000 C 
BRANCH   7   8
ATOM      8  C   UNL     1      58.877 -26.407  -4.360  1.00  0.00    -0.000 C 
BRANCH   8   9
ATOM      9  C   UNL     1      58.601 -27.583  -3.407  1.00  0.00    -0.000 C 
BRANCH   9  10
ATOM     10  C   UNL     1      57.345 -27.363  -2.550  1.00  0.00    -0.000 C 
BRANCH  10  11
ATOM     11  C   UNL     1      57.706 -26.737  -1.198  1.00  0.00    -0.003 C 
ATOM     12  C   UNL     1      57.276 -25.274  -1.137  1.00  0.00     0.004 C 
ENDBRANCH  10  11
ENDBRANCH   9  10
ENDBRANCH   8   9
ENDBRANCH   7   8
ENDBRANCH   6   7
ENDBRANCH   5   6
ENDBRANCH   4   5
ENDBRANCH   3   4
ENDBRANCH   2   3
ENDBRANCH   1   2
BRANCH   1  13
ATOM     13  C   UNL     1      60.499 -29.215  -0.754  1.00  0.00     0.000 C 
BRANCH  13  14
ATOM     14  C   UNL     1      59.477 -29.619   0.322  1.00  0.00     0.000 C 
BRANCH  14  15
ATOM     15  C   UNL     1      60.021 -29.427   1.746  1.00  0.00     0.000 C 
BRANCH  15  16
ATOM     16  C   UNL     1      59.045 -28.661   2.655  1.00  0.00     0.000 C 
BRANCH  16  17
ATOM     17  C   UNL     1      57.629 -28.557   2.059  1.00  0.00     0.000 C 
BRANCH  17  18
ATOM     18  C   UNL     1      56.509 -28.287   3.086  1.00  0.00     0.000 C 
BRANCH  18  19
ATOM     19  C   UNL     1      55.665 -29.516   3.478  1.00  0.00     0.000 C 
BRANCH  19  20
ATOM     20  C   UNL     1      54.564 -29.893   2.469  1.00  0.00     0.006 C 
BRANCH  20  21
ATOM     21  C   UNL     1      54.658 -31.352   2.007  1.00  0.00     0.053 C 
BRANCH  21  22
ATOM     22  C   UNL     1      53.351 -31.808   1.433  1.00  0.00     0.041 C 
ATOM     23  O   UNL     1      52.307 -31.127   1.616  1.00  0.00    -0.550 OA
ATOM     24  O   UNL     1      53.290 -32.973   0.676  1.00  0.00    -0.550 OA
ENDBRANCH  21  22
ENDBRANCH  20  21
ENDBRANCH  19  20
ENDBRANCH  18  19
ENDBRANCH  17  18
ENDBRANCH  16  17
ENDBRANCH  15  16
ENDBRANCH  14  15
ENDBRANCH  13  14
ENDBRANCH   1  13
TORSDOF 20
ENDMDL
MODEL 6
REMARK VINA RESULT:    -4.401      3.707      6.198
REMARK INTER + INTRA:         -12.607
REMARK INTER:                  -9.784
REMARK INTRA:                  -2.824
REMARK UNBOUND:                -3.060
REMARK SMILES CCCCCCCCCCCCCCCCCCCCCC(=O)[O-]
REMARK SMILES IDX 12 1 11 2 10 3 9 4 8 5 7 6 6 7 5 8 4 9 3 10 2 11 1 12 13 13
REMARK SMILES IDX 14 14 15 15 16 16 17 17 18 18 19 19 20 20 21 21 22 22 23 23
REMARK SMILES IDX 24 24
REMARK H PARENT
REMARK Flexibility Score: inf
ROOT
ATOM      1  C   UNL     1      61.644 -26.473  -3.199  1.00  0.00     0.000 C 
ENDROOT
BRANCH   1   2
ATOM      2  C   UNL     1      63.120 -26.232  -2.842  1.00  0.00     0.000 C 
BRANCH   2   3
ATOM      3  C   UNL     1      63.600 -27.109  -1.674  1.00  0.00     0.000 C 
BRANCH   3   4
ATOM      4  C   UNL     1      63.097 -28.566  -1.753  1.00  0.00    -0.000 C 
BRANCH   4   5
ATOM      5  C   UNL     1      62.256 -28.957  -0.525  1.00  0.00    -0.000 C 
BRANCH   5   6
ATOM      6  C   UNL     1      60.743 -28.966  -0.814  1.00  0.00    -0.000 C 
BRANCH   6   7
ATOM      7  C   UNL     1      59.851 -29.290   0.398  1.00  0.00    -0.000 C 
BRANCH   7   8
ATOM      8  C   UNL     1      60.637 -29.360   1.719  1.00  0.00    -0.000 C 
BRANCH   8   9
ATOM      9  C   UNL     1      59.885 -28.701   2.888  1.00  0.00    -0.000 C 
BRANCH   9  10
ATOM     10  C   UNL     1      58.360 -28.829   2.753  1.00  0.00    -0.000 C 
BRANCH  10  11
ATOM     11  C   UNL     1      57.672 -27.479   2.987  1.00  0.00    -0.003 C 
ATOM     12  C   UNL     1      58.344 -26.708   4.119  1.00  0.00     0.004 C 
ENDBRANCH  10  11
ENDBRANCH   9  10
ENDBRANCH   8   9
ENDBRANCH   7   8
ENDBRANCH   6   7
ENDBRANCH   5   6
ENDBRANCH   4   5
ENDBRANCH   3   4
ENDBRANCH   2   3
ENDBRANCH   1   2
BRANCH   1  13
ATOM     13  C   UNL     1      60.791 -25.203  -3.074  1.00  0.00     0.000 C 
BRANCH  13  14
ATOM     14  C   UNL     1      59.286 -25.511  -2.980  1.00  0.00     0.000 C 
BRANCH  14  15
ATOM     15  C   UNL     1      58.956 -26.943  -3.428  1.00  0.00     0.000 C 
BRANCH  15  16
ATOM     16  C   UNL     1      57.886 -27.608  -2.545  1.00  0.00     0.000 C 
BRANCH  16  17
ATOM     17  C   UNL     1      57.623 -26.834  -1.240  1.00  0.00     0.000 C 
BRANCH  17  18
ATOM     18  C   UNL     1      56.364 -27.276  -0.464  1.00  0.00     0.000 C 
BRANCH  18  19
ATOM     19  C   UNL     1      56.191 -28.800  -0.303  1.00  0.00     0.000 C 
BRANCH  19  20
ATOM     20  C   UNL     1      54.880 -29.232   0.381  1.00  0.00     0.006 C 
BRANCH  20  21
ATOM     21  C   UNL     1      55.114 -30.177   1.567  1.00  0.00     0.053 C 
BRANCH  21  22
ATOM     22  C   UNL     1      53.991 -31.160   1.686  1.00  0.00     0.041 C 
ATOM     23  O   UNL     1      52.836 -30.768   2.004  1.00  0.00    -0.550 OA
ATOM     24  O   UNL     1      54.212 -32.508   1.422  1.00  0.00    -0.550 OA
ENDBRANCH  21  22
ENDBRANCH  20  21
ENDBRANCH  19  20
ENDBRANCH  18  19
ENDBRANCH  17  18
ENDBRANCH  16  17
ENDBRANCH  15  16
ENDBRANCH  14  15
ENDBRANCH  13  14
ENDBRANCH   1  13
TORSDOF 20
ENDMDL
MODEL 7
REMARK VINA RESULT:    -4.396      1.385      4.285
REMARK INTER + INTRA:         -12.596
REMARK INTER:                  -9.444
REMARK INTRA:                  -3.152
REMARK UNBOUND:                -3.060
REMARK SMILES CCCCCCCCCCCCCCCCCCCCCC(=O)[O-]
REMARK SMILES IDX 12 1 11 2 10 3 9 4 8 5 7 6 6 7 5 8 4 9 3 10 2 11 1 12 13 13
REMARK SMILES IDX 14 14 15 15 16 16 17 17 18 18 19 19 20 20 21 21 22 22 23 23
REMARK SMILES IDX 24 24
REMARK H PARENT
REMARK Flexibility Score: inf
ROOT
ATOM      1  C   UNL     1      60.838 -25.391  -2.864  1.00  0.00     0.000 C 
ENDROOT
BRANCH   1   2
ATOM      2  C   UNL     1      61.886 -26.391  -3.380  1.00  0.00     0.000 C 
BRANCH   2   3
ATOM      3  C   UNL     1      63.279 -26.159  -2.773  1.00  0.00     0.000 C 
BRANCH   3   4
ATOM      4  C   UNL     1      63.635 -27.159  -1.652  1.00  0.00    -0.000 C 
BRANCH   4   5
ATOM      5  C   UNL     1      62.907 -28.503  -1.821  1.00  0.00    -0.000 C 
BRANCH   5   6
ATOM      6  C   UNL     1      62.102 -28.909  -0.573  1.00  0.00    -0.000 C 
BRANCH   6   7
ATOM      7  C   UNL     1      60.625 -29.256  -0.835  1.00  0.00    -0.000 C 
BRANCH   7   8
ATOM      8  C   UNL     1      59.848 -29.583   0.452  1.00  0.00    -0.000 C 
BRANCH   8   9
ATOM      9  C   UNL     1      58.479 -30.224   0.167  1.00  0.00    -0.000 C 
BRANCH   9  10
ATOM     10  C   UNL     1      57.315 -29.406   0.745  1.00  0.00    -0.000 C 
BRANCH  10  11
ATOM     11  C   UNL     1      57.831 -28.199   1.537  1.00  0.00    -0.003 C 
ATOM     12  C   UNL     1      56.737 -27.151   1.718  1.00  0.00     0.004 C 
ENDBRANCH  10  11
ENDBRANCH   9  10
ENDBRANCH   8   9
ENDBRANCH   7   8
ENDBRANCH   6   7
ENDBRANCH   5   6
ENDBRANCH   4   5
ENDBRANCH   3   4
ENDBRANCH   2   3
ENDBRANCH   1   2
BRANCH   1  13
ATOM     13  C   UNL     1      59.594 -26.081  -2.288  1.00  0.00     0.000 C 
BRANCH  13  14
ATOM     14  C   UNL     1      59.155 -27.296  -3.124  1.00  0.00     0.000 C 
BRANCH  14  15
ATOM     15  C   UNL     1      57.726 -27.750  -2.787  1.00  0.00     0.000 C 
BRANCH  15  16
ATOM     16  C   UNL     1      56.981 -26.743  -1.894  1.00  0.00     0.000 C 
BRANCH  16  17
ATOM     17  C   UNL     1      55.888 -25.966  -2.651  1.00  0.00     0.000 C 
BRANCH  17  18
ATOM     18  C   UNL     1      56.293 -25.477  -4.057  1.00  0.00     0.000 C 
BRANCH  18  19
ATOM     19  C   UNL     1      56.909 -24.064  -4.110  1.00  0.00     0.000 C 
BRANCH  19  20
ATOM     20  C   UNL     1      57.630 -23.722  -5.428  1.00  0.00     0.006 C 
BRANCH  20  21
ATOM     21  C   UNL     1      59.158 -23.769  -5.296  1.00  0.00     0.053 C 
BRANCH  21  22
ATOM     22  C   UNL     1      59.755 -24.600  -6.390  1.00  0.00     0.041 C 
ATOM     23  O   UNL     1      60.994 -24.825  -6.411  1.00  0.00    -0.550 OA
ATOM     24  O   UNL     1      58.939 -25.145  -7.377  1.00  0.00    -0.550 OA
ENDBRANCH  21  22
ENDBRANCH  20  21
ENDBRANCH  19  20
ENDBRANCH  18  19
ENDBRANCH  17  18
ENDBRANCH  16  17
ENDBRANCH  15  16
ENDBRANCH  14  15
ENDBRANCH  13  14
ENDBRANCH   1  13
TORSDOF 20
ENDMDL
MODEL 8
REMARK VINA RESULT:    -4.369      3.347      6.400
REMARK INTER + INTRA:         -12.538
REMARK INTER:                  -9.442
REMARK INTRA:                  -3.096
REMARK UNBOUND:                -3.060
REMARK SMILES CCCCCCCCCCCCCCCCCCCCCC(=O)[O-]
REMARK SMILES IDX 12 1 11 2 10 3 9 4 8 5 7 6 6 7 5 8 4 9 3 10 2 11 1 12 13 13
REMARK SMILES IDX 14 14 15 15 16 16 17 17 18 18 19 19 20 20 21 21 22 22 23 23
REMARK SMILES IDX 24 24
REMARK H PARENT
REMARK Flexibility Score: inf
ROOT
ATOM      1  C   UNL     1      61.787 -26.279  -3.390  1.00  0.00     0.000 C 
ENDROOT
BRANCH   1   2
ATOM      2  C   UNL     1      60.589 -25.658  -2.653  1.00  0.00     0.000 C 
BRANCH   2   3
ATOM      3  C   UNL     1      59.304 -26.489  -2.802  1.00  0.00     0.000 C 
BRANCH   3   4
ATOM      4  C   UNL     1      58.378 -26.414  -1.569  1.00  0.00    -0.000 C 
BRANCH   4   5
ATOM      5  C   UNL     1      56.952 -25.975  -1.940  1.00  0.00    -0.000 C 
BRANCH   5   6
ATOM      6  C   UNL     1      56.705 -25.966  -3.461  1.00  0.00    -0.000 C 
BRANCH   6   7
ATOM      7  C   UNL     1      56.331 -24.595  -4.052  1.00  0.00    -0.000 C 
BRANCH   7   8
ATOM      8  C   UNL     1      57.126 -24.254  -5.324  1.00  0.00    -0.000 C 
BRANCH   8   9
ATOM      9  C   UNL     1      58.251 -23.238  -5.062  1.00  0.00    -0.000 C 
BRANCH   9  10
ATOM     10  C   UNL     1      59.636 -23.785  -5.437  1.00  0.00    -0.000 C 
BRANCH  10  11
ATOM     11  C   UNL     1      59.515 -25.077  -6.253  1.00  0.00    -0.003 C 
ATOM     12  C   UNL     1      60.754 -25.303  -7.113  1.00  0.00     0.004 C 
ENDBRANCH  10  11
ENDBRANCH   9  10
ENDBRANCH   8   9
ENDBRANCH   7   8
ENDBRANCH   6   7
ENDBRANCH   5   6
ENDBRANCH   4   5
ENDBRANCH   3   4
ENDBRANCH   2   3
ENDBRANCH   1   2
BRANCH   1  13
ATOM     13  C   UNL     1      63.130 -25.942  -2.726  1.00  0.00     0.000 C 
BRANCH  13  14
ATOM     14  C   UNL     1      63.629 -27.067  -1.802  1.00  0.00     0.000 C 
BRANCH  14  15
ATOM     15  C   UNL     1      62.842 -28.372  -1.995  1.00  0.00     0.000 C 
BRANCH  15  16
ATOM     16  C   UNL     1      62.180 -28.862  -0.695  1.00  0.00     0.000 C 
BRANCH  16  17
ATOM     17  C   UNL     1      60.699 -29.236  -0.881  1.00  0.00     0.000 C 
BRANCH  17  18
ATOM     18  C   UNL     1      59.867 -29.266   0.418  1.00  0.00     0.000 C 
BRANCH  18  19
ATOM     19  C   UNL     1      58.613 -30.164   0.377  1.00  0.00     0.000 C 
BRANCH  19  20
ATOM     20  C   UNL     1      57.276 -29.403   0.296  1.00  0.00     0.006 C 
BRANCH  20  21
ATOM     21  C   UNL     1      57.152 -28.308   1.363  1.00  0.00     0.053 C 
BRANCH  21  22
ATOM     22  C   UNL     1      56.924 -28.912   2.714  1.00  0.00     0.041 C 
ATOM     23  O   UNL     1      55.870 -29.563   2.947  1.00  0.00    -0.550 OA
ATOM     24  O   UNL     1      57.886 -28.778   3.710  1.00  0.00    -0.550 OA
ENDBRANCH  21  22
ENDBRANCH  20  21
ENDBRANCH  19  20
ENDBRANCH  18  19
ENDBRANCH  17  18
ENDBRANCH  16  17
ENDBRANCH  15  16
ENDBRANCH  14  15
ENDBRANCH  13  14
ENDBRANCH   1  13
TORSDOF 20
ENDMDL
MODEL 9
REMARK VINA RESULT:    -4.343      2.096      6.255
REMARK INTER + INTRA:         -12.480
REMARK INTER:                  -9.917
REMARK INTRA:                  -2.562
REMARK UNBOUND:                -3.060
REMARK SMILES CCCCCCCCCCCCCCCCCCCCCC(=O)[O-]
REMARK SMILES IDX 12 1 11 2 10 3 9 4 8 5 7 6 6 7 5 8 4 9 3 10 2 11 1 12 13 13
REMARK SMILES IDX 14 14 15 15 16 16 17 17 18 18 19 19 20 20 21 21 22 22 23 23
REMARK SMILES IDX 24 24
REMARK H PARENT
REMARK Flexibility Score: inf
ROOT
ATOM      1  C   UNL     1      63.504 -26.649  -3.062  1.00  0.00     0.000 C 
ENDROOT
BRANCH   1   2
ATOM      2  C   UNL     1      62.484 -25.505  -3.178  1.00  0.00     0.000 C 
BRANCH   2   3
ATOM      3  C   UNL     1      61.063 -25.932  -2.776  1.00  0.00     0.000 C 
BRANCH   3   4
ATOM      4  C   UNL     1      60.036 -25.809  -3.922  1.00  0.00    -0.000 C 
BRANCH   4   5
ATOM      5  C   UNL     1      59.756 -24.344  -4.295  1.00  0.00    -0.000 C 
BRANCH   5   6
ATOM      6  C   UNL     1      60.126 -24.015  -5.753  1.00  0.00    -0.000 C 
BRANCH   6   7
ATOM      7  C   UNL     1      60.918 -25.113  -6.487  1.00  0.00    -0.000 C 
BRANCH   7   8
ATOM      8  C   UNL     1      60.105 -25.796  -7.601  1.00  0.00    -0.000 C 
BRANCH   8   9
ATOM      9  C   UNL     1      58.680 -25.230  -7.720  1.00  0.00    -0.000 C 
BRANCH   9  10
ATOM     10  C   UNL     1      57.613 -26.212  -7.215  1.00  0.00    -0.000 C 
BRANCH  10  11
ATOM     11  C   UNL     1      56.712 -25.552  -6.164  1.00  0.00    -0.003 C 
ATOM     12  C   UNL     1      56.510 -24.070  -6.465  1.00  0.00     0.004 C 
ENDBRANCH  10  11
ENDBRANCH   9  10
ENDBRANCH   8   9
ENDBRANCH   7   8
ENDBRANCH   6   7
ENDBRANCH   5   6
ENDBRANCH   4   5
ENDBRANCH   3   4
ENDBRANCH   2   3
ENDBRANCH   1   2
BRANCH   1  13
ATOM     13  C   UNL     1      63.630 -27.186  -1.630  1.00  0.00     0.000 C 
BRANCH  13  14
ATOM     14  C   UNL     1      63.602 -28.723  -1.572  1.00  0.00     0.000 C 
BRANCH  14  15
ATOM     15  C   UNL     1      62.622 -29.250  -0.513  1.00  0.00     0.000 C 
BRANCH  15  16
ATOM     16  C   UNL     1      61.161 -28.878  -0.822  1.00  0.00     0.000 C 
BRANCH  16  17
ATOM     17  C   UNL     1      60.197 -29.244   0.321  1.00  0.00     0.000 C 
BRANCH  17  18
ATOM     18  C   UNL     1      58.985 -30.103  -0.099  1.00  0.00     0.000 C 
BRANCH  18  19
ATOM     19  C   UNL     1      57.714 -29.909   0.753  1.00  0.00     0.000 C 
BRANCH  19  20
ATOM     20  C   UNL     1      56.788 -28.772   0.283  1.00  0.00     0.006 C 
BRANCH  20  21
ATOM     21  C   UNL     1      56.612 -28.742  -1.241  1.00  0.00     0.053 C 
BRANCH  21  22
ATOM     22  C   UNL     1      57.002 -27.404  -1.790  1.00  0.00     0.041 C 
ATOM     23  O   UNL     1      56.407 -26.934  -2.796  1.00  0.00    -0.550 OA
ATOM     24  O   UNL     1      58.007 -26.664  -1.175  1.00  0.00    -0.550 OA
ENDBRANCH  21  22
ENDBRANCH  20  21
ENDBRANCH  19  20
ENDBRANCH  18  19
ENDBRANCH  17  18
ENDBRANCH  16  17
ENDBRANCH  15  16
ENDBRANCH  14  15
ENDBRANCH  13  14
ENDBRANCH   1  13
TORSDOF 20
ENDMDL
