MODEL 1
REMARK VINA RESULT:    -4.155      0.000      0.000
REMARK INTER + INTRA:         -12.839
REMARK INTER:                  -9.500
REMARK INTRA:                  -3.340
REMARK UNBOUND:                -3.340
REMARK SMILES CCCCCCCCCCCCCCCCCCCCCCCC(=O)[O-]
REMARK SMILES IDX 13 1 14 2 15 3 16 4 17 5 18 6 19 7 20 8 21 9 22 10 23 11
REMARK SMILES IDX 24 12 25 13 26 14 12 15 11 16 10 17 9 18 8 19 7 20 6 21 5 22
REMARK SMILES IDX 4 23 3 24 2 25 1 26
REMARK H PARENT
REMARK Flexibility Score: inf
ROOT
ATOM      1  C   UNL     1     184.101 189.148 197.450  1.00  0.00     0.000 C 
ENDROOT
BRANCH   1   2
ATOM      2  C   UNL     1     184.842 190.350 198.059  1.00  0.00     0.000 C 
BRANCH   2   3
ATOM      3  C   UNL     1     186.293 190.020 198.454  1.00  0.00     0.000 C 
BRANCH   3   4
ATOM      4  C   UNL     1     186.613 188.510 198.429  1.00  0.00     0.000 C 
BRANCH   4   5
ATOM      5  C   UNL     1     186.434 187.855 199.811  1.00  0.00     0.000 C 
BRANCH   5   6
ATOM      6  C   UNL     1     186.875 188.773 200.962  1.00  0.00     0.000 C 
BRANCH   6   7
ATOM      7  C   UNL     1     188.389 188.710 201.219  1.00  0.00     0.000 C 
BRANCH   7   8
ATOM      8  C   UNL     1     188.977 190.119 201.386  1.00  0.00     0.000 C 
BRANCH   8   9
ATOM      9  C   UNL     1     190.285 190.321 200.602  1.00  0.00     0.000 C 
BRANCH   9  10
ATOM     10  C   UNL     1     190.437 189.439 199.345  1.00  0.00     0.006 C 
BRANCH  10  11
ATOM     11  C   UNL     1     191.858 188.906 199.108  1.00  0.00     0.053 C 
BRANCH  11  12
ATOM     12  C   UNL     1     192.795 189.983 198.658  1.00  0.00     0.041 C 
ATOM     13  O   UNL     1     192.440 190.800 197.768  1.00  0.00    -0.550 OA
ATOM     14  O   UNL     1     194.053 190.100 199.237  1.00  0.00    -0.550 OA
ENDBRANCH  11  12
ENDBRANCH  10  11
ENDBRANCH   9  10
ENDBRANCH   8   9
ENDBRANCH   7   8
ENDBRANCH   6   7
ENDBRANCH   5   6
ENDBRANCH   4   5
ENDBRANCH   3   4
ENDBRANCH   2   3
ENDBRANCH   1   2
BRANCH   1  15
ATOM     15  C   UNL     1     182.673 188.998 197.995  1.00  0.00     0.000 C 
BRANCH  15  16
ATOM     16  C   UNL     1     182.530 189.519 199.436  1.00  0.00     0.000 C 
BRANCH  16  17
ATOM     17  C   UNL     1     182.844 188.440 200.484  1.00  0.00     0.000 C 
BRANCH  17  18
ATOM     18  C   UNL     1     182.367 187.043 200.049  1.00  0.00    -0.000 C 
BRANCH  18  19
ATOM     19  C   UNL     1     183.424 185.955 200.293  1.00  0.00    -0.000 C 
BRANCH  19  20
ATOM     20  C   UNL     1     183.721 185.131 199.030  1.00  0.00    -0.000 C 
BRANCH  20  21
ATOM     21  C   UNL     1     184.982 184.276 199.211  1.00  0.00    -0.000 C 
BRANCH  21  22
ATOM     22  C   UNL     1     185.551 184.343 200.638  1.00  0.00    -0.000 C 
BRANCH  22  23
ATOM     23  C   UNL     1     185.552 182.983 201.367  1.00  0.00    -0.000 C 
BRANCH  23  24
ATOM     24  C   UNL     1     184.216 182.234 201.201  1.00  0.00    -0.000 C 
BRANCH  24  25
ATOM     25  C   UNL     1     183.111 182.789 202.113  1.00  0.00    -0.003 C 
ATOM     26  C   UNL     1     181.723 182.266 201.747  1.00  0.00     0.004 C 
ENDBRANCH  24  25
ENDBRANCH  23  24
ENDBRANCH  22  23
ENDBRANCH  21  22
ENDBRANCH  20  21
ENDBRANCH  19  20
ENDBRANCH  18  19
ENDBRANCH  17  18
ENDBRANCH  16  17
ENDBRANCH  15  16
ENDBRANCH   1  15
TORSDOF 22
ENDMDL
MODEL 2
REMARK VINA RESULT:    -4.074      3.859      7.458
REMARK INTER + INTRA:         -12.652
REMARK INTER:                  -8.972
REMARK INTRA:                  -3.681
REMARK UNBOUND:                -3.340
REMARK SMILES CCCCCCCCCCCCCCCCCCCCCCCC(=O)[O-]
REMARK SMILES IDX 13 1 14 2 15 3 16 4 17 5 18 6 19 7 20 8 21 9 22 10 23 11
REMARK SMILES IDX 24 12 25 13 26 14 12 15 11 16 10 17 9 18 8 19 7 20 6 21 5 22
REMARK SMILES IDX 4 23 3 24 2 25 1 26
REMARK H PARENT
REMARK Flexibility Score: inf
ROOT
ATOM      1  C   UNL     1     182.318 192.754 199.197  1.00  0.00     0.000 C 
ENDROOT
BRANCH   1   2
ATOM      2  C   UNL     1     180.916 192.801 198.570  1.00  0.00     0.000 C 
BRANCH   2   3
ATOM      3  C   UNL     1     179.839 192.160 199.464  1.00  0.00     0.000 C 
BRANCH   3   4
ATOM      4  C   UNL     1     179.405 190.753 198.999  1.00  0.00     0.000 C 
BRANCH   4   5
ATOM      5  C   UNL     1     179.763 189.665 200.027  1.00  0.00     0.000 C 
BRANCH   5   6
ATOM      6  C   UNL     1     180.932 188.779 199.567  1.00  0.00     0.000 C 
BRANCH   6   7
ATOM      7  C   UNL     1     182.195 188.979 200.419  1.00  0.00     0.000 C 
BRANCH   7   8
ATOM      8  C   UNL     1     182.663 187.649 201.028  1.00  0.00     0.000 C 
BRANCH   8   9
ATOM      9  C   UNL     1     182.513 186.459 200.062  1.00  0.00     0.000 C 
BRANCH   9  10
ATOM     10  C   UNL     1     182.932 185.092 200.641  1.00  0.00     0.006 C 
BRANCH  10  11
ATOM     11  C   UNL     1     184.141 184.449 199.945  1.00  0.00     0.053 C 
BRANCH  11  12
ATOM     12  C   UNL     1     183.920 182.996 199.661  1.00  0.00     0.041 C 
ATOM     13  O   UNL     1     183.378 182.257 200.525  1.00  0.00    -0.550 OA
ATOM     14  O   UNL     1     184.290 182.461 198.433  1.00  0.00    -0.550 OA
ENDBRANCH  11  12
ENDBRANCH  10  11
ENDBRANCH   9  10
ENDBRANCH   8   9
ENDBRANCH   7   8
ENDBRANCH   6   7
ENDBRANCH   5   6
ENDBRANCH   4   5
ENDBRANCH   3   4
ENDBRANCH   2   3
ENDBRANCH   1   2
BRANCH   1  15
ATOM     15  C   UNL     1     183.289 191.864 198.407  1.00  0.00     0.000 C 
BRANCH  15  16
ATOM     16  C   UNL     1     182.628 191.207 197.182  1.00  0.00     0.000 C 
BRANCH  16  17
ATOM     17  C   UNL     1     183.193 189.808 196.890  1.00  0.00     0.000 C 
BRANCH  17  18
ATOM     18  C   UNL     1     184.525 189.550 197.616  1.00  0.00    -0.000 C 
BRANCH  18  19
ATOM     19  C   UNL     1     184.809 188.053 197.818  1.00  0.00    -0.000 C 
BRANCH  19  20
ATOM     20  C   UNL     1     186.251 187.785 198.273  1.00  0.00    -0.000 C 
BRANCH  20  21
ATOM     21  C   UNL     1     186.297 187.365 199.749  1.00  0.00    -0.000 C 
BRANCH  21  22
ATOM     22  C   UNL     1     186.477 188.556 200.705  1.00  0.00    -0.000 C 
BRANCH  22  23
ATOM     23  C   UNL     1     187.320 189.704 200.111  1.00  0.00    -0.000 C 
BRANCH  23  24
ATOM     24  C   UNL     1     188.501 190.088 201.022  1.00  0.00    -0.000 C 
BRANCH  24  25
ATOM     25  C   UNL     1     189.855 189.997 200.302  1.00  0.00    -0.003 C 
ATOM     26  C   UNL     1     190.319 188.557 200.092  1.00  0.00     0.004 C 
ENDBRANCH  24  25
ENDBRANCH  23  24
ENDBRANCH  22  23
ENDBRANCH  21  22
ENDBRANCH  20  21
ENDBRANCH  19  20
ENDBRANCH  18  19
ENDBRANCH  17  18
ENDBRANCH  16  17
ENDBRANCH  15  16
ENDBRANCH   1  15
TORSDOF 22
ENDMDL
MODEL 3
REMARK VINA RESULT:    -3.978      8.253     12.370
REMARK INTER + INTRA:         -12.433
REMARK INTER:                 -10.846
REMARK INTRA:                  -1.588
REMARK UNBOUND:                -3.340
REMARK SMILES CCCCCCCCCCCCCCCCCCCCCCCC(=O)[O-]
REMARK SMILES IDX 13 1 14 2 15 3 16 4 17 5 18 6 19 7 20 8 21 9 22 10 23 11
REMARK SMILES IDX 24 12 25 13 26 14 12 15 11 16 10 17 9 18 8 19 7 20 6 21 5 22
REMARK SMILES IDX 4 23 3 24 2 25 1 26
REMARK H PARENT
REMARK Flexibility Score: inf
ROOT
ATOM      1  C   UNL     1     197.595 184.695 195.733  1.00  0.00     0.000 C 
ENDROOT
BRANCH   1   2
ATOM      2  C   UNL     1     199.012 184.666 196.328  1.00  0.00     0.000 C 
BRANCH   2   3
ATOM      3  C   UNL     1     199.029 184.921 197.845  1.00  0.00     0.000 C 
BRANCH   3   4
ATOM      4  C   UNL     1     197.654 184.732 198.520  1.00  0.00     0.000 C 
BRANCH   4   5
ATOM      5  C   UNL     1     197.503 185.595 199.786  1.00  0.00     0.000 C 
BRANCH   5   6
ATOM      6  C   UNL     1     196.642 186.847 199.549  1.00  0.00     0.000 C 
BRANCH   6   7
ATOM      7  C   UNL     1     195.710 186.701 198.336  1.00  0.00     0.000 C 
BRANCH   7   8
ATOM      8  C   UNL     1     195.968 187.811 197.307  1.00  0.00     0.000 C 
BRANCH   8   9
ATOM      9  C   UNL     1     194.866 188.885 197.291  1.00  0.00     0.000 C 
BRANCH   9  10
ATOM     10  C   UNL     1     193.607 188.541 198.114  1.00  0.00     0.006 C 
BRANCH  10  11
ATOM     11  C   UNL     1     193.366 189.458 199.323  1.00  0.00     0.053 C 
BRANCH  11  12
ATOM     12  C   UNL     1     191.915 189.552 199.677  1.00  0.00     0.041 C 
ATOM     13  O   UNL     1     191.180 188.531 199.614  1.00  0.00    -0.550 OA
ATOM     14  O   UNL     1     191.377 190.762 200.100  1.00  0.00    -0.550 OA
ENDBRANCH  11  12
ENDBRANCH  10  11
ENDBRANCH   9  10
ENDBRANCH   8   9
ENDBRANCH   7   8
ENDBRANCH   6   7
ENDBRANCH   5   6
ENDBRANCH   4   5
ENDBRANCH   3   4
ENDBRANCH   2   3
ENDBRANCH   1   2
BRANCH   1  15
ATOM     15  C   UNL     1     197.193 183.355 195.100  1.00  0.00     0.000 C 
BRANCH  15  16
ATOM     16  C   UNL     1     198.279 182.789 194.168  1.00  0.00     0.000 C 
BRANCH  16  17
ATOM     17  C   UNL     1     197.688 181.976 193.005  1.00  0.00     0.000 C 
BRANCH  17  18
ATOM     18  C   UNL     1     196.170 182.184 192.856  1.00  0.00    -0.000 C 
BRANCH  18  19
ATOM     19  C   UNL     1     195.758 182.514 191.413  1.00  0.00    -0.000 C 
BRANCH  19  20
ATOM     20  C   UNL     1     194.393 181.916 191.041  1.00  0.00    -0.000 C 
BRANCH  20  21
ATOM     21  C   UNL     1     193.536 182.929 190.270  1.00  0.00    -0.000 C 
BRANCH  21  22
ATOM     22  C   UNL     1     192.888 182.331 189.010  1.00  0.00    -0.000 C 
BRANCH  22  23
ATOM     23  C   UNL     1     191.628 183.089 188.544  1.00  0.00    -0.000 C 
BRANCH  23  24
ATOM     24  C   UNL     1     191.009 183.935 189.673  1.00  0.00    -0.000 C 
BRANCH  24  25
ATOM     25  C   UNL     1     189.558 184.344 189.376  1.00  0.00    -0.003 C 
ATOM     26  C   UNL     1     189.438 185.268 188.166  1.00  0.00     0.004 C 
ENDBRANCH  24  25
ENDBRANCH  23  24
ENDBRANCH  22  23
ENDBRANCH  21  22
ENDBRANCH  20  21
ENDBRANCH  19  20
ENDBRANCH  18  19
ENDBRANCH  17  18
ENDBRANCH  16  17
ENDBRANCH  15  16
ENDBRANCH   1  15
TORSDOF 22
ENDMDL
MODEL 4
REMARK VINA RESULT:    -3.890      1.356      2.569
REMARK INTER + INTRA:         -12.234
REMARK INTER:                  -9.332
REMARK INTRA:                  -2.901
REMARK UNBOUND:                -3.340
REMARK SMILES CCCCCCCCCCCCCCCCCCCCCCCC(=O)[O-]
REMARK SMILES IDX 13 1 14 2 15 3 16 4 17 5 18 6 19 7 20 8 21 9 22 10 23 11
REMARK SMILES IDX 24 12 25 13 26 14 12 15 11 16 10 17 9 18 8 19 7 20 6 21 5 22
REMARK SMILES IDX 4 23 3 24 2 25 1 26
REMARK H PARENT
REMARK Flexibility Score: inf
ROOT
ATOM      1  C   UNL     1     184.811 187.753 197.428  1.00  0.00     0.000 C 
ENDROOT
BRANCH   1   2
ATOM      2  C   UNL     1     186.092 187.923 198.261  1.00  0.00     0.000 C 
BRANCH   2   3
ATOM      3  C   UNL     1     186.107 187.041 199.522  1.00  0.00     0.000 C 
BRANCH   3   4
ATOM      4  C   UNL     1     187.076 187.540 200.615  1.00  0.00     0.000 C 
BRANCH   4   5
ATOM      5  C   UNL     1     186.765 188.983 201.053  1.00  0.00     0.000 C 
BRANCH   5   6
ATOM      6  C   UNL     1     188.029 189.767 201.443  1.00  0.00     0.000 C 
BRANCH   6   7
ATOM      7  C   UNL     1     188.820 190.257 200.221  1.00  0.00     0.000 C 
BRANCH   7   8
ATOM      8  C   UNL     1     190.326 190.016 200.408  1.00  0.00     0.000 C 
BRANCH   8   9
ATOM      9  C   UNL     1     191.127 191.319 200.575  1.00  0.00     0.000 C 
BRANCH   9  10
ATOM     10  C   UNL     1     192.622 191.218 200.205  1.00  0.00     0.006 C 
BRANCH  10  11
ATOM     11  C   UNL     1     193.067 189.829 199.725  1.00  0.00     0.053 C 
BRANCH  11  12
ATOM     12  C   UNL     1     193.293 189.790 198.246  1.00  0.00     0.041 C 
ATOM     13  O   UNL     1     193.907 188.823 197.724  1.00  0.00    -0.550 OA
ATOM     14  O   UNL     1     192.805 190.811 197.440  1.00  0.00    -0.550 OA
ENDBRANCH  11  12
ENDBRANCH  10  11
ENDBRANCH   9  10
ENDBRANCH   8   9
ENDBRANCH   7   8
ENDBRANCH   6   7
ENDBRANCH   5   6
ENDBRANCH   4   5
ENDBRANCH   3   4
ENDBRANCH   2   3
ENDBRANCH   1   2
BRANCH   1  15
ATOM     15  C   UNL     1     184.108 189.089 197.147  1.00  0.00     0.000 C 
BRANCH  15  16
ATOM     16  C   UNL     1     182.902 189.331 198.072  1.00  0.00     0.000 C 
BRANCH  16  17
ATOM     17  C   UNL     1     183.266 190.179 199.300  1.00  0.00     0.000 C 
BRANCH  17  18
ATOM     18  C   UNL     1     182.404 189.834 200.528  1.00  0.00    -0.000 C 
BRANCH  18  19
ATOM     19  C   UNL     1     183.039 188.748 201.410  1.00  0.00    -0.000 C 
BRANCH  19  20
ATOM     20  C   UNL     1     182.197 187.464 201.459  1.00  0.00    -0.000 C 
BRANCH  20  21
ATOM     21  C   UNL     1     182.599 186.495 200.338  1.00  0.00    -0.000 C 
BRANCH  21  22
ATOM     22  C   UNL     1     183.219 185.191 200.867  1.00  0.00    -0.000 C 
BRANCH  22  23
ATOM     23  C   UNL     1     182.620 183.920 200.231  1.00  0.00    -0.000 C 
BRANCH  23  24
ATOM     24  C   UNL     1     183.683 182.829 200.002  1.00  0.00    -0.000 C 
BRANCH  24  25
ATOM     25  C   UNL     1     185.001 183.394 199.451  1.00  0.00    -0.003 C 
ATOM     26  C   UNL     1     184.897 183.815 197.986  1.00  0.00     0.004 C 
ENDBRANCH  24  25
ENDBRANCH  23  24
ENDBRANCH  22  23
ENDBRANCH  21  22
ENDBRANCH  20  21
ENDBRANCH  19  20
ENDBRANCH  18  19
ENDBRANCH  17  18
ENDBRANCH  16  17
ENDBRANCH  15  16
ENDBRANCH   1  15
TORSDOF 22
ENDMDL
MODEL 5
REMARK VINA RESULT:    -3.824      3.054      7.535
REMARK INTER + INTRA:         -12.082
REMARK INTER:                  -9.027
REMARK INTRA:                  -3.055
REMARK UNBOUND:                -3.340
REMARK SMILES CCCCCCCCCCCCCCCCCCCCCCCC(=O)[O-]
REMARK SMILES IDX 13 1 14 2 15 3 16 4 17 5 18 6 19 7 20 8 21 9 22 10 23 11
REMARK SMILES IDX 24 12 25 13 26 14 12 15 11 16 10 17 9 18 8 19 7 20 6 21 5 22
REMARK SMILES IDX 4 23 3 24 2 25 1 26
REMARK H PARENT
REMARK Flexibility Score: inf
ROOT
ATOM      1  C   UNL     1     192.605 188.379 198.385  1.00  0.00     0.000 C 
ENDROOT
BRANCH   1   2
ATOM      2  C   UNL     1     194.132 188.365 198.564  1.00  0.00     0.000 C 
BRANCH   2   3
ATOM      3  C   UNL     1     194.888 188.754 197.282  1.00  0.00     0.000 C 
BRANCH   3   4
ATOM      4  C   UNL     1     196.419 188.592 197.393  1.00  0.00     0.000 C 
BRANCH   4   5
ATOM      5  C   UNL     1     196.893 188.519 198.856  1.00  0.00     0.000 C 
BRANCH   5   6
ATOM      6  C   UNL     1     198.022 189.516 199.161  1.00  0.00     0.000 C 
BRANCH   6   7
ATOM      7  C   UNL     1     197.510 190.802 199.828  1.00  0.00     0.000 C 
BRANCH   7   8
ATOM      8  C   UNL     1     196.378 190.494 200.819  1.00  0.00     0.000 C 
BRANCH   8   9
ATOM      9  C   UNL     1     195.102 191.310 200.547  1.00  0.00     0.000 C 
BRANCH   9  10
ATOM     10  C   UNL     1     195.052 192.005 199.171  1.00  0.00     0.006 C 
BRANCH  10  11
ATOM     11  C   UNL     1     194.064 193.178 199.085  1.00  0.00     0.053 C 
BRANCH  11  12
ATOM     12  C   UNL     1     194.463 194.316 199.972  1.00  0.00     0.041 C 
ATOM     13  O   UNL     1     193.840 194.530 201.045  1.00  0.00    -0.550 OA
ATOM     14  O   UNL     1     195.538 195.125 199.626  1.00  0.00    -0.550 OA
ENDBRANCH  11  12
ENDBRANCH  10  11
ENDBRANCH   9  10
ENDBRANCH   8   9
ENDBRANCH   7   8
ENDBRANCH   6   7
ENDBRANCH   5   6
ENDBRANCH   4   5
ENDBRANCH   3   4
ENDBRANCH   2   3
ENDBRANCH   1   2
BRANCH   1  15
ATOM     15  C   UNL     1     192.040 189.800 198.241  1.00  0.00     0.000 C 
BRANCH  15  16
ATOM     16  C   UNL     1     191.549 190.381 199.578  1.00  0.00     0.000 C 
BRANCH  16  17
ATOM     17  C   UNL     1     191.242 189.290 200.615  1.00  0.00     0.000 C 
BRANCH  17  18
ATOM     18  C   UNL     1     189.742 188.955 200.688  1.00  0.00    -0.000 C 
BRANCH  18  19
ATOM     19  C   UNL     1     188.851 190.132 200.262  1.00  0.00    -0.000 C 
BRANCH  19  20
ATOM     20  C   UNL     1     187.433 189.686 199.874  1.00  0.00    -0.000 C 
BRANCH  20  21
ATOM     21  C   UNL     1     187.433 188.249 199.337  1.00  0.00    -0.000 C 
BRANCH  21  22
ATOM     22  C   UNL     1     186.210 187.437 199.799  1.00  0.00    -0.000 C 
BRANCH  22  23
ATOM     23  C   UNL     1     184.983 188.308 200.137  1.00  0.00    -0.000 C 
BRANCH  23  24
ATOM     24  C   UNL     1     183.711 187.824 199.416  1.00  0.00    -0.000 C 
BRANCH  24  25
ATOM     25  C   UNL     1     183.180 188.848 198.402  1.00  0.00    -0.003 C 
ATOM     26  C   UNL     1     184.059 188.958 197.156  1.00  0.00     0.004 C 
ENDBRANCH  24  25
ENDBRANCH  23  24
ENDBRANCH  22  23
ENDBRANCH  21  22
ENDBRANCH  20  21
ENDBRANCH  19  20
ENDBRANCH  18  19
ENDBRANCH  17  18
ENDBRANCH  16  17
ENDBRANCH  15  16
ENDBRANCH   1  15
TORSDOF 22
ENDMDL
MODEL 6
REMARK VINA RESULT:    -3.785      1.837      4.447
REMARK INTER + INTRA:         -11.994
REMARK INTER:                  -9.152
REMARK INTRA:                  -2.842
REMARK UNBOUND:                -3.340
REMARK SMILES CCCCCCCCCCCCCCCCCCCCCCCC(=O)[O-]
REMARK SMILES IDX 13 1 14 2 15 3 16 4 17 5 18 6 19 7 20 8 21 9 22 10 23 11
REMARK SMILES IDX 24 12 25 13 26 14 12 15 11 16 10 17 9 18 8 19 7 20 6 21 5 22
REMARK SMILES IDX 4 23 3 24 2 25 1 26
REMARK H PARENT
REMARK Flexibility Score: inf
ROOT
ATOM      1  C   UNL     1     185.099 187.510 198.846  1.00  0.00     0.000 C 
ENDROOT
BRANCH   1   2
ATOM      2  C   UNL     1     185.052 188.190 200.224  1.00  0.00     0.000 C 
BRANCH   2   3
ATOM      3  C   UNL     1     186.382 188.865 200.603  1.00  0.00     0.000 C 
BRANCH   3   4
ATOM      4  C   UNL     1     187.010 189.685 199.455  1.00  0.00     0.000 C 
BRANCH   4   5
ATOM      5  C   UNL     1     188.475 189.294 199.194  1.00  0.00     0.000 C 
BRANCH   5   6
ATOM      6  C   UNL     1     189.073 188.448 200.330  1.00  0.00     0.000 C 
BRANCH   6   7
ATOM      7  C   UNL     1     190.385 189.033 200.874  1.00  0.00     0.000 C 
BRANCH   7   8
ATOM      8  C   UNL     1     190.509 190.524 200.525  1.00  0.00     0.000 C 
BRANCH   8   9
ATOM      9  C   UNL     1     191.878 190.889 199.924  1.00  0.00     0.000 C 
BRANCH   9  10
ATOM     10  C   UNL     1     192.104 190.410 198.475  1.00  0.00     0.006 C 
BRANCH  10  11
ATOM     11  C   UNL     1     193.392 190.937 197.824  1.00  0.00     0.053 C 
BRANCH  11  12
ATOM     12  C   UNL     1     194.528 189.972 197.963  1.00  0.00     0.041 C 
ATOM     13  O   UNL     1     195.155 189.884 199.051  1.00  0.00    -0.550 OA
ATOM     14  O   UNL     1     194.880 189.153 196.897  1.00  0.00    -0.550 OA
ENDBRANCH  11  12
ENDBRANCH  10  11
ENDBRANCH   9  10
ENDBRANCH   8   9
ENDBRANCH   7   8
ENDBRANCH   6   7
ENDBRANCH   5   6
ENDBRANCH   4   5
ENDBRANCH   3   4
ENDBRANCH   2   3
ENDBRANCH   1   2
BRANCH   1  15
ATOM     15  C   UNL     1     184.351 186.169 198.824  1.00  0.00     0.000 C 
BRANCH  15  16
ATOM     16  C   UNL     1     183.641 185.864 200.155  1.00  0.00     0.000 C 
BRANCH  16  17
ATOM     17  C   UNL     1     183.047 184.447 200.191  1.00  0.00     0.000 C 
BRANCH  17  18
ATOM     18  C   UNL     1     181.686 184.399 200.907  1.00  0.00    -0.000 C 
BRANCH  18  19
ATOM     19  C   UNL     1     181.456 185.612 201.821  1.00  0.00    -0.000 C 
BRANCH  19  20
ATOM     20  C   UNL     1     180.036 186.186 201.690  1.00  0.00    -0.000 C 
BRANCH  20  21
ATOM     21  C   UNL     1     180.068 187.627 201.164  1.00  0.00    -0.000 C 
BRANCH  21  22
ATOM     22  C   UNL     1     180.354 187.708 199.655  1.00  0.00    -0.000 C 
BRANCH  22  23
ATOM     23  C   UNL     1     181.486 188.693 199.293  1.00  0.00    -0.000 C 
BRANCH  23  24
ATOM     24  C   UNL     1     181.799 189.666 200.445  1.00  0.00    -0.000 C 
BRANCH  24  25
ATOM     25  C   UNL     1     182.155 191.075 199.948  1.00  0.00    -0.003 C 
ATOM     26  C   UNL     1     183.170 191.062 198.806  1.00  0.00     0.004 C 
ENDBRANCH  24  25
ENDBRANCH  23  24
ENDBRANCH  22  23
ENDBRANCH  21  22
ENDBRANCH  20  21
ENDBRANCH  19  20
ENDBRANCH  18  19
ENDBRANCH  17  18
ENDBRANCH  16  17
ENDBRANCH  15  16
ENDBRANCH   1  15
TORSDOF 22
ENDMDL
MODEL 7
REMARK VINA RESULT:    -3.770      1.551      2.648
REMARK INTER + INTRA:         -11.959
REMARK INTER:                  -9.862
REMARK INTRA:                  -2.097
REMARK UNBOUND:                -3.340
REMARK SMILES CCCCCCCCCCCCCCCCCCCCCCCC(=O)[O-]
REMARK SMILES IDX 13 1 14 2 15 3 16 4 17 5 18 6 19 7 20 8 21 9 22 10 23 11
REMARK SMILES IDX 24 12 25 13 26 14 12 15 11 16 10 17 9 18 8 19 7 20 6 21 5 22
REMARK SMILES IDX 4 23 3 24 2 25 1 26
REMARK H PARENT
REMARK Flexibility Score: inf
ROOT
ATOM      1  C   UNL     1     182.982 187.138 200.235  1.00  0.00     0.000 C 
ENDROOT
BRANCH   1   2
ATOM      2  C   UNL     1     184.411 187.519 199.817  1.00  0.00     0.000 C 
BRANCH   2   3
ATOM      3  C   UNL     1     184.517 187.902 198.330  1.00  0.00     0.000 C 
BRANCH   3   4
ATOM      4  C   UNL     1     185.960 188.195 197.867  1.00  0.00     0.000 C 
BRANCH   4   5
ATOM      5  C   UNL     1     186.956 188.213 199.041  1.00  0.00     0.000 C 
BRANCH   5   6
ATOM      6  C   UNL     1     187.386 189.637 199.429  1.00  0.00     0.000 C 
BRANCH   6   7
ATOM      7  C   UNL     1     188.393 189.654 200.589  1.00  0.00     0.000 C 
BRANCH   7   8
ATOM      8  C   UNL     1     189.373 190.828 200.450  1.00  0.00     0.000 C 
BRANCH   8   9
ATOM      9  C   UNL     1     190.842 190.412 200.645  1.00  0.00     0.000 C 
BRANCH   9  10
ATOM     10  C   UNL     1     191.191 188.994 200.147  1.00  0.00     0.006 C 
BRANCH  10  11
ATOM     11  C   UNL     1     191.595 188.920 198.666  1.00  0.00     0.053 C 
BRANCH  11  12
ATOM     12  C   UNL     1     192.755 189.813 198.355  1.00  0.00     0.041 C 
ATOM     13  O   UNL     1     192.610 190.789 197.572  1.00  0.00    -0.550 OA
ATOM     14  O   UNL     1     193.991 189.582 198.947  1.00  0.00    -0.550 OA
ENDBRANCH  11  12
ENDBRANCH  10  11
ENDBRANCH   9  10
ENDBRANCH   8   9
ENDBRANCH   7   8
ENDBRANCH   6   7
ENDBRANCH   5   6
ENDBRANCH   4   5
ENDBRANCH   3   4
ENDBRANCH   2   3
ENDBRANCH   1   2
BRANCH   1  15
ATOM     15  C   UNL     1     181.916 187.726 199.300  1.00  0.00     0.000 C 
BRANCH  15  16
ATOM     16  C   UNL     1     180.635 188.140 200.046  1.00  0.00     0.000 C 
BRANCH  16  17
ATOM     17  C   UNL     1     179.611 186.997 200.130  1.00  0.00     0.000 C 
BRANCH  17  18
ATOM     18  C   UNL     1     179.601 186.318 201.511  1.00  0.00    -0.000 C 
BRANCH  18  19
ATOM     19  C   UNL     1     179.852 184.804 201.427  1.00  0.00    -0.000 C 
BRANCH  19  20
ATOM     20  C   UNL     1     181.260 184.415 201.904  1.00  0.00    -0.000 C 
BRANCH  20  21
ATOM     21  C   UNL     1     181.517 182.916 201.702  1.00  0.00    -0.000 C 
BRANCH  21  22
ATOM     22  C   UNL     1     182.946 182.496 202.085  1.00  0.00    -0.000 C 
BRANCH  22  23
ATOM     23  C   UNL     1     183.689 181.736 200.966  1.00  0.00    -0.000 C 
BRANCH  23  24
ATOM     24  C   UNL     1     183.250 182.195 199.563  1.00  0.00    -0.000 C 
BRANCH  24  25
ATOM     25  C   UNL     1     184.434 182.640 198.691  1.00  0.00    -0.003 C 
ATOM     26  C   UNL     1     184.380 184.124 198.330  1.00  0.00     0.004 C 
ENDBRANCH  24  25
ENDBRANCH  23  24
ENDBRANCH  22  23
ENDBRANCH  21  22
ENDBRANCH  20  21
ENDBRANCH  19  20
ENDBRANCH  18  19
ENDBRANCH  17  18
ENDBRANCH  16  17
ENDBRANCH  15  16
ENDBRANCH   1  15
TORSDOF 22
ENDMDL
MODEL 8
REMARK VINA RESULT:    -3.760      3.680      8.907
REMARK INTER + INTRA:         -11.936
REMARK INTER:                  -9.350
REMARK INTRA:                  -2.586
REMARK UNBOUND:                -3.340
REMARK SMILES CCCCCCCCCCCCCCCCCCCCCCCC(=O)[O-]
REMARK SMILES IDX 13 1 14 2 15 3 16 4 17 5 18 6 19 7 20 8 21 9 22 10 23 11
REMARK SMILES IDX 24 12 25 13 26 14 12 15 11 16 10 17 9 18 8 19 7 20 6 21 5 22
REMARK SMILES IDX 4 23 3 24 2 25 1 26
REMARK H PARENT
REMARK Flexibility Score: inf
ROOT
ATOM      1  C   UNL     1     186.917 188.819 198.251  1.00  0.00     0.000 C 
ENDROOT
BRANCH   1   2
ATOM      2  C   UNL     1     186.142 190.140 198.386  1.00  0.00     0.000 C 
BRANCH   2   3
ATOM      3  C   UNL     1     184.711 190.054 197.826  1.00  0.00     0.000 C 
BRANCH   3   4
ATOM      4  C   UNL     1     183.634 190.591 198.793  1.00  0.00     0.000 C 
BRANCH   4   5
ATOM      5  C   UNL     1     183.177 189.526 199.805  1.00  0.00     0.000 C 
BRANCH   5   6
ATOM      6  C   UNL     1     182.086 188.602 199.239  1.00  0.00     0.000 C 
BRANCH   6   7
ATOM      7  C   UNL     1     182.388 187.115 199.481  1.00  0.00     0.000 C 
BRANCH   7   8
ATOM      8  C   UNL     1     183.828 186.920 199.978  1.00  0.00     0.000 C 
BRANCH   8   9
ATOM      9  C   UNL     1     184.563 185.774 199.261  1.00  0.00     0.000 C 
BRANCH   9  10
ATOM     10  C   UNL     1     185.425 184.879 200.174  1.00  0.00     0.006 C 
BRANCH  10  11
ATOM     11  C   UNL     1     184.678 183.683 200.785  1.00  0.00     0.053 C 
BRANCH  11  12
ATOM     12  C   UNL     1     183.790 183.006 199.788  1.00  0.00     0.041 C 
ATOM     13  O   UNL     1     182.538 183.097 199.891  1.00  0.00    -0.550 OA
ATOM     14  O   UNL     1     184.344 182.295 198.731  1.00  0.00    -0.550 OA
ENDBRANCH  11  12
ENDBRANCH  10  11
ENDBRANCH   9  10
ENDBRANCH   8   9
ENDBRANCH   7   8
ENDBRANCH   6   7
ENDBRANCH   5   6
ENDBRANCH   4   5
ENDBRANCH   3   4
ENDBRANCH   2   3
ENDBRANCH   1   2
BRANCH   1  15
ATOM     15  C   UNL     1     187.328 188.235 199.610  1.00  0.00     0.000 C 
BRANCH  15  16
ATOM     16  C   UNL     1     187.405 189.303 200.716  1.00  0.00     0.000 C 
BRANCH  16  17
ATOM     17  C   UNL     1     188.586 189.072 201.672  1.00  0.00     0.000 C 
BRANCH  17  18
ATOM     18  C   UNL     1     189.826 189.896 201.283  1.00  0.00    -0.000 C 
BRANCH  18  19
ATOM     19  C   UNL     1     190.886 189.058 200.550  1.00  0.00    -0.000 C 
BRANCH  19  20
ATOM     20  C   UNL     1     191.076 189.499 199.090  1.00  0.00    -0.000 C 
BRANCH  20  21
ATOM     21  C   UNL     1     192.113 188.620 198.378  1.00  0.00    -0.000 C 
BRANCH  21  22
ATOM     22  C   UNL     1     193.558 188.938 198.798  1.00  0.00    -0.000 C 
BRANCH  22  23
ATOM     23  C   UNL     1     194.101 190.252 198.199  1.00  0.00    -0.000 C 
BRANCH  23  24
ATOM     24  C   UNL     1     194.289 191.344 199.268  1.00  0.00    -0.000 C 
BRANCH  24  25
ATOM     25  C   UNL     1     193.875 192.737 198.770  1.00  0.00    -0.003 C 
ATOM     26  C   UNL     1     193.955 193.804 199.860  1.00  0.00     0.004 C 
ENDBRANCH  24  25
ENDBRANCH  23  24
ENDBRANCH  22  23
ENDBRANCH  21  22
ENDBRANCH  20  21
ENDBRANCH  19  20
ENDBRANCH  18  19
ENDBRANCH  17  18
ENDBRANCH  16  17
ENDBRANCH  15  16
ENDBRANCH   1  15
TORSDOF 22
ENDMDL
MODEL 9
REMARK VINA RESULT:    -3.709      3.662      8.137
REMARK INTER + INTRA:         -11.818
REMARK INTER:                  -9.361
REMARK INTRA:                  -2.457
REMARK UNBOUND:                -3.340
REMARK SMILES CCCCCCCCCCCCCCCCCCCCCCCC(=O)[O-]
REMARK SMILES IDX 13 1 14 2 15 3 16 4 17 5 18 6 19 7 20 8 21 9 22 10 23 11
REMARK SMILES IDX 24 12 25 13 26 14 12 15 11 16 10 17 9 18 8 19 7 20 6 21 5 22
REMARK SMILES IDX 4 23 3 24 2 25 1 26
REMARK H PARENT
REMARK Flexibility Score: inf
ROOT
ATOM      1  C   UNL     1     184.117 189.284 197.247  1.00  0.00     0.000 C 
ENDROOT
BRANCH   1   2
ATOM      2  C   UNL     1     182.694 189.487 197.791  1.00  0.00     0.000 C 
BRANCH   2   3
ATOM      3  C   UNL     1     182.244 188.352 198.727  1.00  0.00     0.000 C 
BRANCH   3   4
ATOM      4  C   UNL     1     180.725 188.343 199.005  1.00  0.00     0.000 C 
BRANCH   4   5
ATOM      5  C   UNL     1     180.378 187.625 200.321  1.00  0.00     0.000 C 
BRANCH   5   6
ATOM      6  C   UNL     1     181.624 187.287 201.156  1.00  0.00     0.000 C 
BRANCH   6   7
ATOM      7  C   UNL     1     181.466 185.982 201.951  1.00  0.00     0.000 C 
BRANCH   7   8
ATOM      8  C   UNL     1     182.577 184.984 201.595  1.00  0.00     0.000 C 
BRANCH   8   9
ATOM      9  C   UNL     1     183.160 185.209 200.188  1.00  0.00     0.000 C 
BRANCH   9  10
ATOM     10  C   UNL     1     184.656 184.866 200.039  1.00  0.00     0.006 C 
BRANCH  10  11
ATOM     11  C   UNL     1     185.048 183.477 200.567  1.00  0.00     0.053 C 
BRANCH  11  12
ATOM     12  C   UNL     1     184.298 182.381 199.877  1.00  0.00     0.041 C 
ATOM     13  O   UNL     1     183.684 181.511 200.550  1.00  0.00    -0.550 OA
ATOM     14  O   UNL     1     184.257 182.332 198.488  1.00  0.00    -0.550 OA
ENDBRANCH  11  12
ENDBRANCH  10  11
ENDBRANCH   9  10
ENDBRANCH   8   9
ENDBRANCH   7   8
ENDBRANCH   6   7
ENDBRANCH   5   6
ENDBRANCH   4   5
ENDBRANCH   3   4
ENDBRANCH   2   3
ENDBRANCH   1   2
BRANCH   1  15
ATOM     15  C   UNL     1     184.638 187.857 197.475  1.00  0.00     0.000 C 
BRANCH  15  16
ATOM     16  C   UNL     1     186.067 187.831 198.045  1.00  0.00     0.000 C 
BRANCH  16  17
ATOM     17  C   UNL     1     186.215 188.710 199.297  1.00  0.00     0.000 C 
BRANCH  17  18
ATOM     18  C   UNL     1     186.672 187.907 200.528  1.00  0.00    -0.000 C 
BRANCH  18  19
ATOM     19  C   UNL     1     188.165 187.547 200.477  1.00  0.00    -0.000 C 
BRANCH  19  20
ATOM     20  C   UNL     1     188.942 188.093 201.685  1.00  0.00    -0.000 C 
BRANCH  20  21
ATOM     21  C   UNL     1     189.651 189.409 201.337  1.00  0.00    -0.000 C 
BRANCH  21  22
ATOM     22  C   UNL     1     190.206 189.430 199.903  1.00  0.00    -0.000 C 
BRANCH  22  23
ATOM     23  C   UNL     1     191.747 189.453 199.837  1.00  0.00    -0.000 C 
BRANCH  23  24
ATOM     24  C   UNL     1     192.292 188.595 198.680  1.00  0.00    -0.000 C 
BRANCH  24  25
ATOM     25  C   UNL     1     193.324 189.345 197.824  1.00  0.00    -0.003 C 
ATOM     26  C   UNL     1     193.094 190.855 197.806  1.00  0.00     0.004 C 
ENDBRANCH  24  25
ENDBRANCH  23  24
ENDBRANCH  22  23
ENDBRANCH  21  22
ENDBRANCH  20  21
ENDBRANCH  19  20
ENDBRANCH  18  19
ENDBRANCH  17  18
ENDBRANCH  16  17
ENDBRANCH  15  16
ENDBRANCH   1  15
TORSDOF 22
ENDMDL
