MODEL 1
REMARK VINA RESULT:    -4.255      0.000      0.000
REMARK INTER + INTRA:         -10.529
REMARK INTER:                  -8.234
REMARK INTRA:                  -2.295
REMARK UNBOUND:                -2.295
REMARK SMILES CCCCCCCCCCCCCCCCCC(=O)[O-]
REMARK SMILES IDX 10 1 11 2 12 3 13 4 14 5 15 6 16 7 17 8 18 9 19 10 20 11
REMARK SMILES IDX 9 12 8 13 7 14 6 15 5 16 4 17 3 18 2 19 1 20
REMARK H PARENT
REMARK Flexibility Score: inf
ROOT
ATOM      1  C   UNL     1      -2.236  59.109  48.555  1.00  0.00     0.000 C 
ENDROOT
BRANCH   1   2
ATOM      2  C   UNL     1      -2.244  57.728  49.231  1.00  0.00     0.000 C 
BRANCH   2   3
ATOM      3  C   UNL     1      -2.694  56.605  48.281  1.00  0.00     0.000 C 
BRANCH   3   4
ATOM      4  C   UNL     1      -2.088  56.742  46.876  1.00  0.00     0.000 C 
BRANCH   4   5
ATOM      5  C   UNL     1      -3.137  57.097  45.812  1.00  0.00     0.000 C 
BRANCH   5   6
ATOM      6  C   UNL     1      -2.508  57.918  44.675  1.00  0.00     0.000 C 
BRANCH   6   7
ATOM      7  C   UNL     1      -0.974  57.817  44.650  1.00  0.00     0.006 C 
BRANCH   7   8
ATOM      8  C   UNL     1      -0.418  57.626  43.233  1.00  0.00     0.053 C 
BRANCH   8   9
ATOM      9  C   UNL     1       0.998  58.105  43.160  1.00  0.00     0.041 C 
ATOM     10  O   UNL     1       1.246  59.312  42.899  1.00  0.00    -0.550 OA
ATOM     11  O   UNL     1       2.045  57.208  43.332  1.00  0.00    -0.550 OA
ENDBRANCH   8   9
ENDBRANCH   7   8
ENDBRANCH   6   7
ENDBRANCH   5   6
ENDBRANCH   4   5
ENDBRANCH   3   4
ENDBRANCH   2   3
ENDBRANCH   1   2
BRANCH   1  12
ATOM     12  C   UNL     1      -3.637  59.741  48.490  1.00  0.00     0.000 C 
BRANCH  12  13
ATOM     13  C   UNL     1      -3.912  60.428  47.142  1.00  0.00    -0.000 C 
BRANCH  13  14
ATOM     14  C   UNL     1      -3.588  61.930  47.165  1.00  0.00    -0.000 C 
BRANCH  14  15
ATOM     15  C   UNL     1      -3.473  62.489  45.741  1.00  0.00    -0.000 C 
BRANCH  15  16
ATOM     16  C   UNL     1      -2.674  61.536  44.839  1.00  0.00    -0.000 C 
BRANCH  16  17
ATOM     17  C   UNL     1      -1.169  61.850  44.827  1.00  0.00    -0.000 C 
BRANCH  17  18
ATOM     18  C   UNL     1      -0.354  60.865  45.683  1.00  0.00    -0.000 C 
BRANCH  18  19
ATOM     19  C   UNL     1       1.121  61.278  45.810  1.00  0.00    -0.003 C 
ATOM     20  C   UNL     1       1.510  62.393  44.839  1.00  0.00     0.004 C 
ENDBRANCH  18  19
ENDBRANCH  17  18
ENDBRANCH  16  17
ENDBRANCH  15  16
ENDBRANCH  14  15
ENDBRANCH  13  14
ENDBRANCH  12  13
ENDBRANCH   1  12
TORSDOF 16
ENDMDL
MODEL 2
REMARK VINA RESULT:    -4.226     13.713     15.657
REMARK INTER + INTRA:         -10.473
REMARK INTER:                  -8.261
REMARK INTRA:                  -2.212
REMARK UNBOUND:                -2.295
REMARK SMILES CCCCCCCCCCCCCCCCCC(=O)[O-]
REMARK SMILES IDX 10 1 11 2 12 3 13 4 14 5 15 6 16 7 17 8 18 9 19 10 20 11
REMARK SMILES IDX 9 12 8 13 7 14 6 15 5 16 4 17 3 18 2 19 1 20
REMARK H PARENT
REMARK Flexibility Score: inf
ROOT
ATOM      1  C   UNL     1       5.487  60.838  56.922  1.00  0.00     0.000 C 
ENDROOT
BRANCH   1   2
ATOM      2  C   UNL     1       5.510  59.351  57.311  1.00  0.00     0.000 C 
BRANCH   2   3
ATOM      3  C   UNL     1       6.720  58.604  56.726  1.00  0.00     0.000 C 
BRANCH   3   4
ATOM      4  C   UNL     1       7.888  59.544  56.387  1.00  0.00     0.000 C 
BRANCH   4   5
ATOM      5  C   UNL     1       8.085  59.721  54.874  1.00  0.00     0.000 C 
BRANCH   5   6
ATOM      6  C   UNL     1       8.676  61.103  54.556  1.00  0.00     0.000 C 
BRANCH   6   7
ATOM      7  C   UNL     1       9.074  61.882  55.820  1.00  0.00     0.006 C 
BRANCH   7   8
ATOM      8  C   UNL     1      10.227  62.864  55.572  1.00  0.00     0.053 C 
BRANCH   8   9
ATOM      9  C   UNL     1      10.198  63.968  56.581  1.00  0.00     0.041 C 
ATOM     10  O   UNL     1      10.148  65.169  56.205  1.00  0.00    -0.550 OA
ATOM     11  O   UNL     1      10.276  63.673  57.936  1.00  0.00    -0.550 OA
ENDBRANCH   8   9
ENDBRANCH   7   8
ENDBRANCH   6   7
ENDBRANCH   5   6
ENDBRANCH   4   5
ENDBRANCH   3   4
ENDBRANCH   2   3
ENDBRANCH   1   2
BRANCH   1  12
ATOM     12  C   UNL     1       4.439  61.638  57.716  1.00  0.00     0.000 C 
BRANCH  12  13
ATOM     13  C   UNL     1       5.070  62.503  58.821  1.00  0.00    -0.000 C 
BRANCH  13  14
ATOM     14  C   UNL     1       6.587  62.296  58.943  1.00  0.00    -0.000 C 
BRANCH  14  15
ATOM     15  C   UNL     1       6.953  61.704  60.310  1.00  0.00    -0.000 C 
BRANCH  15  16
ATOM     16  C   UNL     1       5.709  61.145  61.018  1.00  0.00    -0.000 C 
BRANCH  16  17
ATOM     17  C   UNL     1       5.645  59.610  60.983  1.00  0.00    -0.000 C 
BRANCH  17  18
ATOM     18  C   UNL     1       4.207  59.083  60.834  1.00  0.00    -0.000 C 
BRANCH  18  19
ATOM     19  C   UNL     1       3.155  60.193  60.984  1.00  0.00    -0.003 C 
ATOM     20  C   UNL     1       2.420  60.137  62.323  1.00  0.00     0.004 C 
ENDBRANCH  18  19
ENDBRANCH  17  18
ENDBRANCH  16  17
ENDBRANCH  15  16
ENDBRANCH  14  15
ENDBRANCH  13  14
ENDBRANCH  12  13
ENDBRANCH   1  12
TORSDOF 16
ENDMDL
MODEL 3
REMARK VINA RESULT:    -4.150     13.378     15.315
REMARK INTER + INTRA:         -10.327
REMARK INTER:                  -8.717
REMARK INTRA:                  -1.610
REMARK UNBOUND:                -2.295
REMARK SMILES CCCCCCCCCCCCCCCCCC(=O)[O-]
REMARK SMILES IDX 10 1 11 2 12 3 13 4 14 5 15 6 16 7 17 8 18 9 19 10 20 11
REMARK SMILES IDX 9 12 8 13 7 14 6 15 5 16 4 17 3 18 2 19 1 20
REMARK H PARENT
REMARK Flexibility Score: inf
ROOT
ATOM      1  C   UNL     1       5.205  59.662  58.828  1.00  0.00     0.000 C 
ENDROOT
BRANCH   1   2
ATOM      2  C   UNL     1       5.901  60.270  60.055  1.00  0.00     0.000 C 
BRANCH   2   3
ATOM      3  C   UNL     1       6.373  61.715  59.815  1.00  0.00     0.000 C 
BRANCH   3   4
ATOM      4  C   UNL     1       7.866  61.908  60.128  1.00  0.00     0.000 C 
BRANCH   4   5
ATOM      5  C   UNL     1       8.679  62.323  58.893  1.00  0.00     0.000 C 
BRANCH   5   6
ATOM      6  C   UNL     1      10.176  62.418  59.229  1.00  0.00     0.000 C 
BRANCH   6   7
ATOM      7  C   UNL     1      10.959  63.262  58.211  1.00  0.00     0.006 C 
BRANCH   7   8
ATOM      8  C   UNL     1      10.150  63.558  56.941  1.00  0.00     0.053 C 
BRANCH   8   9
ATOM      9  C   UNL     1       9.970  65.034  56.770  1.00  0.00     0.041 C 
ATOM     10  O   UNL     1       9.124  65.654  57.467  1.00  0.00    -0.550 OA
ATOM     11  O   UNL     1      10.702  65.716  55.806  1.00  0.00    -0.550 OA
ENDBRANCH   8   9
ENDBRANCH   7   8
ENDBRANCH   6   7
ENDBRANCH   5   6
ENDBRANCH   4   5
ENDBRANCH   3   4
ENDBRANCH   2   3
ENDBRANCH   1   2
BRANCH   1  12
ATOM     12  C   UNL     1       5.929  59.999  57.513  1.00  0.00     0.000 C 
BRANCH  12  13
ATOM     13  C   UNL     1       6.675  58.790  56.924  1.00  0.00    -0.000 C 
BRANCH  13  14
ATOM     14  C   UNL     1       7.793  59.199  55.952  1.00  0.00    -0.000 C 
BRANCH  14  15
ATOM     15  C   UNL     1       7.648  60.668  55.535  1.00  0.00    -0.000 C 
BRANCH  15  16
ATOM     16  C   UNL     1       8.838  61.114  54.671  1.00  0.00    -0.000 C 
BRANCH  16  17
ATOM     17  C   UNL     1       8.498  61.169  53.173  1.00  0.00    -0.000 C 
BRANCH  17  18
ATOM     18  C   UNL     1       7.039  61.585  52.914  1.00  0.00    -0.000 C 
BRANCH  18  19
ATOM     19  C   UNL     1       6.813  62.064  51.471  1.00  0.00    -0.003 C 
ATOM     20  C   UNL     1       5.530  62.880  51.312  1.00  0.00     0.004 C 
ENDBRANCH  18  19
ENDBRANCH  17  18
ENDBRANCH  16  17
ENDBRANCH  15  16
ENDBRANCH  14  15
ENDBRANCH  13  14
ENDBRANCH  12  13
ENDBRANCH   1  12
TORSDOF 16
ENDMDL
MODEL 4
REMARK VINA RESULT:    -4.051     12.272     14.171
REMARK INTER + INTRA:         -10.135
REMARK INTER:                  -8.556
REMARK INTRA:                  -1.579
REMARK UNBOUND:                -2.295
REMARK SMILES CCCCCCCCCCCCCCCCCC(=O)[O-]
REMARK SMILES IDX 10 1 11 2 12 3 13 4 14 5 15 6 16 7 17 8 18 9 19 10 20 11
REMARK SMILES IDX 9 12 8 13 7 14 6 15 5 16 4 17 3 18 2 19 1 20
REMARK H PARENT
REMARK Flexibility Score: inf
ROOT
ATOM      1  C   UNL     1       7.840  58.989  56.419  1.00  0.00     0.000 C 
ENDROOT
BRANCH   1   2
ATOM      2  C   UNL     1       6.392  58.602  56.759  1.00  0.00     0.000 C 
BRANCH   2   3
ATOM      3  C   UNL     1       5.809  59.436  57.913  1.00  0.00     0.000 C 
BRANCH   3   4
ATOM      4  C   UNL     1       5.174  60.749  57.430  1.00  0.00     0.000 C 
BRANCH   4   5
ATOM      5  C   UNL     1       5.618  61.962  58.262  1.00  0.00     0.000 C 
BRANCH   5   6
ATOM      6  C   UNL     1       6.842  61.616  59.124  1.00  0.00     0.000 C 
BRANCH   6   7
ATOM      7  C   UNL     1       7.962  62.663  59.011  1.00  0.00     0.006 C 
BRANCH   7   8
ATOM      8  C   UNL     1       9.009  62.296  57.951  1.00  0.00     0.053 C 
BRANCH   8   9
ATOM      9  C   UNL     1       9.747  63.518  57.503  1.00  0.00     0.041 C 
ATOM     10  O   UNL     1       9.799  64.534  58.245  1.00  0.00    -0.550 OA
ATOM     11  O   UNL     1      10.335  63.552  56.245  1.00  0.00    -0.550 OA
ENDBRANCH   8   9
ENDBRANCH   7   8
ENDBRANCH   6   7
ENDBRANCH   5   6
ENDBRANCH   4   5
ENDBRANCH   3   4
ENDBRANCH   2   3
ENDBRANCH   1   2
BRANCH   1  12
ATOM     12  C   UNL     1       8.018  59.356  54.936  1.00  0.00     0.000 C 
BRANCH  12  13
ATOM     13  C   UNL     1       8.316  60.850  54.729  1.00  0.00    -0.000 C 
BRANCH  13  14
ATOM     14  C   UNL     1       8.296  61.261  53.249  1.00  0.00    -0.000 C 
BRANCH  14  15
ATOM     15  C   UNL     1       6.880  61.646  52.804  1.00  0.00    -0.000 C 
BRANCH  15  16
ATOM     16  C   UNL     1       6.863  62.075  51.329  1.00  0.00    -0.000 C 
BRANCH  16  17
ATOM     17  C   UNL     1       8.263  62.418  50.794  1.00  0.00    -0.000 C 
BRANCH  17  18
ATOM     18  C   UNL     1       8.563  61.738  49.446  1.00  0.00    -0.000 C 
BRANCH  18  19
ATOM     19  C   UNL     1       9.592  62.516  48.612  1.00  0.00    -0.003 C 
ATOM     20  C   UNL     1       9.714  63.980  49.036  1.00  0.00     0.004 C 
ENDBRANCH  18  19
ENDBRANCH  17  18
ENDBRANCH  16  17
ENDBRANCH  15  16
ENDBRANCH  14  15
ENDBRANCH  13  14
ENDBRANCH  12  13
ENDBRANCH   1  12
TORSDOF 16
ENDMDL
MODEL 5
REMARK VINA RESULT:    -4.034      1.326      3.360
REMARK INTER + INTRA:         -10.102
REMARK INTER:                  -7.737
REMARK INTRA:                  -2.365
REMARK UNBOUND:                -2.295
REMARK SMILES CCCCCCCCCCCCCCCCCC(=O)[O-]
REMARK SMILES IDX 10 1 11 2 12 3 13 4 14 5 15 6 16 7 17 8 18 9 19 10 20 11
REMARK SMILES IDX 9 12 8 13 7 14 6 15 5 16 4 17 3 18 2 19 1 20
REMARK H PARENT
REMARK Flexibility Score: inf
ROOT
ATOM      1  C   UNL     1      -2.323  56.571  47.857  1.00  0.00     0.000 C 
ENDROOT
BRANCH   1   2
ATOM      2  C   UNL     1      -3.478  56.610  46.844  1.00  0.00     0.000 C 
BRANCH   2   3
ATOM      3  C   UNL     1      -3.112  57.364  45.554  1.00  0.00     0.000 C 
BRANCH   3   4
ATOM      4  C   UNL     1      -1.619  57.722  45.483  1.00  0.00     0.000 C 
BRANCH   4   5
ATOM      5  C   UNL     1      -1.366  59.063  44.777  1.00  0.00     0.000 C 
BRANCH   5   6
ATOM      6  C   UNL     1      -0.730  60.077  45.740  1.00  0.00     0.000 C 
BRANCH   6   7
ATOM      7  C   UNL     1      -0.088  61.267  45.009  1.00  0.00     0.006 C 
BRANCH   7   8
ATOM      8  C   UNL     1       1.404  61.424  45.331  1.00  0.00     0.053 C 
BRANCH   8   9
ATOM      9  C   UNL     1       2.238  60.911  44.201  1.00  0.00     0.041 C 
ATOM     10  O   UNL     1       2.023  59.765  43.723  1.00  0.00    -0.550 OA
ATOM     11  O   UNL     1       3.286  61.677  43.706  1.00  0.00    -0.550 OA
ENDBRANCH   8   9
ENDBRANCH   7   8
ENDBRANCH   6   7
ENDBRANCH   5   6
ENDBRANCH   4   5
ENDBRANCH   3   4
ENDBRANCH   2   3
ENDBRANCH   1   2
BRANCH   1  12
ATOM     12  C   UNL     1      -2.595  57.444  49.094  1.00  0.00     0.000 C 
BRANCH  12  13
ATOM     13  C   UNL     1      -2.165  58.907  48.890  1.00  0.00    -0.000 C 
BRANCH  13  14
ATOM     14  C   UNL     1      -3.347  59.886  48.954  1.00  0.00    -0.000 C 
BRANCH  14  15
ATOM     15  C   UNL     1      -3.960  60.099  47.564  1.00  0.00    -0.000 C 
BRANCH  15  16
ATOM     16  C   UNL     1      -3.784  61.553  47.102  1.00  0.00    -0.000 C 
BRANCH  16  17
ATOM     17  C   UNL     1      -4.063  61.738  45.602  1.00  0.00    -0.000 C 
BRANCH  17  18
ATOM     18  C   UNL     1      -3.937  63.205  45.154  1.00  0.00    -0.000 C 
BRANCH  18  19
ATOM     19  C   UNL     1      -2.579  63.819  45.528  1.00  0.00    -0.003 C 
ATOM     20  C   UNL     1      -2.715  65.115  46.328  1.00  0.00     0.004 C 
ENDBRANCH  18  19
ENDBRANCH  17  18
ENDBRANCH  16  17
ENDBRANCH  15  16
ENDBRANCH  14  15
ENDBRANCH  13  14
ENDBRANCH  12  13
ENDBRANCH   1  12
TORSDOF 16
ENDMDL
MODEL 6
REMARK VINA RESULT:    -4.025      2.990      5.781
REMARK INTER + INTRA:         -10.085
REMARK INTER:                  -7.763
REMARK INTRA:                  -2.323
REMARK UNBOUND:                -2.295
REMARK SMILES CCCCCCCCCCCCCCCCCC(=O)[O-]
REMARK SMILES IDX 10 1 11 2 12 3 13 4 14 5 15 6 16 7 17 8 18 9 19 10 20 11
REMARK SMILES IDX 9 12 8 13 7 14 6 15 5 16 4 17 3 18 2 19 1 20
REMARK H PARENT
REMARK Flexibility Score: inf
ROOT
ATOM      1  C   UNL     1      -3.642  60.539  47.292  1.00  0.00     0.000 C 
ENDROOT
BRANCH   1   2
ATOM      2  C   UNL     1      -3.801  62.039  46.995  1.00  0.00     0.000 C 
BRANCH   2   3
ATOM      3  C   UNL     1      -3.881  62.341  45.489  1.00  0.00     0.000 C 
BRANCH   3   4
ATOM      4  C   UNL     1      -2.853  61.543  44.672  1.00  0.00     0.000 C 
BRANCH   4   5
ATOM      5  C   UNL     1      -1.682  62.412  44.186  1.00  0.00     0.000 C 
BRANCH   5   6
ATOM      6  C   UNL     1      -0.484  62.300  45.142  1.00  0.00     0.000 C 
BRANCH   6   7
ATOM      7  C   UNL     1       0.148  63.665  45.460  1.00  0.00     0.006 C 
BRANCH   7   8
ATOM      8  C   UNL     1      -0.806  64.836  45.191  1.00  0.00     0.053 C 
BRANCH   8   9
ATOM      9  C   UNL     1      -1.423  65.309  46.470  1.00  0.00     0.041 C 
ATOM     10  O   UNL     1      -2.671  65.453  46.555  1.00  0.00    -0.550 OA
ATOM     11  O   UNL     1      -0.616  65.638  47.551  1.00  0.00    -0.550 OA
ENDBRANCH   8   9
ENDBRANCH   7   8
ENDBRANCH   6   7
ENDBRANCH   5   6
ENDBRANCH   4   5
ENDBRANCH   3   4
ENDBRANCH   2   3
ENDBRANCH   1   2
BRANCH   1  12
ATOM     12  C   UNL     1      -3.265  60.266  48.759  1.00  0.00     0.000 C 
BRANCH  12  13
ATOM     13  C   UNL     1      -2.288  59.087  48.907  1.00  0.00    -0.000 C 
BRANCH  13  14
ATOM     14  C   UNL     1      -2.992  57.723  48.847  1.00  0.00    -0.000 C 
BRANCH  14  15
ATOM     15  C   UNL     1      -1.988  56.599  48.558  1.00  0.00    -0.000 C 
BRANCH  15  16
ATOM     16  C   UNL     1      -1.820  56.386  47.046  1.00  0.00    -0.000 C 
BRANCH  16  17
ATOM     17  C   UNL     1      -2.997  56.947  46.233  1.00  0.00    -0.000 C 
BRANCH  17  18
ATOM     18  C   UNL     1      -2.538  57.862  45.083  1.00  0.00    -0.000 C 
BRANCH  18  19
ATOM     19  C   UNL     1      -1.077  58.312  45.238  1.00  0.00    -0.003 C 
ATOM     20  C   UNL     1      -0.226  57.995  44.009  1.00  0.00     0.004 C 
ENDBRANCH  18  19
ENDBRANCH  17  18
ENDBRANCH  16  17
ENDBRANCH  15  16
ENDBRANCH  14  15
ENDBRANCH  13  14
ENDBRANCH  12  13
ENDBRANCH   1  12
TORSDOF 16
ENDMDL
MODEL 7
REMARK VINA RESULT:    -3.978      2.917      5.877
REMARK INTER + INTRA:          -9.993
REMARK INTER:                  -7.480
REMARK INTRA:                  -2.513
REMARK UNBOUND:                -2.295
REMARK SMILES CCCCCCCCCCCCCCCCCC(=O)[O-]
REMARK SMILES IDX 10 1 11 2 12 3 13 4 14 5 15 6 16 7 17 8 18 9 19 10 20 11
REMARK SMILES IDX 9 12 8 13 7 14 6 15 5 16 4 17 3 18 2 19 1 20
REMARK H PARENT
REMARK Flexibility Score: inf
ROOT
ATOM      1  C   UNL     1      -0.892  57.706  45.487  1.00  0.00     0.000 C 
ENDROOT
BRANCH   1   2
ATOM      2  C   UNL     1      -0.122  58.206  44.253  1.00  0.00     0.000 C 
BRANCH   2   3
ATOM      3  C   UNL     1      -0.027  59.741  44.194  1.00  0.00     0.000 C 
BRANCH   3   4
ATOM      4  C   UNL     1       1.219  60.283  44.911  1.00  0.00     0.000 C 
BRANCH   4   5
ATOM      5  C   UNL     1       0.950  61.603  45.649  1.00  0.00     0.000 C 
BRANCH   5   6
ATOM      6  C   UNL     1       0.039  62.519  44.816  1.00  0.00     0.000 C 
BRANCH   6   7
ATOM      7  C   UNL     1      -0.321  63.821  45.549  1.00  0.00     0.006 C 
BRANCH   7   8
ATOM      8  C   UNL     1      -1.613  64.459  45.021  1.00  0.00     0.053 C 
BRANCH   8   9
ATOM      9  C   UNL     1      -2.445  64.966  46.157  1.00  0.00     0.041 C 
ATOM     10  O   UNL     1      -2.154  66.054  46.719  1.00  0.00    -0.550 OA
ATOM     11  O   UNL     1      -3.514  64.212  46.626  1.00  0.00    -0.550 OA
ENDBRANCH   8   9
ENDBRANCH   7   8
ENDBRANCH   6   7
ENDBRANCH   5   6
ENDBRANCH   4   5
ENDBRANCH   3   4
ENDBRANCH   2   3
ENDBRANCH   1   2
BRANCH   1  12
ATOM     12  C   UNL     1      -2.392  57.517  45.208  1.00  0.00     0.000 C 
BRANCH  12  13
ATOM     13  C   UNL     1      -3.152  56.954  46.421  1.00  0.00    -0.000 C 
BRANCH  13  14
ATOM     14  C   UNL     1      -2.223  56.614  47.597  1.00  0.00    -0.000 C 
BRANCH  14  15
ATOM     15  C   UNL     1      -2.631  57.384  48.859  1.00  0.00    -0.000 C 
BRANCH  15  16
ATOM     16  C   UNL     1      -2.185  58.852  48.776  1.00  0.00    -0.000 C 
BRANCH  16  17
ATOM     17  C   UNL     1      -3.360  59.837  48.888  1.00  0.00    -0.000 C 
BRANCH  17  18
ATOM     18  C   UNL     1      -3.913  60.255  47.514  1.00  0.00    -0.000 C 
BRANCH  18  19
ATOM     19  C   UNL     1      -2.824  60.819  46.589  1.00  0.00    -0.003 C 
ATOM     20  C   UNL     1      -3.330  61.085  45.171  1.00  0.00     0.004 C 
ENDBRANCH  18  19
ENDBRANCH  17  18
ENDBRANCH  16  17
ENDBRANCH  15  16
ENDBRANCH  14  15
ENDBRANCH  13  14
ENDBRANCH  12  13
ENDBRANCH   1  12
TORSDOF 16
ENDMDL
MODEL 8
REMARK VINA RESULT:    -3.956      2.805      5.251
REMARK INTER + INTRA:          -9.951
REMARK INTER:                  -7.835
REMARK INTRA:                  -2.115
REMARK UNBOUND:                -2.295
REMARK SMILES CCCCCCCCCCCCCCCCCC(=O)[O-]
REMARK SMILES IDX 10 1 11 2 12 3 13 4 14 5 15 6 16 7 17 8 18 9 19 10 20 11
REMARK SMILES IDX 9 12 8 13 7 14 6 15 5 16 4 17 3 18 2 19 1 20
REMARK H PARENT
REMARK Flexibility Score: inf
ROOT
ATOM      1  C   UNL     1      -2.243  58.724  48.624  1.00  0.00     0.000 C 
ENDROOT
BRANCH   1   2
ATOM      2  C   UNL     1      -3.474  59.606  48.888  1.00  0.00     0.000 C 
BRANCH   2   3
ATOM      3  C   UNL     1      -4.107  60.145  47.594  1.00  0.00     0.000 C 
BRANCH   3   4
ATOM      4  C   UNL     1      -3.060  60.676  46.601  1.00  0.00     0.000 C 
BRANCH   4   5
ATOM      5  C   UNL     1      -3.516  61.960  45.892  1.00  0.00     0.000 C 
BRANCH   5   6
ATOM      6  C   UNL     1      -3.712  63.102  46.901  1.00  0.00     0.000 C 
BRANCH   6   7
ATOM      7  C   UNL     1      -3.408  64.483  46.299  1.00  0.00     0.006 C 
BRANCH   7   8
ATOM      8  C   UNL     1      -2.085  64.512  45.523  1.00  0.00     0.053 C 
BRANCH   8   9
ATOM      9  C   UNL     1      -1.104  65.416  46.200  1.00  0.00     0.041 C 
ATOM     10  O   UNL     1       0.132  65.265  46.011  1.00  0.00    -0.550 OA
ATOM     11  O   UNL     1      -1.552  66.396  47.077  1.00  0.00    -0.550 OA
ENDBRANCH   8   9
ENDBRANCH   7   8
ENDBRANCH   6   7
ENDBRANCH   5   6
ENDBRANCH   4   5
ENDBRANCH   3   4
ENDBRANCH   2   3
ENDBRANCH   1   2
BRANCH   1  12
ATOM     12  C   UNL     1      -2.574  57.222  48.670  1.00  0.00     0.000 C 
BRANCH  12  13
ATOM     13  C   UNL     1      -2.293  56.515  47.334  1.00  0.00    -0.000 C 
BRANCH  13  14
ATOM     14  C   UNL     1      -3.314  56.877  46.244  1.00  0.00    -0.000 C 
BRANCH  14  15
ATOM     15  C   UNL     1      -2.636  57.600  45.074  1.00  0.00    -0.000 C 
BRANCH  15  16
ATOM     16  C   UNL     1      -1.116  57.681  45.284  1.00  0.00    -0.000 C 
BRANCH  16  17
ATOM     17  C   UNL     1      -0.353  58.003  43.989  1.00  0.00    -0.000 C 
BRANCH  17  18
ATOM     18  C   UNL     1       0.751  59.054  44.199  1.00  0.00    -0.000 C 
BRANCH  18  19
ATOM     19  C   UNL     1       0.277  60.242  45.049  1.00  0.00    -0.003 C 
ATOM     20  C   UNL     1      -0.224  61.414  44.204  1.00  0.00     0.004 C 
ENDBRANCH  18  19
ENDBRANCH  17  18
ENDBRANCH  16  17
ENDBRANCH  15  16
ENDBRANCH  14  15
ENDBRANCH  13  14
ENDBRANCH  12  13
ENDBRANCH   1  12
TORSDOF 16
ENDMDL
MODEL 9
REMARK VINA RESULT:    -3.870      1.276      4.975
REMARK INTER + INTRA:          -9.784
REMARK INTER:                  -7.625
REMARK INTRA:                  -2.159
REMARK UNBOUND:                -2.295
REMARK SMILES CCCCCCCCCCCCCCCCCC(=O)[O-]
REMARK SMILES IDX 10 1 11 2 12 3 13 4 14 5 15 6 16 7 17 8 18 9 19 10 20 11
REMARK SMILES IDX 9 12 8 13 7 14 6 15 5 16 4 17 3 18 2 19 1 20
REMARK H PARENT
REMARK Flexibility Score: inf
ROOT
ATOM      1  C   UNL     1      -2.998  61.210  45.362  1.00  0.00     0.000 C 
ENDROOT
BRANCH   1   2
ATOM      2  C   UNL     1      -3.519  62.339  44.459  1.00  0.00     0.000 C 
BRANCH   2   3
ATOM      3  C   UNL     1      -2.610  63.580  44.476  1.00  0.00     0.000 C 
BRANCH   3   4
ATOM      4  C   UNL     1      -1.469  63.462  45.498  1.00  0.00     0.000 C 
BRANCH   4   5
ATOM      5  C   UNL     1      -0.082  63.446  44.837  1.00  0.00     0.000 C 
BRANCH   5   6
ATOM      6  C   UNL     1       0.583  62.070  44.993  1.00  0.00     0.000 C 
BRANCH   6   7
ATOM      7  C   UNL     1       0.785  61.354  43.648  1.00  0.00     0.006 C 
BRANCH   7   8
ATOM      8  C   UNL     1       0.677  59.828  43.769  1.00  0.00     0.053 C 
BRANCH   8   9
ATOM      9  C   UNL     1       2.019  59.194  43.574  1.00  0.00     0.041 C 
ATOM     10  O   UNL     1       2.110  57.954  43.376  1.00  0.00    -0.550 OA
ATOM     11  O   UNL     1       3.171  59.965  43.660  1.00  0.00    -0.550 OA
ENDBRANCH   8   9
ENDBRANCH   7   8
ENDBRANCH   6   7
ENDBRANCH   5   6
ENDBRANCH   4   5
ENDBRANCH   3   4
ENDBRANCH   2   3
ENDBRANCH   1   2
BRANCH   1  12
ATOM     12  C   UNL     1      -4.000  60.828  46.465  1.00  0.00     0.000 C 
BRANCH  12  13
ATOM     13  C   UNL     1      -3.395  60.938  47.875  1.00  0.00    -0.000 C 
BRANCH  13  14
ATOM     14  C   UNL     1      -3.598  59.665  48.709  1.00  0.00    -0.000 C 
BRANCH  14  15
ATOM     15  C   UNL     1      -2.313  58.828  48.756  1.00  0.00    -0.000 C 
BRANCH  15  16
ATOM     16  C   UNL     1      -2.636  57.331  48.890  1.00  0.00    -0.000 C 
BRANCH  16  17
ATOM     17  C   UNL     1      -2.505  56.574  47.559  1.00  0.00    -0.000 C 
BRANCH  17  18
ATOM     18  C   UNL     1      -3.763  56.700  46.681  1.00  0.00    -0.000 C 
BRANCH  18  19
ATOM     19  C   UNL     1      -3.482  57.420  45.353  1.00  0.00    -0.003 C 
ATOM     20  C   UNL     1      -2.008  57.789  45.178  1.00  0.00     0.004 C 
ENDBRANCH  18  19
ENDBRANCH  17  18
ENDBRANCH  16  17
ENDBRANCH  15  16
ENDBRANCH  14  15
ENDBRANCH  13  14
ENDBRANCH  12  13
ENDBRANCH   1  12
TORSDOF 16
ENDMDL
