MODEL 1
REMARK VINA RESULT:    -4.402      0.000      0.000
REMARK INTER + INTRA:          -8.383
REMARK INTER:                  -6.461
REMARK INTRA:                  -1.923
REMARK UNBOUND:                -1.923
REMARK SMILES O=c1c(O[C@H]2O[C@@H](CO)[C@H](O)[C@@H](O)[C@H]2O)c(-c2ccc(O)c(O)c2)oc2cc(O)cc(O)c12
REMARK SMILES IDX 4 1 3 2 16 3 25 4 2 5 26 6 1 7 33 8 27 9 31 10 28 11 30 12
REMARK SMILES IDX 17 13 18 14 19 15 20 16 24 17 22 18 21 19 23 21 32 23 29 25
REMARK SMILES IDX 5 27 14 28 6 29 12 30 7 31 10 32 15 33 13 35 8 37 9 38 11 40
REMARK H PARENT 21 20 23 22 32 24 29 26 15 34 13 36 9 39 11 41
REMARK Flexibility Score: inf
ROOT
ATOM      1  O   UNL     1      29.516 173.550 172.216  1.00  0.00    -0.454 OA
ENDROOT
BRANCH   1   2
ATOM      2  C   UNL     1      30.845 173.121 172.347  1.00  0.00     0.214 A 
ATOM      3  C   UNL     1      31.873 173.980 172.796  1.00  0.00     0.180 A 
ATOM      4  O   UNL     1      33.096 173.497 172.992  1.00  0.00    -0.452 OA
ATOM      5  C   UNL     1      31.166 171.799 172.019  1.00  0.00     0.239 A 
ATOM      6  C   UNL     1      33.432 172.237 172.738  1.00  0.00     0.146 A 
ATOM      7  O   UNL     1      30.265 171.044 171.563  1.00  0.00    -0.285 OA
ATOM      8  C   UNL     1      32.479 171.328 172.221  1.00  0.00     0.111 A 
ATOM      9  C   UNL     1      34.744 171.820 172.977  1.00  0.00     0.094 A 
ATOM     10  C   UNL     1      32.875 169.998 171.942  1.00  0.00     0.134 A 
ATOM     11  C   UNL     1      35.129 170.503 172.703  1.00  0.00     0.123 A 
ATOM     12  C   UNL     1      34.198 169.600 172.186  1.00  0.00     0.093 A 
BRANCH   3  13
ATOM     13  C   UNL     1      31.651 175.422 173.035  1.00  0.00     0.025 A 
ATOM     14  C   UNL     1      31.429 175.884 174.342  1.00  0.00     0.016 A 
ATOM     15  C   UNL     1      31.223 177.245 174.583  1.00  0.00     0.051 A 
ATOM     16  C   UNL     1      31.248 178.163 173.525  1.00  0.00     0.157 A 
ATOM     17  C   UNL     1      31.702 176.348 171.979  1.00  0.00     0.062 A 
ATOM     18  C   UNL     1      31.493 177.711 172.217  1.00  0.00     0.158 A 
BRANCH  16  19
ATOM     19  O   UNL     1      31.035 179.519 173.767  1.00  0.00    -0.504 OA
ATOM     20  H   UNL     1      31.242 180.222 173.067  1.00  0.00     0.293 HD
ENDBRANCH  16  19
BRANCH  18  21
ATOM     21  O   UNL     1      31.535 178.600 171.143  1.00  0.00    -0.504 OA
ATOM     22  H   UNL     1      30.818 178.613 170.428  1.00  0.00     0.293 HD
ENDBRANCH  18  21
ENDBRANCH   3  13
BRANCH  10  23
ATOM     23  O   UNL     1      31.967 169.071 171.429  1.00  0.00    -0.507 OA
ATOM     24  H   UNL     1      31.809 168.176 171.875  1.00  0.00     0.293 HD
ENDBRANCH  10  23
BRANCH  11  25
ATOM     25  O   UNL     1      36.437 170.083 172.937  1.00  0.00    -0.508 OA
ATOM     26  H   UNL     1      37.216 170.455 172.407  1.00  0.00     0.293 HD
ENDBRANCH  11  25
ENDBRANCH   1   2
BRANCH   1  27
ATOM     27  C   UNL     1      28.649 173.804 173.330  1.00  0.00     0.339 C 
ATOM     28  C   UNL     1      27.498 172.775 173.407  1.00  0.00     0.214 C 
ATOM     29  O   UNL     1      28.142 175.127 173.271  1.00  0.00    -0.332 OA
ATOM     30  C   UNL     1      26.296 173.194 172.519  1.00  0.00     0.180 C 
ATOM     31  C   UNL     1      27.416 175.414 172.075  1.00  0.00     0.179 C 
ATOM     32  C   UNL     1      26.722 174.184 171.420  1.00  0.00     0.177 C 
BRANCH  28  33
ATOM     33  O   UNL     1      27.981 171.502 173.058  1.00  0.00    -0.384 OA
ATOM     34  H   UNL     1      27.271 170.847 173.287  1.00  0.00     0.211 HD
ENDBRANCH  28  33
BRANCH  30  35
ATOM     35  O   UNL     1      25.629 172.077 171.978  1.00  0.00    -0.387 OA
ATOM     36  H   UNL     1      26.003 171.264 172.408  1.00  0.00     0.211 HD
ENDBRANCH  30  35
BRANCH  31  37
ATOM     37  C   UNL     1      28.317 176.175 171.085  1.00  0.00     0.191 C 
BRANCH  37  38
ATOM     38  O   UNL     1      28.615 175.376 169.971  1.00  0.00    -0.394 OA
ATOM     39  H   UNL     1      29.280 175.876 169.428  1.00  0.00     0.210 HD
ENDBRANCH  37  38
ENDBRANCH  31  37
BRANCH  32  40
ATOM     40  O   UNL     1      25.594 174.614 170.700  1.00  0.00    -0.387 OA
ATOM     41  H   UNL     1      25.096 175.242 171.287  1.00  0.00     0.211 HD
ENDBRANCH  32  40
ENDBRANCH   1  27
TORSDOF 12
ENDMDL
MODEL 2
REMARK VINA RESULT:    -4.355      1.777      2.814
REMARK INTER + INTRA:          -8.314
REMARK INTER:                  -7.184
REMARK INTRA:                  -1.130
REMARK UNBOUND:                -1.923
REMARK SMILES O=c1c(O[C@H]2O[C@@H](CO)[C@H](O)[C@@H](O)[C@H]2O)c(-c2ccc(O)c(O)c2)oc2cc(O)cc(O)c12
REMARK SMILES IDX 4 1 3 2 16 3 25 4 2 5 26 6 1 7 33 8 27 9 31 10 28 11 30 12
REMARK SMILES IDX 17 13 18 14 19 15 20 16 24 17 22 18 21 19 23 21 32 23 29 25
REMARK SMILES IDX 5 27 14 28 6 29 12 30 7 31 10 32 15 33 13 35 8 37 9 38 11 40
REMARK H PARENT 21 20 23 22 32 24 29 26 15 34 13 36 9 39 11 41
REMARK Flexibility Score: inf
ROOT
ATOM      1  O   UNL     1      29.837 175.855 172.173  1.00  0.00    -0.454 OA
ENDROOT
BRANCH   1   2
ATOM      2  C   UNL     1      30.976 175.084 172.444  1.00  0.00     0.214 A 
ATOM      3  C   UNL     1      32.130 175.631 173.048  1.00  0.00     0.180 A 
ATOM      4  O   UNL     1      33.146 174.835 173.368  1.00  0.00    -0.452 OA
ATOM      5  C   UNL     1      30.974 173.727 172.103  1.00  0.00     0.239 A 
ATOM      6  C   UNL     1      33.165 173.534 173.104  1.00  0.00     0.146 A 
ATOM      7  O   UNL     1      29.969 173.245 171.510  1.00  0.00    -0.285 OA
ATOM      8  C   UNL     1      32.077 172.919 172.439  1.00  0.00     0.111 A 
ATOM      9  C   UNL     1      34.278 172.778 173.480  1.00  0.00     0.094 A 
ATOM     10  C   UNL     1      32.137 171.534 172.155  1.00  0.00     0.134 A 
ATOM     11  C   UNL     1      34.330 171.408 173.200  1.00  0.00     0.123 A 
ATOM     12  C   UNL     1      33.266 170.793 172.539  1.00  0.00     0.093 A 
BRANCH   3  13
ATOM     13  C   UNL     1      32.271 177.079 173.318  1.00  0.00     0.025 A 
ATOM     14  C   UNL     1      32.288 177.539 174.644  1.00  0.00     0.016 A 
ATOM     15  C   UNL     1      32.425 178.903 174.914  1.00  0.00     0.051 A 
ATOM     16  C   UNL     1      32.561 179.822 173.865  1.00  0.00     0.157 A 
ATOM     17  C   UNL     1      32.433 177.999 172.269  1.00  0.00     0.062 A 
ATOM     18  C   UNL     1      32.569 179.366 172.536  1.00  0.00     0.158 A 
BRANCH  16  19
ATOM     19  O   UNL     1      32.691 181.183 174.138  1.00  0.00    -0.504 OA
ATOM     20  H   UNL     1      31.881 181.774 174.287  1.00  0.00     0.293 HD
ENDBRANCH  16  19
BRANCH  18  21
ATOM     21  O   UNL     1      32.711 180.253 171.470  1.00  0.00    -0.504 OA
ATOM     22  H   UNL     1      32.182 181.115 171.413  1.00  0.00     0.293 HD
ENDBRANCH  18  21
ENDBRANCH   3  13
BRANCH  10  23
ATOM     23  O   UNL     1      31.088 170.889 171.499  1.00  0.00    -0.507 OA
ATOM     24  H   UNL     1      30.148 170.884 171.875  1.00  0.00     0.293 HD
ENDBRANCH  10  23
BRANCH  11  25
ATOM     25  O   UNL     1      35.438 170.650 173.571  1.00  0.00    -0.508 OA
ATOM     26  H   UNL     1      36.375 171.039 173.558  1.00  0.00     0.293 HD
ENDBRANCH  11  25
ENDBRANCH   1   2
BRANCH   1  27
ATOM     27  C   UNL     1      28.496 175.355 172.269  1.00  0.00     0.339 C 
ATOM     28  C   UNL     1      27.713 175.556 170.952  1.00  0.00     0.214 C 
ATOM     29  O   UNL     1      27.819 175.959 173.358  1.00  0.00    -0.332 OA
ATOM     30  C   UNL     1      27.063 176.964 170.882  1.00  0.00     0.180 C 
ATOM     31  C   UNL     1      27.750 177.383 173.276  1.00  0.00     0.179 C 
ATOM     32  C   UNL     1      27.760 177.956 171.829  1.00  0.00     0.177 C 
BRANCH  28  33
ATOM     33  O   UNL     1      28.565 175.324 169.858  1.00  0.00    -0.384 OA
ATOM     34  H   UNL     1      28.049 175.533 169.036  1.00  0.00     0.211 HD
ENDBRANCH  28  33
BRANCH  30  35
ATOM     35  O   UNL     1      27.015 177.455 169.563  1.00  0.00    -0.387 OA
ATOM     36  H   UNL     1      26.069 177.426 169.263  1.00  0.00     0.211 HD
ENDBRANCH  30  35
BRANCH  31  37
ATOM     37  C   UNL     1      28.840 178.012 174.164  1.00  0.00     0.191 C 
BRANCH  37  38
ATOM     38  O   UNL     1      29.055 179.352 173.810  1.00  0.00    -0.394 OA
ATOM     39  H   UNL     1      29.322 179.829 174.639  1.00  0.00     0.210 HD
ENDBRANCH  37  38
ENDBRANCH  31  37
BRANCH  32  40
ATOM     40  O   UNL     1      27.086 179.190 171.811  1.00  0.00    -0.387 OA
ATOM     41  H   UNL     1      27.318 179.635 170.954  1.00  0.00     0.211 HD
ENDBRANCH  32  40
ENDBRANCH   1  27
TORSDOF 12
ENDMDL
MODEL 3
REMARK VINA RESULT:    -4.285      2.181      8.588
REMARK INTER + INTRA:          -8.212
REMARK INTER:                  -6.392
REMARK INTRA:                  -1.820
REMARK UNBOUND:                -1.923
REMARK SMILES O=c1c(O[C@H]2O[C@@H](CO)[C@H](O)[C@@H](O)[C@H]2O)c(-c2ccc(O)c(O)c2)oc2cc(O)cc(O)c12
REMARK SMILES IDX 4 1 3 2 16 3 25 4 2 5 26 6 1 7 33 8 27 9 31 10 28 11 30 12
REMARK SMILES IDX 17 13 18 14 19 15 20 16 24 17 22 18 21 19 23 21 32 23 29 25
REMARK SMILES IDX 5 27 14 28 6 29 12 30 7 31 10 32 15 33 13 35 8 37 9 38 11 40
REMARK H PARENT 21 20 23 22 32 24 29 26 15 34 13 36 9 39 11 41
REMARK Flexibility Score: inf
ROOT
ATOM      1  O   UNL     1      33.857 170.832 172.711  1.00  0.00    -0.454 OA
ENDROOT
BRANCH   1   2
ATOM      2  C   UNL     1      32.596 171.399 172.473  1.00  0.00     0.214 A 
ATOM      3  C   UNL     1      31.490 170.627 172.054  1.00  0.00     0.180 A 
ATOM      4  O   UNL     1      30.295 171.198 171.935  1.00  0.00    -0.452 OA
ATOM      5  C   UNL     1      32.427 172.776 172.654  1.00  0.00     0.239 A 
ATOM      6  C   UNL     1      30.082 172.492 172.143  1.00  0.00     0.146 A 
ATOM      7  O   UNL     1      33.425 173.480 172.972  1.00  0.00    -0.285 OA
ATOM      8  C   UNL     1      31.150 173.350 172.499  1.00  0.00     0.111 A 
ATOM      9  C   UNL     1      28.790 173.002 171.994  1.00  0.00     0.094 A 
ATOM     10  C   UNL     1      30.893 174.728 172.693  1.00  0.00     0.134 A 
ATOM     11  C   UNL     1      28.540 174.365 172.190  1.00  0.00     0.123 A 
ATOM     12  C   UNL     1      29.588 175.221 172.536  1.00  0.00     0.093 A 
BRANCH   3  13
ATOM     13  C   UNL     1      31.611 169.193 171.710  1.00  0.00     0.025 A 
ATOM     14  C   UNL     1      31.510 168.225 172.721  1.00  0.00     0.016 A 
ATOM     15  C   UNL     1      31.617 166.868 172.409  1.00  0.00     0.051 A 
ATOM     16  C   UNL     1      31.812 166.459 171.084  1.00  0.00     0.157 A 
ATOM     17  C   UNL     1      31.780 168.780 170.378  1.00  0.00     0.062 A 
ATOM     18  C   UNL     1      31.890 167.421 170.063  1.00  0.00     0.158 A 
BRANCH  16  19
ATOM     19  O   UNL     1      31.925 165.104 170.776  1.00  0.00    -0.504 OA
ATOM     20  H   UNL     1      31.165 164.593 170.342  1.00  0.00     0.293 HD
ENDBRANCH  16  19
BRANCH  18  21
ATOM     21  O   UNL     1      32.075 167.048 168.732  1.00  0.00    -0.504 OA
ATOM     22  H   UNL     1      32.590 167.624 168.078  1.00  0.00     0.293 HD
ENDBRANCH  18  21
ENDBRANCH   3  13
BRANCH  10  23
ATOM     23  O   UNL     1      31.917 175.608 173.042  1.00  0.00    -0.507 OA
ATOM     24  H   UNL     1      31.870 176.177 173.878  1.00  0.00     0.293 HD
ENDBRANCH  10  23
BRANCH  11  25
ATOM     25  O   UNL     1      27.254 174.879 172.042  1.00  0.00    -0.508 OA
ATOM     26  H   UNL     1      26.699 175.159 172.844  1.00  0.00     0.293 HD
ENDBRANCH  11  25
ENDBRANCH   1   2
BRANCH   1  27
ATOM     27  C   UNL     1      34.188 170.095 173.896  1.00  0.00     0.339 C 
ATOM     28  C   UNL     1      35.270 170.812 174.735  1.00  0.00     0.214 C 
ATOM     29  O   UNL     1      34.595 168.779 173.562  1.00  0.00    -0.332 OA
ATOM     30  C   UNL     1      36.700 170.455 174.249  1.00  0.00     0.180 C 
ATOM     31  C   UNL     1      35.722 168.728 172.686  1.00  0.00     0.179 C 
ATOM     32  C   UNL     1      36.693 169.940 172.798  1.00  0.00     0.177 C 
BRANCH  28  33
ATOM     33  O   UNL     1      35.044 172.199 174.706  1.00  0.00    -0.384 OA
ATOM     34  H   UNL     1      35.773 172.625 175.229  1.00  0.00     0.211 HD
ENDBRANCH  28  33
BRANCH  30  35
ATOM     35  O   UNL     1      37.593 171.532 174.410  1.00  0.00    -0.387 OA
ATOM     36  H   UNL     1      37.317 172.251 173.783  1.00  0.00     0.211 HD
ENDBRANCH  30  35
BRANCH  31  37
ATOM     37  C   UNL     1      35.251 168.486 171.241  1.00  0.00     0.191 C 
BRANCH  37  38
ATOM     38  O   UNL     1      35.689 169.518 170.397  1.00  0.00    -0.394 OA
ATOM     39  H   UNL     1      35.494 169.231 169.466  1.00  0.00     0.210 HD
ENDBRANCH  37  38
ENDBRANCH  31  37
BRANCH  32  40
ATOM     40  O   UNL     1      37.987 169.536 172.427  1.00  0.00    -0.387 OA
ATOM     41  H   UNL     1      38.398 170.296 171.937  1.00  0.00     0.211 HD
ENDBRANCH  32  40
ENDBRANCH   1  27
TORSDOF 12
ENDMDL
MODEL 4
REMARK VINA RESULT:    -4.167      2.042      2.999
REMARK INTER + INTRA:          -8.038
REMARK INTER:                  -6.221
REMARK INTRA:                  -1.817
REMARK UNBOUND:                -1.923
REMARK SMILES O=c1c(O[C@H]2O[C@@H](CO)[C@H](O)[C@@H](O)[C@H]2O)c(-c2ccc(O)c(O)c2)oc2cc(O)cc(O)c12
REMARK SMILES IDX 4 1 3 2 16 3 25 4 2 5 26 6 1 7 33 8 27 9 31 10 28 11 30 12
REMARK SMILES IDX 17 13 18 14 19 15 20 16 24 17 22 18 21 19 23 21 32 23 29 25
REMARK SMILES IDX 5 27 14 28 6 29 12 30 7 31 10 32 15 33 13 35 8 37 9 38 11 40
REMARK H PARENT 21 20 23 22 32 24 29 26 15 34 13 36 9 39 11 41
REMARK Flexibility Score: inf
ROOT
ATOM      1  O   UNL     1      29.791 170.633 171.936  1.00  0.00    -0.454 OA
ENDROOT
BRANCH   1   2
ATOM      2  C   UNL     1      31.191 170.703 171.944  1.00  0.00     0.214 A 
ATOM      3  C   UNL     1      31.884 171.892 172.261  1.00  0.00     0.180 A 
ATOM      4  O   UNL     1      33.211 171.879 172.346  1.00  0.00    -0.452 OA
ATOM      5  C   UNL     1      31.929 169.558 171.624  1.00  0.00     0.239 A 
ATOM      6  C   UNL     1      33.947 170.802 172.096  1.00  0.00     0.146 A 
ATOM      7  O   UNL     1      31.317 168.509 171.284  1.00  0.00    -0.285 OA
ATOM      8  C   UNL     1      33.335 169.587 171.705  1.00  0.00     0.111 A 
ATOM      9  C   UNL     1      35.337 170.884 172.212  1.00  0.00     0.094 A 
ATOM     10  C   UNL     1      34.149 168.463 171.426  1.00  0.00     0.134 A 
ATOM     11  C   UNL     1      36.137 169.769 171.939  1.00  0.00     0.123 A 
ATOM     12  C   UNL     1      35.544 168.568 171.546  1.00  0.00     0.093 A 
BRANCH   3  13
ATOM     13  C   UNL     1      31.188 173.179 172.480  1.00  0.00     0.025 A 
ATOM     14  C   UNL     1      31.150 173.739 173.767  1.00  0.00     0.016 A 
ATOM     15  C   UNL     1      30.500 174.956 173.986  1.00  0.00     0.051 A 
ATOM     16  C   UNL     1      29.893 175.637 172.922  1.00  0.00     0.157 A 
ATOM     17  C   UNL     1      30.602 173.877 171.410  1.00  0.00     0.062 A 
ATOM     18  C   UNL     1      29.949 175.095 171.627  1.00  0.00     0.158 A 
BRANCH  16  19
ATOM     19  O   UNL     1      29.240 176.848 173.146  1.00  0.00    -0.504 OA
ATOM     20  H   UNL     1      28.272 176.882 173.442  1.00  0.00     0.293 HD
ENDBRANCH  16  19
BRANCH  18  21
ATOM     21  O   UNL     1      29.364 175.751 170.545  1.00  0.00    -0.504 OA
ATOM     22  H   UNL     1      28.361 175.760 170.399  1.00  0.00     0.293 HD
ENDBRANCH  18  21
ENDBRANCH   3  13
BRANCH  10  23
ATOM     23  O   UNL     1      33.587 167.248 171.035  1.00  0.00    -0.507 OA
ATOM     24  H   UNL     1      33.778 166.387 171.534  1.00  0.00     0.293 HD
ENDBRANCH  10  23
BRANCH  11  25
ATOM     25  O   UNL     1      37.523 169.846 172.052  1.00  0.00    -0.508 OA
ATOM     26  H   UNL     1      38.033 170.675 171.767  1.00  0.00     0.293 HD
ENDBRANCH  11  25
ENDBRANCH   1   2
BRANCH   1  27
ATOM     27  C   UNL     1      28.980 170.776 173.111  1.00  0.00     0.339 C 
ATOM     28  C   UNL     1      28.338 169.435 173.532  1.00  0.00     0.214 C 
ATOM     29  O   UNL     1      27.990 171.771 172.911  1.00  0.00    -0.332 OA
ATOM     30  C   UNL     1      27.004 169.178 172.781  1.00  0.00     0.180 C 
ATOM     31  C   UNL     1      27.121 171.507 171.809  1.00  0.00     0.179 C 
ATOM     32  C   UNL     1      26.921 169.999 171.481  1.00  0.00     0.177 C 
BRANCH  28  33
ATOM     33  O   UNL     1      29.256 168.390 173.331  1.00  0.00    -0.384 OA
ATOM     34  H   UNL     1      28.735 167.546 173.295  1.00  0.00     0.211 HD
ENDBRANCH  28  33
BRANCH  30  35
ATOM     35  O   UNL     1      26.794 167.806 172.541  1.00  0.00    -0.387 OA
ATOM     36  H   UNL     1      27.031 167.313 173.369  1.00  0.00     0.211 HD
ENDBRANCH  30  35
BRANCH  31  37
ATOM     37  C   UNL     1      27.571 172.319 170.581  1.00  0.00     0.191 C 
BRANCH  37  38
ATOM     38  O   UNL     1      27.954 171.467 169.535  1.00  0.00    -0.394 OA
ATOM     39  H   UNL     1      27.266 171.556 168.824  1.00  0.00     0.210 HD
ENDBRANCH  37  38
ENDBRANCH  31  37
BRANCH  32  40
ATOM     40  O   UNL     1      25.664 169.815 170.879  1.00  0.00    -0.387 OA
ATOM     41  H   UNL     1      25.828 169.465 169.965  1.00  0.00     0.211 HD
ENDBRANCH  32  40
ENDBRANCH   1  27
TORSDOF 12
ENDMDL
MODEL 5
REMARK VINA RESULT:    -4.121      2.746      8.991
REMARK INTER + INTRA:          -7.971
REMARK INTER:                  -6.883
REMARK INTRA:                  -1.088
REMARK UNBOUND:                -1.923
REMARK SMILES O=c1c(O[C@H]2O[C@@H](CO)[C@H](O)[C@@H](O)[C@H]2O)c(-c2ccc(O)c(O)c2)oc2cc(O)cc(O)c12
REMARK SMILES IDX 4 1 3 2 16 3 25 4 2 5 26 6 1 7 33 8 27 9 31 10 28 11 30 12
REMARK SMILES IDX 17 13 18 14 19 15 20 16 24 17 22 18 21 19 23 21 32 23 29 25
REMARK SMILES IDX 5 27 14 28 6 29 12 30 7 31 10 32 15 33 13 35 8 37 9 38 11 40
REMARK H PARENT 21 20 23 22 32 24 29 26 15 34 13 36 9 39 11 41
REMARK Flexibility Score: inf
ROOT
ATOM      1  O   UNL     1      33.927 169.327 172.028  1.00  0.00    -0.454 OA
ENDROOT
BRANCH   1   2
ATOM      2  C   UNL     1      32.904 170.286 172.011  1.00  0.00     0.214 A 
ATOM      3  C   UNL     1      31.590 169.979 171.594  1.00  0.00     0.180 A 
ATOM      4  O   UNL     1      30.637 170.901 171.688  1.00  0.00    -0.452 OA
ATOM      5  C   UNL     1      33.194 171.592 172.420  1.00  0.00     0.239 A 
ATOM      6  C   UNL     1      30.859 172.139 172.114  1.00  0.00     0.146 A 
ATOM      7  O   UNL     1      34.378 171.888 172.739  1.00  0.00    -0.285 OA
ATOM      8  C   UNL     1      32.162 172.549 172.487  1.00  0.00     0.111 A 
ATOM      9  C   UNL     1      29.793 173.039 172.180  1.00  0.00     0.094 A 
ATOM     10  C   UNL     1      32.369 173.881 172.918  1.00  0.00     0.134 A 
ATOM     11  C   UNL     1      30.002 174.354 172.609  1.00  0.00     0.123 A 
ATOM     12  C   UNL     1      31.284 174.770 172.974  1.00  0.00     0.093 A 
BRANCH   3  13
ATOM     13  C   UNL     1      31.229 168.664 171.021  1.00  0.00     0.025 A 
ATOM     14  C   UNL     1      30.336 167.827 171.710  1.00  0.00     0.016 A 
ATOM     15  C   UNL     1      29.983 166.585 171.179  1.00  0.00     0.051 A 
ATOM     16  C   UNL     1      30.504 166.167 169.947  1.00  0.00     0.157 A 
ATOM     17  C   UNL     1      31.730 168.254 169.774  1.00  0.00     0.062 A 
ATOM     18  C   UNL     1      31.379 167.009 169.240  1.00  0.00     0.158 A 
BRANCH  16  19
ATOM     19  O   UNL     1      30.154 164.924 169.422  1.00  0.00    -0.504 OA
ATOM     20  H   UNL     1      30.843 164.193 169.284  1.00  0.00     0.293 HD
ENDBRANCH  16  19
BRANCH  18  21
ATOM     21  O   UNL     1      31.909 166.628 168.007  1.00  0.00    -0.504 OA
ATOM     22  H   UNL     1      32.540 167.224 167.486  1.00  0.00     0.293 HD
ENDBRANCH  18  21
ENDBRANCH   3  13
BRANCH  10  23
ATOM     23  O   UNL     1      33.637 174.327 173.291  1.00  0.00    -0.507 OA
ATOM     24  H   UNL     1      34.258 173.756 173.852  1.00  0.00     0.293 HD
ENDBRANCH  10  23
BRANCH  11  25
ATOM     25  O   UNL     1      28.943 175.256 172.675  1.00  0.00    -0.508 OA
ATOM     26  H   UNL     1      28.010 174.960 172.941  1.00  0.00     0.293 HD
ENDBRANCH  11  25
ENDBRANCH   1   2
BRANCH   1  27
ATOM     27  C   UNL     1      34.908 169.226 173.070  1.00  0.00     0.339 C 
ATOM     28  C   UNL     1      36.343 169.406 172.525  1.00  0.00     0.214 C 
ATOM     29  O   UNL     1      34.777 167.993 173.756  1.00  0.00    -0.332 OA
ATOM     30  C   UNL     1      36.928 168.067 172.001  1.00  0.00     0.180 C 
ATOM     31  C   UNL     1      34.913 166.847 172.914  1.00  0.00     0.179 C 
ATOM     32  C   UNL     1      35.815 167.058 171.663  1.00  0.00     0.177 C 
BRANCH  28  33
ATOM     33  O   UNL     1      36.349 170.398 171.530  1.00  0.00    -0.384 OA
ATOM     34  H   UNL     1      36.461 171.272 171.989  1.00  0.00     0.211 HD
ENDBRANCH  28  33
BRANCH  30  35
ATOM     35  O   UNL     1      37.795 168.265 170.908  1.00  0.00    -0.387 OA
ATOM     36  H   UNL     1      38.624 168.690 171.252  1.00  0.00     0.211 HD
ENDBRANCH  30  35
BRANCH  31  37
ATOM     37  C   UNL     1      33.522 166.298 172.548  1.00  0.00     0.191 C 
BRANCH  37  38
ATOM     38  O   UNL     1      33.583 165.539 171.369  1.00  0.00    -0.394 OA
ATOM     39  H   UNL     1      33.781 164.604 171.639  1.00  0.00     0.210 HD
ENDBRANCH  37  38
ENDBRANCH  31  37
BRANCH  32  40
ATOM     40  O   UNL     1      36.383 165.829 171.285  1.00  0.00    -0.387 OA
ATOM     41  H   UNL     1      36.800 165.439 172.097  1.00  0.00     0.211 HD
ENDBRANCH  32  40
ENDBRANCH   1  27
TORSDOF 12
ENDMDL
MODEL 6
REMARK VINA RESULT:    -4.109      1.635      5.061
REMARK INTER + INTRA:          -7.954
REMARK INTER:                  -6.151
REMARK INTRA:                  -1.803
REMARK UNBOUND:                -1.923
REMARK SMILES O=c1c(O[C@H]2O[C@@H](CO)[C@H](O)[C@@H](O)[C@H]2O)c(-c2ccc(O)c(O)c2)oc2cc(O)cc(O)c12
REMARK SMILES IDX 4 1 3 2 16 3 25 4 2 5 26 6 1 7 33 8 27 9 31 10 28 11 30 12
REMARK SMILES IDX 17 13 18 14 19 15 20 16 24 17 22 18 21 19 23 21 32 23 29 25
REMARK SMILES IDX 5 27 14 28 6 29 12 30 7 31 10 32 15 33 13 35 8 37 9 38 11 40
REMARK H PARENT 21 20 23 22 32 24 29 26 15 34 13 36 9 39 11 41
REMARK Flexibility Score: inf
ROOT
ATOM      1  O   UNL     1      31.347 175.962 173.105  1.00  0.00    -0.454 OA
ENDROOT
BRANCH   1   2
ATOM      2  C   UNL     1      31.427 174.591 172.822  1.00  0.00     0.214 A 
ATOM      3  C   UNL     1      30.362 173.882 172.223  1.00  0.00     0.180 A 
ATOM      4  O   UNL     1      30.527 172.605 171.890  1.00  0.00    -0.452 OA
ATOM      5  C   UNL     1      32.600 173.900 173.145  1.00  0.00     0.239 A 
ATOM      6  C   UNL     1      31.640 171.925 172.137  1.00  0.00     0.146 A 
ATOM      7  O   UNL     1      33.532 174.515 173.733  1.00  0.00    -0.285 OA
ATOM      8  C   UNL     1      32.730 172.542 172.796  1.00  0.00     0.111 A 
ATOM      9  C   UNL     1      31.720 170.585 171.749  1.00  0.00     0.094 A 
ATOM     10  C   UNL     1      33.895 171.783 173.062  1.00  0.00     0.134 A 
ATOM     11  C   UNL     1      32.875 169.840 172.011  1.00  0.00     0.123 A 
ATOM     12  C   UNL     1      33.954 170.437 172.666  1.00  0.00     0.093 A 
BRANCH   3  13
ATOM     13  C   UNL     1      29.042 174.500 171.971  1.00  0.00     0.025 A 
ATOM     14  C   UNL     1      28.006 174.330 172.903  1.00  0.00     0.016 A 
ATOM     15  C   UNL     1      26.756 174.912 172.680  1.00  0.00     0.051 A 
ATOM     16  C   UNL     1      26.528 175.683 171.532  1.00  0.00     0.157 A 
ATOM     17  C   UNL     1      28.819 175.295 170.834  1.00  0.00     0.062 A 
ATOM     18  C   UNL     1      27.568 175.877 170.607  1.00  0.00     0.158 A 
BRANCH  16  19
ATOM     19  O   UNL     1      25.278 176.257 171.309  1.00  0.00    -0.504 OA
ATOM     20  H   UNL     1      24.979 176.533 170.381  1.00  0.00     0.293 HD
ENDBRANCH  16  19
BRANCH  18  21
ATOM     21  O   UNL     1      27.377 176.647 169.459  1.00  0.00    -0.504 OA
ATOM     22  H   UNL     1      26.477 176.715 169.001  1.00  0.00     0.293 HD
ENDBRANCH  18  21
ENDBRANCH   3  13
BRANCH  10  23
ATOM     23  O   UNL     1      34.990 172.352 173.711  1.00  0.00    -0.507 OA
ATOM     24  H   UNL     1      35.381 171.946 174.553  1.00  0.00     0.293 HD
ENDBRANCH  10  23
BRANCH  11  25
ATOM     25  O   UNL     1      32.960 168.503 171.627  1.00  0.00    -0.508 OA
ATOM     26  H   UNL     1      32.397 167.787 172.074  1.00  0.00     0.293 HD
ENDBRANCH  11  25
ENDBRANCH   1   2
BRANCH   1  27
ATOM     27  C   UNL     1      31.515 176.990 172.118  1.00  0.00     0.339 C 
ATOM     28  C   UNL     1      32.754 177.868 172.411  1.00  0.00     0.214 C 
ATOM     29  O   UNL     1      30.344 177.783 172.024  1.00  0.00    -0.332 OA
ATOM     30  C   UNL     1      32.418 179.022 173.393  1.00  0.00     0.180 C 
ATOM     31  C   UNL     1      29.971 178.410 173.251  1.00  0.00     0.179 C 
ATOM     32  C   UNL     1      31.154 178.715 174.216  1.00  0.00     0.177 C 
BRANCH  28  33
ATOM     33  O   UNL     1      33.798 177.062 172.897  1.00  0.00    -0.384 OA
ATOM     34  H   UNL     1      33.710 176.175 172.459  1.00  0.00     0.211 HD
ENDBRANCH  28  33
BRANCH  30  35
ATOM     35  O   UNL     1      33.511 179.339 174.223  1.00  0.00    -0.387 OA
ATOM     36  H   UNL     1      34.259 178.732 173.984  1.00  0.00     0.211 HD
ENDBRANCH  30  35
BRANCH  31  37
ATOM     37  C   UNL     1      28.851 177.604 173.933  1.00  0.00     0.191 C 
BRANCH  37  38
ATOM     38  O   UNL     1      29.329 176.971 175.090  1.00  0.00    -0.394 OA
ATOM     39  H   UNL     1      30.190 176.541 174.849  1.00  0.00     0.210 HD
ENDBRANCH  37  38
ENDBRANCH  31  37
BRANCH  32  40
ATOM     40  O   UNL     1      30.827 179.819 175.021  1.00  0.00    -0.387 OA
ATOM     41  H   UNL     1      31.483 179.839 175.767  1.00  0.00     0.211 HD
ENDBRANCH  32  40
ENDBRANCH   1  27
TORSDOF 12
ENDMDL
MODEL 7
REMARK VINA RESULT:    -3.981      6.249      9.204
REMARK INTER + INTRA:          -7.765
REMARK INTER:                  -6.100
REMARK INTRA:                  -1.665
REMARK UNBOUND:                -1.923
REMARK SMILES O=c1c(O[C@H]2O[C@@H](CO)[C@H](O)[C@@H](O)[C@H]2O)c(-c2ccc(O)c(O)c2)oc2cc(O)cc(O)c12
REMARK SMILES IDX 4 1 3 2 16 3 25 4 2 5 26 6 1 7 33 8 27 9 31 10 28 11 30 12
REMARK SMILES IDX 17 13 18 14 19 15 20 16 24 17 22 18 21 19 23 21 32 23 29 25
REMARK SMILES IDX 5 27 14 28 6 29 12 30 7 31 10 32 15 33 13 35 8 37 9 38 11 40
REMARK H PARENT 21 20 23 22 32 24 29 26 15 34 13 36 9 39 11 41
REMARK Flexibility Score: inf
ROOT
ATOM      1  O   UNL     1      28.408 170.147 168.123  1.00  0.00    -0.454 OA
ENDROOT
BRANCH   1   2
ATOM      2  C   UNL     1      28.615 169.599 166.848  1.00  0.00     0.214 A 
ATOM      3  C   UNL     1      29.062 168.272 166.662  1.00  0.00     0.180 A 
ATOM      4  O   UNL     1      29.152 167.774 165.433  1.00  0.00    -0.452 OA
ATOM      5  C   UNL     1      28.375 170.393 165.722  1.00  0.00     0.239 A 
ATOM      6  C   UNL     1      28.887 168.478 164.339  1.00  0.00     0.146 A 
ATOM      7  O   UNL     1      28.031 171.597 165.881  1.00  0.00    -0.285 OA
ATOM      8  C   UNL     1      28.500 169.837 164.434  1.00  0.00     0.111 A 
ATOM      9  C   UNL     1      29.008 167.867 163.089  1.00  0.00     0.094 A 
ATOM     10  C   UNL     1      28.245 170.566 163.248  1.00  0.00     0.134 A 
ATOM     11  C   UNL     1      28.753 168.592 161.919  1.00  0.00     0.123 A 
ATOM     12  C   UNL     1      28.375 169.933 162.001  1.00  0.00     0.093 A 
BRANCH   3  13
ATOM     13  C   UNL     1      29.468 167.408 167.792  1.00  0.00     0.025 A 
ATOM     14  C   UNL     1      28.562 166.471 168.311  1.00  0.00     0.016 A 
ATOM     15  C   UNL     1      28.934 165.645 169.375  1.00  0.00     0.051 A 
ATOM     16  C   UNL     1      30.219 165.735 169.925  1.00  0.00     0.157 A 
ATOM     17  C   UNL     1      30.765 167.478 168.328  1.00  0.00     0.062 A 
ATOM     18  C   UNL     1      31.140 166.655 169.395  1.00  0.00     0.158 A 
BRANCH  16  19
ATOM     19  O   UNL     1      30.585 164.915 170.991  1.00  0.00    -0.504 OA
ATOM     20  H   UNL     1      31.480 164.439 171.011  1.00  0.00     0.293 HD
ENDBRANCH  16  19
BRANCH  18  21
ATOM     21  O   UNL     1      32.431 166.763 169.914  1.00  0.00    -0.504 OA
ATOM     22  H   UNL     1      32.717 166.271 170.751  1.00  0.00     0.293 HD
ENDBRANCH  18  21
ENDBRANCH   3  13
BRANCH  10  23
ATOM     23  O   UNL     1      27.863 171.906 163.297  1.00  0.00    -0.507 OA
ATOM     24  H   UNL     1      26.931 172.185 163.577  1.00  0.00     0.293 HD
ENDBRANCH  10  23
BRANCH  11  25
ATOM     25  O   UNL     1      28.873 167.988 160.670  1.00  0.00    -0.508 OA
ATOM     26  H   UNL     1      28.633 167.013 160.527  1.00  0.00     0.293 HD
ENDBRANCH  11  25
ENDBRANCH   1   2
BRANCH   1  27
ATOM     27  C   UNL     1      27.306 169.795 168.970  1.00  0.00     0.339 C 
ATOM     28  C   UNL     1      26.326 170.977 169.157  1.00  0.00     0.214 C 
ATOM     29  O   UNL     1      27.774 169.323 170.222  1.00  0.00    -0.332 OA
ATOM     30  C   UNL     1      26.772 171.911 170.314  1.00  0.00     0.180 C 
ATOM     31  C   UNL     1      28.586 170.264 170.926  1.00  0.00     0.179 C 
ATOM     32  C   UNL     1      28.272 171.757 170.619  1.00  0.00     0.177 C 
BRANCH  28  33
ATOM     33  O   UNL     1      26.197 171.677 167.946  1.00  0.00    -0.384 OA
ATOM     34  H   UNL     1      26.325 172.640 168.150  1.00  0.00     0.211 HD
ENDBRANCH  28  33
BRANCH  30  35
ATOM     35  O   UNL     1      26.430 173.255 170.063  1.00  0.00    -0.387 OA
ATOM     36  H   UNL     1      25.530 173.416 170.451  1.00  0.00     0.211 HD
ENDBRANCH  30  35
BRANCH  31  37
ATOM     37  C   UNL     1      30.074 169.924 170.727  1.00  0.00     0.191 C 
BRANCH  37  38
ATOM     38  O   UNL     1      30.889 170.872 171.364  1.00  0.00    -0.394 OA
ATOM     39  H   UNL     1      30.283 171.511 171.824  1.00  0.00     0.210 HD
ENDBRANCH  37  38
ENDBRANCH  31  37
BRANCH  32  40
ATOM     40  O   UNL     1      28.617 172.545 171.732  1.00  0.00    -0.387 OA
ATOM     41  H   UNL     1      27.854 172.502 172.365  1.00  0.00     0.211 HD
ENDBRANCH  32  40
ENDBRANCH   1  27
TORSDOF 12
ENDMDL
MODEL 8
REMARK VINA RESULT:    -3.966      2.264      7.383
REMARK INTER + INTRA:          -7.743
REMARK INTER:                  -6.698
REMARK INTRA:                  -1.045
REMARK UNBOUND:                -1.923
REMARK SMILES O=c1c(O[C@H]2O[C@@H](CO)[C@H](O)[C@@H](O)[C@H]2O)c(-c2ccc(O)c(O)c2)oc2cc(O)cc(O)c12
REMARK SMILES IDX 4 1 3 2 16 3 25 4 2 5 26 6 1 7 33 8 27 9 31 10 28 11 30 12
REMARK SMILES IDX 17 13 18 14 19 15 20 16 24 17 22 18 21 19 23 21 32 23 29 25
REMARK SMILES IDX 5 27 14 28 6 29 12 30 7 31 10 32 15 33 13 35 8 37 9 38 11 40
REMARK H PARENT 21 20 23 22 32 24 29 26 15 34 13 36 9 39 11 41
REMARK Flexibility Score: inf
ROOT
ATOM      1  O   UNL     1      31.865 169.344 171.898  1.00  0.00    -0.454 OA
ENDROOT
BRANCH   1   2
ATOM      2  C   UNL     1      31.696 170.734 171.969  1.00  0.00     0.214 A 
ATOM      3  C   UNL     1      32.774 171.613 172.217  1.00  0.00     0.180 A 
ATOM      4  O   UNL     1      32.574 172.927 172.180  1.00  0.00    -0.452 OA
ATOM      5  C   UNL     1      30.416 171.271 171.791  1.00  0.00     0.239 A 
ATOM      6  C   UNL     1      31.385 173.478 171.968  1.00  0.00     0.146 A 
ATOM      7  O   UNL     1      29.440 170.489 171.627  1.00  0.00    -0.285 OA
ATOM      8  C   UNL     1      30.239 172.668 171.778  1.00  0.00     0.111 A 
ATOM      9  C   UNL     1      31.273 174.871 171.945  1.00  0.00     0.094 A 
ATOM     10  C   UNL     1      28.983 173.288 171.575  1.00  0.00     0.134 A 
ATOM     11  C   UNL     1      30.029 175.478 171.741  1.00  0.00     0.123 A 
ATOM     12  C   UNL     1      28.892 174.688 171.559  1.00  0.00     0.093 A 
BRANCH   3  13
ATOM     13  C   UNL     1      34.131 171.127 172.548  1.00  0.00     0.025 A 
ATOM     14  C   UNL     1      34.736 171.523 173.751  1.00  0.00     0.016 A 
ATOM     15  C   UNL     1      36.015 171.068 174.079  1.00  0.00     0.051 A 
ATOM     16  C   UNL     1      36.700 170.200 173.218  1.00  0.00     0.157 A 
ATOM     17  C   UNL     1      34.809 170.236 171.699  1.00  0.00     0.062 A 
ATOM     18  C   UNL     1      36.091 169.779 172.024  1.00  0.00     0.158 A 
BRANCH  16  19
ATOM     19  O   UNL     1      37.980 169.752 173.545  1.00  0.00    -0.504 OA
ATOM     20  H   UNL     1      38.186 169.354 174.454  1.00  0.00     0.293 HD
ENDBRANCH  16  19
BRANCH  18  21
ATOM     21  O   UNL     1      36.741 168.909 171.149  1.00  0.00    -0.504 OA
ATOM     22  H   UNL     1      37.209 169.236 170.313  1.00  0.00     0.293 HD
ENDBRANCH  18  21
ENDBRANCH   3  13
BRANCH  10  23
ATOM     23  O   UNL     1      27.829 172.526 171.388  1.00  0.00    -0.507 OA
ATOM     24  H   UNL     1      27.387 172.030 172.152  1.00  0.00     0.293 HD
ENDBRANCH  10  23
BRANCH  11  25
ATOM     25  O   UNL     1      29.912 176.866 171.719  1.00  0.00    -0.508 OA
ATOM     26  H   UNL     1      29.252 177.332 171.106  1.00  0.00     0.293 HD
ENDBRANCH  11  25
ENDBRANCH   1   2
BRANCH   1  27
ATOM     27  C   UNL     1      31.074 168.407 172.642  1.00  0.00     0.339 C 
ATOM     28  C   UNL     1      31.919 167.646 173.689  1.00  0.00     0.214 C 
ATOM     29  O   UNL     1      30.422 167.504 171.765  1.00  0.00    -0.332 OA
ATOM     30  C   UNL     1      32.610 166.401 173.070  1.00  0.00     0.180 C 
ATOM     31  C   UNL     1      31.314 166.762 170.933  1.00  0.00     0.179 C 
ATOM     32  C   UNL     1      32.726 166.520 171.540  1.00  0.00     0.177 C 
BRANCH  28  33
ATOM     33  O   UNL     1      32.853 168.523 174.266  1.00  0.00    -0.384 OA
ATOM     34  H   UNL     1      33.651 167.983 174.508  1.00  0.00     0.211 HD
ENDBRANCH  28  33
BRANCH  30  35
ATOM     35  O   UNL     1      33.861 166.146 173.665  1.00  0.00    -0.387 OA
ATOM     36  H   UNL     1      34.548 166.171 172.949  1.00  0.00     0.211 HD
ENDBRANCH  30  35
BRANCH  31  37
ATOM     37  C   UNL     1      31.379 167.400 169.533  1.00  0.00     0.191 C 
BRANCH  37  38
ATOM     38  O   UNL     1      32.672 167.869 169.261  1.00  0.00    -0.394 OA
ATOM     39  H   UNL     1      32.873 168.569 169.937  1.00  0.00     0.210 HD
ENDBRANCH  37  38
ENDBRANCH  31  37
BRANCH  32  40
ATOM     40  O   UNL     1      33.267 165.336 171.008  1.00  0.00    -0.387 OA
ATOM     41  H   UNL     1      33.801 164.911 171.729  1.00  0.00     0.211 HD
ENDBRANCH  32  40
ENDBRANCH   1  27
TORSDOF 12
ENDMDL
MODEL 9
REMARK VINA RESULT:    -3.912      5.079      8.506
REMARK INTER + INTRA:          -7.663
REMARK INTER:                  -5.737
REMARK INTRA:                  -1.926
REMARK UNBOUND:                -1.923
REMARK SMILES O=c1c(O[C@H]2O[C@@H](CO)[C@H](O)[C@@H](O)[C@H]2O)c(-c2ccc(O)c(O)c2)oc2cc(O)cc(O)c12
REMARK SMILES IDX 4 1 3 2 16 3 25 4 2 5 26 6 1 7 33 8 27 9 31 10 28 11 30 12
REMARK SMILES IDX 17 13 18 14 19 15 20 16 24 17 22 18 21 19 23 21 32 23 29 25
REMARK SMILES IDX 5 27 14 28 6 29 12 30 7 31 10 32 15 33 13 35 8 37 9 38 11 40
REMARK H PARENT 21 20 23 22 32 24 29 26 15 34 13 36 9 39 11 41
REMARK Flexibility Score: inf
ROOT
ATOM      1  O   UNL     1      29.563 168.206 169.400  1.00  0.00    -0.454 OA
ENDROOT
BRANCH   1   2
ATOM      2  C   UNL     1      29.025 168.973 168.355  1.00  0.00     0.214 A 
ATOM      3  C   UNL     1      28.252 170.131 168.592  1.00  0.00     0.180 A 
ATOM      4  O   UNL     1      27.846 170.873 167.566  1.00  0.00    -0.452 OA
ATOM      5  C   UNL     1      29.259 168.577 167.034  1.00  0.00     0.239 A 
ATOM      6  C   UNL     1      28.087 170.559 166.299  1.00  0.00     0.146 A 
ATOM      7  O   UNL     1      29.900 167.512 166.817  1.00  0.00    -0.285 OA
ATOM      8  C   UNL     1      28.796 169.378 165.972  1.00  0.00     0.111 A 
ATOM      9  C   UNL     1      27.621 171.402 165.287  1.00  0.00     0.094 A 
ATOM     10  C   UNL     1      29.018 169.062 164.610  1.00  0.00     0.134 A 
ATOM     11  C   UNL     1      27.846 171.086 163.943  1.00  0.00     0.123 A 
ATOM     12  C   UNL     1      28.539 169.921 163.609  1.00  0.00     0.093 A 
BRANCH   3  13
ATOM     13  C   UNL     1      27.843 170.545 169.952  1.00  0.00     0.025 A 
ATOM     14  C   UNL     1      28.607 171.494 170.649  1.00  0.00     0.016 A 
ATOM     15  C   UNL     1      28.230 171.898 171.931  1.00  0.00     0.051 A 
ATOM     16  C   UNL     1      27.078 171.370 172.530  1.00  0.00     0.157 A 
ATOM     17  C   UNL     1      26.674 170.037 170.544  1.00  0.00     0.062 A 
ATOM     18  C   UNL     1      26.295 170.438 171.830  1.00  0.00     0.158 A 
BRANCH  16  19
ATOM     19  O   UNL     1      26.708 171.770 173.813  1.00  0.00    -0.504 OA
ATOM     20  H   UNL     1      26.035 171.245 174.359  1.00  0.00     0.293 HD
ENDBRANCH  16  19
BRANCH  18  21
ATOM     21  O   UNL     1      25.138 169.900 172.393  1.00  0.00    -0.504 OA
ATOM     22  H   UNL     1      24.548 169.247 171.891  1.00  0.00     0.293 HD
ENDBRANCH  18  21
ENDBRANCH   3  13
BRANCH  10  23
ATOM     23  O   UNL     1      29.710 167.907 164.245  1.00  0.00    -0.507 OA
ATOM     24  H   UNL     1      30.202 167.837 163.362  1.00  0.00     0.293 HD
ENDBRANCH  10  23
BRANCH  11  25
ATOM     25  O   UNL     1      27.382 171.923 162.930  1.00  0.00    -0.508 OA
ATOM     26  H   UNL     1      26.557 172.499 163.055  1.00  0.00     0.293 HD
ENDBRANCH  11  25
ENDBRANCH   1   2
BRANCH   1  27
ATOM     27  C   UNL     1      30.682 168.620 170.196  1.00  0.00     0.339 C 
ATOM     28  C   UNL     1      31.916 167.719 169.961  1.00  0.00     0.214 C 
ATOM     29  O   UNL     1      30.329 168.648 171.569  1.00  0.00    -0.332 OA
ATOM     30  C   UNL     1      31.883 166.457 170.865  1.00  0.00     0.180 C 
ATOM     31  C   UNL     1      29.872 167.393 172.073  1.00  0.00     0.179 C 
ATOM     32  C   UNL     1      30.456 166.145 171.349  1.00  0.00     0.177 C 
BRANCH  28  33
ATOM     33  O   UNL     1      31.999 167.379 168.600  1.00  0.00    -0.384 OA
ATOM     34  H   UNL     1      31.797 166.410 168.528  1.00  0.00     0.211 HD
ENDBRANCH  28  33
BRANCH  30  35
ATOM     35  O   UNL     1      32.469 165.343 170.232  1.00  0.00    -0.387 OA
ATOM     36  H   UNL     1      31.972 164.534 170.521  1.00  0.00     0.211 HD
ENDBRANCH  30  35
BRANCH  31  37
ATOM     37  C   UNL     1      28.334 167.377 172.122  1.00  0.00     0.191 C 
BRANCH  37  38
ATOM     38  O   UNL     1      27.816 166.485 171.170  1.00  0.00    -0.394 OA
ATOM     39  H   UNL     1      28.534 166.329 170.502  1.00  0.00     0.210 HD
ENDBRANCH  37  38
ENDBRANCH  31  37
BRANCH  32  40
ATOM     40  O   UNL     1      30.479 165.057 172.239  1.00  0.00    -0.387 OA
ATOM     41  H   UNL     1      30.719 164.253 171.708  1.00  0.00     0.211 HD
ENDBRANCH  32  40
ENDBRANCH   1  27
TORSDOF 12
ENDMDL
