MODEL 1
REMARK VINA RESULT:    -4.817      0.000      0.000
REMARK INTER + INTRA:         -10.050
REMARK INTER:                  -8.759
REMARK INTRA:                  -1.291
REMARK UNBOUND:                -1.291
REMARK SMILES CCCCCCCCCCCCCCCC(=O)[O-]
REMARK SMILES IDX 9 1 10 2 11 3 12 4 13 5 14 6 15 7 16 8 17 9 18 10 8 11 7 12
REMARK SMILES IDX 6 13 5 14 4 15 3 16 2 17 1 18
REMARK H PARENT
REMARK Flexibility Score: inf
ROOT
ATOM      1  C   UNL     1     -11.113  -1.118 -22.625  1.00  0.00     0.000 C 
ENDROOT
BRANCH   1   2
ATOM      2  C   UNL     1     -12.334  -2.048 -22.520  1.00  0.00     0.000 C 
BRANCH   2   3
ATOM      3  C   UNL     1     -12.968  -2.346 -23.891  1.00  0.00     0.000 C 
BRANCH   3   4
ATOM      4  C   UNL     1     -11.994  -3.050 -24.850  1.00  0.00     0.000 C 
BRANCH   4   5
ATOM      5  C   UNL     1     -12.439  -2.957 -26.320  1.00  0.00     0.000 C 
BRANCH   5   6
ATOM      6  C   UNL     1     -12.012  -1.637 -26.983  1.00  0.00     0.006 C 
BRANCH   6   7
ATOM      7  C   UNL     1     -10.629  -1.165 -26.519  1.00  0.00     0.053 C 
BRANCH   7   8
ATOM      8  C   UNL     1     -10.700   0.240 -26.009  1.00  0.00     0.041 C 
ATOM      9  O   UNL     1     -11.816   0.784 -25.804  1.00  0.00    -0.550 OA
ATOM     10  O   UNL     1      -9.533   0.966 -25.809  1.00  0.00    -0.550 OA
ENDBRANCH   7   8
ENDBRANCH   6   7
ENDBRANCH   5   6
ENDBRANCH   4   5
ENDBRANCH   3   4
ENDBRANCH   2   3
ENDBRANCH   1   2
BRANCH   1  11
ATOM     11  C   UNL     1     -10.612  -0.644 -21.250  1.00  0.00     0.000 C 
BRANCH  11  12
ATOM     12  C   UNL     1     -11.712  -0.685 -20.177  1.00  0.00    -0.000 C 
BRANCH  12  13
ATOM     13  C   UNL     1     -11.896   0.667 -19.464  1.00  0.00    -0.000 C 
BRANCH  13  14
ATOM     14  C   UNL     1     -10.669   1.064 -18.629  1.00  0.00    -0.000 C 
BRANCH  14  15
ATOM     15  C   UNL     1     -10.588   0.299 -17.296  1.00  0.00    -0.000 C 
BRANCH  15  16
ATOM     16  C   UNL     1      -9.134  -0.043 -16.909  1.00  0.00    -0.000 C 
BRANCH  16  17
ATOM     17  C   UNL     1      -8.092   0.456 -17.924  1.00  0.00    -0.003 C 
ATOM     18  C   UNL     1      -7.221  -0.664 -18.487  1.00  0.00     0.004 C 
ENDBRANCH  16  17
ENDBRANCH  15  16
ENDBRANCH  14  15
ENDBRANCH  13  14
ENDBRANCH  12  13
ENDBRANCH  11  12
ENDBRANCH   1  11
TORSDOF 14
ENDMDL
MODEL 2
REMARK VINA RESULT:    -4.697     13.205     14.871
REMARK INTER + INTRA:          -9.832
REMARK INTER:                  -9.061
REMARK INTRA:                  -0.771
REMARK UNBOUND:                -1.291
REMARK SMILES CCCCCCCCCCCCCCCC(=O)[O-]
REMARK SMILES IDX 9 1 10 2 11 3 12 4 13 5 14 6 15 7 16 8 17 9 18 10 8 11 7 12
REMARK SMILES IDX 6 13 5 14 4 15 3 16 2 17 1 18
REMARK H PARENT
REMARK Flexibility Score: inf
ROOT
ATOM      1  C   UNL     1      -9.374   8.115 -11.034  1.00  0.00     0.000 C 
ENDROOT
BRANCH   1   2
ATOM      2  C   UNL     1     -10.435   7.026 -10.802  1.00  0.00     0.000 C 
BRANCH   2   3
ATOM      3  C   UNL     1     -11.428   6.912 -11.972  1.00  0.00     0.000 C 
BRANCH   3   4
ATOM      4  C   UNL     1     -12.572   5.928 -11.679  1.00  0.00     0.000 C 
BRANCH   4   5
ATOM      5  C   UNL     1     -12.841   5.763 -10.173  1.00  0.00     0.000 C 
BRANCH   5   6
ATOM      6  C   UNL     1     -12.911   4.288  -9.745  1.00  0.00     0.006 C 
BRANCH   6   7
ATOM      7  C   UNL     1     -11.772   3.896  -8.795  1.00  0.00     0.053 C 
BRANCH   7   8
ATOM      8  C   UNL     1     -10.901   2.855  -9.425  1.00  0.00     0.041 C 
ATOM      9  O   UNL     1     -10.477   1.886  -8.742  1.00  0.00    -0.550 OA
ATOM     10  O   UNL     1     -10.517   2.981 -10.753  1.00  0.00    -0.550 OA
ENDBRANCH   7   8
ENDBRANCH   6   7
ENDBRANCH   5   6
ENDBRANCH   4   5
ENDBRANCH   3   4
ENDBRANCH   2   3
ENDBRANCH   1   2
BRANCH   1  11
ATOM     11  C   UNL     1      -8.492   8.354  -9.796  1.00  0.00     0.000 C 
BRANCH  11  12
ATOM     12  C   UNL     1      -7.019   8.600 -10.161  1.00  0.00    -0.000 C 
BRANCH  12  13
ATOM     13  C   UNL     1      -6.397   7.426 -10.940  1.00  0.00    -0.000 C 
BRANCH  13  14
ATOM     14  C   UNL     1      -4.861   7.438 -10.893  1.00  0.00    -0.000 C 
BRANCH  14  15
ATOM     15  C   UNL     1      -4.231   7.818 -12.245  1.00  0.00    -0.000 C 
BRANCH  15  16
ATOM     16  C   UNL     1      -2.717   7.524 -12.285  1.00  0.00    -0.000 C 
BRANCH  16  17
ATOM     17  C   UNL     1      -1.860   8.752 -12.637  1.00  0.00    -0.003 C 
ATOM     18  C   UNL     1      -2.197   9.346 -14.003  1.00  0.00     0.004 C 
ENDBRANCH  16  17
ENDBRANCH  15  16
ENDBRANCH  14  15
ENDBRANCH  13  14
ENDBRANCH  12  13
ENDBRANCH  11  12
ENDBRANCH   1  11
TORSDOF 14
ENDMDL
MODEL 3
REMARK VINA RESULT:    -4.641     12.057     14.043
REMARK INTER + INTRA:          -9.729
REMARK INTER:                  -7.233
REMARK INTRA:                  -2.497
REMARK UNBOUND:                -1.291
REMARK SMILES CCCCCCCCCCCCCCCC(=O)[O-]
REMARK SMILES IDX 9 1 10 2 11 3 12 4 13 5 14 6 15 7 16 8 17 9 18 10 8 11 7 12
REMARK SMILES IDX 6 13 5 14 4 15 3 16 2 17 1 18
REMARK H PARENT
REMARK Flexibility Score: inf
ROOT
ATOM      1  C   UNL     1     -10.829   5.737 -13.516  1.00  0.00     0.000 C 
ENDROOT
BRANCH   1   2
ATOM      2  C   UNL     1     -12.097   5.336 -12.744  1.00  0.00     0.000 C 
BRANCH   2   3
ATOM      3  C   UNL     1     -12.536   6.409 -11.731  1.00  0.00     0.000 C 
BRANCH   3   4
ATOM      4  C   UNL     1     -12.907   5.812 -10.364  1.00  0.00     0.000 C 
BRANCH   4   5
ATOM      5  C   UNL     1     -12.872   4.274 -10.360  1.00  0.00     0.000 C 
BRANCH   5   6
ATOM      6  C   UNL     1     -12.489   3.697  -8.987  1.00  0.00     0.006 C 
BRANCH   6   7
ATOM      7  C   UNL     1     -13.051   2.288  -8.761  1.00  0.00     0.053 C 
BRANCH   7   8
ATOM      8  C   UNL     1     -11.973   1.364  -8.291  1.00  0.00     0.041 C 
ATOM      9  O   UNL     1     -12.226   0.149  -8.082  1.00  0.00    -0.550 OA
ATOM     10  O   UNL     1     -10.699   1.856  -8.035  1.00  0.00    -0.550 OA
ENDBRANCH   7   8
ENDBRANCH   6   7
ENDBRANCH   5   6
ENDBRANCH   4   5
ENDBRANCH   3   4
ENDBRANCH   2   3
ENDBRANCH   1   2
BRANCH   1  11
ATOM     11  C   UNL     1      -9.596   4.922 -13.090  1.00  0.00     0.000 C 
BRANCH  11  12
ATOM     12  C   UNL     1      -9.973   3.583 -12.434  1.00  0.00    -0.000 C 
BRANCH  12  13
ATOM     13  C   UNL     1      -9.345   3.407 -11.040  1.00  0.00    -0.000 C 
BRANCH  13  14
ATOM     14  C   UNL     1      -8.590   4.662 -10.572  1.00  0.00    -0.000 C 
BRANCH  14  15
ATOM     15  C   UNL     1      -9.179   5.259  -9.282  1.00  0.00    -0.000 C 
BRANCH  15  16
ATOM     16  C   UNL     1      -8.946   6.782  -9.187  1.00  0.00    -0.000 C 
BRANCH  16  17
ATOM     17  C   UNL     1      -9.475   7.563 -10.401  1.00  0.00    -0.003 C 
ATOM     18  C   UNL     1      -8.940   8.992 -10.473  1.00  0.00     0.004 C 
ENDBRANCH  16  17
ENDBRANCH  15  16
ENDBRANCH  14  15
ENDBRANCH  13  14
ENDBRANCH  12  13
ENDBRANCH  11  12
ENDBRANCH   1  11
TORSDOF 14
ENDMDL
MODEL 4
REMARK VINA RESULT:    -4.640      1.274      2.370
REMARK INTER + INTRA:          -9.728
REMARK INTER:                  -8.328
REMARK INTRA:                  -1.400
REMARK UNBOUND:                -1.291
REMARK SMILES CCCCCCCCCCCCCCCC(=O)[O-]
REMARK SMILES IDX 9 1 10 2 11 3 12 4 13 5 14 6 15 7 16 8 17 9 18 10 8 11 7 12
REMARK SMILES IDX 6 13 5 14 4 15 3 16 2 17 1 18
REMARK H PARENT
REMARK Flexibility Score: inf
ROOT
ATOM      1  C   UNL     1     -13.124  -2.271 -23.522  1.00  0.00     0.000 C 
ENDROOT
BRANCH   1   2
ATOM      2  C   UNL     1     -12.033  -2.963 -24.356  1.00  0.00     0.000 C 
BRANCH   2   3
ATOM      3  C   UNL     1     -12.507  -3.308 -25.779  1.00  0.00     0.000 C 
BRANCH   3   4
ATOM      4  C   UNL     1     -12.200  -2.191 -26.789  1.00  0.00     0.000 C 
BRANCH   4   5
ATOM      5  C   UNL     1     -11.215  -1.146 -26.237  1.00  0.00     0.000 C 
BRANCH   5   6
ATOM      6  C   UNL     1     -11.820   0.267 -26.192  1.00  0.00     0.006 C 
BRANCH   6   7
ATOM      7  C   UNL     1     -11.077   1.195 -25.222  1.00  0.00     0.053 C 
BRANCH   7   8
ATOM      8  C   UNL     1      -9.601   1.113 -25.449  1.00  0.00     0.041 C 
ATOM      9  O   UNL     1      -8.846   0.661 -24.549  1.00  0.00    -0.550 OA
ATOM     10  O   UNL     1      -9.052   1.584 -26.635  1.00  0.00    -0.550 OA
ENDBRANCH   7   8
ENDBRANCH   6   7
ENDBRANCH   5   6
ENDBRANCH   4   5
ENDBRANCH   3   4
ENDBRANCH   2   3
ENDBRANCH   1   2
BRANCH   1  11
ATOM     11  C   UNL     1     -12.577  -1.101 -22.686  1.00  0.00     0.000 C 
BRANCH  11  12
ATOM     12  C   UNL     1     -11.058  -1.193 -22.470  1.00  0.00    -0.000 C 
BRANCH  12  13
ATOM     13  C   UNL     1     -10.620  -0.653 -21.096  1.00  0.00    -0.000 C 
BRANCH  13  14
ATOM     14  C   UNL     1     -11.811  -0.389 -20.161  1.00  0.00    -0.000 C 
BRANCH  14  15
ATOM     15  C   UNL     1     -11.505   0.686 -19.103  1.00  0.00    -0.000 C 
BRANCH  15  16
ATOM     16  C   UNL     1     -11.217   0.071 -17.717  1.00  0.00    -0.000 C 
BRANCH  16  17
ATOM     17  C   UNL     1      -9.771   0.282 -17.238  1.00  0.00    -0.003 C 
ATOM     18  C   UNL     1      -9.639   0.280 -15.716  1.00  0.00     0.004 C 
ENDBRANCH  16  17
ENDBRANCH  15  16
ENDBRANCH  14  15
ENDBRANCH  13  14
ENDBRANCH  12  13
ENDBRANCH  11  12
ENDBRANCH   1  11
TORSDOF 14
ENDMDL
MODEL 5
REMARK VINA RESULT:    -4.624      3.631      7.817
REMARK INTER + INTRA:          -9.700
REMARK INTER:                  -8.288
REMARK INTRA:                  -1.412
REMARK UNBOUND:                -1.291
REMARK SMILES CCCCCCCCCCCCCCCC(=O)[O-]
REMARK SMILES IDX 9 1 10 2 11 3 12 4 13 5 14 6 15 7 16 8 17 9 18 10 8 11 7 12
REMARK SMILES IDX 6 13 5 14 4 15 3 16 2 17 1 18
REMARK H PARENT
REMARK Flexibility Score: inf
ROOT
ATOM      1  C   UNL     1     -12.675  -1.153 -22.061  1.00  0.00     0.000 C 
ENDROOT
BRANCH   1   2
ATOM      2  C   UNL     1     -11.870  -1.091 -20.752  1.00  0.00     0.000 C 
BRANCH   2   3
ATOM      3  C   UNL     1     -10.493  -0.428 -20.938  1.00  0.00     0.000 C 
BRANCH   3   4
ATOM      4  C   UNL     1     -10.164   0.570 -19.816  1.00  0.00     0.000 C 
BRANCH   4   5
ATOM      5  C   UNL     1     -11.286   0.675 -18.767  1.00  0.00     0.000 C 
BRANCH   5   6
ATOM      6  C   UNL     1     -10.873   0.098 -17.404  1.00  0.00     0.006 C 
BRANCH   6   7
ATOM      7  C   UNL     1      -9.358   0.155 -17.174  1.00  0.00     0.053 C 
BRANCH   7   8
ATOM      8  C   UNL     1      -9.049   0.882 -15.903  1.00  0.00     0.041 C 
ATOM      9  O   UNL     1      -9.712   0.643 -14.859  1.00  0.00    -0.550 OA
ATOM     10  O   UNL     1      -8.063   1.860 -15.884  1.00  0.00    -0.550 OA
ENDBRANCH   7   8
ENDBRANCH   6   7
ENDBRANCH   5   6
ENDBRANCH   4   5
ENDBRANCH   3   4
ENDBRANCH   2   3
ENDBRANCH   1   2
BRANCH   1  11
ATOM     11  C   UNL     1     -12.219  -2.298 -22.982  1.00  0.00     0.000 C 
BRANCH  11  12
ATOM     12  C   UNL     1     -13.032  -2.365 -24.284  1.00  0.00    -0.000 C 
BRANCH  12  13
ATOM     13  C   UNL     1     -12.418  -3.326 -25.318  1.00  0.00    -0.000 C 
BRANCH  13  14
ATOM     14  C   UNL     1     -12.323  -2.700 -26.719  1.00  0.00    -0.000 C 
BRANCH  14  15
ATOM     15  C   UNL     1     -11.936  -1.211 -26.676  1.00  0.00    -0.000 C 
BRANCH  15  16
ATOM     16  C   UNL     1     -10.423  -1.009 -26.453  1.00  0.00    -0.000 C 
BRANCH  16  17
ATOM     17  C   UNL     1     -10.090  -0.155 -25.218  1.00  0.00    -0.003 C 
ATOM     18  C   UNL     1      -9.036  -0.792 -24.315  1.00  0.00     0.004 C 
ENDBRANCH  16  17
ENDBRANCH  15  16
ENDBRANCH  14  15
ENDBRANCH  13  14
ENDBRANCH  12  13
ENDBRANCH  11  12
ENDBRANCH   1  11
TORSDOF 14
ENDMDL
MODEL 6
REMARK VINA RESULT:    -4.624     14.960     18.256
REMARK INTER + INTRA:          -9.699
REMARK INTER:                  -7.789
REMARK INTRA:                  -1.910
REMARK UNBOUND:                -1.291
REMARK SMILES CCCCCCCCCCCCCCCC(=O)[O-]
REMARK SMILES IDX 9 1 10 2 11 3 12 4 13 5 14 6 15 7 16 8 17 9 18 10 8 11 7 12
REMARK SMILES IDX 6 13 5 14 4 15 3 16 2 17 1 18
REMARK H PARENT
REMARK Flexibility Score: inf
ROOT
ATOM      1  C   UNL     1       6.082   6.431 -23.439  1.00  0.00     0.000 C 
ENDROOT
BRANCH   1   2
ATOM      2  C   UNL     1       7.046   5.375 -22.873  1.00  0.00     0.000 C 
BRANCH   2   3
ATOM      3  C   UNL     1       6.771   5.058 -21.392  1.00  0.00     0.000 C 
BRANCH   3   4
ATOM      4  C   UNL     1       5.689   5.967 -20.787  1.00  0.00     0.000 C 
BRANCH   4   5
ATOM      5  C   UNL     1       5.166   5.448 -19.435  1.00  0.00     0.000 C 
BRANCH   5   6
ATOM      6  C   UNL     1       3.632   5.470 -19.349  1.00  0.00     0.006 C 
BRANCH   6   7
ATOM      7  C   UNL     1       2.972   5.828 -20.687  1.00  0.00     0.053 C 
BRANCH   7   8
ATOM      8  C   UNL     1       2.320   4.622 -21.287  1.00  0.00     0.041 C 
ATOM      9  O   UNL     1       3.018   3.638 -21.649  1.00  0.00    -0.550 OA
ATOM     10  O   UNL     1       0.946   4.604 -21.493  1.00  0.00    -0.550 OA
ENDBRANCH   7   8
ENDBRANCH   6   7
ENDBRANCH   5   6
ENDBRANCH   4   5
ENDBRANCH   3   4
ENDBRANCH   2   3
ENDBRANCH   1   2
BRANCH   1  11
ATOM     11  C   UNL     1       6.813   7.548 -24.204  1.00  0.00     0.000 C 
BRANCH  11  12
ATOM     12  C   UNL     1       6.015   8.050 -25.418  1.00  0.00    -0.000 C 
BRANCH  12  13
ATOM     13  C   UNL     1       6.586   7.544 -26.755  1.00  0.00    -0.000 C 
BRANCH  13  14
ATOM     14  C   UNL     1       5.682   6.495 -27.421  1.00  0.00    -0.000 C 
BRANCH  14  15
ATOM     15  C   UNL     1       5.908   5.079 -26.862  1.00  0.00    -0.000 C 
BRANCH  15  16
ATOM     16  C   UNL     1       4.610   4.461 -26.301  1.00  0.00    -0.000 C 
BRANCH  16  17
ATOM     17  C   UNL     1       3.422   5.438 -26.277  1.00  0.00    -0.003 C 
ATOM     18  C   UNL     1       2.825   5.619 -24.883  1.00  0.00     0.004 C 
ENDBRANCH  16  17
ENDBRANCH  15  16
ENDBRANCH  14  15
ENDBRANCH  13  14
ENDBRANCH  12  13
ENDBRANCH  11  12
ENDBRANCH   1  11
TORSDOF 14
ENDMDL
MODEL 7
REMARK VINA RESULT:    -4.610     11.160     13.973
REMARK INTER + INTRA:          -9.674
REMARK INTER:                  -8.498
REMARK INTRA:                  -1.177
REMARK UNBOUND:                -1.291
REMARK SMILES CCCCCCCCCCCCCCCC(=O)[O-]
REMARK SMILES IDX 9 1 10 2 11 3 12 4 13 5 14 6 15 7 16 8 17 9 18 10 8 11 7 12
REMARK SMILES IDX 6 13 5 14 4 15 3 16 2 17 1 18
REMARK H PARENT
REMARK Flexibility Score: inf
ROOT
ATOM      1  C   UNL     1     -10.692   6.747 -10.727  1.00  0.00     0.000 C 
ENDROOT
BRANCH   1   2
ATOM      2  C   UNL     1     -12.134   6.792 -11.260  1.00  0.00     0.000 C 
BRANCH   2   3
ATOM      3  C   UNL     1     -13.102   5.940 -10.419  1.00  0.00     0.000 C 
BRANCH   3   4
ATOM      4  C   UNL     1     -12.371   4.900  -9.555  1.00  0.00     0.000 C 
BRANCH   4   5
ATOM      5  C   UNL     1     -13.057   3.522  -9.579  1.00  0.00     0.000 C 
BRANCH   5   6
ATOM      6  C   UNL     1     -12.203   2.452 -10.277  1.00  0.00     0.006 C 
BRANCH   6   7
ATOM      7  C   UNL     1     -12.177   2.621 -11.802  1.00  0.00     0.053 C 
BRANCH   7   8
ATOM      8  C   UNL     1     -10.769   2.763 -12.287  1.00  0.00     0.041 C 
ATOM      9  O   UNL     1      -9.958   3.504 -11.672  1.00  0.00    -0.550 OA
ATOM     10  O   UNL     1     -10.366   2.117 -13.449  1.00  0.00    -0.550 OA
ENDBRANCH   7   8
ENDBRANCH   6   7
ENDBRANCH   5   6
ENDBRANCH   4   5
ENDBRANCH   3   4
ENDBRANCH   2   3
ENDBRANCH   1   2
BRANCH   1  11
ATOM     11  C   UNL     1      -9.794   7.822 -11.361  1.00  0.00     0.000 C 
BRANCH  11  12
ATOM     12  C   UNL     1      -9.059   8.670 -10.311  1.00  0.00    -0.000 C 
BRANCH  12  13
ATOM     13  C   UNL     1      -8.577   7.837  -9.108  1.00  0.00    -0.000 C 
BRANCH  13  14
ATOM     14  C   UNL     1      -7.045   7.813  -8.986  1.00  0.00    -0.000 C 
BRANCH  14  15
ATOM     15  C   UNL     1      -6.344   8.415 -10.217  1.00  0.00    -0.000 C 
BRANCH  15  16
ATOM     16  C   UNL     1      -5.750   7.327 -11.136  1.00  0.00    -0.000 C 
BRANCH  16  17
ATOM     17  C   UNL     1      -4.532   7.804 -11.947  1.00  0.00    -0.003 C 
ATOM     18  C   UNL     1      -3.213   7.220 -11.445  1.00  0.00     0.004 C 
ENDBRANCH  16  17
ENDBRANCH  15  16
ENDBRANCH  14  15
ENDBRANCH  13  14
ENDBRANCH  12  13
ENDBRANCH  11  12
ENDBRANCH   1  11
TORSDOF 14
ENDMDL
MODEL 8
REMARK VINA RESULT:    -4.574     11.169     14.007
REMARK INTER + INTRA:          -9.609
REMARK INTER:                  -7.375
REMARK INTRA:                  -2.234
REMARK UNBOUND:                -1.291
REMARK SMILES CCCCCCCCCCCCCCCC(=O)[O-]
REMARK SMILES IDX 9 1 10 2 11 3 12 4 13 5 14 6 15 7 16 8 17 9 18 10 8 11 7 12
REMARK SMILES IDX 6 13 5 14 4 15 3 16 2 17 1 18
REMARK H PARENT
REMARK Flexibility Score: inf
ROOT
ATOM      1  C   UNL     1      -8.861   2.068  -9.478  1.00  0.00     0.000 C 
ENDROOT
BRANCH   1   2
ATOM      2  C   UNL     1      -9.122   3.548  -9.803  1.00  0.00     0.000 C 
BRANCH   2   3
ATOM      3  C   UNL     1      -9.527   4.363  -8.562  1.00  0.00     0.000 C 
BRANCH   3   4
ATOM      4  C   UNL     1      -8.936   5.782  -8.570  1.00  0.00     0.000 C 
BRANCH   4   5
ATOM      5  C   UNL     1      -8.749   6.339  -9.993  1.00  0.00     0.000 C 
BRANCH   5   6
ATOM      6  C   UNL     1      -9.718   7.490 -10.306  1.00  0.00     0.006 C 
BRANCH   6   7
ATOM      7  C   UNL     1     -10.960   7.023 -11.076  1.00  0.00     0.053 C 
BRANCH   7   8
ATOM      8  C   UNL     1     -10.714   7.085 -12.550  1.00  0.00     0.041 C 
ATOM      9  O   UNL     1     -11.233   6.231 -13.316  1.00  0.00    -0.550 OA
ATOM     10  O   UNL     1      -9.869   8.056 -13.074  1.00  0.00    -0.550 OA
ENDBRANCH   7   8
ENDBRANCH   6   7
ENDBRANCH   5   6
ENDBRANCH   4   5
ENDBRANCH   3   4
ENDBRANCH   2   3
ENDBRANCH   1   2
BRANCH   1  11
ATOM     11  C   UNL     1      -9.617   1.597  -8.223  1.00  0.00     0.000 C 
BRANCH  11  12
ATOM     12  C   UNL     1     -10.767   0.634  -8.556  1.00  0.00    -0.000 C 
BRANCH  12  13
ATOM     13  C   UNL     1     -12.090   1.031  -7.875  1.00  0.00    -0.000 C 
BRANCH  13  14
ATOM     14  C   UNL     1     -13.125   1.574  -8.873  1.00  0.00    -0.000 C 
BRANCH  14  15
ATOM     15  C   UNL     1     -13.060   3.104  -9.018  1.00  0.00    -0.000 C 
BRANCH  15  16
ATOM     16  C   UNL     1     -12.781   3.539 -10.472  1.00  0.00    -0.000 C 
BRANCH  16  17
ATOM     17  C   UNL     1     -12.602   2.361 -11.445  1.00  0.00    -0.003 C 
ATOM     18  C   UNL     1     -11.440   2.557 -12.415  1.00  0.00     0.004 C 
ENDBRANCH  16  17
ENDBRANCH  15  16
ENDBRANCH  14  15
ENDBRANCH  13  14
ENDBRANCH  12  13
ENDBRANCH  11  12
ENDBRANCH   1  11
TORSDOF 14
ENDMDL
MODEL 9
REMARK VINA RESULT:    -4.517      2.777      6.802
REMARK INTER + INTRA:          -9.505
REMARK INTER:                  -7.747
REMARK INTRA:                  -1.758
REMARK UNBOUND:                -1.291
REMARK SMILES CCCCCCCCCCCCCCCC(=O)[O-]
REMARK SMILES IDX 9 1 10 2 11 3 12 4 13 5 14 6 15 7 16 8 17 9 18 10 8 11 7 12
REMARK SMILES IDX 6 13 5 14 4 15 3 16 2 17 1 18
REMARK H PARENT
REMARK Flexibility Score: inf
ROOT
ATOM      1  C   UNL     1     -13.019  -2.306 -23.088  1.00  0.00     0.000 C 
ENDROOT
BRANCH   1   2
ATOM      2  C   UNL     1     -12.674  -0.929 -22.496  1.00  0.00     0.000 C 
BRANCH   2   3
ATOM      3  C   UNL     1     -12.159  -1.021 -21.048  1.00  0.00     0.000 C 
BRANCH   3   4
ATOM      4  C   UNL     1     -11.504   0.285 -20.571  1.00  0.00     0.000 C 
BRANCH   4   5
ATOM      5  C   UNL     1     -11.541   0.443 -19.041  1.00  0.00     0.000 C 
BRANCH   5   6
ATOM      6  C   UNL     1     -10.140   0.400 -18.410  1.00  0.00     0.006 C 
BRANCH   6   7
ATOM      7  C   UNL     1      -9.022   0.579 -19.445  1.00  0.00     0.053 C 
BRANCH   7   8
ATOM      8  C   UNL     1      -7.811  -0.205 -19.048  1.00  0.00     0.041 C 
ATOM      9  O   UNL     1      -7.358  -0.121 -17.877  1.00  0.00    -0.550 OA
ATOM     10  O   UNL     1      -7.153  -0.990 -19.986  1.00  0.00    -0.550 OA
ENDBRANCH   7   8
ENDBRANCH   6   7
ENDBRANCH   5   6
ENDBRANCH   4   5
ENDBRANCH   3   4
ENDBRANCH   2   3
ENDBRANCH   1   2
BRANCH   1  11
ATOM     11  C   UNL     1     -12.001  -2.766 -24.145  1.00  0.00     0.000 C 
BRANCH  11  12
ATOM     12  C   UNL     1     -12.651  -3.032 -25.512  1.00  0.00    -0.000 C 
BRANCH  12  13
ATOM     13  C   UNL     1     -12.030  -2.189 -26.640  1.00  0.00    -0.000 C 
BRANCH  13  14
ATOM     14  C   UNL     1     -11.341  -0.919 -26.114  1.00  0.00    -0.000 C 
BRANCH  14  15
ATOM     15  C   UNL     1      -9.920  -0.740 -26.677  1.00  0.00    -0.000 C 
BRANCH  15  16
ATOM     16  C   UNL     1      -8.861  -0.630 -25.560  1.00  0.00    -0.000 C 
BRANCH  16  17
ATOM     17  C   UNL     1      -9.415  -0.069 -24.239  1.00  0.00    -0.003 C 
ATOM     18  C   UNL     1      -8.963  -0.864 -23.016  1.00  0.00     0.004 C 
ENDBRANCH  16  17
ENDBRANCH  15  16
ENDBRANCH  14  15
ENDBRANCH  13  14
ENDBRANCH  12  13
ENDBRANCH  11  12
ENDBRANCH   1  11
TORSDOF 14
ENDMDL
