MODEL 1
REMARK VINA RESULT:    -3.387      0.000      0.000
REMARK INTER + INTRA:          -4.191
REMARK INTER:                  -4.079
REMARK INTRA:                  -0.112
REMARK UNBOUND:                -0.112
REMARK SMILES O=c1c(O)c(-c2ccc(O)c(O)c2)oc2cc(O)cc(O)c12
REMARK SMILES IDX 5 1 3 2 2 3 1 4 22 5 20 6 19 7 17 8 16 9 15 10 14 11 6 12
REMARK SMILES IDX 7 13 8 14 9 15 13 16 11 17 10 18 12 20 4 22 21 24 18 26
REMARK H PARENT 10 19 12 21 4 23 21 25 18 27
REMARK Flexibility Score: inf
ROOT
ATOM      1  C   UNL     1      16.276  36.755  11.848  1.00  0.00     0.180 A 
ATOM      2  C   UNL     1      16.095  35.828  10.803  1.00  0.00     0.208 A 
ATOM      3  C   UNL     1      16.135  34.456  11.099  1.00  0.00     0.238 A 
ATOM      4  O   UNL     1      15.963  33.616  10.175  1.00  0.00    -0.285 OA
ATOM      5  C   UNL     1      16.373  34.035  12.424  1.00  0.00     0.111 A 
ATOM      6  C   UNL     1      16.431  32.673  12.806  1.00  0.00     0.134 A 
ATOM      7  C   UNL     1      16.682  32.336  14.144  1.00  0.00     0.093 A 
ATOM      8  C   UNL     1      16.875  33.330  15.106  1.00  0.00     0.123 A 
ATOM      9  C   UNL     1      16.819  34.677  14.734  1.00  0.00     0.094 A 
ATOM     10  C   UNL     1      16.568  35.035  13.407  1.00  0.00     0.146 A 
ATOM     11  O   UNL     1      16.513  36.321  13.083  1.00  0.00    -0.452 OA
ENDROOT
BRANCH   1  12
ATOM     12  C   UNL     1      16.230  38.218  11.619  1.00  0.00     0.025 A 
ATOM     13  C   UNL     1      17.125  38.849  10.739  1.00  0.00     0.016 A 
ATOM     14  C   UNL     1      17.047  40.227  10.520  1.00  0.00     0.051 A 
ATOM     15  C   UNL     1      16.067  40.991  11.166  1.00  0.00     0.157 A 
ATOM     16  C   UNL     1      15.236  38.984  12.249  1.00  0.00     0.062 A 
ATOM     17  C   UNL     1      15.155  40.364  12.033  1.00  0.00     0.158 A 
BRANCH  15  18
ATOM     18  O   UNL     1      15.993  42.365  10.948  1.00  0.00    -0.504 OA
ATOM     19  H   UNL     1      16.544  42.820  10.229  1.00  0.00     0.293 HD
ENDBRANCH  15  18
BRANCH  17  20
ATOM     20  O   UNL     1      14.163  41.096  12.686  1.00  0.00    -0.504 OA
ATOM     21  H   UNL     1      13.183  41.002  12.453  1.00  0.00     0.293 HD
ENDBRANCH  17  20
ENDBRANCH   1  12
BRANCH   2  22
ATOM     22  O   UNL     1      15.910  36.270   9.491  1.00  0.00    -0.502 OA
ATOM     23  H   UNL     1      16.646  36.719   8.960  1.00  0.00     0.293 HD
ENDBRANCH   2  22
BRANCH   6  24
ATOM     24  O   UNL     1      16.243  31.656  11.868  1.00  0.00    -0.507 OA
ATOM     25  H   UNL     1      16.554  30.708  12.042  1.00  0.00     0.293 HD
ENDBRANCH   6  24
BRANCH   8  26
ATOM     26  O   UNL     1      17.125  32.967  16.427  1.00  0.00    -0.508 OA
ATOM     27  H   UNL     1      17.199  33.661  17.162  1.00  0.00     0.293 HD
ENDBRANCH   8  26
TORSDOF 6
ENDMDL
MODEL 2
REMARK VINA RESULT:    -2.622      2.827      8.628
REMARK INTER + INTRA:          -3.270
REMARK INTER:                  -3.065
REMARK INTRA:                  -0.206
REMARK UNBOUND:                -0.112
REMARK SMILES O=c1c(O)c(-c2ccc(O)c(O)c2)oc2cc(O)cc(O)c12
REMARK SMILES IDX 5 1 3 2 2 3 1 4 22 5 20 6 19 7 17 8 16 9 15 10 14 11 6 12
REMARK SMILES IDX 7 13 8 14 9 15 13 16 11 17 10 18 12 20 4 22 21 24 18 26
REMARK H PARENT 10 19 12 21 4 23 21 25 18 27
REMARK Flexibility Score: inf
ROOT
ATOM      1  C   UNL     1      16.284  40.648  11.091  1.00  0.00     0.180 A 
ATOM      2  C   UNL     1      16.706  41.376  12.221  1.00  0.00     0.208 A 
ATOM      3  C   UNL     1      16.726  42.778  12.155  1.00  0.00     0.238 A 
ATOM      4  O   UNL     1      17.091  43.442  13.163  1.00  0.00    -0.285 OA
ATOM      5  C   UNL     1      16.346  43.426  10.961  1.00  0.00     0.111 A 
ATOM      6  C   UNL     1      16.342  44.834  10.812  1.00  0.00     0.134 A 
ATOM      7  C   UNL     1      15.959  45.402   9.588  1.00  0.00     0.093 A 
ATOM      8  C   UNL     1      15.581  44.593   8.514  1.00  0.00     0.123 A 
ATOM      9  C   UNL     1      15.583  43.202   8.656  1.00  0.00     0.094 A 
ATOM     10  C   UNL     1      15.959  42.616   9.868  1.00  0.00     0.146 A 
ATOM     11  O   UNL     1      15.946  41.293   9.978  1.00  0.00    -0.452 OA
ENDROOT
BRANCH   1  12
ATOM     12  C   UNL     1      16.217  39.169  11.088  1.00  0.00     0.025 A 
ATOM     13  C   UNL     1      17.125  38.397  10.344  1.00  0.00     0.016 A 
ATOM     14  C   UNL     1      17.058  37.001  10.375  1.00  0.00     0.051 A 
ATOM     15  C   UNL     1      16.093  36.358  11.161  1.00  0.00     0.157 A 
ATOM     16  C   UNL     1      15.265  38.519  11.890  1.00  0.00     0.062 A 
ATOM     17  C   UNL     1      15.194  37.122  11.924  1.00  0.00     0.158 A 
BRANCH  15  18
ATOM     18  O   UNL     1      16.027  34.966  11.189  1.00  0.00    -0.504 OA
ATOM     19  H   UNL     1      15.195  34.467  10.894  1.00  0.00     0.293 HD
ENDBRANCH  15  18
BRANCH  17  20
ATOM     20  O   UNL     1      14.226  36.511  12.722  1.00  0.00    -0.504 OA
ATOM     21  H   UNL     1      14.454  36.077  13.607  1.00  0.00     0.293 HD
ENDBRANCH  17  20
ENDBRANCH   1  12
BRANCH   2  22
ATOM     22  O   UNL     1      17.125  40.710  13.374  1.00  0.00    -0.502 OA
ATOM     23  H   UNL     1      18.063  40.801  13.744  1.00  0.00     0.293 HD
ENDBRANCH   2  22
BRANCH   6  24
ATOM     24  O   UNL     1      16.715  45.670  11.866  1.00  0.00    -0.507 OA
ATOM     25  H   UNL     1      16.027  46.148  12.436  1.00  0.00     0.293 HD
ENDBRANCH   6  24
BRANCH   8  26
ATOM     26  O   UNL     1      15.206  45.183   7.308  1.00  0.00    -0.508 OA
ATOM     27  H   UNL     1      15.689  45.996   6.943  1.00  0.00     0.293 HD
ENDBRANCH   8  26
TORSDOF 6
ENDMDL
MODEL 3
REMARK VINA RESULT:    -2.277      3.486      8.907
REMARK INTER + INTRA:          -2.855
REMARK INTER:                  -3.100
REMARK INTRA:                   0.245
REMARK UNBOUND:                -0.112
REMARK SMILES O=c1c(O)c(-c2ccc(O)c(O)c2)oc2cc(O)cc(O)c12
REMARK SMILES IDX 5 1 3 2 2 3 1 4 22 5 20 6 19 7 17 8 16 9 15 10 14 11 6 12
REMARK SMILES IDX 7 13 8 14 9 15 13 16 11 17 10 18 12 20 4 22 21 24 18 26
REMARK H PARENT 10 19 12 21 4 23 21 25 18 27
REMARK Flexibility Score: inf
ROOT
ATOM      1  C   UNL     1      16.255  42.066  10.964  1.00  0.00     0.180 A 
ATOM      2  C   UNL     1      16.466  42.846   9.810  1.00  0.00     0.208 A 
ATOM      3  C   UNL     1      16.436  44.245   9.922  1.00  0.00     0.238 A 
ATOM      4  O   UNL     1      16.636  44.954   8.898  1.00  0.00    -0.285 OA
ATOM      5  C   UNL     1      16.176  44.839  11.175  1.00  0.00     0.111 A 
ATOM      6  C   UNL     1      16.126  46.240  11.372  1.00  0.00     0.134 A 
ATOM      7  C   UNL     1      15.852  46.754  12.648  1.00  0.00     0.093 A 
ATOM      8  C   UNL     1      15.629  45.897  13.728  1.00  0.00     0.123 A 
ATOM      9  C   UNL     1      15.678  44.512  13.539  1.00  0.00     0.094 A 
ATOM     10  C   UNL     1      15.951  43.980  12.276  1.00  0.00     0.146 A 
ATOM     11  O   UNL     1      15.998  42.662  12.126  1.00  0.00    -0.452 OA
ENDROOT
BRANCH   1  12
ATOM     12  C   UNL     1      16.290  40.586  10.931  1.00  0.00     0.025 A 
ATOM     13  C   UNL     1      17.089  39.894  10.006  1.00  0.00     0.016 A 
ATOM     14  C   UNL     1      17.125  38.497  10.009  1.00  0.00     0.051 A 
ATOM     15  C   UNL     1      16.374  37.773  10.944  1.00  0.00     0.157 A 
ATOM     16  C   UNL     1      15.555  39.857  11.880  1.00  0.00     0.062 A 
ATOM     17  C   UNL     1      15.588  38.458  11.887  1.00  0.00     0.158 A 
BRANCH  15  18
ATOM     18  O   UNL     1      16.410  36.379  10.944  1.00  0.00    -0.504 OA
ATOM     19  H   UNL     1      16.063  35.839  11.728  1.00  0.00     0.293 HD
ENDBRANCH  15  18
BRANCH  17  20
ATOM     20  O   UNL     1      14.835  37.766  12.835  1.00  0.00    -0.504 OA
ATOM     21  H   UNL     1      14.027  37.213  12.581  1.00  0.00     0.293 HD
ENDBRANCH  17  20
ENDBRANCH   1  12
BRANCH   2  22
ATOM     22  O   UNL     1      16.673  42.233   8.572  1.00  0.00    -0.502 OA
ATOM     23  H   UNL     1      16.100  41.464   8.244  1.00  0.00     0.293 HD
ENDBRANCH   2  22
BRANCH   6  24
ATOM     24  O   UNL     1      16.343  47.123  10.312  1.00  0.00    -0.507 OA
ATOM     25  H   UNL     1      15.864  47.019   9.426  1.00  0.00     0.293 HD
ENDBRANCH   6  24
BRANCH   8  26
ATOM     26  O   UNL     1      15.357  46.433  14.985  1.00  0.00    -0.508 OA
ATOM     27  H   UNL     1      14.420  46.432  15.370  1.00  0.00     0.293 HD
ENDBRANCH   8  26
TORSDOF 6
ENDMDL
MODEL 4
REMARK VINA RESULT:    -1.765     21.170     22.139
REMARK INTER + INTRA:          -2.237
REMARK INTER:                  -1.991
REMARK INTRA:                  -0.246
REMARK UNBOUND:                -0.112
REMARK SMILES O=c1c(O)c(-c2ccc(O)c(O)c2)oc2cc(O)cc(O)c12
REMARK SMILES IDX 5 1 3 2 2 3 1 4 22 5 20 6 19 7 17 8 16 9 15 10 14 11 6 12
REMARK SMILES IDX 7 13 8 14 9 15 13 16 11 17 10 18 12 20 4 22 21 24 18 26
REMARK H PARENT 10 19 12 21 4 23 21 25 18 27
REMARK Flexibility Score: inf
ROOT
ATOM      1  C   UNL     1      -1.927  41.139  24.270  1.00  0.00     0.180 A 
ATOM      2  C   UNL     1      -2.528  40.746  23.058  1.00  0.00     0.208 A 
ATOM      3  C   UNL     1      -2.490  39.391  22.691  1.00  0.00     0.238 A 
ATOM      4  O   UNL     1      -3.035  39.025  21.614  1.00  0.00    -0.285 OA
ATOM      5  C   UNL     1      -1.837  38.460  23.525  1.00  0.00     0.111 A 
ATOM      6  C   UNL     1      -1.751  37.079  23.226  1.00  0.00     0.134 A 
ATOM      7  C   UNL     1      -1.076  36.218  24.104  1.00  0.00     0.093 A 
ATOM      8  C   UNL     1      -0.487  36.709  25.271  1.00  0.00     0.123 A 
ATOM      9  C   UNL     1      -0.569  38.073  25.572  1.00  0.00     0.094 A 
ATOM     10  C   UNL     1      -1.239  38.947  24.711  1.00  0.00     0.146 A 
ATOM     11  O   UNL     1      -1.308  40.236  25.024  1.00  0.00    -0.452 OA
ENDROOT
BRANCH   1  12
ATOM     12  C   UNL     1      -1.941  42.545  24.735  1.00  0.00     0.025 A 
ATOM     13  C   UNL     1      -3.125  43.154  25.187  1.00  0.00     0.016 A 
ATOM     14  C   UNL     1      -3.110  44.474  25.645  1.00  0.00     0.051 A 
ATOM     15  C   UNL     1      -1.912  45.200  25.670  1.00  0.00     0.157 A 
ATOM     16  C   UNL     1      -0.740  43.269  24.782  1.00  0.00     0.062 A 
ATOM     17  C   UNL     1      -0.721  44.592  25.239  1.00  0.00     0.158 A 
BRANCH  15  18
ATOM     18  O   UNL     1      -1.901  46.517  26.125  1.00  0.00    -0.504 OA
ATOM     19  H   UNL     1      -1.182  46.856  26.754  1.00  0.00     0.293 HD
ENDBRANCH  15  18
BRANCH  17  20
ATOM     20  O   UNL     1       0.489  45.286  25.258  1.00  0.00    -0.504 OA
ATOM     21  H   UNL     1       0.592  46.175  25.730  1.00  0.00     0.293 HD
ENDBRANCH  17  20
ENDBRANCH   1  12
BRANCH   2  22
ATOM     22  O   UNL     1      -3.125  41.694  22.225  1.00  0.00    -0.502 OA
ATOM     23  H   UNL     1      -4.097  41.638  21.946  1.00  0.00     0.293 HD
ENDBRANCH   2  22
BRANCH   6  24
ATOM     24  O   UNL     1      -2.328  36.558  22.067  1.00  0.00    -0.507 OA
ATOM     25  H   UNL     1      -3.166  35.988  22.099  1.00  0.00     0.293 HD
ENDBRANCH   6  24
BRANCH   8  26
ATOM     26  O   UNL     1       0.179  35.833  26.125  1.00  0.00    -0.508 OA
ATOM     27  H   UNL     1       0.618  36.156  26.979  1.00  0.00     0.293 HD
ENDBRANCH   8  26
TORSDOF 6
ENDMDL
MODEL 5
REMARK VINA RESULT:    -0.942     20.818     23.312
REMARK INTER + INTRA:          -1.247
REMARK INTER:                  -1.282
REMARK INTRA:                   0.035
REMARK UNBOUND:                -0.112
REMARK SMILES O=c1c(O)c(-c2ccc(O)c(O)c2)oc2cc(O)cc(O)c12
REMARK SMILES IDX 5 1 3 2 2 3 1 4 22 5 20 6 19 7 17 8 16 9 15 10 14 11 6 12
REMARK SMILES IDX 7 13 8 14 9 15 13 16 11 17 10 18 12 20 4 22 21 24 18 26
REMARK H PARENT 10 19 12 21 4 23 21 25 18 27
REMARK Flexibility Score: inf
ROOT
ATOM      1  C   UNL     1      -1.648  41.581  24.180  1.00  0.00     0.180 A 
ATOM      2  C   UNL     1      -0.775  41.929  23.130  1.00  0.00     0.208 A 
ATOM      3  C   UNL     1      -0.513  43.286  22.887  1.00  0.00     0.238 A 
ATOM      4  O   UNL     1       0.276  43.609  21.958  1.00  0.00    -0.285 OA
ATOM      5  C   UNL     1      -1.140  44.270  23.679  1.00  0.00     0.111 A 
ATOM      6  C   UNL     1      -0.933  45.659  23.498  1.00  0.00     0.134 A 
ATOM      7  C   UNL     1      -1.602  46.576  24.322  1.00  0.00     0.093 A 
ATOM      8  C   UNL     1      -2.471  46.133  25.321  1.00  0.00     0.123 A 
ATOM      9  C   UNL     1      -2.680  44.763  25.505  1.00  0.00     0.094 A 
ATOM     10  C   UNL     1      -2.021  43.833  24.696  1.00  0.00     0.146 A 
ATOM     11  O   UNL     1      -2.232  42.537  24.896  1.00  0.00    -0.452 OA
ENDROOT
BRANCH   1  12
ATOM     12  C   UNL     1      -1.959  40.172  24.510  1.00  0.00     0.025 A 
ATOM     13  C   UNL     1      -1.901  39.700  25.833  1.00  0.00     0.016 A 
ATOM     14  C   UNL     1      -2.223  38.372  26.125  1.00  0.00     0.051 A 
ATOM     15  C   UNL     1      -2.620  37.500  25.103  1.00  0.00     0.157 A 
ATOM     16  C   UNL     1      -2.378  39.300  23.492  1.00  0.00     0.062 A 
ATOM     17  C   UNL     1      -2.701  37.969  23.780  1.00  0.00     0.158 A 
BRANCH  15  18
ATOM     18  O   UNL     1      -2.938  36.176  25.396  1.00  0.00    -0.504 OA
ATOM     19  H   UNL     1      -3.666  35.680  24.894  1.00  0.00     0.293 HD
ENDBRANCH  15  18
BRANCH  17  20
ATOM     20  O   UNL     1      -3.100  37.128  22.742  1.00  0.00    -0.504 OA
ATOM     21  H   UNL     1      -3.647  36.293  22.905  1.00  0.00     0.293 HD
ENDBRANCH  17  20
ENDBRANCH   1  12
BRANCH   2  22
ATOM     22  O   UNL     1      -0.205  40.937  22.328  1.00  0.00    -0.502 OA
ATOM     23  H   UNL     1      -0.141  41.023  21.321  1.00  0.00     0.293 HD
ENDBRANCH   2  22
BRANCH   6  24
ATOM     24  O   UNL     1      -0.071  46.133  22.507  1.00  0.00    -0.507 OA
ATOM     25  H   UNL     1      -0.411  46.671  21.719  1.00  0.00     0.293 HD
ENDBRANCH   6  24
BRANCH   8  26
ATOM     26  O   UNL     1      -3.125  47.065  26.125  1.00  0.00    -0.508 OA
ATOM     27  H   UNL     1      -3.284  46.895  27.111  1.00  0.00     0.293 HD
ENDBRANCH   8  26
TORSDOF 6
ENDMDL
MODEL 6
REMARK VINA RESULT:    -0.646      4.648      6.378
REMARK INTER + INTRA:          -0.890
REMARK INTER:                  -0.642
REMARK INTRA:                  -0.248
REMARK UNBOUND:                -0.112
REMARK SMILES O=c1c(O)c(-c2ccc(O)c(O)c2)oc2cc(O)cc(O)c12
REMARK SMILES IDX 5 1 3 2 2 3 1 4 22 5 20 6 19 7 17 8 16 9 15 10 14 11 6 12
REMARK SMILES IDX 7 13 8 14 9 15 13 16 11 17 10 18 12 20 4 22 21 24 18 26
REMARK H PARENT 10 19 12 21 4 23 21 25 18 27
REMARK Flexibility Score: inf
ROOT
ATOM      1  C   UNL     1      12.771  35.293  13.375  1.00  0.00     0.180 A 
ATOM      2  C   UNL     1      13.365  34.120  12.869  1.00  0.00     0.208 A 
ATOM      3  C   UNL     1      14.591  34.217  12.193  1.00  0.00     0.238 A 
ATOM      4  O   UNL     1      15.139  33.172  11.746  1.00  0.00    -0.285 OA
ATOM      5  C   UNL     1      15.191  35.481  12.015  1.00  0.00     0.111 A 
ATOM      6  C   UNL     1      16.423  35.666  11.343  1.00  0.00     0.134 A 
ATOM      7  C   UNL     1      16.950  36.958  11.199  1.00  0.00     0.093 A 
ATOM      8  C   UNL     1      16.272  38.066  11.713  1.00  0.00     0.123 A 
ATOM      9  C   UNL     1      15.054  37.889  12.378  1.00  0.00     0.094 A 
ATOM     10  C   UNL     1      14.513  36.609  12.533  1.00  0.00     0.146 A 
ATOM     11  O   UNL     1      13.359  36.469  13.175  1.00  0.00    -0.452 OA
ENDROOT
BRANCH   1  12
ATOM     12  C   UNL     1      11.489  35.270  14.115  1.00  0.00     0.025 A 
ATOM     13  C   UNL     1      10.269  35.040  13.457  1.00  0.00     0.016 A 
ATOM     14  C   UNL     1       9.073  34.998  14.180  1.00  0.00     0.051 A 
ATOM     15  C   UNL     1       9.082  35.173  15.570  1.00  0.00     0.157 A 
ATOM     16  C   UNL     1      11.495  35.424  15.511  1.00  0.00     0.062 A 
ATOM     17  C   UNL     1      10.300  35.383  16.238  1.00  0.00     0.158 A 
BRANCH  15  18
ATOM     18  O   UNL     1       7.888  35.134  16.288  1.00  0.00    -0.504 OA
ATOM     19  H   UNL     1       7.202  34.403  16.139  1.00  0.00     0.293 HD
ENDBRANCH  15  18
BRANCH  17  20
ATOM     20  O   UNL     1      10.343  35.554  17.622  1.00  0.00    -0.504 OA
ATOM     21  H   UNL     1       9.995  36.391  18.072  1.00  0.00     0.293 HD
ENDBRANCH  17  20
ENDBRANCH   1  12
BRANCH   2  22
ATOM     22  O   UNL     1      12.727  32.886  13.015  1.00  0.00    -0.502 OA
ATOM     23  H   UNL     1      13.058  32.175  13.657  1.00  0.00     0.293 HD
ENDBRANCH   2  22
BRANCH   6  24
ATOM     24  O   UNL     1      17.125  34.580  10.817  1.00  0.00    -0.507 OA
ATOM     25  H   UNL     1      18.034  34.693  10.383  1.00  0.00     0.293 HD
ENDBRANCH   6  24
BRANCH   8  26
ATOM     26  O   UNL     1      16.816  39.338  11.555  1.00  0.00    -0.508 OA
ATOM     27  H   UNL     1      17.477  39.718  12.222  1.00  0.00     0.293 HD
ENDBRANCH   8  26
TORSDOF 6
ENDMDL
MODEL 7
REMARK VINA RESULT:    -0.419     20.068     22.545
REMARK INTER + INTRA:          -0.617
REMARK INTER:                  -0.758
REMARK INTRA:                   0.141
REMARK UNBOUND:                -0.112
REMARK SMILES O=c1c(O)c(-c2ccc(O)c(O)c2)oc2cc(O)cc(O)c12
REMARK SMILES IDX 5 1 3 2 2 3 1 4 22 5 20 6 19 7 17 8 16 9 15 10 14 11 6 12
REMARK SMILES IDX 7 13 8 14 9 15 13 16 11 17 10 18 12 20 4 22 21 24 18 26
REMARK H PARENT 10 19 12 21 4 23 21 25 18 27
REMARK Flexibility Score: inf
ROOT
ATOM      1  C   UNL     1      -1.901  40.784  23.147  1.00  0.00     0.180 A 
ATOM      2  C   UNL     1      -2.528  40.928  24.400  1.00  0.00     0.208 A 
ATOM      3  C   UNL     1      -2.555  42.195  25.004  1.00  0.00     0.238 A 
ATOM      4  O   UNL     1      -3.124  42.339  26.120  1.00  0.00    -0.285 OA
ATOM      5  C   UNL     1      -1.940  43.288  24.358  1.00  0.00     0.111 A 
ATOM      6  C   UNL     1      -1.920  44.596  24.900  1.00  0.00     0.134 A 
ATOM      7  C   UNL     1      -1.279  45.629  24.200  1.00  0.00     0.093 A 
ATOM      8  C   UNL     1      -0.660  45.381  22.973  1.00  0.00     0.123 A 
ATOM      9  C   UNL     1      -0.677  44.091  22.433  1.00  0.00     0.094 A 
ATOM     10  C   UNL     1      -1.312  43.048  23.114  1.00  0.00     0.146 A 
ATOM     11  O   UNL     1      -1.319  41.834  22.576  1.00  0.00    -0.452 OA
ENDROOT
BRANCH   1  12
ATOM     12  C   UNL     1      -1.848  39.485  22.439  1.00  0.00     0.025 A 
ATOM     13  C   UNL     1      -2.931  38.589  22.470  1.00  0.00     0.016 A 
ATOM     14  C   UNL     1      -2.867  37.380  21.773  1.00  0.00     0.051 A 
ATOM     15  C   UNL     1      -1.728  37.053  21.026  1.00  0.00     0.157 A 
ATOM     16  C   UNL     1      -0.716  39.162  21.672  1.00  0.00     0.062 A 
ATOM     17  C   UNL     1      -0.649  37.952  20.974  1.00  0.00     0.158 A 
BRANCH  15  18
ATOM     18  O   UNL     1      -1.667  35.844  20.335  1.00  0.00    -0.504 OA
ATOM     19  H   UNL     1      -2.132  35.012  20.677  1.00  0.00     0.293 HD
ENDBRANCH  15  18
BRANCH  17  20
ATOM     20  O   UNL     1       0.496  37.659  20.233  1.00  0.00    -0.504 OA
ATOM     21  H   UNL     1       0.584  37.907  19.256  1.00  0.00     0.293 HD
ENDBRANCH  17  20
ENDBRANCH   1  12
BRANCH   2  22
ATOM     22  O   UNL     1      -3.087  39.820  25.042  1.00  0.00    -0.502 OA
ATOM     23  H   UNL     1      -3.554  39.890  25.938  1.00  0.00     0.293 HD
ENDBRANCH   2  22
BRANCH   6  24
ATOM     24  O   UNL     1      -2.529  44.876  26.124  1.00  0.00    -0.507 OA
ATOM     25  H   UNL     1      -2.007  45.262  26.903  1.00  0.00     0.293 HD
ENDBRANCH   6  24
BRANCH   8  26
ATOM     26  O   UNL     1      -0.028  46.424  22.299  1.00  0.00    -0.508 OA
ATOM     27  H   UNL     1       0.499  46.263  21.449  1.00  0.00     0.293 HD
ENDBRANCH   8  26
TORSDOF 6
ENDMDL
