MODEL 1
REMARK VINA RESULT:    47.174      0.000      0.000
REMARK INTER + INTRA:          52.943
REMARK INTER:                  51.311
REMARK INTRA:                   1.632
REMARK UNBOUND:                 1.632
REMARK SMILES C[C@H]1[C@H](C)CC[C@@]2(C(=O)[O-])CC[C@@]3(C)C(=CC[C@@H]4[C@@]5(C)CC[C@@H](O)C(C)(C)[C@H]5CC[C@@]43C)[C@@H]12
REMARK SMILES IDX 7 1 6 2 11 3 33 4 5 5 12 6 15 7 2 8 3 9 13 10 16 11 1 12
REMARK SMILES IDX 4 13 14 14 31 15 17 16 18 17 30 18 32 19 19 20 29 21 28 22
REMARK SMILES IDX 21 23 20 24 25 25 22 26 23 27 26 28 27 29 8 30 9 31 10 32
REMARK SMILES IDX 24 33
REMARK H PARENT 24 34
REMARK Flexibility Score: inf
ROOT
ATOM      1  C   UNL     1       8.260  -0.301  18.405  1.00  0.00     0.017 C 
ATOM      2  C   UNL     1       6.871   0.362  18.173  1.00  0.00     0.014 C 
ATOM      3  C   UNL     1       8.765  -0.953  17.096  1.00  0.00     0.014 C 
ATOM      4  C   UNL     1       9.349   0.716  18.916  1.00  0.00     0.030 C 
ATOM      5  C   UNL     1       6.924   1.720  17.483  1.00  0.00     0.004 C 
ATOM      6  C   UNL     1      10.017  -1.804  17.346  1.00  0.00     0.013 C 
ATOM      7  C   UNL     1      10.793   0.173  18.823  1.00  0.00    -0.063 C 
ATOM      8  C   UNL     1       9.246   2.199  18.380  1.00  0.00    -0.003 C 
ATOM      9  C   UNL     1       7.791   2.713  18.263  1.00  0.00    -0.011 C 
ATOM     10  C   UNL     1      11.249  -1.002  17.920  1.00  0.00    -0.006 C 
ATOM     11  C   UNL     1      11.716   0.783  19.588  1.00  0.00    -0.027 C 
ATOM     12  C   UNL     1      10.020   2.496  17.082  1.00  0.00     0.008 C 
ATOM     13  C   UNL     1       7.191   3.067  19.638  1.00  0.00     0.008 C 
ATOM     14  C   UNL     1      11.944  -0.409  16.657  1.00  0.00     0.017 C 
ATOM     15  C   UNL     1      12.261  -1.948  18.778  1.00  0.00    -0.020 C 
ATOM     16  C   UNL     1      13.160   0.406  19.543  1.00  0.00     0.032 C 
ATOM     17  C   UNL     1      13.371  -1.135  19.610  1.00  0.00     0.006 C 
ATOM     18  C   UNL     1      12.920  -3.025  17.869  1.00  0.00     0.008 C 
ATOM     19  C   UNL     1      11.428  -2.740  19.848  1.00  0.00     0.012 C 
ATOM     20  C   UNL     1      14.896  -1.582  19.410  1.00  0.00    -0.025 C 
ATOM     21  C   UNL     1      14.217  -2.636  17.138  1.00  0.00     0.005 C 
ATOM     22  C   UNL     1      15.235  -1.699  17.877  1.00  0.00     0.003 C 
ATOM     23  C   UNL     1      15.199  -2.948  20.125  1.00  0.00     0.010 C 
ATOM     24  C   UNL     1      15.791  -0.517  20.124  1.00  0.00     0.012 C 
ATOM     25  C   UNL     1      16.761  -2.094  17.566  1.00  0.00    -0.006 C 
ATOM     26  C   UNL     1      16.231  -3.850  19.405  1.00  0.00     0.033 C 
ATOM     27  C   UNL     1      17.336  -3.061  18.673  1.00  0.00     0.120 C 
ATOM     28  C   UNL     1      16.920  -2.734  16.146  1.00  0.00     0.014 C 
ATOM     29  C   UNL     1      17.647  -0.816  17.495  1.00  0.00     0.014 C 
ENDROOT
BRANCH   1  30
ATOM     30  C   UNL     1       7.995  -1.397  19.445  1.00  0.00     0.048 C 
ATOM     31  O   UNL     1       8.940  -2.128  19.845  1.00  0.00    -0.550 OA
ATOM     32  O   UNL     1       6.705  -1.690  19.878  1.00  0.00    -0.550 OA
ENDBRANCH   1  30
BRANCH  27  33
ATOM     33  O   UNL     1      18.265  -3.964  18.121  1.00  0.00    -0.393 OA
ATOM     34  H   UNL     1      18.968  -3.427  17.668  1.00  0.00     0.210 HD
ENDBRANCH  27  33
TORSDOF 2
ENDMDL
MODEL 2
REMARK VINA RESULT:    48.416      1.426      2.073
REMARK INTER + INTRA:          54.293
REMARK INTER:                  53.856
REMARK INTRA:                   0.437
REMARK UNBOUND:                 1.632
REMARK SMILES C[C@H]1[C@H](C)CC[C@@]2(C(=O)[O-])CC[C@@]3(C)C(=CC[C@@H]4[C@@]5(C)CC[C@@H](O)C(C)(C)[C@H]5CC[C@@]43C)[C@@H]12
REMARK SMILES IDX 7 1 6 2 11 3 33 4 5 5 12 6 15 7 2 8 3 9 13 10 16 11 1 12
REMARK SMILES IDX 4 13 14 14 31 15 17 16 18 17 30 18 32 19 19 20 29 21 28 22
REMARK SMILES IDX 21 23 20 24 25 25 22 26 23 27 26 28 27 29 8 30 9 31 10 32
REMARK SMILES IDX 24 33
REMARK H PARENT 24 34
REMARK Flexibility Score: inf
ROOT
ATOM      1  C   UNL     1      10.169  -0.742  18.303  1.00  0.00     0.017 C 
ATOM      2  C   UNL     1       8.792  -0.030  18.166  1.00  0.00     0.014 C 
ATOM      3  C   UNL     1      10.699  -1.153  16.910  1.00  0.00     0.014 C 
ATOM      4  C   UNL     1      11.255   0.151  19.015  1.00  0.00     0.030 C 
ATOM      5  C   UNL     1       8.873   1.430  17.734  1.00  0.00     0.004 C 
ATOM      6  C   UNL     1      11.937  -2.051  17.028  1.00  0.00     0.013 C 
ATOM      7  C   UNL     1      12.695  -0.384  18.856  1.00  0.00    -0.063 C 
ATOM      8  C   UNL     1      11.177   1.708  18.754  1.00  0.00    -0.003 C 
ATOM      9  C   UNL     1       9.730   2.254  18.700  1.00  0.00    -0.011 C 
ATOM     10  C   UNL     1      13.162  -1.383  17.765  1.00  0.00    -0.006 C 
ATOM     11  C   UNL     1      13.605   0.064  19.739  1.00  0.00    -0.027 C 
ATOM     12  C   UNL     1      11.985   2.225  17.548  1.00  0.00     0.008 C 
ATOM     13  C   UNL     1       9.101   2.361  20.103  1.00  0.00     0.008 C 
ATOM     14  C   UNL     1      13.892  -0.580  16.646  1.00  0.00     0.017 C 
ATOM     15  C   UNL     1      14.145  -2.482  18.459  1.00  0.00    -0.020 C 
ATOM     16  C   UNL     1      15.046  -0.317  19.657  1.00  0.00     0.032 C 
ATOM     17  C   UNL     1      15.243  -1.848  19.449  1.00  0.00     0.006 C 
ATOM     18  C   UNL     1      14.816  -3.385  17.384  1.00  0.00     0.008 C 
ATOM     19  C   UNL     1      13.280  -3.444  19.350  1.00  0.00     0.012 C 
ATOM     20  C   UNL     1      16.767  -2.271  19.205  1.00  0.00    -0.025 C 
ATOM     21  C   UNL     1      16.133  -2.887  16.765  1.00  0.00     0.005 C 
ATOM     22  C   UNL     1      17.141  -2.112  17.683  1.00  0.00     0.003 C 
ATOM     23  C   UNL     1      17.042  -3.748  19.666  1.00  0.00     0.010 C 
ATOM     24  C   UNL     1      17.655  -1.365  20.119  1.00  0.00     0.012 C 
ATOM     25  C   UNL     1      18.671  -2.465  17.339  1.00  0.00    -0.006 C 
ATOM     26  C   UNL     1      18.082  -4.517  18.817  1.00  0.00     0.033 C 
ATOM     27  C   UNL     1      19.211  -3.624  18.264  1.00  0.00     0.120 C 
ATOM     28  C   UNL     1      18.859  -2.839  15.831  1.00  0.00     0.014 C 
ATOM     29  C   UNL     1      19.570  -1.206  17.521  1.00  0.00     0.014 C 
ENDROOT
BRANCH   1  30
ATOM     30  C   UNL     1       9.870  -2.004  19.121  1.00  0.00     0.048 C 
ATOM     31  O   UNL     1       8.774  -2.608  18.970  1.00  0.00    -0.550 OA
ATOM     32  O   UNL     1      10.730  -2.441  20.124  1.00  0.00    -0.550 OA
ENDBRANCH   1  30
BRANCH  27  33
ATOM     33  O   UNL     1      20.145  -4.424  17.579  1.00  0.00    -0.393 OA
ATOM     34  H   UNL     1      20.062  -4.214  16.611  1.00  0.00     0.210 HD
ENDBRANCH  27  33
TORSDOF 2
ENDMDL
