MODEL 1
REMARK VINA RESULT:    -6.058      0.000      0.000
REMARK INTER + INTRA:          -7.629
REMARK INTER:                  -7.297
REMARK INTRA:                  -0.331
REMARK UNBOUND:                -0.331
REMARK SMILES O=c1c(O)c(-c2ccc(O)c(O)c2)oc2cc(O)cc(O)c12
REMARK SMILES IDX 5 1 3 2 2 3 1 4 22 5 20 6 19 7 17 8 16 9 15 10 14 11 6 12
REMARK SMILES IDX 7 13 8 14 9 15 13 16 11 17 10 18 12 20 4 22 21 24 18 26
REMARK H PARENT 10 19 12 21 4 23 21 25 18 27
REMARK Flexibility Score: inf
ROOT
ATOM      1  C   UNL     1      -1.924   8.777 -10.450  1.00  0.00     0.180 A 
ATOM      2  C   UNL     1      -2.955   7.933 -10.897  1.00  0.00     0.208 A 
ATOM      3  C   UNL     1      -4.144   8.504 -11.375  1.00  0.00     0.238 A 
ATOM      4  O   UNL     1      -5.042   7.745 -11.825  1.00  0.00    -0.285 OA
ATOM      5  C   UNL     1      -4.295   9.911 -11.385  1.00  0.00     0.111 A 
ATOM      6  C   UNL     1      -5.473  10.598 -11.810  1.00  0.00     0.134 A 
ATOM      7  C   UNL     1      -5.463  11.995 -11.899  1.00  0.00     0.093 A 
ATOM      8  C   UNL     1      -4.341  12.734 -11.519  1.00  0.00     0.123 A 
ATOM      9  C   UNL     1      -3.208  12.076 -11.047  1.00  0.00     0.094 A 
ATOM     10  C   UNL     1      -3.173  10.681 -10.979  1.00  0.00     0.146 A 
ATOM     11  O   UNL     1      -2.070  10.094 -10.533  1.00  0.00    -0.452 OA
ENDROOT
BRANCH   1  12
ATOM     12  C   UNL     1      -0.651   8.249  -9.910  1.00  0.00     0.025 A 
ATOM     13  C   UNL     1      -0.498   7.968  -8.540  1.00  0.00     0.016 A 
ATOM     14  C   UNL     1       0.721   7.492  -8.049  1.00  0.00     0.051 A 
ATOM     15  C   UNL     1       1.807   7.303  -8.914  1.00  0.00     0.157 A 
ATOM     16  C   UNL     1       0.447   8.076 -10.769  1.00  0.00     0.062 A 
ATOM     17  C   UNL     1       1.669   7.600 -10.280  1.00  0.00     0.158 A 
BRANCH  15  18
ATOM     18  O   UNL     1       3.021   6.827  -8.420  1.00  0.00    -0.504 OA
ATOM     19  H   UNL     1       3.266   5.846  -8.472  1.00  0.00     0.293 HD
ENDBRANCH  15  18
BRANCH  17  20
ATOM     20  O   UNL     1       2.732   7.429 -11.166  1.00  0.00    -0.504 OA
ATOM     21  H   UNL     1       2.915   8.082 -11.919  1.00  0.00     0.293 HD
ENDBRANCH  17  20
ENDBRANCH   1  12
BRANCH   2  22
ATOM     22  O   UNL     1      -2.776   6.546 -10.900  1.00  0.00    -0.502 OA
ATOM     23  H   UNL     1      -1.917   6.109 -11.210  1.00  0.00     0.293 HD
ENDBRANCH   2  22
BRANCH   6  24
ATOM     24  O   UNL     1      -6.676   9.960 -12.125  1.00  0.00    -0.507 OA
ATOM     25  H   UNL     1      -6.914   9.598 -13.036  1.00  0.00     0.293 HD
ENDBRANCH   6  24
BRANCH   8  26
ATOM     26  O   UNL     1      -4.345  14.125 -11.598  1.00  0.00    -0.508 OA
ATOM     27  H   UNL     1      -4.374  14.703 -10.765  1.00  0.00     0.293 HD
ENDBRANCH   8  26
TORSDOF 6
ENDMDL
MODEL 2
REMARK VINA RESULT:    -5.705      1.739      6.768
REMARK INTER + INTRA:          -7.203
REMARK INTER:                  -6.873
REMARK INTRA:                  -0.331
REMARK UNBOUND:                -0.331
REMARK SMILES O=c1c(O)c(-c2ccc(O)c(O)c2)oc2cc(O)cc(O)c12
REMARK SMILES IDX 5 1 3 2 2 3 1 4 22 5 20 6 19 7 17 8 16 9 15 10 14 11 6 12
REMARK SMILES IDX 7 13 8 14 9 15 13 16 11 17 10 18 12 20 4 22 21 24 18 26
REMARK H PARENT 10 19 12 21 4 23 21 25 18 27
REMARK Flexibility Score: inf
ROOT
ATOM      1  C   UNL     1      -1.828   9.119 -10.465  1.00  0.00     0.180 A 
ATOM      2  C   UNL     1      -1.567   8.166  -9.465  1.00  0.00     0.208 A 
ATOM      3  C   UNL     1      -0.236   7.820  -9.185  1.00  0.00     0.238 A 
ATOM      4  O   UNL     1      -0.006   7.006  -8.252  1.00  0.00    -0.285 OA
ATOM      5  C   UNL     1       0.816   8.418  -9.919  1.00  0.00     0.111 A 
ATOM      6  C   UNL     1       2.200   8.113  -9.746  1.00  0.00     0.134 A 
ATOM      7  C   UNL     1       3.163   8.861 -10.436  1.00  0.00     0.093 A 
ATOM      8  C   UNL     1       2.790   9.859 -11.338  1.00  0.00     0.123 A 
ATOM      9  C   UNL     1       1.440  10.124 -11.557  1.00  0.00     0.094 A 
ATOM     10  C   UNL     1       0.457   9.420 -10.858  1.00  0.00     0.146 A 
ATOM     11  O   UNL     1      -0.818   9.710 -11.089  1.00  0.00    -0.452 OA
ENDROOT
BRANCH   1  12
ATOM     12  C   UNL     1      -3.206   9.516 -10.834  1.00  0.00     0.025 A 
ATOM     13  C   UNL     1      -3.952   8.784 -11.774  1.00  0.00     0.016 A 
ATOM     14  C   UNL     1      -5.242   9.192 -12.125  1.00  0.00     0.051 A 
ATOM     15  C   UNL     1      -5.800  10.343 -11.553  1.00  0.00     0.157 A 
ATOM     16  C   UNL     1      -3.762  10.681 -10.278  1.00  0.00     0.062 A 
ATOM     17  C   UNL     1      -5.054  11.092 -10.627  1.00  0.00     0.158 A 
BRANCH  15  18
ATOM     18  O   UNL     1      -7.088  10.746 -11.903  1.00  0.00    -0.504 OA
ATOM     19  H   UNL     1      -7.362  11.721 -11.883  1.00  0.00     0.293 HD
ENDBRANCH  15  18
BRANCH  17  20
ATOM     20  O   UNL     1      -5.577  12.246 -10.045  1.00  0.00    -0.504 OA
ATOM     21  H   UNL     1      -5.690  13.107 -10.566  1.00  0.00     0.293 HD
ENDBRANCH  17  20
ENDBRANCH   1  12
BRANCH   2  22
ATOM     22  O   UNL     1      -2.620   7.603  -8.738  1.00  0.00    -0.502 OA
ATOM     23  H   UNL     1      -3.300   6.981  -9.158  1.00  0.00     0.293 HD
ENDBRANCH   2  22
BRANCH   6  24
ATOM     24  O   UNL     1       2.676   7.076  -8.940  1.00  0.00    -0.507 OA
ATOM     25  H   UNL     1       2.932   6.159  -9.273  1.00  0.00     0.293 HD
ENDBRANCH   6  24
BRANCH   8  26
ATOM     26  O   UNL     1       3.754  10.588 -12.030  1.00  0.00    -0.508 OA
ATOM     27  H   UNL     1       4.745  10.426 -11.889  1.00  0.00     0.293 HD
ENDBRANCH   8  26
TORSDOF 6
ENDMDL
MODEL 3
REMARK VINA RESULT:    -5.381      3.417      5.099
REMARK INTER + INTRA:          -6.813
REMARK INTER:                  -6.509
REMARK INTRA:                  -0.304
REMARK UNBOUND:                -0.331
REMARK SMILES O=c1c(O)c(-c2ccc(O)c(O)c2)oc2cc(O)cc(O)c12
REMARK SMILES IDX 5 1 3 2 2 3 1 4 22 5 20 6 19 7 17 8 16 9 15 10 14 11 6 12
REMARK SMILES IDX 7 13 8 14 9 15 13 16 11 17 10 18 12 20 4 22 21 24 18 26
REMARK H PARENT 10 19 12 21 4 23 21 25 18 27
REMARK Flexibility Score: inf
ROOT
ATOM      1  C   UNL     1       1.375   9.803 -10.442  1.00  0.00     0.180 A 
ATOM      2  C   UNL     1       1.526   8.525  -9.876  1.00  0.00     0.208 A 
ATOM      3  C   UNL     1       0.397   7.701  -9.746  1.00  0.00     0.238 A 
ATOM      4  O   UNL     1       0.547   6.537  -9.288  1.00  0.00    -0.285 OA
ATOM      5  C   UNL     1      -0.870   8.170 -10.167  1.00  0.00     0.111 A 
ATOM      6  C   UNL     1      -2.088   7.435 -10.045  1.00  0.00     0.134 A 
ATOM      7  C   UNL     1      -3.262   7.945 -10.615  1.00  0.00     0.093 A 
ATOM      8  C   UNL     1      -3.275   9.191 -11.245  1.00  0.00     0.123 A 
ATOM      9  C   UNL     1      -2.104   9.942 -11.316  1.00  0.00     0.094 A 
ATOM     10  C   UNL     1      -0.909   9.445 -10.789  1.00  0.00     0.146 A 
ATOM     11  O   UNL     1       0.185  10.189 -10.888  1.00  0.00    -0.452 OA
ENDROOT
BRANCH   1  12
ATOM     12  C   UNL     1       2.513  10.738 -10.590  1.00  0.00     0.025 A 
ATOM     13  C   UNL     1       3.407  10.638 -11.671  1.00  0.00     0.016 A 
ATOM     14  C   UNL     1       4.489  11.516 -11.777  1.00  0.00     0.051 A 
ATOM     15  C   UNL     1       4.701  12.498 -10.801  1.00  0.00     0.157 A 
ATOM     16  C   UNL     1       2.742  11.712  -9.603  1.00  0.00     0.062 A 
ATOM     17  C   UNL     1       3.824  12.593  -9.707  1.00  0.00     0.158 A 
BRANCH  15  18
ATOM     18  O   UNL     1       5.780  13.374 -10.911  1.00  0.00    -0.504 OA
ATOM     19  H   UNL     1       5.708  14.343 -10.626  1.00  0.00     0.293 HD
ENDBRANCH  15  18
BRANCH  17  20
ATOM     20  O   UNL     1       4.011  13.555  -8.715  1.00  0.00    -0.504 OA
ATOM     21  H   UNL     1       3.422  14.376  -8.643  1.00  0.00     0.293 HD
ENDBRANCH  17  20
ENDBRANCH   1  12
BRANCH   2  22
ATOM     22  O   UNL     1       2.790   8.073  -9.486  1.00  0.00    -0.502 OA
ATOM     23  H   UNL     1       3.524   7.871 -10.154  1.00  0.00     0.293 HD
ENDBRANCH   2  22
BRANCH   6  24
ATOM     24  O   UNL     1      -2.203   6.224  -9.356  1.00  0.00    -0.507 OA
ATOM     25  H   UNL     1      -1.480   5.818  -8.784  1.00  0.00     0.293 HD
ENDBRANCH   6  24
BRANCH   8  26
ATOM     26  O   UNL     1      -4.450   9.696 -11.796  1.00  0.00    -0.508 OA
ATOM     27  H   UNL     1      -4.496   9.999 -12.762  1.00  0.00     0.293 HD
ENDBRANCH   8  26
TORSDOF 6
ENDMDL
MODEL 4
REMARK VINA RESULT:    -4.965     14.440     15.480
REMARK INTER + INTRA:          -6.312
REMARK INTER:                  -6.517
REMARK INTRA:                   0.206
REMARK UNBOUND:                -0.331
REMARK SMILES O=c1c(O)c(-c2ccc(O)c(O)c2)oc2cc(O)cc(O)c12
REMARK SMILES IDX 5 1 3 2 2 3 1 4 22 5 20 6 19 7 17 8 16 9 15 10 14 11 6 12
REMARK SMILES IDX 7 13 8 14 9 15 13 16 11 17 10 18 12 20 4 22 21 24 18 26
REMARK H PARENT 10 19 12 21 4 23 21 25 18 27
REMARK Flexibility Score: inf
ROOT
ATOM      1  C   UNL     1      -4.224  -5.063  -5.837  1.00  0.00     0.180 A 
ATOM      2  C   UNL     1      -5.552  -4.722  -6.147  1.00  0.00     0.208 A 
ATOM      3  C   UNL     1      -5.922  -4.578  -7.493  1.00  0.00     0.238 A 
ATOM      4  O   UNL     1      -7.125  -4.326  -7.766  1.00  0.00    -0.285 OA
ATOM      5  C   UNL     1      -4.957  -4.761  -8.512  1.00  0.00     0.111 A 
ATOM      6  C   UNL     1      -5.211  -4.601  -9.908  1.00  0.00     0.134 A 
ATOM      7  C   UNL     1      -4.215  -4.934 -10.834  1.00  0.00     0.093 A 
ATOM      8  C   UNL     1      -2.953  -5.359 -10.413  1.00  0.00     0.123 A 
ATOM      9  C   UNL     1      -2.677  -5.462  -9.052  1.00  0.00     0.094 A 
ATOM     10  C   UNL     1      -3.661  -5.172  -8.104  1.00  0.00     0.146 A 
ATOM     11  O   UNL     1      -3.358  -5.292  -6.817  1.00  0.00    -0.452 OA
ENDROOT
BRANCH   1  12
ATOM     12  C   UNL     1      -3.752  -5.209  -4.441  1.00  0.00     0.025 A 
ATOM     13  C   UNL     1      -4.583  -5.746  -3.441  1.00  0.00     0.016 A 
ATOM     14  C   UNL     1      -4.125  -5.851  -2.124  1.00  0.00     0.051 A 
ATOM     15  C   UNL     1      -2.839  -5.411  -1.785  1.00  0.00     0.157 A 
ATOM     16  C   UNL     1      -2.472  -4.751  -4.092  1.00  0.00     0.062 A 
ATOM     17  C   UNL     1      -2.010  -4.855  -2.774  1.00  0.00     0.158 A 
BRANCH  15  18
ATOM     18  O   UNL     1      -2.385  -5.519  -0.472  1.00  0.00    -0.504 OA
ATOM     19  H   UNL     1      -2.264  -4.704   0.117  1.00  0.00     0.293 HD
ENDBRANCH  15  18
BRANCH  17  20
ATOM     20  O   UNL     1      -0.727  -4.401  -2.469  1.00  0.00    -0.504 OA
ATOM     21  H   UNL     1      -0.569  -3.541  -1.958  1.00  0.00     0.293 HD
ENDBRANCH  17  20
ENDBRANCH   1  12
BRANCH   2  22
ATOM     22  O   UNL     1      -6.494  -4.568  -5.126  1.00  0.00    -0.502 OA
ATOM     23  H   UNL     1      -7.467  -4.826  -5.240  1.00  0.00     0.293 HD
ENDBRANCH   2  22
BRANCH   6  24
ATOM     24  O   UNL     1      -6.405  -4.095 -10.430  1.00  0.00    -0.507 OA
ATOM     25  H   UNL     1      -6.514  -3.726 -11.362  1.00  0.00     0.293 HD
ENDBRANCH   6  24
BRANCH   8  26
ATOM     26  O   UNL     1      -1.963  -5.675 -11.341  1.00  0.00    -0.508 OA
ATOM     27  H   UNL     1      -1.189  -6.284 -11.104  1.00  0.00     0.293 HD
ENDBRANCH   8  26
TORSDOF 6
ENDMDL
MODEL 5
REMARK VINA RESULT:    -4.727     16.092     17.106
REMARK INTER + INTRA:          -6.025
REMARK INTER:                  -6.056
REMARK INTRA:                   0.031
REMARK UNBOUND:                -0.331
REMARK SMILES O=c1c(O)c(-c2ccc(O)c(O)c2)oc2cc(O)cc(O)c12
REMARK SMILES IDX 5 1 3 2 2 3 1 4 22 5 20 6 19 7 17 8 16 9 15 10 14 11 6 12
REMARK SMILES IDX 7 13 8 14 9 15 13 16 11 17 10 18 12 20 4 22 21 24 18 26
REMARK H PARENT 10 19 12 21 4 23 21 25 18 27
REMARK Flexibility Score: inf
ROOT
ATOM      1  C   UNL     1      -1.378  11.461   5.561  1.00  0.00     0.180 A 
ATOM      2  C   UNL     1      -2.527  12.150   5.137  1.00  0.00     0.208 A 
ATOM      3  C   UNL     1      -3.762  11.482   5.141  1.00  0.00     0.238 A 
ATOM      4  O   UNL     1      -4.796  12.120   4.812  1.00  0.00    -0.285 OA
ATOM      5  C   UNL     1      -3.830  10.130   5.554  1.00  0.00     0.111 A 
ATOM      6  C   UNL     1      -5.021   9.343   5.560  1.00  0.00     0.134 A 
ATOM      7  C   UNL     1      -4.995   8.056   6.111  1.00  0.00     0.093 A 
ATOM      8  C   UNL     1      -3.808   7.503   6.597  1.00  0.00     0.123 A 
ATOM      9  C   UNL     1      -2.628   8.242   6.541  1.00  0.00     0.094 A 
ATOM     10  C   UNL     1      -2.629   9.542   6.030  1.00  0.00     0.146 A 
ATOM     11  O   UNL     1      -1.485  10.214   6.005  1.00  0.00    -0.452 OA
ENDROOT
BRANCH   1  12
ATOM     12  C   UNL     1      -0.037  12.090   5.562  1.00  0.00     0.025 A 
ATOM     13  C   UNL     1       0.422  12.833   4.460  1.00  0.00     0.016 A 
ATOM     14  C   UNL     1       1.701  13.398   4.473  1.00  0.00     0.051 A 
ATOM     15  C   UNL     1       2.543  13.217   5.578  1.00  0.00     0.157 A 
ATOM     16  C   UNL     1       0.818  11.895   6.659  1.00  0.00     0.062 A 
ATOM     17  C   UNL     1       2.099  12.459   6.675  1.00  0.00     0.158 A 
BRANCH  15  18
ATOM     18  O   UNL     1       3.817  13.783   5.588  1.00  0.00    -0.504 OA
ATOM     19  H   UNL     1       3.989  14.695   5.993  1.00  0.00     0.293 HD
ENDBRANCH  15  18
BRANCH  17  20
ATOM     20  O   UNL     1       2.914  12.255   7.787  1.00  0.00    -0.504 OA
ATOM     21  H   UNL     1       2.535  12.015   8.695  1.00  0.00     0.293 HD
ENDBRANCH  17  20
ENDBRANCH   1  12
BRANCH   2  22
ATOM     22  O   UNL     1      -2.442  13.492   4.755  1.00  0.00    -0.502 OA
ATOM     23  H   UNL     1      -2.367  14.245   5.427  1.00  0.00     0.293 HD
ENDBRANCH   2  22
BRANCH   6  24
ATOM     24  O   UNL     1      -6.237   9.765   5.016  1.00  0.00    -0.507 OA
ATOM     25  H   UNL     1      -6.836   9.196   4.437  1.00  0.00     0.293 HD
ENDBRANCH   6  24
BRANCH   8  26
ATOM     26  O   UNL     1      -3.789   6.217   7.131  1.00  0.00    -0.508 OA
ATOM     27  H   UNL     1      -4.644   5.734   7.381  1.00  0.00     0.293 HD
ENDBRANCH   8  26
TORSDOF 6
ENDMDL
MODEL 6
REMARK VINA RESULT:    -4.726     11.853     13.837
REMARK INTER + INTRA:          -6.024
REMARK INTER:                  -5.744
REMARK INTRA:                  -0.280
REMARK UNBOUND:                -0.331
REMARK SMILES O=c1c(O)c(-c2ccc(O)c(O)c2)oc2cc(O)cc(O)c12
REMARK SMILES IDX 5 1 3 2 2 3 1 4 22 5 20 6 19 7 17 8 16 9 15 10 14 11 6 12
REMARK SMILES IDX 7 13 8 14 9 15 13 16 11 17 10 18 12 20 4 22 21 24 18 26
REMARK H PARENT 10 19 12 21 4 23 21 25 18 27
REMARK Flexibility Score: inf
ROOT
ATOM      1  C   UNL     1      10.527  10.501  -7.675  1.00  0.00     0.180 A 
ATOM      2  C   UNL     1       9.224  10.966  -7.925  1.00  0.00     0.208 A 
ATOM      3  C   UNL     1       8.615  11.819  -6.991  1.00  0.00     0.238 A 
ATOM      4  O   UNL     1       7.470  12.275  -7.246  1.00  0.00    -0.285 OA
ATOM      5  C   UNL     1       9.309  12.183  -5.812  1.00  0.00     0.111 A 
ATOM      6  C   UNL     1       8.773  13.009  -4.778  1.00  0.00     0.134 A 
ATOM      7  C   UNL     1       9.596  13.409  -3.719  1.00  0.00     0.093 A 
ATOM      8  C   UNL     1      10.916  12.962  -3.622  1.00  0.00     0.123 A 
ATOM      9  C   UNL     1      11.429  12.108  -4.595  1.00  0.00     0.094 A 
ATOM     10  C   UNL     1      10.645  11.719  -5.683  1.00  0.00     0.146 A 
ATOM     11  O   UNL     1      11.176  10.913  -6.593  1.00  0.00    -0.452 OA
ENDROOT
BRANCH   1  12
ATOM     12  C   UNL     1      11.225   9.580  -8.601  1.00  0.00     0.025 A 
ATOM     13  C   UNL     1      11.798  10.042  -9.799  1.00  0.00     0.016 A 
ATOM     14  C   UNL     1      12.432   9.150 -10.669  1.00  0.00     0.051 A 
ATOM     15  C   UNL     1      12.491   7.785 -10.363  1.00  0.00     0.157 A 
ATOM     16  C   UNL     1      11.270   8.207  -8.308  1.00  0.00     0.062 A 
ATOM     17  C   UNL     1      11.904   7.311  -9.177  1.00  0.00     0.158 A 
BRANCH  15  18
ATOM     18  O   UNL     1      13.125   6.898 -11.232  1.00  0.00    -0.504 OA
ATOM     19  H   UNL     1      12.936   6.904 -12.227  1.00  0.00     0.293 HD
ENDBRANCH  15  18
BRANCH  17  20
ATOM     20  O   UNL     1      11.939   5.957  -8.846  1.00  0.00    -0.504 OA
ATOM     21  H   UNL     1      12.136   5.240  -9.534  1.00  0.00     0.293 HD
ENDBRANCH  17  20
ENDBRANCH   1  12
BRANCH   2  22
ATOM     22  O   UNL     1       8.565  10.612  -9.106  1.00  0.00    -0.502 OA
ATOM     23  H   UNL     1       8.839   9.811  -9.662  1.00  0.00     0.293 HD
ENDBRANCH   2  22
BRANCH   6  24
ATOM     24  O   UNL     1       7.443  13.435  -4.731  1.00  0.00    -0.507 OA
ATOM     25  H   UNL     1       7.051  14.161  -5.311  1.00  0.00     0.293 HD
ENDBRANCH   6  24
BRANCH   8  26
ATOM     26  O   UNL     1      11.723  13.355  -2.557  1.00  0.00    -0.508 OA
ATOM     27  H   UNL     1      11.647  12.918  -1.645  1.00  0.00     0.293 HD
ENDBRANCH   8  26
TORSDOF 6
ENDMDL
MODEL 7
REMARK VINA RESULT:    -4.664      3.972      7.723
REMARK INTER + INTRA:          -5.950
REMARK INTER:                  -5.711
REMARK INTRA:                  -0.239
REMARK UNBOUND:                -0.331
REMARK SMILES O=c1c(O)c(-c2ccc(O)c(O)c2)oc2cc(O)cc(O)c12
REMARK SMILES IDX 5 1 3 2 2 3 1 4 22 5 20 6 19 7 17 8 16 9 15 10 14 11 6 12
REMARK SMILES IDX 7 13 8 14 9 15 13 16 11 17 10 18 12 20 4 22 21 24 18 26
REMARK H PARENT 10 19 12 21 4 23 21 25 18 27
REMARK Flexibility Score: inf
ROOT
ATOM      1  C   UNL     1       2.055   9.659 -10.950  1.00  0.00     0.180 A 
ATOM      2  C   UNL     1       1.834  11.031 -11.163  1.00  0.00     0.208 A 
ATOM      3  C   UNL     1       2.924  11.853 -11.491  1.00  0.00     0.238 A 
ATOM      4  O   UNL     1       2.712  13.070 -11.734  1.00  0.00    -0.285 OA
ATOM      5  C   UNL     1       4.222  11.297 -11.587  1.00  0.00     0.111 A 
ATOM      6  C   UNL     1       5.404  12.044 -11.874  1.00  0.00     0.134 A 
ATOM      7  C   UNL     1       6.615  11.369 -12.073  1.00  0.00     0.093 A 
ATOM      8  C   UNL     1       6.700   9.982 -11.932  1.00  0.00     0.123 A 
ATOM      9  C   UNL     1       5.563   9.252 -11.593  1.00  0.00     0.094 A 
ATOM     10  C   UNL     1       4.333   9.891 -11.424  1.00  0.00     0.146 A 
ATOM     11  O   UNL     1       3.273   9.156 -11.112  1.00  0.00    -0.452 OA
ENDROOT
BRANCH   1  12
ATOM     12  C   UNL     1       0.961   8.734 -10.577  1.00  0.00     0.025 A 
ATOM     13  C   UNL     1       0.429   7.819 -11.503  1.00  0.00     0.016 A 
ATOM     14  C   UNL     1      -0.620   6.972 -11.135  1.00  0.00     0.051 A 
ATOM     15  C   UNL     1      -1.162   7.035  -9.844  1.00  0.00     0.157 A 
ATOM     16  C   UNL     1       0.401   8.807  -9.291  1.00  0.00     0.062 A 
ATOM     17  C   UNL     1      -0.649   7.959  -8.919  1.00  0.00     0.158 A 
BRANCH  15  18
ATOM     18  O   UNL     1      -2.207   6.187  -9.481  1.00  0.00    -0.504 OA
ATOM     19  H   UNL     1      -2.893   6.458  -8.787  1.00  0.00     0.293 HD
ENDBRANCH  15  18
BRANCH  17  20
ATOM     20  O   UNL     1      -1.170   8.052  -7.629  1.00  0.00    -0.504 OA
ATOM     21  H   UNL     1      -1.261   8.939  -7.148  1.00  0.00     0.293 HD
ENDBRANCH  17  20
ENDBRANCH   1  12
BRANCH   2  22
ATOM     22  O   UNL     1       0.541  11.556 -11.085  1.00  0.00    -0.502 OA
ATOM     23  H   UNL     1       0.285  12.275 -10.419  1.00  0.00     0.293 HD
ENDBRANCH   2  22
BRANCH   6  24
ATOM     24  O   UNL     1       5.448  13.439 -11.946  1.00  0.00    -0.507 OA
ATOM     25  H   UNL     1       6.286  13.981 -12.086  1.00  0.00     0.293 HD
ENDBRANCH   6  24
BRANCH   8  26
ATOM     26  O   UNL     1       7.912   9.321 -12.117  1.00  0.00    -0.508 OA
ATOM     27  H   UNL     1       8.759   9.824 -12.356  1.00  0.00     0.293 HD
ENDBRANCH   8  26
TORSDOF 6
ENDMDL
MODEL 8
REMARK VINA RESULT:    -4.638     11.968     14.335
REMARK INTER + INTRA:          -5.918
REMARK INTER:                  -5.607
REMARK INTRA:                  -0.312
REMARK UNBOUND:                -0.331
REMARK SMILES O=c1c(O)c(-c2ccc(O)c(O)c2)oc2cc(O)cc(O)c12
REMARK SMILES IDX 5 1 3 2 2 3 1 4 22 5 20 6 19 7 17 8 16 9 15 10 14 11 6 12
REMARK SMILES IDX 7 13 8 14 9 15 13 16 11 17 10 18 12 20 4 22 21 24 18 26
REMARK H PARENT 10 19 12 21 4 23 21 25 18 27
REMARK Flexibility Score: inf
ROOT
ATOM      1  C   UNL     1      10.317  10.973  -6.687  1.00  0.00     0.180 A 
ATOM      2  C   UNL     1      10.636   9.628  -6.433  1.00  0.00     0.208 A 
ATOM      3  C   UNL     1      11.295   8.886  -7.426  1.00  0.00     0.238 A 
ATOM      4  O   UNL     1      11.626   7.698  -7.173  1.00  0.00    -0.285 OA
ATOM      5  C   UNL     1      11.612   9.492  -8.665  1.00  0.00     0.111 A 
ATOM      6  C   UNL     1      12.243   8.823  -9.756  1.00  0.00     0.134 A 
ATOM      7  C   UNL     1      12.627   9.556 -10.886  1.00  0.00     0.093 A 
ATOM      8  C   UNL     1      12.346  10.919 -10.991  1.00  0.00     0.123 A 
ATOM      9  C   UNL     1      11.677  11.569  -9.955  1.00  0.00     0.094 A 
ATOM     10  C   UNL     1      11.313  10.873  -8.800  1.00  0.00     0.146 A 
ATOM     11  O   UNL     1      10.687  11.532  -7.833  1.00  0.00    -0.452 OA
ENDROOT
BRANCH   1  12
ATOM     12  C   UNL     1       9.601  11.813  -5.700  1.00  0.00     0.025 A 
ATOM     13  C   UNL     1      10.298  12.644  -4.803  1.00  0.00     0.016 A 
ATOM     14  C   UNL     1       9.603  13.409  -3.864  1.00  0.00     0.051 A 
ATOM     15  C   UNL     1       8.205  13.348  -3.796  1.00  0.00     0.157 A 
ATOM     16  C   UNL     1       8.201  11.740  -5.614  1.00  0.00     0.062 A 
ATOM     17  C   UNL     1       7.502  12.506  -4.674  1.00  0.00     0.158 A 
BRANCH  15  18
ATOM     18  O   UNL     1       7.514  14.114  -2.859  1.00  0.00    -0.504 OA
ATOM     19  H   UNL     1       7.409  15.116  -2.966  1.00  0.00     0.293 HD
ENDBRANCH  15  18
BRANCH  17  20
ATOM     20  O   UNL     1       6.111  12.416  -4.628  1.00  0.00    -0.504 OA
ATOM     21  H   UNL     1       5.637  11.635  -4.193  1.00  0.00     0.293 HD
ENDBRANCH  17  20
ENDBRANCH   1  12
BRANCH   2  22
ATOM     22  O   UNL     1      10.332   9.055  -5.195  1.00  0.00    -0.502 OA
ATOM     23  H   UNL     1      10.175   9.611  -4.363  1.00  0.00     0.293 HD
ENDBRANCH   2  22
BRANCH   6  24
ATOM     24  O   UNL     1      12.487   7.447  -9.792  1.00  0.00    -0.507 OA
ATOM     25  H   UNL     1      11.774   6.736  -9.748  1.00  0.00     0.293 HD
ENDBRANCH   6  24
BRANCH   8  26
ATOM     26  O   UNL     1      12.718  11.638 -12.125  1.00  0.00    -0.508 OA
ATOM     27  H   UNL     1      13.216  11.198 -12.891  1.00  0.00     0.293 HD
ENDBRANCH   8  26
TORSDOF 6
ENDMDL
MODEL 9
REMARK VINA RESULT:    -4.623     11.775     14.128
REMARK INTER + INTRA:          -5.900
REMARK INTER:                  -5.628
REMARK INTRA:                  -0.272
REMARK UNBOUND:                -0.331
REMARK SMILES O=c1c(O)c(-c2ccc(O)c(O)c2)oc2cc(O)cc(O)c12
REMARK SMILES IDX 5 1 3 2 2 3 1 4 22 5 20 6 19 7 17 8 16 9 15 10 14 11 6 12
REMARK SMILES IDX 7 13 8 14 9 15 13 16 11 17 10 18 12 20 4 22 21 24 18 26
REMARK H PARENT 10 19 12 21 4 23 21 25 18 27
REMARK Flexibility Score: inf
ROOT
ATOM      1  C   UNL     1      11.206  10.341  -7.095  1.00  0.00     0.180 A 
ATOM      2  C   UNL     1      11.890  10.540  -5.883  1.00  0.00     0.208 A 
ATOM      3  C   UNL     1      11.345  11.412  -4.928  1.00  0.00     0.238 A 
ATOM      4  O   UNL     1      11.934  11.545  -3.823  1.00  0.00    -0.285 OA
ATOM      5  C   UNL     1      10.132  12.089  -5.203  1.00  0.00     0.111 A 
ATOM      6  C   UNL     1       9.510  13.027  -4.325  1.00  0.00     0.134 A 
ATOM      7  C   UNL     1       8.245  13.536  -4.644  1.00  0.00     0.093 A 
ATOM      8  C   UNL     1       7.609  13.192  -5.839  1.00  0.00     0.123 A 
ATOM      9  C   UNL     1       8.235  12.323  -6.729  1.00  0.00     0.094 A 
ATOM     10  C   UNL     1       9.481  11.770  -6.424  1.00  0.00     0.146 A 
ATOM     11  O   UNL     1      10.038  10.939  -7.296  1.00  0.00    -0.452 OA
ENDROOT
BRANCH   1  12
ATOM     12  C   UNL     1      11.730   9.455  -8.159  1.00  0.00     0.025 A 
ATOM     13  C   UNL     1      12.318   9.980  -9.324  1.00  0.00     0.016 A 
ATOM     14  C   UNL     1      12.783   9.125 -10.327  1.00  0.00     0.051 A 
ATOM     15  C   UNL     1      12.657   7.737 -10.188  1.00  0.00     0.157 A 
ATOM     16  C   UNL     1      11.588   8.064  -8.034  1.00  0.00     0.062 A 
ATOM     17  C   UNL     1      12.053   7.205  -9.036  1.00  0.00     0.158 A 
BRANCH  15  18
ATOM     18  O   UNL     1      13.125   6.887 -11.189  1.00  0.00    -0.504 OA
ATOM     19  H   UNL     1      14.111   6.682 -11.294  1.00  0.00     0.293 HD
ENDBRANCH  15  18
BRANCH  17  20
ATOM     20  O   UNL     1      11.906   5.828  -8.870  1.00  0.00    -0.504 OA
ATOM     21  H   UNL     1      12.363   5.161  -9.480  1.00  0.00     0.293 HD
ENDBRANCH  17  20
ENDBRANCH   1  12
BRANCH   2  22
ATOM     22  O   UNL     1      13.075   9.845  -5.622  1.00  0.00    -0.502 OA
ATOM     23  H   UNL     1      13.642   9.443  -6.359  1.00  0.00     0.293 HD
ENDBRANCH   2  22
BRANCH   6  24
ATOM     24  O   UNL     1      10.099  13.508  -3.153  1.00  0.00    -0.507 OA
ATOM     25  H   UNL     1       9.645  13.540  -2.253  1.00  0.00     0.293 HD
ENDBRANCH   6  24
BRANCH   8  26
ATOM     26  O   UNL     1       6.357  13.715  -6.154  1.00  0.00    -0.508 OA
ATOM     27  H   UNL     1       5.980  13.658  -7.093  1.00  0.00     0.293 HD
ENDBRANCH   8  26
TORSDOF 6
ENDMDL
