MODEL 1
REMARK VINA RESULT:    -2.034      0.000      0.000
REMARK INTER + INTRA:          -5.681
REMARK INTER:                  -4.649
REMARK INTRA:                  -1.032
REMARK UNBOUND:                -1.032
REMARK SMILES CCCCCCCCCCCCCCCCCCCCCCCC(=O)[O-]
REMARK SMILES IDX 13 1 14 2 15 3 16 4 17 5 18 6 19 7 20 8 21 9 22 10 23 11
REMARK SMILES IDX 24 12 25 13 26 14 12 15 11 16 10 17 9 18 8 19 7 20 6 21 5 22
REMARK SMILES IDX 4 23 3 24 2 25 1 26
REMARK H PARENT
REMARK Flexibility Score: inf
ROOT
ATOM      1  C   UNL     1     -16.834  -6.428 -21.055  1.00  0.00     0.000 C 
ENDROOT
BRANCH   1   2
ATOM      2  C   UNL     1     -15.910  -5.674 -20.085  1.00  0.00     0.000 C 
BRANCH   2   3
ATOM      3  C   UNL     1     -14.669  -6.495 -19.694  1.00  0.00     0.000 C 
BRANCH   3   4
ATOM      4  C   UNL     1     -13.631  -5.662 -18.926  1.00  0.00     0.000 C 
BRANCH   4   5
ATOM      5  C   UNL     1     -14.080  -5.332 -17.491  1.00  0.00     0.000 C 
BRANCH   5   6
ATOM      6  C   UNL     1     -13.914  -3.841 -17.144  1.00  0.00     0.000 C 
BRANCH   6   7
ATOM      7  C   UNL     1     -13.894  -3.522 -15.636  1.00  0.00     0.000 C 
BRANCH   7   8
ATOM      8  C   UNL     1     -13.098  -2.264 -15.246  1.00  0.00     0.000 C 
BRANCH   8   9
ATOM      9  C   UNL     1     -12.524  -2.338 -13.823  1.00  0.00     0.000 C 
BRANCH   9  10
ATOM     10  C   UNL     1     -12.970  -3.624 -13.118  1.00  0.00     0.006 C 
BRANCH  10  11
ATOM     11  C   UNL     1     -12.149  -3.867 -11.848  1.00  0.00     0.053 C 
BRANCH  11  12
ATOM     12  C   UNL     1     -13.012  -3.731 -10.633  1.00  0.00     0.041 C 
ATOM     13  O   UNL     1     -14.267  -3.762 -10.740  1.00  0.00    -0.550 OA
ATOM     14  O   UNL     1     -12.431  -3.622  -9.377  1.00  0.00    -0.550 OA
ENDBRANCH  11  12
ENDBRANCH  10  11
ENDBRANCH   9  10
ENDBRANCH   8   9
ENDBRANCH   7   8
ENDBRANCH   6   7
ENDBRANCH   5   6
ENDBRANCH   4   5
ENDBRANCH   3   4
ENDBRANCH   2   3
ENDBRANCH   1   2
BRANCH   1  15
ATOM     15  C   UNL     1     -16.778  -5.871 -22.486  1.00  0.00     0.000 C 
BRANCH  15  16
ATOM     16  C   UNL     1     -17.014  -6.987 -23.516  1.00  0.00     0.000 C 
BRANCH  16  17
ATOM     17  C   UNL     1     -16.751  -6.525 -24.958  1.00  0.00     0.000 C 
BRANCH  17  18
ATOM     18  C   UNL     1     -16.043  -7.597 -25.803  1.00  0.00    -0.000 C 
BRANCH  18  19
ATOM     19  C   UNL     1     -15.608  -8.819 -24.976  1.00  0.00    -0.000 C 
BRANCH  19  20
ATOM     20  C   UNL     1     -16.278 -10.137 -25.418  1.00  0.00    -0.000 C 
BRANCH  20  21
ATOM     21  C   UNL     1     -15.500 -11.374 -24.946  1.00  0.00    -0.000 C 
BRANCH  21  22
ATOM     22  C   UNL     1     -16.257 -12.665 -25.291  1.00  0.00    -0.000 C 
BRANCH  22  23
ATOM     23  C   UNL     1     -15.323 -13.872 -25.469  1.00  0.00    -0.000 C 
BRANCH  23  24
ATOM     24  C   UNL     1     -13.849 -13.524 -25.213  1.00  0.00    -0.000 C 
BRANCH  24  25
ATOM     25  C   UNL     1     -12.935 -14.695 -25.593  1.00  0.00    -0.003 C 
ATOM     26  C   UNL     1     -12.672 -14.727 -27.095  1.00  0.00     0.004 C 
ENDBRANCH  24  25
ENDBRANCH  23  24
ENDBRANCH  22  23
ENDBRANCH  21  22
ENDBRANCH  20  21
ENDBRANCH  19  20
ENDBRANCH  18  19
ENDBRANCH  17  18
ENDBRANCH  16  17
ENDBRANCH  15  16
ENDBRANCH   1  15
TORSDOF 22
ENDMDL
MODEL 2
REMARK VINA RESULT:    -1.801      1.083      1.978
REMARK INTER + INTRA:          -5.149
REMARK INTER:                  -4.210
REMARK INTRA:                  -0.939
REMARK UNBOUND:                -1.032
REMARK SMILES CCCCCCCCCCCCCCCCCCCCCCCC(=O)[O-]
REMARK SMILES IDX 13 1 14 2 15 3 16 4 17 5 18 6 19 7 20 8 21 9 22 10 23 11
REMARK SMILES IDX 24 12 25 13 26 14 12 15 11 16 10 17 9 18 8 19 7 20 6 21 5 22
REMARK SMILES IDX 4 23 3 24 2 25 1 26
REMARK H PARENT
REMARK Flexibility Score: inf
ROOT
ATOM      1  C   UNL     1     -15.222  -5.384 -20.459  1.00  0.00     0.000 C 
ENDROOT
BRANCH   1   2
ATOM      2  C   UNL     1     -14.181  -6.187 -19.662  1.00  0.00     0.000 C 
BRANCH   2   3
ATOM      3  C   UNL     1     -14.311  -5.979 -18.144  1.00  0.00     0.000 C 
BRANCH   3   4
ATOM      4  C   UNL     1     -13.728  -4.634 -17.682  1.00  0.00     0.000 C 
BRANCH   4   5
ATOM      5  C   UNL     1     -14.219  -4.223 -16.283  1.00  0.00     0.000 C 
BRANCH   5   6
ATOM      6  C   UNL     1     -13.725  -2.826 -15.866  1.00  0.00     0.000 C 
BRANCH   6   7
ATOM      7  C   UNL     1     -13.252  -2.712 -14.403  1.00  0.00     0.000 C 
BRANCH   7   8
ATOM      8  C   UNL     1     -13.520  -3.952 -13.532  1.00  0.00     0.000 C 
BRANCH   8   9
ATOM      9  C   UNL     1     -12.910  -3.837 -12.128  1.00  0.00     0.000 C 
BRANCH   9  10
ATOM     10  C   UNL     1     -14.005  -3.767 -11.057  1.00  0.00     0.006 C 
BRANCH  10  11
ATOM     11  C   UNL     1     -13.417  -3.959  -9.656  1.00  0.00     0.053 C 
BRANCH  11  12
ATOM     12  C   UNL     1     -13.373  -5.412  -9.301  1.00  0.00     0.041 C 
ATOM     13  O   UNL     1     -12.269  -5.979  -9.084  1.00  0.00    -0.550 OA
ATOM     14  O   UNL     1     -14.554  -6.129  -9.161  1.00  0.00    -0.550 OA
ENDBRANCH  11  12
ENDBRANCH  10  11
ENDBRANCH   9  10
ENDBRANCH   8   9
ENDBRANCH   7   8
ENDBRANCH   6   7
ENDBRANCH   5   6
ENDBRANCH   4   5
ENDBRANCH   3   4
ENDBRANCH   2   3
ENDBRANCH   1   2
BRANCH   1  15
ATOM     15  C   UNL     1     -16.450  -6.220 -20.848  1.00  0.00     0.000 C 
BRANCH  15  16
ATOM     16  C   UNL     1     -16.957  -5.830 -22.246  1.00  0.00     0.000 C 
BRANCH  16  17
ATOM     17  C   UNL     1     -16.845  -6.982 -23.257  1.00  0.00     0.000 C 
BRANCH  17  18
ATOM     18  C   UNL     1     -16.808  -6.489 -24.713  1.00  0.00    -0.000 C 
BRANCH  18  19
ATOM     19  C   UNL     1     -16.230  -7.535 -25.683  1.00  0.00    -0.000 C 
BRANCH  19  20
ATOM     20  C   UNL     1     -15.601  -8.754 -24.976  1.00  0.00    -0.000 C 
BRANCH  20  21
ATOM     21  C   UNL     1     -16.167 -10.085 -25.495  1.00  0.00    -0.000 C 
BRANCH  21  22
ATOM     22  C   UNL     1     -15.472 -11.278 -24.823  1.00  0.00    -0.000 C 
BRANCH  22  23
ATOM     23  C   UNL     1     -15.931 -12.630 -25.392  1.00  0.00    -0.000 C 
BRANCH  23  24
ATOM     24  C   UNL     1     -15.138 -13.814 -24.818  1.00  0.00    -0.000 C 
BRANCH  24  25
ATOM     25  C   UNL     1     -14.158 -14.371 -25.858  1.00  0.00    -0.003 C 
ATOM     26  C   UNL     1     -12.769 -13.764 -25.688  1.00  0.00     0.004 C 
ENDBRANCH  24  25
ENDBRANCH  23  24
ENDBRANCH  22  23
ENDBRANCH  21  22
ENDBRANCH  20  21
ENDBRANCH  19  20
ENDBRANCH  18  19
ENDBRANCH  17  18
ENDBRANCH  16  17
ENDBRANCH  15  16
ENDBRANCH   1  15
TORSDOF 22
ENDMDL
MODEL 3
REMARK VINA RESULT:    -1.416      5.280     13.613
REMARK INTER + INTRA:          -4.269
REMARK INTER:                  -3.372
REMARK INTRA:                  -0.897
REMARK UNBOUND:                -1.032
REMARK SMILES CCCCCCCCCCCCCCCCCCCCCCCC(=O)[O-]
REMARK SMILES IDX 13 1 14 2 15 3 16 4 17 5 18 6 19 7 20 8 21 9 22 10 23 11
REMARK SMILES IDX 24 12 25 13 26 14 12 15 11 16 10 17 9 18 8 19 7 20 6 21 5 22
REMARK SMILES IDX 4 23 3 24 2 25 1 26
REMARK H PARENT
REMARK Flexibility Score: inf
ROOT
ATOM      1  C   UNL     1     -16.154  -5.527 -20.148  1.00  0.00     0.000 C 
ENDROOT
BRANCH   1   2
ATOM      2  C   UNL     1     -16.831  -6.493 -21.133  1.00  0.00     0.000 C 
BRANCH   2   3
ATOM      3  C   UNL     1     -16.776  -5.990 -22.586  1.00  0.00     0.000 C 
BRANCH   3   4
ATOM      4  C   UNL     1     -17.015  -7.112 -23.607  1.00  0.00     0.000 C 
BRANCH   4   5
ATOM      5  C   UNL     1     -16.471  -6.769 -25.006  1.00  0.00     0.000 C 
BRANCH   5   6
ATOM      6  C   UNL     1     -16.094  -8.020 -25.820  1.00  0.00     0.000 C 
BRANCH   6   7
ATOM      7  C   UNL     1     -15.670  -9.241 -24.980  1.00  0.00     0.000 C 
BRANCH   7   8
ATOM      8  C   UNL     1     -16.139 -10.602 -25.523  1.00  0.00     0.000 C 
BRANCH   8   9
ATOM      9  C   UNL     1     -15.276 -11.771 -25.028  1.00  0.00     0.000 C 
BRANCH   9  10
ATOM     10  C   UNL     1     -15.907 -13.117 -25.402  1.00  0.00     0.006 C 
BRANCH  10  11
ATOM     11  C   UNL     1     -14.984 -14.280 -25.026  1.00  0.00     0.053 C 
BRANCH  11  12
ATOM     12  C   UNL     1     -13.776 -14.296 -25.908  1.00  0.00     0.041 C 
ATOM     13  O   UNL     1     -13.862 -14.710 -27.095  1.00  0.00    -0.550 OA
ATOM     14  O   UNL     1     -12.565 -13.806 -25.437  1.00  0.00    -0.550 OA
ENDBRANCH  11  12
ENDBRANCH  10  11
ENDBRANCH   9  10
ENDBRANCH   8   9
ENDBRANCH   7   8
ENDBRANCH   6   7
ENDBRANCH   5   6
ENDBRANCH   4   5
ENDBRANCH   3   4
ENDBRANCH   2   3
ENDBRANCH   1   2
BRANCH   1  15
ATOM     15  C   UNL     1     -14.636  -5.746 -20.048  1.00  0.00     0.000 C 
BRANCH  15  16
ATOM     16  C   UNL     1     -14.230  -6.111 -18.612  1.00  0.00     0.000 C 
BRANCH  16  17
ATOM     17  C   UNL     1     -13.492  -4.968 -17.898  1.00  0.00     0.000 C 
BRANCH  17  18
ATOM     18  C   UNL     1     -14.150  -4.580 -16.564  1.00  0.00    -0.000 C 
BRANCH  18  19
ATOM     19  C   UNL     1     -14.063  -3.072 -16.270  1.00  0.00    -0.000 C 
BRANCH  19  20
ATOM     20  C   UNL     1     -13.223  -2.732 -15.021  1.00  0.00    -0.000 C 
BRANCH  20  21
ATOM     21  C   UNL     1     -13.572  -3.625 -13.821  1.00  0.00    -0.000 C 
BRANCH  21  22
ATOM     22  C   UNL     1     -12.460  -3.585 -12.762  1.00  0.00    -0.000 C 
BRANCH  22  23
ATOM     23  C   UNL     1     -12.993  -3.778 -11.334  1.00  0.00    -0.000 C 
BRANCH  23  24
ATOM     24  C   UNL     1     -12.434  -2.742 -10.348  1.00  0.00    -0.000 C 
BRANCH  24  25
ATOM     25  C   UNL     1     -13.205  -2.777  -9.022  1.00  0.00    -0.003 C 
ATOM     26  C   UNL     1     -14.351  -3.782  -9.076  1.00  0.00     0.004 C 
ENDBRANCH  24  25
ENDBRANCH  23  24
ENDBRANCH  22  23
ENDBRANCH  21  22
ENDBRANCH  20  21
ENDBRANCH  19  20
ENDBRANCH  18  19
ENDBRANCH  17  18
ENDBRANCH  16  17
ENDBRANCH  15  16
ENDBRANCH   1  15
TORSDOF 22
ENDMDL
MODEL 4
REMARK VINA RESULT:    -1.337      5.266     13.148
REMARK INTER + INTRA:          -4.087
REMARK INTER:                  -3.007
REMARK INTRA:                  -1.080
REMARK UNBOUND:                -1.032
REMARK SMILES CCCCCCCCCCCCCCCCCCCCCCCC(=O)[O-]
REMARK SMILES IDX 13 1 14 2 15 3 16 4 17 5 18 6 19 7 20 8 21 9 22 10 23 11
REMARK SMILES IDX 24 12 25 13 26 14 12 15 11 16 10 17 9 18 8 19 7 20 6 21 5 22
REMARK SMILES IDX 4 23 3 24 2 25 1 26
REMARK H PARENT
REMARK Flexibility Score: inf
ROOT
ATOM      1  C   UNL     1     -16.249  -5.251 -21.013  1.00  0.00     0.000 C 
ENDROOT
BRANCH   1   2
ATOM      2  C   UNL     1     -17.212  -6.119 -21.838  1.00  0.00     0.000 C 
BRANCH   2   3
ATOM      3  C   UNL     1     -16.503  -6.866 -22.981  1.00  0.00     0.000 C 
BRANCH   3   4
ATOM      4  C   UNL     1     -16.992  -6.421 -24.368  1.00  0.00     0.000 C 
BRANCH   4   5
ATOM      5  C   UNL     1     -16.361  -7.236 -25.510  1.00  0.00     0.000 C 
BRANCH   5   6
ATOM      6  C   UNL     1     -15.662  -8.514 -25.012  1.00  0.00     0.000 C 
BRANCH   6   7
ATOM      7  C   UNL     1     -16.340  -9.834 -25.433  1.00  0.00     0.000 C 
BRANCH   7   8
ATOM      8  C   UNL     1     -15.575 -11.112 -25.047  1.00  0.00     0.000 C 
BRANCH   8   9
ATOM      9  C   UNL     1     -16.342 -12.395 -25.399  1.00  0.00     0.000 C 
BRANCH   9  10
ATOM     10  C   UNL     1     -15.411 -13.613 -25.386  1.00  0.00     0.006 C 
BRANCH  10  11
ATOM     11  C   UNL     1     -13.973 -13.201 -25.056  1.00  0.00     0.053 C 
BRANCH  11  12
ATOM     12  C   UNL     1     -12.999 -14.066 -25.791  1.00  0.00     0.041 C 
ATOM     13  O   UNL     1     -12.033 -14.595 -25.179  1.00  0.00    -0.550 OA
ATOM     14  O   UNL     1     -13.185 -14.330 -27.142  1.00  0.00    -0.550 OA
ENDBRANCH  11  12
ENDBRANCH  10  11
ENDBRANCH   9  10
ENDBRANCH   8   9
ENDBRANCH   7   8
ENDBRANCH   6   7
ENDBRANCH   5   6
ENDBRANCH   4   5
ENDBRANCH   3   4
ENDBRANCH   2   3
ENDBRANCH   1   2
BRANCH   1  15
ATOM     15  C   UNL     1     -15.586  -6.025 -19.863  1.00  0.00     0.000 C 
BRANCH  15  16
ATOM     16  C   UNL     1     -14.061  -6.073 -20.043  1.00  0.00     0.000 C 
BRANCH  16  17
ATOM     17  C   UNL     1     -13.307  -6.042 -18.705  1.00  0.00     0.000 C 
BRANCH  17  18
ATOM     18  C   UNL     1     -14.147  -5.443 -17.565  1.00  0.00    -0.000 C 
BRANCH  18  19
ATOM     19  C   UNL     1     -13.856  -3.951 -17.329  1.00  0.00    -0.000 C 
BRANCH  19  20
ATOM     20  C   UNL     1     -13.960  -3.526 -15.850  1.00  0.00    -0.000 C 
BRANCH  20  21
ATOM     21  C   UNL     1     -13.005  -2.372 -15.505  1.00  0.00    -0.000 C 
BRANCH  21  22
ATOM     22  C   UNL     1     -12.668  -2.365 -14.007  1.00  0.00    -0.000 C 
BRANCH  22  23
ATOM     23  C   UNL     1     -13.272  -3.562 -13.256  1.00  0.00    -0.000 C 
BRANCH  23  24
ATOM     24  C   UNL     1     -12.572  -3.836 -11.917  1.00  0.00    -0.000 C 
BRANCH  24  25
ATOM     25  C   UNL     1     -13.589  -3.917 -10.773  1.00  0.00    -0.003 C 
ATOM     26  C   UNL     1     -13.030  -4.700  -9.590  1.00  0.00     0.004 C 
ENDBRANCH  24  25
ENDBRANCH  23  24
ENDBRANCH  22  23
ENDBRANCH  21  22
ENDBRANCH  20  21
ENDBRANCH  19  20
ENDBRANCH  18  19
ENDBRANCH  17  18
ENDBRANCH  16  17
ENDBRANCH  15  16
ENDBRANCH   1  15
TORSDOF 22
ENDMDL
MODEL 5
REMARK VINA RESULT:    -0.473      1.421      3.417
REMARK INTER + INTRA:          -2.113
REMARK INTER:                  -0.997
REMARK INTRA:                  -1.116
REMARK UNBOUND:                -1.032
REMARK SMILES CCCCCCCCCCCCCCCCCCCCCCCC(=O)[O-]
REMARK SMILES IDX 13 1 14 2 15 3 16 4 17 5 18 6 19 7 20 8 21 9 22 10 23 11
REMARK SMILES IDX 24 12 25 13 26 14 12 15 11 16 10 17 9 18 8 19 7 20 6 21 5 22
REMARK SMILES IDX 4 23 3 24 2 25 1 26
REMARK H PARENT
REMARK Flexibility Score: inf
ROOT
ATOM      1  C   UNL     1     -13.803  -5.836 -19.311  1.00  0.00     0.000 C 
ENDROOT
BRANCH   1   2
ATOM      2  C   UNL     1     -13.814  -5.580 -17.795  1.00  0.00     0.000 C 
BRANCH   2   3
ATOM      3  C   UNL     1     -13.764  -4.081 -17.450  1.00  0.00     0.000 C 
BRANCH   3   4
ATOM      4  C   UNL     1     -14.085  -3.807 -15.972  1.00  0.00     0.000 C 
BRANCH   4   5
ATOM      5  C   UNL     1     -13.552  -2.446 -15.491  1.00  0.00     0.000 C 
BRANCH   5   6
ATOM      6  C   UNL     1     -12.884  -2.525 -14.106  1.00  0.00     0.000 C 
BRANCH   6   7
ATOM      7  C   UNL     1     -13.106  -3.851 -13.351  1.00  0.00     0.000 C 
BRANCH   7   8
ATOM      8  C   UNL     1     -14.238  -3.828 -12.310  1.00  0.00     0.000 C 
BRANCH   8   9
ATOM      9  C   UNL     1     -13.757  -3.407 -10.914  1.00  0.00     0.000 C 
BRANCH   9  10
ATOM     10  C   UNL     1     -12.480  -4.160 -10.523  1.00  0.00     0.006 C 
BRANCH  10  11
ATOM     11  C   UNL     1     -12.556  -4.654  -9.075  1.00  0.00     0.053 C 
BRANCH  11  12
ATOM     12  C   UNL     1     -13.162  -6.021  -9.019  1.00  0.00     0.041 C 
ATOM     13  O   UNL     1     -12.427  -7.035  -8.876  1.00  0.00    -0.550 OA
ATOM     14  O   UNL     1     -14.541  -6.173  -9.072  1.00  0.00    -0.550 OA
ENDBRANCH  11  12
ENDBRANCH  10  11
ENDBRANCH   9  10
ENDBRANCH   8   9
ENDBRANCH   7   8
ENDBRANCH   6   7
ENDBRANCH   5   6
ENDBRANCH   4   5
ENDBRANCH   3   4
ENDBRANCH   2   3
ENDBRANCH   1   2
BRANCH   1  15
ATOM     15  C   UNL     1     -15.075  -6.542 -19.805  1.00  0.00     0.000 C 
BRANCH  15  16
ATOM     16  C   UNL     1     -16.234  -5.543 -19.950  1.00  0.00     0.000 C 
BRANCH  16  17
ATOM     17  C   UNL     1     -17.075  -5.792 -21.211  1.00  0.00     0.000 C 
BRANCH  17  18
ATOM     18  C   UNL     1     -16.214  -6.123 -22.441  1.00  0.00    -0.000 C 
BRANCH  18  19
ATOM     19  C   UNL     1     -16.954  -6.993 -23.472  1.00  0.00    -0.000 C 
BRANCH  19  20
ATOM     20  C   UNL     1     -16.720  -6.556 -24.933  1.00  0.00    -0.000 C 
BRANCH  20  21
ATOM     21  C   UNL     1     -15.882  -7.575 -25.720  1.00  0.00    -0.000 C 
BRANCH  21  22
ATOM     22  C   UNL     1     -16.540  -8.963 -25.697  1.00  0.00    -0.000 C 
BRANCH  22  23
ATOM     23  C   UNL     1     -15.604 -10.055 -25.156  1.00  0.00    -0.000 C 
BRANCH  23  24
ATOM     24  C   UNL     1     -16.180 -11.469 -25.327  1.00  0.00    -0.000 C 
BRANCH  24  25
ATOM     25  C   UNL     1     -15.132 -12.533 -24.979  1.00  0.00    -0.003 C 
ATOM     26  C   UNL     1     -15.649 -13.936 -25.280  1.00  0.00     0.004 C 
ENDBRANCH  24  25
ENDBRANCH  23  24
ENDBRANCH  22  23
ENDBRANCH  21  22
ENDBRANCH  20  21
ENDBRANCH  19  20
ENDBRANCH  18  19
ENDBRANCH  17  18
ENDBRANCH  16  17
ENDBRANCH  15  16
ENDBRANCH   1  15
TORSDOF 22
ENDMDL
MODEL 6
REMARK VINA RESULT:    -0.401      5.151     13.117
REMARK INTER + INTRA:          -1.950
REMARK INTER:                  -0.853
REMARK INTRA:                  -1.097
REMARK UNBOUND:                -1.032
REMARK SMILES CCCCCCCCCCCCCCCCCCCCCCCC(=O)[O-]
REMARK SMILES IDX 13 1 14 2 15 3 16 4 17 5 18 6 19 7 20 8 21 9 22 10 23 11
REMARK SMILES IDX 24 12 25 13 26 14 12 15 11 16 10 17 9 18 8 19 7 20 6 21 5 22
REMARK SMILES IDX 4 23 3 24 2 25 1 26
REMARK H PARENT
REMARK Flexibility Score: inf
ROOT
ATOM      1  C   UNL     1     -13.385  -5.433 -18.868  1.00  0.00     0.000 C 
ENDROOT
BRANCH   1   2
ATOM      2  C   UNL     1     -14.107  -5.938 -20.127  1.00  0.00     0.000 C 
BRANCH   2   3
ATOM      3  C   UNL     1     -15.513  -5.332 -20.285  1.00  0.00     0.000 C 
BRANCH   3   4
ATOM      4  C   UNL     1     -16.596  -6.402 -20.489  1.00  0.00     0.000 C 
BRANCH   4   5
ATOM      5  C   UNL     1     -17.490  -6.118 -21.708  1.00  0.00     0.000 C 
BRANCH   5   6
ATOM      6  C   UNL     1     -16.705  -6.107 -23.032  1.00  0.00     0.000 C 
BRANCH   6   7
ATOM      7  C   UNL     1     -16.890  -7.362 -23.909  1.00  0.00     0.000 C 
BRANCH   7   8
ATOM      8  C   UNL     1     -16.312  -7.255 -25.331  1.00  0.00     0.000 C 
BRANCH   8   9
ATOM      9  C   UNL     1     -15.533  -8.509 -25.754  1.00  0.00     0.000 C 
BRANCH   9  10
ATOM     10  C   UNL     1     -16.287  -9.783 -25.358  1.00  0.00     0.006 C 
BRANCH  10  11
ATOM     11  C   UNL     1     -15.324 -10.848 -24.824  1.00  0.00     0.053 C 
BRANCH  11  12
ATOM     12  C   UNL     1     -15.784 -12.216 -25.217  1.00  0.00     0.041 C 
ATOM     13  O   UNL     1     -15.041 -13.215 -25.025  1.00  0.00    -0.550 OA
ATOM     14  O   UNL     1     -17.054 -12.395 -25.750  1.00  0.00    -0.550 OA
ENDBRANCH  11  12
ENDBRANCH  10  11
ENDBRANCH   9  10
ENDBRANCH   8   9
ENDBRANCH   7   8
ENDBRANCH   6   7
ENDBRANCH   5   6
ENDBRANCH   4   5
ENDBRANCH   3   4
ENDBRANCH   2   3
ENDBRANCH   1   2
BRANCH   1  15
ATOM     15  C   UNL     1     -14.161  -5.732 -17.576  1.00  0.00     0.000 C 
BRANCH  15  16
ATOM     16  C   UNL     1     -13.742  -4.772 -16.451  1.00  0.00     0.000 C 
BRANCH  16  17
ATOM     17  C   UNL     1     -14.092  -3.309 -16.763  1.00  0.00     0.000 C 
BRANCH  17  18
ATOM     18  C   UNL     1     -12.986  -2.332 -16.332  1.00  0.00    -0.000 C 
BRANCH  18  19
ATOM     19  C   UNL     1     -12.748  -2.331 -14.812  1.00  0.00    -0.000 C 
BRANCH  19  20
ATOM     20  C   UNL     1     -13.947  -2.859 -13.997  1.00  0.00    -0.000 C 
BRANCH  20  21
ATOM     21  C   UNL     1     -13.519  -3.845 -12.900  1.00  0.00    -0.000 C 
BRANCH  21  22
ATOM     22  C   UNL     1     -12.199  -3.407 -12.249  1.00  0.00    -0.000 C 
BRANCH  22  23
ATOM     23  C   UNL     1     -12.244  -3.469 -10.715  1.00  0.00    -0.000 C 
BRANCH  23  24
ATOM     24  C   UNL     1     -13.631  -3.855 -10.178  1.00  0.00    -0.000 C 
BRANCH  24  25
ATOM     25  C   UNL     1     -13.509  -4.736  -8.928  1.00  0.00    -0.003 C 
ATOM     26  C   UNL     1     -14.306  -6.027  -9.082  1.00  0.00     0.004 C 
ENDBRANCH  24  25
ENDBRANCH  23  24
ENDBRANCH  22  23
ENDBRANCH  21  22
ENDBRANCH  20  21
ENDBRANCH  19  20
ENDBRANCH  18  19
ENDBRANCH  17  18
ENDBRANCH  16  17
ENDBRANCH  15  16
ENDBRANCH   1  15
TORSDOF 22
ENDMDL
MODEL 7
REMARK VINA RESULT:     0.604      5.355     12.830
REMARK INTER + INTRA:           0.348
REMARK INTER:                   1.264
REMARK INTRA:                  -0.916
REMARK UNBOUND:                -1.032
REMARK SMILES CCCCCCCCCCCCCCCCCCCCCCCC(=O)[O-]
REMARK SMILES IDX 13 1 14 2 15 3 16 4 17 5 18 6 19 7 20 8 21 9 22 10 23 11
REMARK SMILES IDX 24 12 25 13 26 14 12 15 11 16 10 17 9 18 8 19 7 20 6 21 5 22
REMARK SMILES IDX 4 23 3 24 2 25 1 26
REMARK H PARENT
REMARK Flexibility Score: inf
ROOT
ATOM      1  C   UNL     1     -16.156  -5.110 -21.925  1.00  0.00     0.000 C 
ENDROOT
BRANCH   1   2
ATOM      2  C   UNL     1     -17.334  -5.778 -22.651  1.00  0.00     0.000 C 
BRANCH   2   3
ATOM      3  C   UNL     1     -16.897  -6.987 -23.497  1.00  0.00     0.000 C 
BRANCH   3   4
ATOM      4  C   UNL     1     -16.459  -6.585 -24.914  1.00  0.00     0.000 C 
BRANCH   4   5
ATOM      5  C   UNL     1     -16.115  -7.798 -25.796  1.00  0.00     0.000 C 
BRANCH   5   6
ATOM      6  C   UNL     1     -15.713  -9.036 -24.974  1.00  0.00     0.000 C 
BRANCH   6   7
ATOM      7  C   UNL     1     -16.365 -10.358 -25.426  1.00  0.00     0.000 C 
BRANCH   7   8
ATOM      8  C   UNL     1     -15.556 -11.627 -25.105  1.00  0.00     0.000 C 
BRANCH   8   9
ATOM      9  C   UNL     1     -16.336 -12.919 -25.390  1.00  0.00     0.000 C 
BRANCH   9  10
ATOM     10  C   UNL     1     -15.384 -14.110 -25.556  1.00  0.00     0.006 C 
BRANCH  10  11
ATOM     11  C   UNL     1     -14.026 -13.822 -24.908  1.00  0.00     0.053 C 
BRANCH  11  12
ATOM     12  C   UNL     1     -12.915 -14.146 -25.855  1.00  0.00     0.041 C 
ATOM     13  O   UNL     1     -11.878 -14.731 -25.440  1.00  0.00    -0.550 OA
ATOM     14  O   UNL     1     -13.043 -13.849 -27.205  1.00  0.00    -0.550 OA
ENDBRANCH  11  12
ENDBRANCH  10  11
ENDBRANCH   9  10
ENDBRANCH   8   9
ENDBRANCH   7   8
ENDBRANCH   6   7
ENDBRANCH   5   6
ENDBRANCH   4   5
ENDBRANCH   3   4
ENDBRANCH   2   3
ENDBRANCH   1   2
BRANCH   1  15
ATOM     15  C   UNL     1     -16.198  -5.319 -20.403  1.00  0.00     0.000 C 
BRANCH  15  16
ATOM     16  C   UNL     1     -15.458  -6.606 -20.008  1.00  0.00     0.000 C 
BRANCH  16  17
ATOM     17  C   UNL     1     -14.057  -6.332 -19.438  1.00  0.00     0.000 C 
BRANCH  17  18
ATOM     18  C   UNL     1     -14.041  -5.153 -18.450  1.00  0.00    -0.000 C 
BRANCH  18  19
ATOM     19  C   UNL     1     -13.868  -5.601 -16.989  1.00  0.00    -0.000 C 
BRANCH  19  20
ATOM     20  C   UNL     1     -14.287  -4.531 -15.959  1.00  0.00    -0.000 C 
BRANCH  20  21
ATOM     21  C   UNL     1     -14.005  -4.969 -14.514  1.00  0.00    -0.000 C 
BRANCH  21  22
ATOM     22  C   UNL     1     -14.214  -3.804 -13.535  1.00  0.00    -0.000 C 
BRANCH  22  23
ATOM     23  C   UNL     1     -12.901  -3.099 -13.161  1.00  0.00    -0.000 C 
BRANCH  23  24
ATOM     24  C   UNL     1     -12.199  -2.471 -14.375  1.00  0.00    -0.000 C 
BRANCH  24  25
ATOM     25  C   UNL     1     -13.086  -1.405 -15.029  1.00  0.00    -0.003 C 
ATOM     26  C   UNL     1     -13.184  -1.617 -16.537  1.00  0.00     0.004 C 
ENDBRANCH  24  25
ENDBRANCH  23  24
ENDBRANCH  22  23
ENDBRANCH  21  22
ENDBRANCH  20  21
ENDBRANCH  19  20
ENDBRANCH  18  19
ENDBRANCH  17  18
ENDBRANCH  16  17
ENDBRANCH  15  16
ENDBRANCH   1  15
TORSDOF 22
ENDMDL
