MODEL 1
REMARK VINA RESULT:    -7.023      0.000      0.000
REMARK INTER + INTRA:          -8.674
REMARK INTER:                  -8.460
REMARK INTRA:                  -0.213
REMARK UNBOUND:                -0.213
REMARK SMILES O=c1c(O)c(-c2ccc(O)c(O)c2)oc2cc(O)cc(O)c12
REMARK SMILES IDX 5 1 3 2 2 3 1 4 22 5 20 6 19 7 17 8 16 9 15 10 14 11 6 12
REMARK SMILES IDX 7 13 8 14 9 15 13 16 11 17 10 18 12 20 4 22 21 24 18 26
REMARK H PARENT 10 19 12 21 4 23 21 25 18 27
REMARK Flexibility Score: inf
ROOT
ATOM      1  C   UNL     1      54.820   6.023  78.478  1.00  0.00     0.180 A 
ATOM      2  C   UNL     1      56.034   5.481  78.943  1.00  0.00     0.208 A 
ATOM      3  C   UNL     1      57.231   6.156  78.659  1.00  0.00     0.238 A 
ATOM      4  O   UNL     1      58.325   5.674  79.061  1.00  0.00    -0.285 OA
ATOM      5  C   UNL     1      57.195   7.365  77.936  1.00  0.00     0.111 A 
ATOM      6  C   UNL     1      58.355   8.110  77.612  1.00  0.00     0.134 A 
ATOM      7  C   UNL     1      58.234   9.310  76.896  1.00  0.00     0.093 A 
ATOM      8  C   UNL     1      56.977   9.780  76.500  1.00  0.00     0.123 A 
ATOM      9  C   UNL     1      55.831   9.051  76.818  1.00  0.00     0.094 A 
ATOM     10  C   UNL     1      55.930   7.850  77.528  1.00  0.00     0.146 A 
ATOM     11  O   UNL     1      54.823   7.174  77.812  1.00  0.00    -0.452 OA
ENDROOT
BRANCH   1  12
ATOM     12  C   UNL     1      53.519   5.361  78.721  1.00  0.00     0.025 A 
ATOM     13  C   UNL     1      52.964   5.286  80.010  1.00  0.00     0.016 A 
ATOM     14  C   UNL     1      51.745   4.636  80.219  1.00  0.00     0.051 A 
ATOM     15  C   UNL     1      51.071   4.038  79.146  1.00  0.00     0.157 A 
ATOM     16  C   UNL     1      52.849   4.741  77.653  1.00  0.00     0.062 A 
ATOM     17  C   UNL     1      51.628   4.089  77.858  1.00  0.00     0.158 A 
BRANCH  15  18
ATOM     18  O   UNL     1      49.853   3.390  79.357  1.00  0.00    -0.504 OA
ATOM     19  H   UNL     1      49.739   2.402  79.165  1.00  0.00     0.293 HD
ENDBRANCH  15  18
BRANCH  17  20
ATOM     20  O   UNL     1      50.985   3.496  76.770  1.00  0.00    -0.504 OA
ATOM     21  H   UNL     1      49.997   3.277  76.784  1.00  0.00     0.293 HD
ENDBRANCH  17  20
ENDBRANCH   1  12
BRANCH   2  22
ATOM     22  O   UNL     1      56.038   4.306  79.700  1.00  0.00    -0.502 OA
ATOM     23  H   UNL     1      56.026   3.387  79.274  1.00  0.00     0.293 HD
ENDBRANCH   2  22
BRANCH   6  24
ATOM     24  O   UNL     1      59.622   7.666  77.993  1.00  0.00    -0.507 OA
ATOM     25  H   UNL     1      60.398   7.643  77.341  1.00  0.00     0.293 HD
ENDBRANCH   6  24
BRANCH   8  26
ATOM     26  O   UNL     1      56.856  10.974  75.792  1.00  0.00    -0.508 OA
ATOM     27  H   UNL     1      55.953  11.406  75.631  1.00  0.00     0.293 HD
ENDBRANCH   8  26
TORSDOF 6
ENDMDL
MODEL 2
REMARK VINA RESULT:    -6.906      1.190      3.003
REMARK INTER + INTRA:          -8.532
REMARK INTER:                  -8.259
REMARK INTRA:                  -0.273
REMARK UNBOUND:                -0.213
REMARK SMILES O=c1c(O)c(-c2ccc(O)c(O)c2)oc2cc(O)cc(O)c12
REMARK SMILES IDX 5 1 3 2 2 3 1 4 22 5 20 6 19 7 17 8 16 9 15 10 14 11 6 12
REMARK SMILES IDX 7 13 8 14 9 15 13 16 11 17 10 18 12 20 4 22 21 24 18 26
REMARK H PARENT 10 19 12 21 4 23 21 25 18 27
REMARK Flexibility Score: inf
ROOT
ATOM      1  C   UNL     1      53.922   6.955  77.668  1.00  0.00     0.180 A 
ATOM      2  C   UNL     1      53.627   8.080  76.874  1.00  0.00     0.208 A 
ATOM      3  C   UNL     1      54.670   8.947  76.511  1.00  0.00     0.238 A 
ATOM      4  O   UNL     1      54.415   9.963  75.810  1.00  0.00    -0.285 OA
ATOM      5  C   UNL     1      55.987   8.665  76.927  1.00  0.00     0.111 A 
ATOM      6  C   UNL     1      57.095   9.485  76.601  1.00  0.00     0.134 A 
ATOM      7  C   UNL     1      58.377   9.131  77.047  1.00  0.00     0.093 A 
ATOM      8  C   UNL     1      58.572   7.975  77.810  1.00  0.00     0.123 A 
ATOM      9  C   UNL     1      57.484   7.164  78.134  1.00  0.00     0.094 A 
ATOM     10  C   UNL     1      56.197   7.501  77.702  1.00  0.00     0.146 A 
ATOM     11  O   UNL     1      55.178   6.713  78.029  1.00  0.00    -0.452 OA
ENDROOT
BRANCH   1  12
ATOM     12  C   UNL     1      52.875   6.006  78.108  1.00  0.00     0.025 A 
ATOM     13  C   UNL     1      52.403   5.997  79.432  1.00  0.00     0.016 A 
ATOM     14  C   UNL     1      51.431   5.076  79.830  1.00  0.00     0.051 A 
ATOM     15  C   UNL     1      50.926   4.143  78.916  1.00  0.00     0.157 A 
ATOM     16  C   UNL     1      52.380   5.053  77.201  1.00  0.00     0.062 A 
ATOM     17  C   UNL     1      51.406   4.130  77.596  1.00  0.00     0.158 A 
BRANCH  15  18
ATOM     18  O   UNL     1      49.954   3.225  79.315  1.00  0.00    -0.504 OA
ATOM     19  H   UNL     1      50.168   2.242  79.428  1.00  0.00     0.293 HD
ENDBRANCH  15  18
BRANCH  17  20
ATOM     20  O   UNL     1      50.929   3.208  76.664  1.00  0.00    -0.504 OA
ATOM     21  H   UNL     1      51.515   2.837  75.926  1.00  0.00     0.293 HD
ENDBRANCH  17  20
ENDBRANCH   1  12
BRANCH   2  22
ATOM     22  O   UNL     1      52.321   8.310  76.434  1.00  0.00    -0.502 OA
ATOM     23  H   UNL     1      51.732   7.569  76.073  1.00  0.00     0.293 HD
ENDBRANCH   2  22
BRANCH   6  24
ATOM     24  O   UNL     1      56.931  10.644  75.841  1.00  0.00    -0.507 OA
ATOM     25  H   UNL     1      56.651  11.522  76.261  1.00  0.00     0.293 HD
ENDBRANCH   6  24
BRANCH   8  26
ATOM     26  O   UNL     1      59.846   7.623  78.251  1.00  0.00    -0.508 OA
ATOM     27  H   UNL     1      60.650   8.216  78.079  1.00  0.00     0.293 HD
ENDBRANCH   8  26
TORSDOF 6
ENDMDL
MODEL 3
REMARK VINA RESULT:    -6.750      1.021      1.650
REMARK INTER + INTRA:          -8.344
REMARK INTER:                  -8.069
REMARK INTRA:                  -0.275
REMARK UNBOUND:                -0.213
REMARK SMILES O=c1c(O)c(-c2ccc(O)c(O)c2)oc2cc(O)cc(O)c12
REMARK SMILES IDX 5 1 3 2 2 3 1 4 22 5 20 6 19 7 17 8 16 9 15 10 14 11 6 12
REMARK SMILES IDX 7 13 8 14 9 15 13 16 11 17 10 18 12 20 4 22 21 24 18 26
REMARK H PARENT 10 19 12 21 4 23 21 25 18 27
REMARK Flexibility Score: inf
ROOT
ATOM      1  C   UNL     1      54.404   5.311  78.457  1.00  0.00     0.180 A 
ATOM      2  C   UNL     1      55.491   4.757  79.159  1.00  0.00     0.208 A 
ATOM      3  C   UNL     1      56.736   5.402  79.103  1.00  0.00     0.238 A 
ATOM      4  O   UNL     1      57.719   4.909  79.719  1.00  0.00    -0.285 OA
ATOM      5  C   UNL     1      56.868   6.596  78.365  1.00  0.00     0.111 A 
ATOM      6  C   UNL     1      58.086   7.311  78.260  1.00  0.00     0.134 A 
ATOM      7  C   UNL     1      58.134   8.498  77.513  1.00  0.00     0.093 A 
ATOM      8  C   UNL     1      56.990   8.983  76.871  1.00  0.00     0.123 A 
ATOM      9  C   UNL     1      55.787   8.282  76.972  1.00  0.00     0.094 A 
ATOM     10  C   UNL     1      55.718   7.096  77.709  1.00  0.00     0.146 A 
ATOM     11  O   UNL     1      54.562   6.446  77.784  1.00  0.00    -0.452 OA
ENDROOT
BRANCH   1  12
ATOM     12  C   UNL     1      53.065   4.678  78.453  1.00  0.00     0.025 A 
ATOM     13  C   UNL     1      52.591   3.974  77.332  1.00  0.00     0.016 A 
ATOM     14  C   UNL     1      51.315   3.405  77.342  1.00  0.00     0.051 A 
ATOM     15  C   UNL     1      50.489   3.544  78.465  1.00  0.00     0.157 A 
ATOM     16  C   UNL     1      52.224   4.833  79.568  1.00  0.00     0.062 A 
ATOM     17  C   UNL     1      50.945   4.264  79.581  1.00  0.00     0.158 A 
BRANCH  15  18
ATOM     18  O   UNL     1      49.216   2.974  78.473  1.00  0.00    -0.504 OA
ATOM     19  H   UNL     1      49.038   2.081  78.915  1.00  0.00     0.293 HD
ENDBRANCH  15  18
BRANCH  17  20
ATOM     20  O   UNL     1      50.144   4.427  80.712  1.00  0.00    -0.504 OA
ATOM     21  H   UNL     1      50.534   4.641  81.621  1.00  0.00     0.293 HD
ENDBRANCH  17  20
ENDBRANCH   1  12
BRANCH   2  22
ATOM     22  O   UNL     1      55.321   3.599  79.923  1.00  0.00    -0.502 OA
ATOM     23  H   UNL     1      56.001   2.848  79.928  1.00  0.00     0.293 HD
ENDBRANCH   2  22
BRANCH   6  24
ATOM     24  O   UNL     1      59.244   6.853  78.889  1.00  0.00    -0.507 OA
ATOM     25  H   UNL     1      59.526   5.880  78.846  1.00  0.00     0.293 HD
ENDBRANCH   6  24
BRANCH   8  26
ATOM     26  O   UNL     1      57.036  10.162  76.131  1.00  0.00    -0.508 OA
ATOM     27  H   UNL     1      57.907  10.661  75.983  1.00  0.00     0.293 HD
ENDBRANCH   8  26
TORSDOF 6
ENDMDL
MODEL 4
REMARK VINA RESULT:    -6.639      1.631      7.033
REMARK INTER + INTRA:          -8.211
REMARK INTER:                  -7.982
REMARK INTRA:                  -0.228
REMARK UNBOUND:                -0.213
REMARK SMILES O=c1c(O)c(-c2ccc(O)c(O)c2)oc2cc(O)cc(O)c12
REMARK SMILES IDX 5 1 3 2 2 3 1 4 22 5 20 6 19 7 17 8 16 9 15 10 14 11 6 12
REMARK SMILES IDX 7 13 8 14 9 15 13 16 11 17 10 18 12 20 4 22 21 24 18 26
REMARK H PARENT 10 19 12 21 4 23 21 25 18 27
REMARK Flexibility Score: inf
ROOT
ATOM      1  C   UNL     1      54.528   5.381  79.280  1.00  0.00     0.180 A 
ATOM      2  C   UNL     1      53.958   5.469  80.565  1.00  0.00     0.208 A 
ATOM      3  C   UNL     1      52.673   4.945  80.774  1.00  0.00     0.238 A 
ATOM      4  O   UNL     1      52.148   5.027  81.917  1.00  0.00    -0.285 OA
ATOM      5  C   UNL     1      51.990   4.327  79.707  1.00  0.00     0.111 A 
ATOM      6  C   UNL     1      50.694   3.771  79.835  1.00  0.00     0.134 A 
ATOM      7  C   UNL     1      50.085   3.165  78.726  1.00  0.00     0.093 A 
ATOM      8  C   UNL     1      50.746   3.104  77.494  1.00  0.00     0.123 A 
ATOM      9  C   UNL     1      52.023   3.651  77.363  1.00  0.00     0.094 A 
ATOM     10  C   UNL     1      52.647   4.262  78.455  1.00  0.00     0.146 A 
ATOM     11  O   UNL     1      53.861   4.779  78.301  1.00  0.00    -0.452 OA
ENDROOT
BRANCH   1  12
ATOM     12  C   UNL     1      55.870   5.927  78.976  1.00  0.00     0.025 A 
ATOM     13  C   UNL     1      57.037   5.324  79.476  1.00  0.00     0.016 A 
ATOM     14  C   UNL     1      58.292   5.870  79.195  1.00  0.00     0.051 A 
ATOM     15  C   UNL     1      58.399   7.035  78.424  1.00  0.00     0.157 A 
ATOM     16  C   UNL     1      55.982   7.107  78.221  1.00  0.00     0.062 A 
ATOM     17  C   UNL     1      57.237   7.657  77.938  1.00  0.00     0.158 A 
BRANCH  15  18
ATOM     18  O   UNL     1      59.653   7.578  78.144  1.00  0.00    -0.504 OA
ATOM     19  H   UNL     1      60.336   7.738  78.875  1.00  0.00     0.293 HD
ENDBRANCH  15  18
BRANCH  17  20
ATOM     20  O   UNL     1      57.309   8.822  77.174  1.00  0.00    -0.504 OA
ATOM     21  H   UNL     1      56.567   9.511  77.172  1.00  0.00     0.293 HD
ENDBRANCH  17  20
ENDBRANCH   1  12
BRANCH   2  22
ATOM     22  O   UNL     1      54.676   6.043  81.618  1.00  0.00    -0.502 OA
ATOM     23  H   UNL     1      54.551   5.753  82.581  1.00  0.00     0.293 HD
ENDBRANCH   2  22
BRANCH   6  24
ATOM     24  O   UNL     1      50.010   3.816  81.050  1.00  0.00    -0.507 OA
ATOM     25  H   UNL     1      50.100   3.080  81.740  1.00  0.00     0.293 HD
ENDBRANCH   6  24
BRANCH   8  26
ATOM     26  O   UNL     1      50.143   2.500  76.393  1.00  0.00    -0.508 OA
ATOM     27  H   UNL     1      49.330   2.908  75.944  1.00  0.00     0.293 HD
ENDBRANCH   8  26
TORSDOF 6
ENDMDL
MODEL 5
REMARK VINA RESULT:    -6.193      2.512      3.716
REMARK INTER + INTRA:          -7.674
REMARK INTER:                  -7.364
REMARK INTRA:                  -0.310
REMARK UNBOUND:                -0.213
REMARK SMILES O=c1c(O)c(-c2ccc(O)c(O)c2)oc2cc(O)cc(O)c12
REMARK SMILES IDX 5 1 3 2 2 3 1 4 22 5 20 6 19 7 17 8 16 9 15 10 14 11 6 12
REMARK SMILES IDX 7 13 8 14 9 15 13 16 11 17 10 18 12 20 4 22 21 24 18 26
REMARK H PARENT 10 19 12 21 4 23 21 25 18 27
REMARK Flexibility Score: inf
ROOT
ATOM      1  C   UNL     1      55.908   5.816  78.935  1.00  0.00     0.180 A 
ATOM      2  C   UNL     1      56.702   6.503  77.996  1.00  0.00     0.208 A 
ATOM      3  C   UNL     1      57.751   7.314  78.457  1.00  0.00     0.238 A 
ATOM      4  O   UNL     1      58.461   7.942  77.626  1.00  0.00    -0.285 OA
ATOM      5  C   UNL     1      58.001   7.409  79.841  1.00  0.00     0.111 A 
ATOM      6  C   UNL     1      59.040   8.200  80.388  1.00  0.00     0.134 A 
ATOM      7  C   UNL     1      59.230   8.235  81.777  1.00  0.00     0.093 A 
ATOM      8  C   UNL     1      58.403   7.495  82.629  1.00  0.00     0.123 A 
ATOM      9  C   UNL     1      57.378   6.713  82.094  1.00  0.00     0.094 A 
ATOM     10  C   UNL     1      57.170   6.666  80.712  1.00  0.00     0.146 A 
ATOM     11  O   UNL     1      56.183   5.918  80.231  1.00  0.00    -0.452 OA
ENDROOT
BRANCH   1  12
ATOM     12  C   UNL     1      54.773   4.958  78.528  1.00  0.00     0.025 A 
ATOM     13  C   UNL     1      53.449   5.429  78.562  1.00  0.00     0.016 A 
ATOM     14  C   UNL     1      52.391   4.593  78.195  1.00  0.00     0.051 A 
ATOM     15  C   UNL     1      52.639   3.272  77.803  1.00  0.00     0.157 A 
ATOM     16  C   UNL     1      55.013   3.625  78.155  1.00  0.00     0.062 A 
ATOM     17  C   UNL     1      53.956   2.785  77.786  1.00  0.00     0.158 A 
BRANCH  15  18
ATOM     18  O   UNL     1      51.581   2.439  77.437  1.00  0.00    -0.504 OA
ATOM     19  H   UNL     1      50.757   2.343  78.018  1.00  0.00     0.293 HD
ENDBRANCH  15  18
BRANCH  17  20
ATOM     20  O   UNL     1      54.235   1.471  77.409  1.00  0.00    -0.504 OA
ATOM     21  H   UNL     1      53.530   0.745  77.429  1.00  0.00     0.293 HD
ENDBRANCH  17  20
ENDBRANCH   1  12
BRANCH   2  22
ATOM     22  O   UNL     1      56.464   6.353  76.627  1.00  0.00    -0.502 OA
ATOM     23  H   UNL     1      55.935   7.031  76.091  1.00  0.00     0.293 HD
ENDBRANCH   2  22
BRANCH   6  24
ATOM     24  O   UNL     1      59.881   8.950  79.564  1.00  0.00    -0.507 OA
ATOM     25  H   UNL     1      60.739   8.566  79.188  1.00  0.00     0.293 HD
ENDBRANCH   6  24
BRANCH   8  26
ATOM     26  O   UNL     1      58.592   7.527  84.008  1.00  0.00    -0.508 OA
ATOM     27  H   UNL     1      59.365   8.035  84.426  1.00  0.00     0.293 HD
ENDBRANCH   8  26
TORSDOF 6
ENDMDL
MODEL 6
REMARK VINA RESULT:    -6.083      3.201      6.913
REMARK INTER + INTRA:          -7.541
REMARK INTER:                  -7.211
REMARK INTRA:                  -0.330
REMARK UNBOUND:                -0.213
REMARK SMILES O=c1c(O)c(-c2ccc(O)c(O)c2)oc2cc(O)cc(O)c12
REMARK SMILES IDX 5 1 3 2 2 3 1 4 22 5 20 6 19 7 17 8 16 9 15 10 14 11 6 12
REMARK SMILES IDX 7 13 8 14 9 15 13 16 11 17 10 18 12 20 4 22 21 24 18 26
REMARK H PARENT 10 19 12 21 4 23 21 25 18 27
REMARK Flexibility Score: inf
ROOT
ATOM      1  C   UNL     1      52.907   5.798  79.202  1.00  0.00     0.180 A 
ATOM      2  C   UNL     1      51.667   5.150  79.361  1.00  0.00     0.208 A 
ATOM      3  C   UNL     1      51.525   4.195  80.380  1.00  0.00     0.238 A 
ATOM      4  O   UNL     1      50.423   3.602  80.525  1.00  0.00    -0.285 OA
ATOM      5  C   UNL     1      52.614   3.919  81.232  1.00  0.00     0.111 A 
ATOM      6  C   UNL     1      52.553   2.975  82.285  1.00  0.00     0.134 A 
ATOM      7  C   UNL     1      53.679   2.764  83.096  1.00  0.00     0.093 A 
ATOM      8  C   UNL     1      54.861   3.478  82.874  1.00  0.00     0.123 A 
ATOM      9  C   UNL     1      54.926   4.410  81.837  1.00  0.00     0.094 A 
ATOM     10  C   UNL     1      53.816   4.633  81.016  1.00  0.00     0.146 A 
ATOM     11  O   UNL     1      53.907   5.522  80.033  1.00  0.00    -0.452 OA
ENDROOT
BRANCH   1  12
ATOM     12  C   UNL     1      53.140   6.801  78.139  1.00  0.00     0.025 A 
ATOM     13  C   UNL     1      53.515   6.419  76.840  1.00  0.00     0.016 A 
ATOM     14  C   UNL     1      53.753   7.385  75.859  1.00  0.00     0.051 A 
ATOM     15  C   UNL     1      53.632   8.747  76.165  1.00  0.00     0.157 A 
ATOM     16  C   UNL     1      53.042   8.169  78.446  1.00  0.00     0.062 A 
ATOM     17  C   UNL     1      53.278   9.140  77.466  1.00  0.00     0.158 A 
BRANCH  15  18
ATOM     18  O   UNL     1      53.869   9.710  75.183  1.00  0.00    -0.504 OA
ATOM     19  H   UNL     1      54.668   9.650  74.564  1.00  0.00     0.293 HD
ENDBRANCH  15  18
BRANCH  17  20
ATOM     20  O   UNL     1      53.158  10.488  77.805  1.00  0.00    -0.504 OA
ATOM     21  H   UNL     1      53.625  10.882  78.612  1.00  0.00     0.293 HD
ENDBRANCH  17  20
ENDBRANCH   1  12
BRANCH   2  22
ATOM     22  O   UNL     1      50.589   5.477  78.534  1.00  0.00    -0.502 OA
ATOM     23  H   UNL     1      49.663   5.090  78.671  1.00  0.00     0.293 HD
ENDBRANCH   2  22
BRANCH   6  24
ATOM     24  O   UNL     1      51.388   2.247  82.531  1.00  0.00    -0.507 OA
ATOM     25  H   UNL     1      51.038   1.562  81.873  1.00  0.00     0.293 HD
ENDBRANCH   6  24
BRANCH   8  26
ATOM     26  O   UNL     1      55.978   3.270  83.679  1.00  0.00    -0.508 OA
ATOM     27  H   UNL     1      56.829   3.808  83.556  1.00  0.00     0.293 HD
ENDBRANCH   8  26
TORSDOF 6
ENDMDL
MODEL 7
REMARK VINA RESULT:    -6.050      2.419      7.325
REMARK INTER + INTRA:          -7.501
REMARK INTER:                  -7.179
REMARK INTRA:                  -0.321
REMARK UNBOUND:                -0.213
REMARK SMILES O=c1c(O)c(-c2ccc(O)c(O)c2)oc2cc(O)cc(O)c12
REMARK SMILES IDX 5 1 3 2 2 3 1 4 22 5 20 6 19 7 17 8 16 9 15 10 14 11 6 12
REMARK SMILES IDX 7 13 8 14 9 15 13 16 11 17 10 18 12 20 4 22 21 24 18 26
REMARK H PARENT 10 19 12 21 4 23 21 25 18 27
REMARK Flexibility Score: inf
ROOT
ATOM      1  C   UNL     1      55.062   5.650  80.799  1.00  0.00     0.180 A 
ATOM      2  C   UNL     1      54.964   5.687  82.203  1.00  0.00     0.208 A 
ATOM      3  C   UNL     1      53.792   5.214  82.815  1.00  0.00     0.238 A 
ATOM      4  O   UNL     1      53.689   5.253  84.071  1.00  0.00    -0.285 OA
ATOM      5  C   UNL     1      52.751   4.696  82.019  1.00  0.00     0.111 A 
ATOM      6  C   UNL     1      51.540   4.196  82.556  1.00  0.00     0.134 A 
ATOM      7  C   UNL     1      50.555   3.688  81.696  1.00  0.00     0.093 A 
ATOM      8  C   UNL     1      50.757   3.670  80.312  1.00  0.00     0.123 A 
ATOM      9  C   UNL     1      51.949   4.161  79.778  1.00  0.00     0.094 A 
ATOM     10  C   UNL     1      52.943   4.674  80.617  1.00  0.00     0.146 A 
ATOM     11  O   UNL     1      54.065   5.140  80.081  1.00  0.00    -0.452 OA
ENDROOT
BRANCH   1  12
ATOM     12  C   UNL     1      56.256   6.147  80.080  1.00  0.00     0.025 A 
ATOM     13  C   UNL     1      57.376   5.326  79.865  1.00  0.00     0.016 A 
ATOM     14  C   UNL     1      58.502   5.825  79.204  1.00  0.00     0.051 A 
ATOM     15  C   UNL     1      58.531   7.154  78.762  1.00  0.00     0.157 A 
ATOM     16  C   UNL     1      56.299   7.486  79.654  1.00  0.00     0.062 A 
ATOM     17  C   UNL     1      57.424   7.988  78.991  1.00  0.00     0.158 A 
BRANCH  15  18
ATOM     18  O   UNL     1      59.655   7.649  78.102  1.00  0.00    -0.504 OA
ATOM     19  H   UNL     1      59.603   8.468  77.508  1.00  0.00     0.293 HD
ENDBRANCH  15  18
BRANCH  17  20
ATOM     20  O   UNL     1      57.425   9.318  78.571  1.00  0.00    -0.504 OA
ATOM     21  H   UNL     1      58.280   9.809  78.342  1.00  0.00     0.293 HD
ENDBRANCH  17  20
ENDBRANCH   1  12
BRANCH   2  22
ATOM     22  O   UNL     1      56.030   6.160  82.973  1.00  0.00    -0.502 OA
ATOM     23  H   UNL     1      56.588   5.552  83.560  1.00  0.00     0.293 HD
ENDBRANCH   2  22
BRANCH   6  24
ATOM     24  O   UNL     1      51.309   4.201  83.932  1.00  0.00    -0.507 OA
ATOM     25  H   UNL     1      51.682   3.479  84.538  1.00  0.00     0.293 HD
ENDBRANCH   6  24
BRANCH   8  26
ATOM     26  O   UNL     1      49.780   3.164  79.458  1.00  0.00    -0.508 OA
ATOM     27  H   UNL     1      48.850   3.566  79.419  1.00  0.00     0.293 HD
ENDBRANCH   8  26
TORSDOF 6
ENDMDL
MODEL 8
REMARK VINA RESULT:    -6.038     12.274     14.053
REMARK INTER + INTRA:          -7.487
REMARK INTER:                  -7.154
REMARK INTRA:                  -0.333
REMARK UNBOUND:                -0.213
REMARK SMILES O=c1c(O)c(-c2ccc(O)c(O)c2)oc2cc(O)cc(O)c12
REMARK SMILES IDX 5 1 3 2 2 3 1 4 22 5 20 6 19 7 17 8 16 9 15 10 14 11 6 12
REMARK SMILES IDX 7 13 8 14 9 15 13 16 11 17 10 18 12 20 4 22 21 24 18 26
REMARK H PARENT 10 19 12 21 4 23 21 25 18 27
REMARK Flexibility Score: inf
ROOT
ATOM      1  C   UNL     1      47.432  -4.570  78.273  1.00  0.00     0.180 A 
ATOM      2  C   UNL     1      46.141  -4.902  77.819  1.00  0.00     0.208 A 
ATOM      3  C   UNL     1      45.833  -4.728  76.461  1.00  0.00     0.238 A 
ATOM      4  O   UNL     1      44.677  -5.013  76.046  1.00  0.00    -0.285 OA
ATOM      5  C   UNL     1      46.821  -4.247  75.579  1.00  0.00     0.111 A 
ATOM      6  C   UNL     1      46.593  -4.046  74.195  1.00  0.00     0.134 A 
ATOM      7  C   UNL     1      47.632  -3.571  73.381  1.00  0.00     0.093 A 
ATOM      8  C   UNL     1      48.892  -3.294  73.923  1.00  0.00     0.123 A 
ATOM      9  C   UNL     1      49.121  -3.490  75.285  1.00  0.00     0.094 A 
ATOM     10  C   UNL     1      48.098  -3.960  76.115  1.00  0.00     0.146 A 
ATOM     11  O   UNL     1      48.343  -4.132  77.409  1.00  0.00    -0.452 OA
ENDROOT
BRANCH   1  12
ATOM     12  C   UNL     1      47.827  -4.708  79.693  1.00  0.00     0.025 A 
ATOM     13  C   UNL     1      47.652  -3.655  80.607  1.00  0.00     0.016 A 
ATOM     14  C   UNL     1      48.054  -3.799  81.938  1.00  0.00     0.051 A 
ATOM     15  C   UNL     1      48.649  -4.991  82.370  1.00  0.00     0.157 A 
ATOM     16  C   UNL     1      48.444  -5.893  80.127  1.00  0.00     0.062 A 
ATOM     17  C   UNL     1      48.847  -6.042  81.459  1.00  0.00     0.158 A 
BRANCH  15  18
ATOM     18  O   UNL     1      49.048  -5.133  83.699  1.00  0.00    -0.504 OA
ATOM     19  H   UNL     1      48.505  -5.675  84.360  1.00  0.00     0.293 HD
ENDBRANCH  15  18
BRANCH  17  20
ATOM     20  O   UNL     1      49.444  -7.238  81.856  1.00  0.00    -0.504 OA
ATOM     21  H   UNL     1      50.423  -7.292  82.110  1.00  0.00     0.293 HD
ENDBRANCH  17  20
ENDBRANCH   1  12
BRANCH   2  22
ATOM     22  O   UNL     1      45.195  -5.425  78.705  1.00  0.00    -0.502 OA
ATOM     23  H   UNL     1      45.237  -5.259  79.704  1.00  0.00     0.293 HD
ENDBRANCH   2  22
BRANCH   6  24
ATOM     24  O   UNL     1      45.348  -4.314  73.627  1.00  0.00    -0.507 OA
ATOM     25  H   UNL     1      45.115  -5.229  73.259  1.00  0.00     0.293 HD
ENDBRANCH   6  24
BRANCH   8  26
ATOM     26  O   UNL     1      49.925  -2.824  73.114  1.00  0.00    -0.508 OA
ATOM     27  H   UNL     1      50.344  -1.913  73.265  1.00  0.00     0.293 HD
ENDBRANCH   8  26
TORSDOF 6
ENDMDL
MODEL 9
REMARK VINA RESULT:    -6.010     10.806     12.602
REMARK INTER + INTRA:          -7.453
REMARK INTER:                  -7.143
REMARK INTRA:                  -0.309
REMARK UNBOUND:                -0.213
REMARK SMILES O=c1c(O)c(-c2ccc(O)c(O)c2)oc2cc(O)cc(O)c12
REMARK SMILES IDX 5 1 3 2 2 3 1 4 22 5 20 6 19 7 17 8 16 9 15 10 14 11 6 12
REMARK SMILES IDX 7 13 8 14 9 15 13 16 11 17 10 18 12 20 4 22 21 24 18 26
REMARK H PARENT 10 19 12 21 4 23 21 25 18 27
REMARK Flexibility Score: inf
ROOT
ATOM      1  C   UNL     1      51.144  -4.796  81.492  1.00  0.00     0.180 A 
ATOM      2  C   UNL     1      50.901  -3.522  82.042  1.00  0.00     0.208 A 
ATOM      3  C   UNL     1      51.952  -2.848  82.683  1.00  0.00     0.238 A 
ATOM      4  O   UNL     1      51.744  -1.712  83.189  1.00  0.00    -0.285 OA
ATOM      5  C   UNL     1      53.227  -3.445  82.746  1.00  0.00     0.111 A 
ATOM      6  C   UNL     1      54.341  -2.832  83.371  1.00  0.00     0.134 A 
ATOM      7  C   UNL     1      55.580  -3.489  83.384  1.00  0.00     0.093 A 
ATOM      8  C   UNL     1      55.728  -4.745  82.785  1.00  0.00     0.123 A 
ATOM      9  C   UNL     1      54.634  -5.353  82.169  1.00  0.00     0.094 A 
ATOM     10  C   UNL     1      53.389  -4.717  82.147  1.00  0.00     0.146 A 
ATOM     11  O   UNL     1      52.363  -5.321  81.558  1.00  0.00    -0.452 OA
ENDROOT
BRANCH   1  12
ATOM     12  C   UNL     1      50.083  -5.577  80.818  1.00  0.00     0.025 A 
ATOM     13  C   UNL     1      49.129  -6.303  81.552  1.00  0.00     0.016 A 
ATOM     14  C   UNL     1      48.151  -7.052  80.894  1.00  0.00     0.051 A 
ATOM     15  C   UNL     1      48.119  -7.098  79.494  1.00  0.00     0.157 A 
ATOM     16  C   UNL     1      50.059  -5.644  79.415  1.00  0.00     0.062 A 
ATOM     17  C   UNL     1      49.080  -6.393  78.752  1.00  0.00     0.158 A 
BRANCH  15  18
ATOM     18  O   UNL     1      47.140  -7.846  78.839  1.00  0.00    -0.504 OA
ATOM     19  H   UNL     1      46.929  -7.700  77.860  1.00  0.00     0.293 HD
ENDBRANCH  15  18
BRANCH  17  20
ATOM     20  O   UNL     1      49.081  -6.424  77.357  1.00  0.00    -0.504 OA
ATOM     21  H   UNL     1      49.595  -7.124  76.836  1.00  0.00     0.293 HD
ENDBRANCH  17  20
ENDBRANCH   1  12
BRANCH   2  22
ATOM     22  O   UNL     1      49.641  -2.931  81.923  1.00  0.00    -0.502 OA
ATOM     23  H   UNL     1      49.398  -2.323  81.150  1.00  0.00     0.293 HD
ENDBRANCH   2  22
BRANCH   6  24
ATOM     24  O   UNL     1      54.225  -1.580  83.976  1.00  0.00    -0.507 OA
ATOM     25  H   UNL     1      54.713  -1.355  84.835  1.00  0.00     0.293 HD
ENDBRANCH   6  24
BRANCH   8  26
ATOM     26  O   UNL     1      56.959  -5.396  82.796  1.00  0.00    -0.508 OA
ATOM     27  H   UNL     1      57.457  -5.573  83.661  1.00  0.00     0.293 HD
ENDBRANCH   8  26
TORSDOF 6
ENDMDL
