MODEL 1
REMARK VINA RESULT:    -6.708      0.000      0.000
REMARK INTER + INTRA:         -19.919
REMARK INTER:                 -17.687
REMARK INTRA:                  -2.232
REMARK UNBOUND:                -2.232
REMARK SMILES CCCCCCCCCCCCCCCCCCCCCCCCCCCCCC(=O)[O-]
REMARK SMILES IDX 16 1 17 2 18 3 19 4 20 5 21 6 22 7 23 8 24 9 25 10 26 11
REMARK SMILES IDX 27 12 28 13 29 14 30 15 31 16 32 17 15 18 14 19 13 20 12 21
REMARK SMILES IDX 11 22 10 23 9 24 8 25 7 26 6 27 5 28 4 29 3 30 2 31 1 32
REMARK H PARENT
REMARK Flexibility Score: inf
ROOT
ATOM      1  C   UNL     1      44.003 -48.304 163.036  1.00  0.00     0.000 C 
ENDROOT
BRANCH   1   2
ATOM      2  C   UNL     1      43.411 -48.799 164.370  1.00  0.00     0.000 C 
BRANCH   2   3
ATOM      3  C   UNL     1      41.960 -48.354 164.653  1.00  0.00     0.000 C 
BRANCH   3   4
ATOM      4  C   UNL     1      40.877 -49.392 164.303  1.00  0.00     0.000 C 
BRANCH   4   5
ATOM      5  C   UNL     1      40.289 -49.259 162.883  1.00  0.00     0.000 C 
BRANCH   5   6
ATOM      6  C   UNL     1      40.558 -47.912 162.189  1.00  0.00     0.000 C 
BRANCH   6   7
ATOM      7  C   UNL     1      39.311 -47.349 161.488  1.00  0.00     0.000 C 
BRANCH   7   8
ATOM      8  C   UNL     1      38.123 -48.330 161.481  1.00  0.00     0.000 C 
BRANCH   8   9
ATOM      9  C   UNL     1      36.840 -47.808 160.801  1.00  0.00     0.000 C 
BRANCH   9  10
ATOM     10  C   UNL     1      35.555 -48.592 161.129  1.00  0.00     0.000 C 
BRANCH  10  11
ATOM     11  C   UNL     1      35.413 -49.021 162.603  1.00  0.00     0.000 C 
BRANCH  11  12
ATOM     12  C   UNL     1      35.126 -50.516 162.818  1.00  0.00     0.000 C 
BRANCH  12  13
ATOM     13  C   UNL     1      36.314 -51.412 162.435  1.00  0.00     0.006 C 
BRANCH  13  14
ATOM     14  C   UNL     1      35.871 -52.869 162.261  1.00  0.00     0.053 C 
BRANCH  14  15
ATOM     15  C   UNL     1      35.953 -53.608 163.560  1.00  0.00     0.041 C 
ATOM     16  O   UNL     1      35.218 -54.610 163.767  1.00  0.00    -0.550 OA
ATOM     17  O   UNL     1      36.846 -53.197 164.542  1.00  0.00    -0.550 OA
ENDBRANCH  14  15
ENDBRANCH  13  14
ENDBRANCH  12  13
ENDBRANCH  11  12
ENDBRANCH  10  11
ENDBRANCH   9  10
ENDBRANCH   8   9
ENDBRANCH   7   8
ENDBRANCH   6   7
ENDBRANCH   5   6
ENDBRANCH   4   5
ENDBRANCH   3   4
ENDBRANCH   2   3
ENDBRANCH   1   2
BRANCH   1  18
ATOM     18  C   UNL     1      44.338 -46.804 163.049  1.00  0.00     0.000 C 
BRANCH  18  19
ATOM     19  C   UNL     1      45.724 -46.507 163.649  1.00  0.00     0.000 C 
BRANCH  19  20
ATOM     20  C   UNL     1      45.721 -45.932 165.081  1.00  0.00     0.000 C 
BRANCH  20  21
ATOM     21  C   UNL     1      47.109 -45.753 165.730  1.00  0.00     0.000 C 
BRANCH  21  22
ATOM     22  C   UNL     1      48.241 -46.576 165.074  1.00  0.00     0.000 C 
BRANCH  22  23
ATOM     23  C   UNL     1      49.466 -45.737 164.665  1.00  0.00     0.000 C 
BRANCH  23  24
ATOM     24  C   UNL     1      50.829 -46.367 165.008  1.00  0.00    -0.000 C 
BRANCH  24  25
ATOM     25  C   UNL     1      50.772 -47.837 165.467  1.00  0.00    -0.000 C 
BRANCH  25  26
ATOM     26  C   UNL     1      52.027 -48.345 166.207  1.00  0.00    -0.000 C 
BRANCH  26  27
ATOM     27  C   UNL     1      53.320 -47.561 165.914  1.00  0.00    -0.000 C 
BRANCH  27  28
ATOM     28  C   UNL     1      54.551 -48.035 166.709  1.00  0.00    -0.000 C 
BRANCH  28  29
ATOM     29  C   UNL     1      54.865 -47.158 167.943  1.00  0.00    -0.000 C 
BRANCH  29  30
ATOM     30  C   UNL     1      53.996 -45.890 168.039  1.00  0.00    -0.000 C 
BRANCH  30  31
ATOM     31  C   UNL     1      54.743 -44.593 167.676  1.00  0.00    -0.003 C 
ATOM     32  C   UNL     1      54.374 -44.063 166.290  1.00  0.00     0.004 C 
ENDBRANCH  30  31
ENDBRANCH  29  30
ENDBRANCH  28  29
ENDBRANCH  27  28
ENDBRANCH  26  27
ENDBRANCH  25  26
ENDBRANCH  24  25
ENDBRANCH  23  24
ENDBRANCH  22  23
ENDBRANCH  21  22
ENDBRANCH  20  21
ENDBRANCH  19  20
ENDBRANCH  18  19
ENDBRANCH   1  18
TORSDOF 28
ENDMDL
MODEL 2
REMARK VINA RESULT:    -6.492      1.250      3.077
REMARK INTER + INTRA:         -19.351
REMARK INTER:                 -17.528
REMARK INTRA:                  -1.822
REMARK UNBOUND:                -2.232
REMARK SMILES CCCCCCCCCCCCCCCCCCCCCCCCCCCCCC(=O)[O-]
REMARK SMILES IDX 16 1 17 2 18 3 19 4 20 5 21 6 22 7 23 8 24 9 25 10 26 11
REMARK SMILES IDX 27 12 28 13 29 14 30 15 31 16 32 17 15 18 14 19 13 20 12 21
REMARK SMILES IDX 11 22 10 23 9 24 8 25 7 26 6 27 5 28 4 29 3 30 2 31 1 32
REMARK H PARENT
REMARK Flexibility Score: inf
ROOT
ATOM      1  C   UNL     1      46.904 -48.658 164.694  1.00  0.00     0.000 C 
ENDROOT
BRANCH   1   2
ATOM      2  C   UNL     1      45.792 -48.927 163.662  1.00  0.00     0.000 C 
BRANCH   2   3
ATOM      3  C   UNL     1      44.898 -47.714 163.325  1.00  0.00     0.000 C 
BRANCH   3   4
ATOM      4  C   UNL     1      43.383 -47.995 163.334  1.00  0.00     0.000 C 
BRANCH   4   5
ATOM      5  C   UNL     1      42.624 -47.490 162.090  1.00  0.00     0.000 C 
BRANCH   5   6
ATOM      6  C   UNL     1      41.125 -47.837 162.055  1.00  0.00     0.000 C 
BRANCH   6   7
ATOM      7  C   UNL     1      40.271 -46.707 161.457  1.00  0.00     0.000 C 
BRANCH   7   8
ATOM      8  C   UNL     1      38.779 -47.071 161.338  1.00  0.00     0.000 C 
BRANCH   8   9
ATOM      9  C   UNL     1      38.444 -48.560 161.555  1.00  0.00     0.000 C 
BRANCH   9  10
ATOM     10  C   UNL     1      37.348 -48.844 162.602  1.00  0.00     0.000 C 
BRANCH  10  11
ATOM     11  C   UNL     1      35.923 -48.981 162.030  1.00  0.00     0.000 C 
BRANCH  11  12
ATOM     12  C   UNL     1      35.294 -50.375 162.186  1.00  0.00     0.000 C 
BRANCH  12  13
ATOM     13  C   UNL     1      36.326 -51.460 162.531  1.00  0.00     0.006 C 
BRANCH  13  14
ATOM     14  C   UNL     1      35.717 -52.860 162.402  1.00  0.00     0.053 C 
BRANCH  14  15
ATOM     15  C   UNL     1      35.995 -53.675 163.626  1.00  0.00     0.041 C 
ATOM     16  O   UNL     1      35.523 -54.838 163.734  1.00  0.00    -0.550 OA
ATOM     17  O   UNL     1      36.780 -53.155 164.648  1.00  0.00    -0.550 OA
ENDBRANCH  14  15
ENDBRANCH  13  14
ENDBRANCH  12  13
ENDBRANCH  11  12
ENDBRANCH  10  11
ENDBRANCH   9  10
ENDBRANCH   8   9
ENDBRANCH   7   8
ENDBRANCH   6   7
ENDBRANCH   5   6
ENDBRANCH   4   5
ENDBRANCH   3   4
ENDBRANCH   2   3
ENDBRANCH   1   2
BRANCH   1  18
ATOM     18  C   UNL     1      48.042 -47.788 164.136  1.00  0.00     0.000 C 
BRANCH  18  19
ATOM     19  C   UNL     1      49.184 -47.579 165.147  1.00  0.00     0.000 C 
BRANCH  19  20
ATOM     20  C   UNL     1      50.252 -46.541 164.741  1.00  0.00     0.000 C 
BRANCH  20  21
ATOM     21  C   UNL     1      51.490 -46.465 165.658  1.00  0.00     0.000 C 
BRANCH  21  22
ATOM     22  C   UNL     1      52.221 -47.810 165.870  1.00  0.00     0.000 C 
BRANCH  22  23
ATOM     23  C   UNL     1      53.712 -47.778 165.484  1.00  0.00     0.000 C 
BRANCH  23  24
ATOM     24  C   UNL     1      54.645 -48.558 166.430  1.00  0.00    -0.000 C 
BRANCH  24  25
ATOM     25  C   UNL     1      54.419 -48.297 167.932  1.00  0.00    -0.000 C 
BRANCH  25  26
ATOM     26  C   UNL     1      55.030 -46.986 168.471  1.00  0.00    -0.000 C 
BRANCH  26  27
ATOM     27  C   UNL     1      54.122 -45.748 168.360  1.00  0.00    -0.000 C 
BRANCH  27  28
ATOM     28  C   UNL     1      54.784 -44.524 167.699  1.00  0.00    -0.000 C 
BRANCH  28  29
ATOM     29  C   UNL     1      54.748 -44.561 166.154  1.00  0.00    -0.000 C 
BRANCH  29  30
ATOM     30  C   UNL     1      53.829 -43.495 165.530  1.00  0.00    -0.000 C 
BRANCH  30  31
ATOM     31  C   UNL     1      54.231 -43.082 164.102  1.00  0.00    -0.003 C 
ATOM     32  C   UNL     1      54.283 -41.565 163.915  1.00  0.00     0.004 C 
ENDBRANCH  30  31
ENDBRANCH  29  30
ENDBRANCH  28  29
ENDBRANCH  27  28
ENDBRANCH  26  27
ENDBRANCH  25  26
ENDBRANCH  24  25
ENDBRANCH  23  24
ENDBRANCH  22  23
ENDBRANCH  21  22
ENDBRANCH  20  21
ENDBRANCH  19  20
ENDBRANCH  18  19
ENDBRANCH   1  18
TORSDOF 28
ENDMDL
MODEL 3
REMARK VINA RESULT:    -6.491      4.924     15.134
REMARK INTER + INTRA:         -19.348
REMARK INTER:                 -17.285
REMARK INTRA:                  -2.062
REMARK UNBOUND:                -2.232
REMARK SMILES CCCCCCCCCCCCCCCCCCCCCCCCCCCCCC(=O)[O-]
REMARK SMILES IDX 16 1 17 2 18 3 19 4 20 5 21 6 22 7 23 8 24 9 25 10 26 11
REMARK SMILES IDX 27 12 28 13 29 14 30 15 31 16 32 17 15 18 14 19 13 20 12 21
REMARK SMILES IDX 11 22 10 23 9 24 8 25 7 26 6 27 5 28 4 29 3 30 2 31 1 32
REMARK H PARENT
REMARK Flexibility Score: inf
ROOT
ATOM      1  C   UNL     1      45.986 -46.482 164.972  1.00  0.00     0.000 C 
ENDROOT
BRANCH   1   2
ATOM      2  C   UNL     1      47.461 -46.169 165.289  1.00  0.00     0.000 C 
BRANCH   2   3
ATOM      3  C   UNL     1      48.494 -46.889 164.396  1.00  0.00     0.000 C 
BRANCH   3   4
ATOM      4  C   UNL     1      49.117 -48.158 165.008  1.00  0.00     0.000 C 
BRANCH   4   5
ATOM      5  C   UNL     1      50.555 -47.982 165.536  1.00  0.00     0.000 C 
BRANCH   5   6
ATOM      6  C   UNL     1      51.234 -46.656 165.149  1.00  0.00     0.000 C 
BRANCH   6   7
ATOM      7  C   UNL     1      52.264 -46.192 166.192  1.00  0.00     0.000 C 
BRANCH   7   8
ATOM      8  C   UNL     1      53.502 -45.522 165.568  1.00  0.00     0.000 C 
BRANCH   8   9
ATOM      9  C   UNL     1      54.645 -45.201 166.553  1.00  0.00     0.000 C 
BRANCH   9  10
ATOM     10  C   UNL     1      54.248 -45.188 168.042  1.00  0.00     0.000 C 
BRANCH  10  11
ATOM     11  C   UNL     1      54.835 -46.340 168.881  1.00  0.00     0.000 C 
BRANCH  11  12
ATOM     12  C   UNL     1      55.095 -47.641 168.103  1.00  0.00     0.000 C 
BRANCH  12  13
ATOM     13  C   UNL     1      54.358 -48.850 168.699  1.00  0.00     0.006 C 
BRANCH  13  14
ATOM     14  C   UNL     1      53.705 -49.694 167.600  1.00  0.00     0.053 C 
BRANCH  14  15
ATOM     15  C   UNL     1      54.094 -51.133 167.733  1.00  0.00     0.041 C 
ATOM     16  O   UNL     1      53.837 -51.764 168.792  1.00  0.00    -0.550 OA
ATOM     17  O   UNL     1      54.735 -51.783 166.686  1.00  0.00    -0.550 OA
ENDBRANCH  14  15
ENDBRANCH  13  14
ENDBRANCH  12  13
ENDBRANCH  11  12
ENDBRANCH  10  11
ENDBRANCH   9  10
ENDBRANCH   8   9
ENDBRANCH   7   8
ENDBRANCH   6   7
ENDBRANCH   5   6
ENDBRANCH   4   5
ENDBRANCH   3   4
ENDBRANCH   2   3
ENDBRANCH   1   2
BRANCH   1  18
ATOM     18  C   UNL     1      45.719 -46.652 163.467  1.00  0.00     0.000 C 
BRANCH  18  19
ATOM     19  C   UNL     1      44.260 -47.038 163.160  1.00  0.00     0.000 C 
BRANCH  19  20
ATOM     20  C   UNL     1      43.652 -48.123 164.073  1.00  0.00     0.000 C 
BRANCH  20  21
ATOM     21  C   UNL     1      42.112 -48.136 164.158  1.00  0.00     0.000 C 
BRANCH  21  22
ATOM     22  C   UNL     1      41.451 -49.464 163.723  1.00  0.00     0.000 C 
BRANCH  22  23
ATOM     23  C   UNL     1      40.083 -49.286 163.039  1.00  0.00     0.000 C 
BRANCH  23  24
ATOM     24  C   UNL     1      40.010 -48.131 162.021  1.00  0.00    -0.000 C 
BRANCH  24  25
ATOM     25  C   UNL     1      38.598 -47.827 161.480  1.00  0.00    -0.000 C 
BRANCH  25  26
ATOM     26  C   UNL     1      37.491 -48.793 161.952  1.00  0.00    -0.000 C 
BRANCH  26  27
ATOM     27  C   UNL     1      36.090 -48.509 161.379  1.00  0.00    -0.000 C 
BRANCH  27  28
ATOM     28  C   UNL     1      35.992 -48.611 159.845  1.00  0.00    -0.000 C 
BRANCH  28  29
ATOM     29  C   UNL     1      35.592 -47.283 159.162  1.00  0.00    -0.000 C 
BRANCH  29  30
ATOM     30  C   UNL     1      35.645 -46.063 160.100  1.00  0.00    -0.000 C 
BRANCH  30  31
ATOM     31  C   UNL     1      35.686 -44.711 159.364  1.00  0.00    -0.003 C 
ATOM     32  C   UNL     1      37.073 -44.377 158.813  1.00  0.00     0.004 C 
ENDBRANCH  30  31
ENDBRANCH  29  30
ENDBRANCH  28  29
ENDBRANCH  27  28
ENDBRANCH  26  27
ENDBRANCH  25  26
ENDBRANCH  24  25
ENDBRANCH  23  24
ENDBRANCH  22  23
ENDBRANCH  21  22
ENDBRANCH  20  21
ENDBRANCH  19  20
ENDBRANCH  18  19
ENDBRANCH   1  18
TORSDOF 28
ENDMDL
MODEL 4
REMARK VINA RESULT:    -6.469      3.272      5.032
REMARK INTER + INTRA:         -19.289
REMARK INTER:                 -17.492
REMARK INTRA:                  -1.797
REMARK UNBOUND:                -2.232
REMARK SMILES CCCCCCCCCCCCCCCCCCCCCCCCCCCCCC(=O)[O-]
REMARK SMILES IDX 16 1 17 2 18 3 19 4 20 5 21 6 22 7 23 8 24 9 25 10 26 11
REMARK SMILES IDX 27 12 28 13 29 14 30 15 31 16 32 17 15 18 14 19 13 20 12 21
REMARK SMILES IDX 11 22 10 23 9 24 8 25 7 26 6 27 5 28 4 29 3 30 2 31 1 32
REMARK H PARENT
REMARK Flexibility Score: inf
ROOT
ATOM      1  C   UNL     1      45.783 -45.746 165.723  1.00  0.00     0.000 C 
ENDROOT
BRANCH   1   2
ATOM      2  C   UNL     1      45.014 -46.424 164.572  1.00  0.00     0.000 C 
BRANCH   2   3
ATOM      3  C   UNL     1      44.001 -47.505 165.005  1.00  0.00     0.000 C 
BRANCH   3   4
ATOM      4  C   UNL     1      43.268 -48.215 163.850  1.00  0.00     0.000 C 
BRANCH   4   5
ATOM      5  C   UNL     1      41.775 -48.500 164.110  1.00  0.00     0.000 C 
BRANCH   5   6
ATOM      6  C   UNL     1      40.854 -48.320 162.890  1.00  0.00     0.000 C 
BRANCH   6   7
ATOM      7  C   UNL     1      39.745 -49.382 162.824  1.00  0.00     0.000 C 
BRANCH   7   8
ATOM      8  C   UNL     1      38.480 -48.896 162.092  1.00  0.00     0.000 C 
BRANCH   8   9
ATOM      9  C   UNL     1      37.149 -49.464 162.625  1.00  0.00     0.000 C 
BRANCH   9  10
ATOM     10  C   UNL     1      35.940 -49.306 161.683  1.00  0.00     0.000 C 
BRANCH  10  11
ATOM     11  C   UNL     1      36.296 -49.002 160.214  1.00  0.00     0.000 C 
BRANCH  11  12
ATOM     12  C   UNL     1      35.315 -48.065 159.490  1.00  0.00     0.000 C 
BRANCH  12  13
ATOM     13  C   UNL     1      36.016 -46.887 158.797  1.00  0.00     0.006 C 
BRANCH  13  14
ATOM     14  C   UNL     1      36.000 -45.637 159.684  1.00  0.00     0.053 C 
BRANCH  14  15
ATOM     15  C   UNL     1      36.390 -44.424 158.899  1.00  0.00     0.041 C 
ATOM     16  O   UNL     1      37.606 -44.137 158.737  1.00  0.00    -0.550 OA
ATOM     17  O   UNL     1      35.413 -43.611 158.338  1.00  0.00    -0.550 OA
ENDBRANCH  14  15
ENDBRANCH  13  14
ENDBRANCH  12  13
ENDBRANCH  11  12
ENDBRANCH  10  11
ENDBRANCH   9  10
ENDBRANCH   8   9
ENDBRANCH   7   8
ENDBRANCH   6   7
ENDBRANCH   5   6
ENDBRANCH   4   5
ENDBRANCH   3   4
ENDBRANCH   2   3
ENDBRANCH   1   2
BRANCH   1  18
ATOM     18  C   UNL     1      47.305 -45.742 165.506  1.00  0.00     0.000 C 
BRANCH  18  19
ATOM     19  C   UNL     1      47.804 -46.991 164.758  1.00  0.00     0.000 C 
BRANCH  19  20
ATOM     20  C   UNL     1      49.329 -47.071 164.536  1.00  0.00     0.000 C 
BRANCH  20  21
ATOM     21  C   UNL     1      50.077 -48.100 165.408  1.00  0.00     0.000 C 
BRANCH  21  22
ATOM     22  C   UNL     1      51.547 -47.739 165.717  1.00  0.00     0.000 C 
BRANCH  22  23
ATOM     23  C   UNL     1      51.796 -46.229 165.889  1.00  0.00     0.000 C 
BRANCH  23  24
ATOM     24  C   UNL     1      53.141 -45.723 165.330  1.00  0.00    -0.000 C 
BRANCH  24  25
ATOM     25  C   UNL     1      54.047 -45.013 166.355  1.00  0.00    -0.000 C 
BRANCH  25  26
ATOM     26  C   UNL     1      55.006 -45.935 167.137  1.00  0.00    -0.000 C 
BRANCH  26  27
ATOM     27  C   UNL     1      54.483 -46.412 168.504  1.00  0.00    -0.000 C 
BRANCH  27  28
ATOM     28  C   UNL     1      54.800 -47.883 168.834  1.00  0.00    -0.000 C 
BRANCH  28  29
ATOM     29  C   UNL     1      54.830 -48.802 167.591  1.00  0.00    -0.000 C 
BRANCH  29  30
ATOM     30  C   UNL     1      53.644 -49.782 167.517  1.00  0.00    -0.000 C 
BRANCH  30  31
ATOM     31  C   UNL     1      54.060 -51.253 167.326  1.00  0.00    -0.003 C 
ATOM     32  C   UNL     1      54.111 -52.030 168.642  1.00  0.00     0.004 C 
ENDBRANCH  30  31
ENDBRANCH  29  30
ENDBRANCH  28  29
ENDBRANCH  27  28
ENDBRANCH  26  27
ENDBRANCH  25  26
ENDBRANCH  24  25
ENDBRANCH  23  24
ENDBRANCH  22  23
ENDBRANCH  21  22
ENDBRANCH  20  21
ENDBRANCH  19  20
ENDBRANCH  18  19
ENDBRANCH   1  18
TORSDOF 28
ENDMDL
MODEL 5
REMARK VINA RESULT:    -6.460      1.564      3.162
REMARK INTER + INTRA:         -19.267
REMARK INTER:                 -16.871
REMARK INTRA:                  -2.396
REMARK UNBOUND:                -2.232
REMARK SMILES CCCCCCCCCCCCCCCCCCCCCCCCCCCCCC(=O)[O-]
REMARK SMILES IDX 16 1 17 2 18 3 19 4 20 5 21 6 22 7 23 8 24 9 25 10 26 11
REMARK SMILES IDX 27 12 28 13 29 14 30 15 31 16 32 17 15 18 14 19 13 20 12 21
REMARK SMILES IDX 11 22 10 23 9 24 8 25 7 26 6 27 5 28 4 29 3 30 2 31 1 32
REMARK H PARENT
REMARK Flexibility Score: inf
ROOT
ATOM      1  C   UNL     1      45.129 -46.125 163.688  1.00  0.00     0.000 C 
ENDROOT
BRANCH   1   2
ATOM      2  C   UNL     1      45.210 -47.414 162.848  1.00  0.00     0.000 C 
BRANCH   2   3
ATOM      3  C   UNL     1      45.164 -48.730 163.655  1.00  0.00     0.000 C 
BRANCH   3   4
ATOM      4  C   UNL     1      43.793 -49.430 163.688  1.00  0.00     0.000 C 
BRANCH   4   5
ATOM      5  C   UNL     1      42.754 -48.774 164.620  1.00  0.00     0.000 C 
BRANCH   5   6
ATOM      6  C   UNL     1      41.430 -48.374 163.943  1.00  0.00     0.000 C 
BRANCH   6   7
ATOM      7  C   UNL     1      41.619 -47.961 162.475  1.00  0.00     0.000 C 
BRANCH   7   8
ATOM      8  C   UNL     1      40.330 -47.425 161.824  1.00  0.00     0.000 C 
BRANCH   8   9
ATOM      9  C   UNL     1      39.060 -48.259 162.090  1.00  0.00     0.000 C 
BRANCH   9  10
ATOM     10  C   UNL     1      38.205 -48.574 160.847  1.00  0.00     0.000 C 
BRANCH  10  11
ATOM     11  C   UNL     1      36.857 -47.830 160.779  1.00  0.00     0.000 C 
BRANCH  11  12
ATOM     12  C   UNL     1      35.812 -48.286 161.811  1.00  0.00     0.000 C 
BRANCH  12  13
ATOM     13  C   UNL     1      35.055 -49.550 161.374  1.00  0.00     0.006 C 
BRANCH  13  14
ATOM     14  C   UNL     1      34.907 -50.534 162.539  1.00  0.00     0.053 C 
BRANCH  14  15
ATOM     15  C   UNL     1      35.848 -51.687 162.383  1.00  0.00     0.041 C 
ATOM     16  O   UNL     1      35.585 -52.615 161.573  1.00  0.00    -0.550 OA
ATOM     17  O   UNL     1      37.022 -51.736 163.126  1.00  0.00    -0.550 OA
ENDBRANCH  14  15
ENDBRANCH  13  14
ENDBRANCH  12  13
ENDBRANCH  11  12
ENDBRANCH  10  11
ENDBRANCH   9  10
ENDBRANCH   8   9
ENDBRANCH   7   8
ENDBRANCH   6   7
ENDBRANCH   5   6
ENDBRANCH   4   5
ENDBRANCH   3   4
ENDBRANCH   2   3
ENDBRANCH   1   2
BRANCH   1  18
ATOM     18  C   UNL     1      45.483 -46.349 165.167  1.00  0.00     0.000 C 
BRANCH  18  19
ATOM     19  C   UNL     1      46.680 -45.498 165.630  1.00  0.00     0.000 C 
BRANCH  19  20
ATOM     20  C   UNL     1      48.054 -45.918 165.064  1.00  0.00     0.000 C 
BRANCH  20  21
ATOM     21  C   UNL     1      48.361 -47.428 165.113  1.00  0.00     0.000 C 
BRANCH  21  22
ATOM     22  C   UNL     1      49.853 -47.791 164.936  1.00  0.00     0.000 C 
BRANCH  22  23
ATOM     23  C   UNL     1      50.815 -46.614 165.183  1.00  0.00     0.000 C 
BRANCH  23  24
ATOM     24  C   UNL     1      52.150 -46.995 165.851  1.00  0.00    -0.000 C 
BRANCH  24  25
ATOM     25  C   UNL     1      53.109 -45.816 166.111  1.00  0.00    -0.000 C 
BRANCH  25  26
ATOM     26  C   UNL     1      54.079 -46.005 167.296  1.00  0.00    -0.000 C 
BRANCH  26  27
ATOM     27  C   UNL     1      54.899 -47.308 167.266  1.00  0.00    -0.000 C 
BRANCH  27  28
ATOM     28  C   UNL     1      55.028 -48.015 168.629  1.00  0.00    -0.000 C 
BRANCH  28  29
ATOM     29  C   UNL     1      54.186 -49.307 168.738  1.00  0.00    -0.000 C 
BRANCH  29  30
ATOM     30  C   UNL     1      53.823 -49.926 167.375  1.00  0.00    -0.000 C 
BRANCH  30  31
ATOM     31  C   UNL     1      53.873 -51.465 167.356  1.00  0.00    -0.003 C 
ATOM     32  C   UNL     1      54.047 -52.071 168.749  1.00  0.00     0.004 C 
ENDBRANCH  30  31
ENDBRANCH  29  30
ENDBRANCH  28  29
ENDBRANCH  27  28
ENDBRANCH  26  27
ENDBRANCH  25  26
ENDBRANCH  24  25
ENDBRANCH  23  24
ENDBRANCH  22  23
ENDBRANCH  21  22
ENDBRANCH  20  21
ENDBRANCH  19  20
ENDBRANCH  18  19
ENDBRANCH   1  18
TORSDOF 28
ENDMDL
MODEL 6
REMARK VINA RESULT:    -6.443      3.116      4.297
REMARK INTER + INTRA:         -19.221
REMARK INTER:                 -17.227
REMARK INTRA:                  -1.994
REMARK UNBOUND:                -2.232
REMARK SMILES CCCCCCCCCCCCCCCCCCCCCCCCCCCCCC(=O)[O-]
REMARK SMILES IDX 16 1 17 2 18 3 19 4 20 5 21 6 22 7 23 8 24 9 25 10 26 11
REMARK SMILES IDX 27 12 28 13 29 14 30 15 31 16 32 17 15 18 14 19 13 20 12 21
REMARK SMILES IDX 11 22 10 23 9 24 8 25 7 26 6 27 5 28 4 29 3 30 2 31 1 32
REMARK H PARENT
REMARK Flexibility Score: inf
ROOT
ATOM      1  C   UNL     1      44.323 -48.620 164.746  1.00  0.00     0.000 C 
ENDROOT
BRANCH   1   2
ATOM      2  C   UNL     1      43.059 -48.297 163.926  1.00  0.00     0.000 C 
BRANCH   2   3
ATOM      3  C   UNL     1      43.294 -48.060 162.419  1.00  0.00     0.000 C 
BRANCH   3   4
ATOM      4  C   UNL     1      42.161 -47.314 161.689  1.00  0.00     0.000 C 
BRANCH   4   5
ATOM      5  C   UNL     1      40.745 -47.600 162.230  1.00  0.00     0.000 C 
BRANCH   5   6
ATOM      6  C   UNL     1      39.597 -46.985 161.410  1.00  0.00     0.000 C 
BRANCH   6   7
ATOM      7  C   UNL     1      38.464 -47.986 161.135  1.00  0.00     0.000 C 
BRANCH   7   8
ATOM      8  C   UNL     1      38.139 -48.884 162.344  1.00  0.00     0.000 C 
BRANCH   8   9
ATOM      9  C   UNL     1      36.650 -49.249 162.513  1.00  0.00     0.000 C 
BRANCH   9  10
ATOM     10  C   UNL     1      36.075 -50.189 161.436  1.00  0.00     0.000 C 
BRANCH  10  11
ATOM     11  C   UNL     1      35.125 -49.516 160.426  1.00  0.00     0.000 C 
BRANCH  11  12
ATOM     12  C   UNL     1      35.756 -49.188 159.063  1.00  0.00     0.000 C 
BRANCH  12  13
ATOM     13  C   UNL     1      35.313 -47.822 158.515  1.00  0.00     0.006 C 
BRANCH  13  14
ATOM     14  C   UNL     1      35.583 -46.707 159.531  1.00  0.00     0.053 C 
BRANCH  14  15
ATOM     15  C   UNL     1      35.997 -45.447 158.839  1.00  0.00     0.041 C 
ATOM     16  O   UNL     1      36.379 -45.478 157.639  1.00  0.00    -0.550 OA
ATOM     17  O   UNL     1      35.956 -44.233 159.514  1.00  0.00    -0.550 OA
ENDBRANCH  14  15
ENDBRANCH  13  14
ENDBRANCH  12  13
ENDBRANCH  11  12
ENDBRANCH  10  11
ENDBRANCH   9  10
ENDBRANCH   8   9
ENDBRANCH   7   8
ENDBRANCH   6   7
ENDBRANCH   5   6
ENDBRANCH   4   5
ENDBRANCH   3   4
ENDBRANCH   2   3
ENDBRANCH   1   2
BRANCH   1  18
ATOM     18  C   UNL     1      45.537 -47.769 164.337  1.00  0.00     0.000 C 
BRANCH  18  19
ATOM     19  C   UNL     1      45.501 -46.352 164.937  1.00  0.00     0.000 C 
BRANCH  19  20
ATOM     20  C   UNL     1      46.843 -45.828 165.489  1.00  0.00     0.000 C 
BRANCH  20  21
ATOM     21  C   UNL     1      48.095 -46.624 165.065  1.00  0.00     0.000 C 
BRANCH  21  22
ATOM     22  C   UNL     1      49.239 -45.766 164.479  1.00  0.00     0.000 C 
BRANCH  22  23
ATOM     23  C   UNL     1      50.613 -46.038 165.119  1.00  0.00     0.000 C 
BRANCH  23  24
ATOM     24  C   UNL     1      50.922 -47.522 165.392  1.00  0.00    -0.000 C 
BRANCH  24  25
ATOM     25  C   UNL     1      52.407 -47.843 165.651  1.00  0.00    -0.000 C 
BRANCH  25  26
ATOM     26  C   UNL     1      53.365 -46.636 165.566  1.00  0.00    -0.000 C 
BRANCH  26  27
ATOM     27  C   UNL     1      54.847 -46.958 165.835  1.00  0.00    -0.000 C 
BRANCH  27  28
ATOM     28  C   UNL     1      55.099 -48.352 166.441  1.00  0.00    -0.000 C 
BRANCH  28  29
ATOM     29  C   UNL     1      55.125 -48.359 167.987  1.00  0.00    -0.000 C 
BRANCH  29  30
ATOM     30  C   UNL     1      54.386 -49.556 168.613  1.00  0.00    -0.000 C 
BRANCH  30  31
ATOM     31  C   UNL     1      53.634 -50.430 167.591  1.00  0.00    -0.003 C 
ATOM     32  C   UNL     1      54.240 -51.826 167.446  1.00  0.00     0.004 C 
ENDBRANCH  30  31
ENDBRANCH  29  30
ENDBRANCH  28  29
ENDBRANCH  27  28
ENDBRANCH  26  27
ENDBRANCH  25  26
ENDBRANCH  24  25
ENDBRANCH  23  24
ENDBRANCH  22  23
ENDBRANCH  21  22
ENDBRANCH  20  21
ENDBRANCH  19  20
ENDBRANCH  18  19
ENDBRANCH   1  18
TORSDOF 28
ENDMDL
MODEL 7
REMARK VINA RESULT:    -6.431      4.980     14.861
REMARK INTER + INTRA:         -19.189
REMARK INTER:                 -16.917
REMARK INTRA:                  -2.272
REMARK UNBOUND:                -2.232
REMARK SMILES CCCCCCCCCCCCCCCCCCCCCCCCCCCCCC(=O)[O-]
REMARK SMILES IDX 16 1 17 2 18 3 19 4 20 5 21 6 22 7 23 8 24 9 25 10 26 11
REMARK SMILES IDX 27 12 28 13 29 14 30 15 31 16 32 17 15 18 14 19 13 20 12 21
REMARK SMILES IDX 11 22 10 23 9 24 8 25 7 26 6 27 5 28 4 29 3 30 2 31 1 32
REMARK H PARENT
REMARK Flexibility Score: inf
ROOT
ATOM      1  C   UNL     1      42.226 -47.280 162.139  1.00  0.00     0.000 C 
ENDROOT
BRANCH   1   2
ATOM      2  C   UNL     1      43.334 -47.837 161.225  1.00  0.00     0.000 C 
BRANCH   2   3
ATOM      3  C   UNL     1      44.734 -47.932 161.869  1.00  0.00     0.000 C 
BRANCH   3   4
ATOM      4  C   UNL     1      44.820 -47.433 163.324  1.00  0.00     0.000 C 
BRANCH   4   5
ATOM      5  C   UNL     1      46.052 -46.560 163.637  1.00  0.00     0.000 C 
BRANCH   5   6
ATOM      6  C   UNL     1      46.339 -46.348 165.134  1.00  0.00     0.000 C 
BRANCH   6   7
ATOM      7  C   UNL     1      47.715 -45.712 165.389  1.00  0.00     0.000 C 
BRANCH   7   8
ATOM      8  C   UNL     1      48.799 -46.194 164.406  1.00  0.00     0.000 C 
BRANCH   8   9
ATOM      9  C   UNL     1      49.465 -47.538 164.765  1.00  0.00     0.000 C 
BRANCH   9  10
ATOM     10  C   UNL     1      50.704 -47.437 165.676  1.00  0.00     0.000 C 
BRANCH  10  11
ATOM     11  C   UNL     1      51.525 -46.142 165.516  1.00  0.00     0.000 C 
BRANCH  11  12
ATOM     12  C   UNL     1      52.960 -46.213 166.066  1.00  0.00     0.000 C 
BRANCH  12  13
ATOM     13  C   UNL     1      53.520 -47.644 166.089  1.00  0.00     0.006 C 
BRANCH  13  14
ATOM     14  C   UNL     1      54.311 -47.905 167.375  1.00  0.00     0.053 C 
BRANCH  14  15
ATOM     15  C   UNL     1      54.240 -49.350 167.758  1.00  0.00     0.041 C 
ATOM     16  O   UNL     1      53.983 -49.679 168.946  1.00  0.00    -0.550 OA
ATOM     17  O   UNL     1      54.452 -50.337 166.802  1.00  0.00    -0.550 OA
ENDBRANCH  14  15
ENDBRANCH  13  14
ENDBRANCH  12  13
ENDBRANCH  11  12
ENDBRANCH  10  11
ENDBRANCH   9  10
ENDBRANCH   8   9
ENDBRANCH   7   8
ENDBRANCH   6   7
ENDBRANCH   5   6
ENDBRANCH   4   5
ENDBRANCH   3   4
ENDBRANCH   2   3
ENDBRANCH   1   2
BRANCH   1  18
ATOM     18  C   UNL     1      41.002 -46.773 161.358  1.00  0.00     0.000 C 
BRANCH  18  19
ATOM     19  C   UNL     1      39.708 -47.520 161.727  1.00  0.00     0.000 C 
BRANCH  19  20
ATOM     20  C   UNL     1      39.888 -48.763 162.624  1.00  0.00     0.000 C 
BRANCH  20  21
ATOM     21  C   UNL     1      38.626 -49.624 162.832  1.00  0.00     0.000 C 
BRANCH  21  22
ATOM     22  C   UNL     1      37.395 -49.175 162.013  1.00  0.00     0.000 C 
BRANCH  22  23
ATOM     23  C   UNL     1      36.095 -49.090 162.835  1.00  0.00     0.000 C 
BRANCH  23  24
ATOM     24  C   UNL     1      34.882 -49.807 162.211  1.00  0.00    -0.000 C 
BRANCH  24  25
ATOM     25  C   UNL     1      35.140 -51.262 161.772  1.00  0.00    -0.000 C 
BRANCH  25  26
ATOM     26  C   UNL     1      35.604 -51.436 160.311  1.00  0.00    -0.000 C 
BRANCH  26  27
ATOM     27  C   UNL     1      34.956 -50.470 159.301  1.00  0.00    -0.000 C 
BRANCH  27  28
ATOM     28  C   UNL     1      35.896 -49.369 158.774  1.00  0.00    -0.000 C 
BRANCH  28  29
ATOM     29  C   UNL     1      35.198 -48.003 158.581  1.00  0.00    -0.000 C 
BRANCH  29  30
ATOM     30  C   UNL     1      35.324 -47.065 159.796  1.00  0.00    -0.000 C 
BRANCH  30  31
ATOM     31  C   UNL     1      36.573 -46.165 159.763  1.00  0.00    -0.003 C 
ATOM     32  C   UNL     1      36.335 -44.847 159.025  1.00  0.00     0.004 C 
ENDBRANCH  30  31
ENDBRANCH  29  30
ENDBRANCH  28  29
ENDBRANCH  27  28
ENDBRANCH  26  27
ENDBRANCH  25  26
ENDBRANCH  24  25
ENDBRANCH  23  24
ENDBRANCH  22  23
ENDBRANCH  21  22
ENDBRANCH  20  21
ENDBRANCH  19  20
ENDBRANCH  18  19
ENDBRANCH   1  18
TORSDOF 28
ENDMDL
MODEL 8
REMARK VINA RESULT:    -6.391      5.406     15.224
REMARK INTER + INTRA:         -19.085
REMARK INTER:                 -16.880
REMARK INTRA:                  -2.205
REMARK UNBOUND:                -2.232
REMARK SMILES CCCCCCCCCCCCCCCCCCCCCCCCCCCCCC(=O)[O-]
REMARK SMILES IDX 16 1 17 2 18 3 19 4 20 5 21 6 22 7 23 8 24 9 25 10 26 11
REMARK SMILES IDX 27 12 28 13 29 14 30 15 31 16 32 17 15 18 14 19 13 20 12 21
REMARK SMILES IDX 11 22 10 23 9 24 8 25 7 26 6 27 5 28 4 29 3 30 2 31 1 32
REMARK H PARENT
REMARK Flexibility Score: inf
ROOT
ATOM      1  C   UNL     1      44.376 -47.453 165.184  1.00  0.00     0.000 C 
ENDROOT
BRANCH   1   2
ATOM      2  C   UNL     1      45.026 -46.128 164.740  1.00  0.00     0.000 C 
BRANCH   2   3
ATOM      3  C   UNL     1      45.736 -45.336 165.857  1.00  0.00     0.000 C 
BRANCH   3   4
ATOM      4  C   UNL     1      47.275 -45.374 165.810  1.00  0.00     0.000 C 
BRANCH   4   5
ATOM      5  C   UNL     1      47.867 -46.392 164.814  1.00  0.00     0.000 C 
BRANCH   5   6
ATOM      6  C   UNL     1      48.394 -47.693 165.447  1.00  0.00     0.000 C 
BRANCH   6   7
ATOM      7  C   UNL     1      49.577 -48.292 164.669  1.00  0.00     0.000 C 
BRANCH   7   8
ATOM      8  C   UNL     1      50.942 -48.008 165.325  1.00  0.00     0.000 C 
BRANCH   8   9
ATOM      9  C   UNL     1      51.305 -46.517 165.475  1.00  0.00     0.000 C 
BRANCH   9  10
ATOM     10  C   UNL     1      52.533 -46.223 166.359  1.00  0.00     0.000 C 
BRANCH  10  11
ATOM     11  C   UNL     1      53.895 -46.501 165.693  1.00  0.00     0.000 C 
BRANCH  11  12
ATOM     12  C   UNL     1      54.886 -45.326 165.729  1.00  0.00     0.000 C 
BRANCH  12  13
ATOM     13  C   UNL     1      54.196 -43.960 165.597  1.00  0.00     0.006 C 
BRANCH  13  14
ATOM     14  C   UNL     1      54.421 -43.361 164.204  1.00  0.00     0.053 C 
BRANCH  14  15
ATOM     15  C   UNL     1      53.890 -41.964 164.134  1.00  0.00     0.041 C 
ATOM     16  O   UNL     1      52.652 -41.750 164.229  1.00  0.00    -0.550 OA
ATOM     17  O   UNL     1      54.761 -40.893 163.972  1.00  0.00    -0.550 OA
ENDBRANCH  14  15
ENDBRANCH  13  14
ENDBRANCH  12  13
ENDBRANCH  11  12
ENDBRANCH  10  11
ENDBRANCH   9  10
ENDBRANCH   8   9
ENDBRANCH   7   8
ENDBRANCH   6   7
ENDBRANCH   5   6
ENDBRANCH   4   5
ENDBRANCH   3   4
ENDBRANCH   2   3
ENDBRANCH   1   2
BRANCH   1  18
ATOM     18  C   UNL     1      44.842 -48.659 164.352  1.00  0.00     0.000 C 
BRANCH  18  19
ATOM     19  C   UNL     1      44.153 -48.738 162.978  1.00  0.00     0.000 C 
BRANCH  19  20
ATOM     20  C   UNL     1      42.649 -48.393 162.966  1.00  0.00     0.000 C 
BRANCH  20  21
ATOM     21  C   UNL     1      42.214 -47.341 161.926  1.00  0.00     0.000 C 
BRANCH  21  22
ATOM     22  C   UNL     1      40.686 -47.201 161.747  1.00  0.00     0.000 C 
BRANCH  22  23
ATOM     23  C   UNL     1      39.883 -48.404 162.276  1.00  0.00     0.000 C 
BRANCH  23  24
ATOM     24  C   UNL     1      38.418 -48.468 161.801  1.00  0.00    -0.000 C 
BRANCH  24  25
ATOM     25  C   UNL     1      37.528 -49.467 162.567  1.00  0.00    -0.000 C 
BRANCH  25  26
ATOM     26  C   UNL     1      36.023 -49.400 162.230  1.00  0.00    -0.000 C 
BRANCH  26  27
ATOM     27  C   UNL     1      35.541 -50.431 161.193  1.00  0.00    -0.000 C 
BRANCH  27  28
ATOM     28  C   UNL     1      34.996 -49.820 159.888  1.00  0.00    -0.000 C 
BRANCH  28  29
ATOM     29  C   UNL     1      36.031 -48.958 159.130  1.00  0.00    -0.000 C 
BRANCH  29  30
ATOM     30  C   UNL     1      35.529 -47.541 158.793  1.00  0.00    -0.000 C 
BRANCH  30  31
ATOM     31  C   UNL     1      35.925 -46.475 159.832  1.00  0.00    -0.003 C 
ATOM     32  C   UNL     1      36.237 -45.118 159.200  1.00  0.00     0.004 C 
ENDBRANCH  30  31
ENDBRANCH  29  30
ENDBRANCH  28  29
ENDBRANCH  27  28
ENDBRANCH  26  27
ENDBRANCH  25  26
ENDBRANCH  24  25
ENDBRANCH  23  24
ENDBRANCH  22  23
ENDBRANCH  21  22
ENDBRANCH  20  21
ENDBRANCH  19  20
ENDBRANCH  18  19
ENDBRANCH   1  18
TORSDOF 28
ENDMDL
MODEL 9
REMARK VINA RESULT:    -6.363      5.264     15.463
REMARK INTER + INTRA:         -19.011
REMARK INTER:                 -16.640
REMARK INTRA:                  -2.371
REMARK UNBOUND:                -2.232
REMARK SMILES CCCCCCCCCCCCCCCCCCCCCCCCCCCCCC(=O)[O-]
REMARK SMILES IDX 16 1 17 2 18 3 19 4 20 5 21 6 22 7 23 8 24 9 25 10 26 11
REMARK SMILES IDX 27 12 28 13 29 14 30 15 31 16 32 17 15 18 14 19 13 20 12 21
REMARK SMILES IDX 11 22 10 23 9 24 8 25 7 26 6 27 5 28 4 29 3 30 2 31 1 32
REMARK H PARENT
REMARK Flexibility Score: inf
ROOT
ATOM      1  C   UNL     1      43.855 -47.687 163.611  1.00  0.00     0.000 C 
ENDROOT
BRANCH   1   2
ATOM      2  C   UNL     1      45.388 -47.757 163.476  1.00  0.00     0.000 C 
BRANCH   2   3
ATOM      3  C   UNL     1      46.143 -46.465 163.855  1.00  0.00     0.000 C 
BRANCH   3   4
ATOM      4  C   UNL     1      47.350 -46.663 164.792  1.00  0.00     0.000 C 
BRANCH   4   5
ATOM      5  C   UNL     1      48.037 -48.040 164.679  1.00  0.00     0.000 C 
BRANCH   5   6
ATOM      6  C   UNL     1      49.536 -48.050 165.027  1.00  0.00     0.000 C 
BRANCH   6   7
ATOM      7  C   UNL     1      50.130 -46.636 165.125  1.00  0.00     0.000 C 
BRANCH   7   8
ATOM      8  C   UNL     1      51.629 -46.629 165.483  1.00  0.00     0.000 C 
BRANCH   8   9
ATOM      9  C   UNL     1      52.219 -47.999 165.875  1.00  0.00     0.000 C 
BRANCH   9  10
ATOM     10  C   UNL     1      53.752 -48.035 166.035  1.00  0.00     0.000 C 
BRANCH  10  11
ATOM     11  C   UNL     1      54.257 -47.895 167.485  1.00  0.00     0.000 C 
BRANCH  11  12
ATOM     12  C   UNL     1      55.005 -46.585 167.787  1.00  0.00     0.000 C 
BRANCH  12  13
ATOM     13  C   UNL     1      54.063 -45.379 167.924  1.00  0.00     0.006 C 
BRANCH  13  14
ATOM     14  C   UNL     1      54.748 -44.089 167.459  1.00  0.00     0.053 C 
BRANCH  14  15
ATOM     15  C   UNL     1      54.312 -43.725 166.074  1.00  0.00     0.041 C 
ATOM     16  O   UNL     1      53.802 -42.596 165.847  1.00  0.00    -0.550 OA
ATOM     17  O   UNL     1      54.475 -44.629 165.031  1.00  0.00    -0.550 OA
ENDBRANCH  14  15
ENDBRANCH  13  14
ENDBRANCH  12  13
ENDBRANCH  11  12
ENDBRANCH  10  11
ENDBRANCH   9  10
ENDBRANCH   8   9
ENDBRANCH   7   8
ENDBRANCH   6   7
ENDBRANCH   5   6
ENDBRANCH   4   5
ENDBRANCH   3   4
ENDBRANCH   2   3
ENDBRANCH   1   2
BRANCH   1  18
ATOM     18  C   UNL     1      43.374 -47.829 165.065  1.00  0.00     0.000 C 
BRANCH  18  19
ATOM     19  C   UNL     1      42.036 -48.583 165.179  1.00  0.00     0.000 C 
BRANCH  19  20
ATOM     20  C   UNL     1      41.275 -48.794 163.853  1.00  0.00     0.000 C 
BRANCH  20  21
ATOM     21  C   UNL     1      40.593 -50.168 163.687  1.00  0.00     0.000 C 
BRANCH  21  22
ATOM     22  C   UNL     1      39.279 -50.144 162.875  1.00  0.00     0.000 C 
BRANCH  22  23
ATOM     23  C   UNL     1      38.626 -48.752 162.785  1.00  0.00     0.000 C 
BRANCH  23  24
ATOM     24  C   UNL     1      38.655 -48.109 161.385  1.00  0.00    -0.000 C 
BRANCH  24  25
ATOM     25  C   UNL     1      37.497 -48.521 160.454  1.00  0.00    -0.000 C 
BRANCH  25  26
ATOM     26  C   UNL     1      36.167 -47.774 160.689  1.00  0.00    -0.000 C 
BRANCH  26  27
ATOM     27  C   UNL     1      34.983 -48.666 161.106  1.00  0.00    -0.000 C 
BRANCH  27  28
ATOM     28  C   UNL     1      34.875 -49.992 160.331  1.00  0.00    -0.000 C 
BRANCH  28  29
ATOM     29  C   UNL     1      34.949 -51.244 161.235  1.00  0.00    -0.000 C 
BRANCH  29  30
ATOM     30  C   UNL     1      35.492 -50.957 162.648  1.00  0.00    -0.000 C 
BRANCH  30  31
ATOM     31  C   UNL     1      36.354 -52.093 163.229  1.00  0.00    -0.003 C 
ATOM     32  C   UNL     1      35.630 -52.890 164.315  1.00  0.00     0.004 C 
ENDBRANCH  30  31
ENDBRANCH  29  30
ENDBRANCH  28  29
ENDBRANCH  27  28
ENDBRANCH  26  27
ENDBRANCH  25  26
ENDBRANCH  24  25
ENDBRANCH  23  24
ENDBRANCH  22  23
ENDBRANCH  21  22
ENDBRANCH  20  21
ENDBRANCH  19  20
ENDBRANCH  18  19
ENDBRANCH   1  18
TORSDOF 28
ENDMDL
