MODEL 1
REMARK VINA RESULT:    -4.956      0.000      0.000
REMARK INTER + INTRA:         -11.041
REMARK INTER:                  -9.012
REMARK INTRA:                  -2.029
REMARK UNBOUND:                -2.029
REMARK SMILES CCCCCCCCCCCCCCCC(=O)[O-]
REMARK SMILES IDX 9 1 10 2 11 3 12 4 13 5 14 6 15 7 16 8 17 9 18 10 8 11 7 12
REMARK SMILES IDX 6 13 5 14 4 15 3 16 2 17 1 18
REMARK H PARENT
REMARK Flexibility Score: inf
ROOT
ATOM      1  C   UNL     1       8.190  18.080  35.502  1.00  0.00     0.000 C 
ENDROOT
BRANCH   1   2
ATOM      2  C   UNL     1       9.269  16.983  35.479  1.00  0.00     0.000 C 
BRANCH   2   3
ATOM      3  C   UNL     1       9.899  16.738  36.861  1.00  0.00     0.000 C 
BRANCH   3   4
ATOM      4  C   UNL     1      11.410  17.008  36.875  1.00  0.00     0.000 C 
BRANCH   4   5
ATOM      5  C   UNL     1      12.007  17.090  35.459  1.00  0.00     0.000 C 
BRANCH   5   6
ATOM      6  C   UNL     1      13.452  16.561  35.391  1.00  0.00     0.006 C 
BRANCH   6   7
ATOM      7  C   UNL     1      13.804  15.550  36.494  1.00  0.00     0.053 C 
BRANCH   7   8
ATOM      8  C   UNL     1      15.013  15.968  37.273  1.00  0.00     0.041 C 
ATOM      9  O   UNL     1      14.893  16.378  38.457  1.00  0.00    -0.550 OA
ATOM     10  O   UNL     1      16.267  15.938  36.678  1.00  0.00    -0.550 OA
ENDBRANCH   7   8
ENDBRANCH   6   7
ENDBRANCH   5   6
ENDBRANCH   4   5
ENDBRANCH   3   4
ENDBRANCH   2   3
ENDBRANCH   1   2
BRANCH   1  11
ATOM     11  C   UNL     1       8.345  19.117  36.632  1.00  0.00     0.000 C 
BRANCH  11  12
ATOM     12  C   UNL     1       9.070  20.419  36.234  1.00  0.00    -0.000 C 
BRANCH  12  13
ATOM     13  C   UNL     1       9.283  20.607  34.721  1.00  0.00    -0.000 C 
BRANCH  13  14
ATOM     14  C   UNL     1      10.733  20.356  34.286  1.00  0.00    -0.000 C 
BRANCH  14  15
ATOM     15  C   UNL     1      10.782  19.644  32.926  1.00  0.00    -0.000 C 
BRANCH  15  16
ATOM     16  C   UNL     1       9.404  19.563  32.250  1.00  0.00    -0.000 C 
BRANCH  16  17
ATOM     17  C   UNL     1       9.056  18.141  31.785  1.00  0.00    -0.003 C 
ATOM     18  C   UNL     1       9.821  17.776  30.517  1.00  0.00     0.004 C 
ENDBRANCH  16  17
ENDBRANCH  15  16
ENDBRANCH  14  15
ENDBRANCH  13  14
ENDBRANCH  12  13
ENDBRANCH  11  12
ENDBRANCH   1  11
TORSDOF 14
ENDMDL
MODEL 2
REMARK VINA RESULT:    -4.926      4.065      7.476
REMARK INTER + INTRA:         -10.986
REMARK INTER:                  -9.437
REMARK INTRA:                  -1.550
REMARK UNBOUND:                -2.029
REMARK SMILES CCCCCCCCCCCCCCCC(=O)[O-]
REMARK SMILES IDX 9 1 10 2 11 3 12 4 13 5 14 6 15 7 16 8 17 9 18 10 8 11 7 12
REMARK SMILES IDX 6 13 5 14 4 15 3 16 2 17 1 18
REMARK H PARENT
REMARK Flexibility Score: inf
ROOT
ATOM      1  C   UNL     1      15.812  17.971  38.001  1.00  0.00     0.000 C 
ENDROOT
BRANCH   1   2
ATOM      2  C   UNL     1      15.347  16.590  38.499  1.00  0.00     0.000 C 
BRANCH   2   3
ATOM      3  C   UNL     1      13.878  16.297  38.152  1.00  0.00     0.000 C 
BRANCH   3   4
ATOM      4  C   UNL     1      13.731  15.447  36.882  1.00  0.00     0.000 C 
BRANCH   4   5
ATOM      5  C   UNL     1      13.689  16.302  35.603  1.00  0.00     0.000 C 
BRANCH   5   6
ATOM      6  C   UNL     1      12.800  17.550  35.751  1.00  0.00     0.006 C 
BRANCH   6   7
ATOM      7  C   UNL     1      11.293  17.269  35.628  1.00  0.00     0.053 C 
BRANCH   7   8
ATOM      8  C   UNL     1      10.529  17.778  36.811  1.00  0.00     0.041 C 
ATOM      9  O   UNL     1      11.126  18.391  37.734  1.00  0.00    -0.550 OA
ATOM     10  O   UNL     1       9.164  17.545  36.909  1.00  0.00    -0.550 OA
ENDBRANCH   7   8
ENDBRANCH   6   7
ENDBRANCH   5   6
ENDBRANCH   4   5
ENDBRANCH   3   4
ENDBRANCH   2   3
ENDBRANCH   1   2
BRANCH   1  11
ATOM     11  C   UNL     1      16.854  17.932  36.865  1.00  0.00     0.000 C 
BRANCH  11  12
ATOM     12  C   UNL     1      17.274  16.520  36.407  1.00  0.00    -0.000 C 
BRANCH  12  13
ATOM     13  C   UNL     1      17.607  16.396  34.909  1.00  0.00    -0.000 C 
BRANCH  13  14
ATOM     14  C   UNL     1      18.978  15.753  34.654  1.00  0.00    -0.000 C 
BRANCH  14  15
ATOM     15  C   UNL     1      20.035  16.822  34.340  1.00  0.00    -0.000 C 
BRANCH  15  16
ATOM     16  C   UNL     1      19.418  18.205  34.074  1.00  0.00    -0.000 C 
BRANCH  16  17
ATOM     17  C   UNL     1      19.871  18.807  32.736  1.00  0.00    -0.003 C 
ATOM     18  C   UNL     1      20.113  17.715  31.697  1.00  0.00     0.004 C 
ENDBRANCH  16  17
ENDBRANCH  15  16
ENDBRANCH  14  15
ENDBRANCH  13  14
ENDBRANCH  12  13
ENDBRANCH  11  12
ENDBRANCH   1  11
TORSDOF 14
ENDMDL
MODEL 3
REMARK VINA RESULT:    -4.868      2.832      4.822
REMARK INTER + INTRA:         -10.881
REMARK INTER:                  -8.867
REMARK INTRA:                  -2.014
REMARK UNBOUND:                -2.029
REMARK SMILES CCCCCCCCCCCCCCCC(=O)[O-]
REMARK SMILES IDX 9 1 10 2 11 3 12 4 13 5 14 6 15 7 16 8 17 9 18 10 8 11 7 12
REMARK SMILES IDX 6 13 5 14 4 15 3 16 2 17 1 18
REMARK H PARENT
REMARK Flexibility Score: inf
ROOT
ATOM      1  C   UNL     1      10.081  18.965  31.992  1.00  0.00     0.000 C 
ENDROOT
BRANCH   1   2
ATOM      2  C   UNL     1       9.779  18.269  33.332  1.00  0.00     0.000 C 
BRANCH   2   3
ATOM      3  C   UNL     1       8.272  18.148  33.613  1.00  0.00     0.000 C 
BRANCH   3   4
ATOM      4  C   UNL     1       7.875  18.758  34.965  1.00  0.00     0.000 C 
BRANCH   4   5
ATOM      5  C   UNL     1       8.819  19.895  35.398  1.00  0.00     0.000 C 
BRANCH   5   6
ATOM      6  C   UNL     1       9.038  19.938  36.922  1.00  0.00     0.006 C 
BRANCH   6   7
ATOM      7  C   UNL     1       8.917  18.570  37.614  1.00  0.00     0.053 C 
BRANCH   7   8
ATOM      8  C   UNL     1      10.207  17.810  37.580  1.00  0.00     0.041 C 
ATOM      9  O   UNL     1      10.334  16.810  36.826  1.00  0.00    -0.550 OA
ATOM     10  O   UNL     1      11.258  18.185  38.407  1.00  0.00    -0.550 OA
ENDBRANCH   7   8
ENDBRANCH   6   7
ENDBRANCH   5   6
ENDBRANCH   4   5
ENDBRANCH   3   4
ENDBRANCH   2   3
ENDBRANCH   1   2
BRANCH   1  11
ATOM     11  C   UNL     1       9.005  18.770  30.905  1.00  0.00     0.000 C 
BRANCH  11  12
ATOM     12  C   UNL     1       8.334  20.065  30.405  1.00  0.00    -0.000 C 
BRANCH  12  13
ATOM     13  C   UNL     1       7.946  21.064  31.511  1.00  0.00    -0.000 C 
BRANCH  13  14
ATOM     14  C   UNL     1       8.154  22.527  31.093  1.00  0.00    -0.000 C 
BRANCH  14  15
ATOM     15  C   UNL     1       9.527  23.038  31.554  1.00  0.00    -0.000 C 
BRANCH  15  16
ATOM     16  C   UNL     1       9.952  22.455  32.912  1.00  0.00    -0.000 C 
BRANCH  16  17
ATOM     17  C   UNL     1      11.470  22.521  33.135  1.00  0.00    -0.003 C 
ATOM     18  C   UNL     1      11.832  22.125  34.563  1.00  0.00     0.004 C 
ENDBRANCH  16  17
ENDBRANCH  15  16
ENDBRANCH  14  15
ENDBRANCH  13  14
ENDBRANCH  12  13
ENDBRANCH  11  12
ENDBRANCH   1  11
TORSDOF 14
ENDMDL
MODEL 4
REMARK VINA RESULT:    -4.860      2.547      4.820
REMARK INTER + INTRA:         -10.867
REMARK INTER:                  -9.069
REMARK INTRA:                  -1.798
REMARK UNBOUND:                -2.029
REMARK SMILES CCCCCCCCCCCCCCCC(=O)[O-]
REMARK SMILES IDX 9 1 10 2 11 3 12 4 13 5 14 6 15 7 16 8 17 9 18 10 8 11 7 12
REMARK SMILES IDX 6 13 5 14 4 15 3 16 2 17 1 18
REMARK H PARENT
REMARK Flexibility Score: inf
ROOT
ATOM      1  C   UNL     1      12.932  16.368  37.070  1.00  0.00     0.000 C 
ENDROOT
BRANCH   1   2
ATOM      2  C   UNL     1      13.221  17.391  38.183  1.00  0.00     0.000 C 
BRANCH   2   3
ATOM      3  C   UNL     1      14.720  17.521  38.498  1.00  0.00     0.000 C 
BRANCH   3   4
ATOM      4  C   UNL     1      15.475  16.194  38.329  1.00  0.00     0.000 C 
BRANCH   4   5
ATOM      5  C   UNL     1      16.513  16.247  37.195  1.00  0.00     0.000 C 
BRANCH   5   6
ATOM      6  C   UNL     1      16.820  17.685  36.736  1.00  0.00     0.006 C 
BRANCH   6   7
ATOM      7  C   UNL     1      16.704  17.899  35.218  1.00  0.00     0.053 C 
BRANCH   7   8
ATOM      8  C   UNL     1      18.033  17.802  34.535  1.00  0.00     0.041 C 
ATOM      9  O   UNL     1      18.096  17.717  33.280  1.00  0.00    -0.550 OA
ATOM     10  O   UNL     1      19.200  17.771  35.286  1.00  0.00    -0.550 OA
ENDBRANCH   7   8
ENDBRANCH   6   7
ENDBRANCH   5   6
ENDBRANCH   4   5
ENDBRANCH   3   4
ENDBRANCH   2   3
ENDBRANCH   1   2
BRANCH   1  11
ATOM     11  C   UNL     1      12.806  16.969  35.656  1.00  0.00     0.000 C 
BRANCH  11  12
ATOM     12  C   UNL     1      12.107  18.342  35.586  1.00  0.00    -0.000 C 
BRANCH  12  13
ATOM     13  C   UNL     1      10.796  18.363  34.779  1.00  0.00    -0.000 C 
BRANCH  13  14
ATOM     14  C   UNL     1      10.039  17.028  34.834  1.00  0.00    -0.000 C 
BRANCH  14  15
ATOM     15  C   UNL     1       9.225  16.912  36.131  1.00  0.00    -0.000 C 
BRANCH  15  16
ATOM     16  C   UNL     1       8.143  17.998  36.250  1.00  0.00    -0.000 C 
BRANCH  16  17
ATOM     17  C   UNL     1       8.261  18.811  37.547  1.00  0.00    -0.003 C 
ATOM     18  C   UNL     1       9.507  18.413  38.333  1.00  0.00     0.004 C 
ENDBRANCH  16  17
ENDBRANCH  15  16
ENDBRANCH  14  15
ENDBRANCH  13  14
ENDBRANCH  12  13
ENDBRANCH  11  12
ENDBRANCH   1  11
TORSDOF 14
ENDMDL
MODEL 5
REMARK VINA RESULT:    -4.858      1.558      3.940
REMARK INTER + INTRA:         -10.862
REMARK INTER:                  -8.136
REMARK INTRA:                  -2.726
REMARK UNBOUND:                -2.029
REMARK SMILES CCCCCCCCCCCCCCCC(=O)[O-]
REMARK SMILES IDX 9 1 10 2 11 3 12 4 13 5 14 6 15 7 16 8 17 9 18 10 8 11 7 12
REMARK SMILES IDX 6 13 5 14 4 15 3 16 2 17 1 18
REMARK H PARENT
REMARK Flexibility Score: inf
ROOT
ATOM      1  C   UNL     1       9.216  18.071  33.205  1.00  0.00     0.000 C 
ENDROOT
BRANCH   1   2
ATOM      2  C   UNL     1       8.004  18.357  34.110  1.00  0.00     0.000 C 
BRANCH   2   3
ATOM      3  C   UNL     1       8.001  17.502  35.388  1.00  0.00     0.000 C 
BRANCH   3   4
ATOM      4  C   UNL     1       9.296  16.693  35.558  1.00  0.00     0.000 C 
BRANCH   4   5
ATOM      5  C   UNL     1       9.988  16.967  36.905  1.00  0.00     0.000 C 
BRANCH   5   6
ATOM      6  C   UNL     1      11.521  17.053  36.779  1.00  0.00     0.006 C 
BRANCH   6   7
ATOM      7  C   UNL     1      12.216  17.699  37.989  1.00  0.00     0.053 C 
BRANCH   7   8
ATOM      8  C   UNL     1      13.546  17.072  38.272  1.00  0.00     0.041 C 
ATOM      9  O   UNL     1      13.772  15.882  37.926  1.00  0.00    -0.550 OA
ATOM     10  O   UNL     1      14.524  17.790  38.947  1.00  0.00    -0.550 OA
ENDBRANCH   7   8
ENDBRANCH   6   7
ENDBRANCH   5   6
ENDBRANCH   4   5
ENDBRANCH   3   4
ENDBRANCH   2   3
ENDBRANCH   1   2
BRANCH   1  11
ATOM     11  C   UNL     1       9.907  19.325  32.634  1.00  0.00     0.000 C 
BRANCH  11  12
ATOM     12  C   UNL     1      10.177  20.449  33.655  1.00  0.00    -0.000 C 
BRANCH  12  13
ATOM     13  C   UNL     1      11.141  20.074  34.795  1.00  0.00    -0.000 C 
BRANCH  13  14
ATOM     14  C   UNL     1      10.733  20.680  36.145  1.00  0.00    -0.000 C 
BRANCH  14  15
ATOM     15  C   UNL     1       9.228  20.982  36.178  1.00  0.00    -0.000 C 
BRANCH  15  16
ATOM     16  C   UNL     1       8.552  20.483  37.466  1.00  0.00    -0.000 C 
BRANCH  16  17
ATOM     17  C   UNL     1       9.555  20.230  38.601  1.00  0.00    -0.003 C 
ATOM     18  C   UNL     1       8.939  19.364  39.696  1.00  0.00     0.004 C 
ENDBRANCH  16  17
ENDBRANCH  15  16
ENDBRANCH  14  15
ENDBRANCH  13  14
ENDBRANCH  12  13
ENDBRANCH  11  12
ENDBRANCH   1  11
TORSDOF 14
ENDMDL
MODEL 6
REMARK VINA RESULT:    -4.856      3.871      5.397
REMARK INTER + INTRA:         -10.859
REMARK INTER:                  -8.749
REMARK INTRA:                  -2.110
REMARK UNBOUND:                -2.029
REMARK SMILES CCCCCCCCCCCCCCCC(=O)[O-]
REMARK SMILES IDX 9 1 10 2 11 3 12 4 13 5 14 6 15 7 16 8 17 9 18 10 8 11 7 12
REMARK SMILES IDX 6 13 5 14 4 15 3 16 2 17 1 18
REMARK H PARENT
REMARK Flexibility Score: inf
ROOT
ATOM      1  C   UNL     1      10.007  19.056  32.074  1.00  0.00     0.000 C 
ENDROOT
BRANCH   1   2
ATOM      2  C   UNL     1       9.702  18.215  33.327  1.00  0.00     0.000 C 
BRANCH   2   3
ATOM      3  C   UNL     1       8.219  18.266  33.732  1.00  0.00     0.000 C 
BRANCH   3   4
ATOM      4  C   UNL     1       7.952  19.274  34.859  1.00  0.00     0.000 C 
BRANCH   4   5
ATOM      5  C   UNL     1       8.417  18.757  36.233  1.00  0.00     0.000 C 
BRANCH   5   6
ATOM      6  C   UNL     1       8.292  19.819  37.341  1.00  0.00     0.006 C 
BRANCH   6   7
ATOM      7  C   UNL     1       9.610  20.119  38.076  1.00  0.00     0.053 C 
BRANCH   7   8
ATOM      8  C   UNL     1       9.463  19.997  39.561  1.00  0.00     0.041 C 
ATOM      9  O   UNL     1       8.952  18.962  40.064  1.00  0.00    -0.550 OA
ATOM     10  O   UNL     1       9.858  21.041  40.387  1.00  0.00    -0.550 OA
ENDBRANCH   7   8
ENDBRANCH   6   7
ENDBRANCH   5   6
ENDBRANCH   4   5
ENDBRANCH   3   4
ENDBRANCH   2   3
ENDBRANCH   1   2
BRANCH   1  11
ATOM     11  C   UNL     1       9.021  18.858  30.906  1.00  0.00     0.000 C 
BRANCH  11  12
ATOM     12  C   UNL     1       8.360  20.147  30.378  1.00  0.00    -0.000 C 
BRANCH  12  13
ATOM     13  C   UNL     1       8.092  21.224  31.445  1.00  0.00    -0.000 C 
BRANCH  13  14
ATOM     14  C   UNL     1       8.859  22.528  31.184  1.00  0.00    -0.000 C 
BRANCH  14  15
ATOM     15  C   UNL     1       9.663  22.948  32.423  1.00  0.00    -0.000 C 
BRANCH  15  16
ATOM     16  C   UNL     1       8.787  23.091  33.678  1.00  0.00    -0.000 C 
BRANCH  16  17
ATOM     17  C   UNL     1       9.516  22.662  34.960  1.00  0.00    -0.003 C 
ATOM     18  C   UNL     1      10.674  21.720  34.644  1.00  0.00     0.004 C 
ENDBRANCH  16  17
ENDBRANCH  15  16
ENDBRANCH  14  15
ENDBRANCH  13  14
ENDBRANCH  12  13
ENDBRANCH  11  12
ENDBRANCH   1  11
TORSDOF 14
ENDMDL
MODEL 7
REMARK VINA RESULT:    -4.789      1.584      2.811
REMARK INTER + INTRA:         -10.737
REMARK INTER:                  -9.283
REMARK INTRA:                  -1.454
REMARK UNBOUND:                -2.029
REMARK SMILES CCCCCCCCCCCCCCCC(=O)[O-]
REMARK SMILES IDX 9 1 10 2 11 3 12 4 13 5 14 6 15 7 16 8 17 9 18 10 8 11 7 12
REMARK SMILES IDX 6 13 5 14 4 15 3 16 2 17 1 18
REMARK H PARENT
REMARK Flexibility Score: inf
ROOT
ATOM      1  C   UNL     1      11.553  18.032  35.189  1.00  0.00     0.000 C 
ENDROOT
BRANCH   1   2
ATOM      2  C   UNL     1      12.530  17.558  36.280  1.00  0.00     0.000 C 
BRANCH   2   3
ATOM      3  C   UNL     1      12.051  17.904  37.700  1.00  0.00     0.000 C 
BRANCH   3   4
ATOM      4  C   UNL     1      13.022  17.415  38.784  1.00  0.00     0.000 C 
BRANCH   4   5
ATOM      5  C   UNL     1      14.313  16.820  38.194  1.00  0.00     0.000 C 
BRANCH   5   6
ATOM      6  C   UNL     1      15.565  17.642  38.552  1.00  0.00     0.006 C 
BRANCH   6   7
ATOM      7  C   UNL     1      16.325  18.193  37.334  1.00  0.00     0.053 C 
BRANCH   7   8
ATOM      8  C   UNL     1      16.521  17.150  36.277  1.00  0.00     0.041 C 
ATOM      9  O   UNL     1      17.275  16.165  36.491  1.00  0.00    -0.550 OA
ATOM     10  O   UNL     1      15.897  17.285  35.044  1.00  0.00    -0.550 OA
ENDBRANCH   7   8
ENDBRANCH   6   7
ENDBRANCH   5   6
ENDBRANCH   4   5
ENDBRANCH   3   4
ENDBRANCH   2   3
ENDBRANCH   1   2
BRANCH   1  11
ATOM     11  C   UNL     1      10.464  17.010  34.808  1.00  0.00     0.000 C 
BRANCH  11  12
ATOM     12  C   UNL     1       9.099  17.217  35.495  1.00  0.00    -0.000 C 
BRANCH  12  13
ATOM     13  C   UNL     1       8.072  18.018  34.674  1.00  0.00    -0.000 C 
BRANCH  13  14
ATOM     14  C   UNL     1       8.265  19.536  34.796  1.00  0.00    -0.000 C 
BRANCH  14  15
ATOM     15  C   UNL     1       8.824  20.124  33.492  1.00  0.00    -0.000 C 
BRANCH  15  16
ATOM     16  C   UNL     1       8.650  19.177  32.293  1.00  0.00    -0.000 C 
BRANCH  16  17
ATOM     17  C   UNL     1       9.987  18.812  31.629  1.00  0.00    -0.003 C 
ATOM     18  C   UNL     1       9.792  17.752  30.549  1.00  0.00     0.004 C 
ENDBRANCH  16  17
ENDBRANCH  15  16
ENDBRANCH  14  15
ENDBRANCH  13  14
ENDBRANCH  12  13
ENDBRANCH  11  12
ENDBRANCH   1  11
TORSDOF 14
ENDMDL
MODEL 8
REMARK VINA RESULT:    -4.723      4.350      6.096
REMARK INTER + INTRA:         -10.617
REMARK INTER:                  -8.564
REMARK INTRA:                  -2.053
REMARK UNBOUND:                -2.029
REMARK SMILES CCCCCCCCCCCCCCCC(=O)[O-]
REMARK SMILES IDX 9 1 10 2 11 3 12 4 13 5 14 6 15 7 16 8 17 9 18 10 8 11 7 12
REMARK SMILES IDX 6 13 5 14 4 15 3 16 2 17 1 18
REMARK H PARENT
REMARK Flexibility Score: inf
ROOT
ATOM      1  C   UNL     1      10.433  18.804  37.228  1.00  0.00     0.000 C 
ENDROOT
BRANCH   1   2
ATOM      2  C   UNL     1       9.519  19.983  37.607  1.00  0.00     0.000 C 
BRANCH   2   3
ATOM      3  C   UNL     1       9.363  21.005  36.469  1.00  0.00     0.000 C 
BRANCH   3   4
ATOM      4  C   UNL     1      10.665  21.211  35.681  1.00  0.00     0.000 C 
BRANCH   4   5
ATOM      5  C   UNL     1      10.463  22.080  34.427  1.00  0.00     0.000 C 
BRANCH   5   6
ATOM      6  C   UNL     1       8.978  22.262  34.062  1.00  0.00     0.006 C 
BRANCH   6   7
ATOM      7  C   UNL     1       8.743  22.987  32.726  1.00  0.00     0.053 C 
BRANCH   7   8
ATOM      8  C   UNL     1       9.707  24.114  32.523  1.00  0.00     0.041 C 
ATOM      9  O   UNL     1      10.563  24.057  31.601  1.00  0.00    -0.550 OA
ATOM     10  O   UNL     1       9.683  25.212  33.373  1.00  0.00    -0.550 OA
ENDBRANCH   7   8
ENDBRANCH   6   7
ENDBRANCH   5   6
ENDBRANCH   4   5
ENDBRANCH   3   4
ENDBRANCH   2   3
ENDBRANCH   1   2
BRANCH   1  11
ATOM     11  C   UNL     1       9.788  17.412  37.372  1.00  0.00     0.000 C 
BRANCH  11  12
ATOM     12  C   UNL     1       9.294  16.778  36.055  1.00  0.00    -0.000 C 
BRANCH  12  13
ATOM     13  C   UNL     1       8.005  17.392  35.482  1.00  0.00    -0.000 C 
BRANCH  13  14
ATOM     14  C   UNL     1       8.244  18.182  34.187  1.00  0.00    -0.000 C 
BRANCH  14  15
ATOM     15  C   UNL     1       9.676  17.972  33.674  1.00  0.00    -0.000 C 
BRANCH  15  16
ATOM     16  C   UNL     1      10.093  19.024  32.632  1.00  0.00    -0.000 C 
BRANCH  16  17
ATOM     17  C   UNL     1       9.263  18.938  31.342  1.00  0.00    -0.003 C 
ATOM     18  C   UNL     1       9.702  17.754  30.485  1.00  0.00     0.004 C 
ENDBRANCH  16  17
ENDBRANCH  15  16
ENDBRANCH  14  15
ENDBRANCH  13  14
ENDBRANCH  12  13
ENDBRANCH  11  12
ENDBRANCH   1  11
TORSDOF 14
ENDMDL
MODEL 9
REMARK VINA RESULT:    -4.712      3.289      5.512
REMARK INTER + INTRA:         -10.596
REMARK INTER:                  -8.569
REMARK INTRA:                  -2.027
REMARK UNBOUND:                -2.029
REMARK SMILES CCCCCCCCCCCCCCCC(=O)[O-]
REMARK SMILES IDX 9 1 10 2 11 3 12 4 13 5 14 6 15 7 16 8 17 9 18 10 8 11 7 12
REMARK SMILES IDX 6 13 5 14 4 15 3 16 2 17 1 18
REMARK H PARENT
REMARK Flexibility Score: inf
ROOT
ATOM      1  C   UNL     1      10.881  22.371  32.582  1.00  0.00     0.000 C 
ENDROOT
BRANCH   1   2
ATOM      2  C   UNL     1      11.136  22.616  34.080  1.00  0.00     0.000 C 
BRANCH   2   3
ATOM      3  C   UNL     1      10.149  23.623  34.694  1.00  0.00     0.000 C 
BRANCH   3   4
ATOM      4  C   UNL     1       9.379  23.039  35.887  1.00  0.00     0.000 C 
BRANCH   4   5
ATOM      5  C   UNL     1       9.032  21.552  35.693  1.00  0.00     0.000 C 
BRANCH   5   6
ATOM      6  C   UNL     1       9.556  20.665  36.837  1.00  0.00     0.006 C 
BRANCH   6   7
ATOM      7  C   UNL     1       8.462  19.863  37.562  1.00  0.00     0.053 C 
BRANCH   7   8
ATOM      8  C   UNL     1       9.027  19.003  38.651  1.00  0.00     0.041 C 
ATOM      9  O   UNL     1       8.707  19.208  39.851  1.00  0.00    -0.550 OA
ATOM     10  O   UNL     1       9.932  17.996  38.342  1.00  0.00    -0.550 OA
ENDBRANCH   7   8
ENDBRANCH   6   7
ENDBRANCH   5   6
ENDBRANCH   4   5
ENDBRANCH   3   4
ENDBRANCH   2   3
ENDBRANCH   1   2
BRANCH   1  11
ATOM     11  C   UNL     1       9.818  23.289  31.947  1.00  0.00     0.000 C 
BRANCH  11  12
ATOM     12  C   UNL     1       8.609  22.562  31.325  1.00  0.00    -0.000 C 
BRANCH  12  13
ATOM     13  C   UNL     1       8.312  21.172  31.916  1.00  0.00    -0.000 C 
BRANCH  13  14
ATOM     14  C   UNL     1       8.589  20.031  30.926  1.00  0.00    -0.000 C 
BRANCH  14  15
ATOM     15  C   UNL     1       8.940  18.734  31.670  1.00  0.00    -0.000 C 
BRANCH  15  16
ATOM     16  C   UNL     1       9.342  18.980  33.133  1.00  0.00    -0.000 C 
BRANCH  16  17
ATOM     17  C   UNL     1       8.480  18.185  34.125  1.00  0.00    -0.003 C 
ATOM     18  C   UNL     1       9.333  17.225  34.948  1.00  0.00     0.004 C 
ENDBRANCH  16  17
ENDBRANCH  15  16
ENDBRANCH  14  15
ENDBRANCH  13  14
ENDBRANCH  12  13
ENDBRANCH  11  12
ENDBRANCH   1  11
TORSDOF 14
ENDMDL
