MODEL 1
REMARK VINA RESULT:    -7.411      0.000      0.000
REMARK INTER + INTRA:          -8.984
REMARK INTER:                  -8.711
REMARK INTRA:                  -0.272
REMARK UNBOUND:                -0.272
REMARK SMILES O=c1cc(-c2ccc(O)c(O)c2)oc2cc(O)cc(O)c12
REMARK SMILES IDX 4 1 3 2 2 3 1 4 21 5 19 6 18 7 16 8 15 9 14 10 13 11 5 12
REMARK SMILES IDX 6 13 7 14 8 15 12 16 10 17 9 18 11 20 20 22 17 24
REMARK H PARENT 9 19 11 21 20 23 17 25
REMARK Flexibility Score: inf
ROOT
ATOM      1  C   UNL     1     -31.097  13.356   0.922  1.00  0.00     0.138 A 
ATOM      2  C   UNL     1     -31.116  12.276   0.024  1.00  0.00     0.100 A 
ATOM      3  C   UNL     1     -32.237  11.447  -0.029  1.00  0.00     0.197 A 
ATOM      4  O   UNL     1     -32.245  10.480  -0.838  1.00  0.00    -0.289 OA
ATOM      5  C   UNL     1     -33.334  11.705   0.817  1.00  0.00     0.107 A 
ATOM      6  C   UNL     1     -34.507  10.914   0.829  1.00  0.00     0.134 A 
ATOM      7  C   UNL     1     -35.558  11.241   1.698  1.00  0.00     0.093 A 
ATOM      8  C   UNL     1     -35.459  12.342   2.552  1.00  0.00     0.123 A 
ATOM      9  C   UNL     1     -34.303  13.128   2.545  1.00  0.00     0.094 A 
ATOM     10  C   UNL     1     -33.243  12.817   1.688  1.00  0.00     0.146 A 
ATOM     11  O   UNL     1     -32.153  13.578   1.700  1.00  0.00    -0.456 OA
ENDROOT
BRANCH   1  12
ATOM     12  C   UNL     1     -29.932  14.272   1.020  1.00  0.00     0.021 A 
ATOM     13  C   UNL     1     -29.342  14.508   2.275  1.00  0.00     0.016 A 
ATOM     14  C   UNL     1     -28.241  15.359   2.393  1.00  0.00     0.051 A 
ATOM     15  C   UNL     1     -27.706  15.983   1.259  1.00  0.00     0.157 A 
ATOM     16  C   UNL     1     -29.379  14.892  -0.117  1.00  0.00     0.062 A 
ATOM     17  C   UNL     1     -28.273  15.745   0.003  1.00  0.00     0.158 A 
BRANCH  15  18
ATOM     18  O   UNL     1     -26.608  16.834   1.374  1.00  0.00    -0.504 OA
ATOM     19  H   UNL     1     -25.909  16.898   0.643  1.00  0.00     0.293 HD
ENDBRANCH  15  18
BRANCH  17  20
ATOM     20  O   UNL     1     -27.730  16.358  -1.125  1.00  0.00    -0.504 OA
ATOM     21  H   UNL     1     -26.748  16.608  -1.173  1.00  0.00     0.293 HD
ENDBRANCH  17  20
ENDBRANCH   1  12
BRANCH   6  22
ATOM     22  O   UNL     1     -34.635   9.808  -0.013  1.00  0.00    -0.507 OA
ATOM     23  H   UNL     1     -35.524   9.551  -0.425  1.00  0.00     0.293 HD
ENDBRANCH   6  22
BRANCH   8  24
ATOM     24  O   UNL     1     -36.518  12.646   3.405  1.00  0.00    -0.508 OA
ATOM     25  H   UNL     1     -37.156  11.929   3.734  1.00  0.00     0.293 HD
ENDBRANCH   8  24
TORSDOF 5
ENDMDL
MODEL 2
REMARK VINA RESULT:    -7.315      1.233      3.045
REMARK INTER + INTRA:          -8.871
REMARK INTER:                  -8.600
REMARK INTRA:                  -0.270
REMARK UNBOUND:                -0.272
REMARK SMILES O=c1cc(-c2ccc(O)c(O)c2)oc2cc(O)cc(O)c12
REMARK SMILES IDX 4 1 3 2 2 3 1 4 21 5 19 6 18 7 16 8 15 9 14 10 13 11 5 12
REMARK SMILES IDX 6 13 7 14 8 15 12 16 10 17 9 18 11 20 20 22 17 24
REMARK H PARENT 9 19 11 21 20 23 17 25
REMARK Flexibility Score: inf
ROOT
ATOM      1  C   UNL     1     -31.123  14.531   1.131  1.00  0.00     0.138 A 
ATOM      2  C   UNL     1     -31.926  15.131   2.115  1.00  0.00     0.100 A 
ATOM      3  C   UNL     1     -33.118  14.517   2.496  1.00  0.00     0.197 A 
ATOM      4  O   UNL     1     -33.832  15.062   3.381  1.00  0.00    -0.289 OA
ATOM      5  C   UNL     1     -33.500  13.302   1.892  1.00  0.00     0.107 A 
ATOM      6  C   UNL     1     -34.692  12.614   2.219  1.00  0.00     0.134 A 
ATOM      7  C   UNL     1     -34.997  11.406   1.575  1.00  0.00     0.093 A 
ATOM      8  C   UNL     1     -34.135  10.874   0.614  1.00  0.00     0.123 A 
ATOM      9  C   UNL     1     -32.954  11.548   0.286  1.00  0.00     0.094 A 
ATOM     10  C   UNL     1     -32.633  12.755   0.916  1.00  0.00     0.146 A 
ATOM     11  O   UNL     1     -31.506  13.378   0.587  1.00  0.00    -0.456 OA
ENDROOT
BRANCH   1  12
ATOM     12  C   UNL     1     -29.843  15.139   0.686  1.00  0.00     0.021 A 
ATOM     13  C   UNL     1     -29.648  15.420  -0.678  1.00  0.00     0.016 A 
ATOM     14  C   UNL     1     -28.456  15.999  -1.121  1.00  0.00     0.051 A 
ATOM     15  C   UNL     1     -27.442  16.314  -0.207  1.00  0.00     0.157 A 
ATOM     16  C   UNL     1     -28.824  15.472   1.600  1.00  0.00     0.062 A 
ATOM     17  C   UNL     1     -27.628  16.054   1.155  1.00  0.00     0.158 A 
BRANCH  15  18
ATOM     18  O   UNL     1     -26.252  16.890  -0.646  1.00  0.00    -0.504 OA
ATOM     19  H   UNL     1     -26.231  17.817  -1.056  1.00  0.00     0.293 HD
ENDBRANCH  15  18
BRANCH  17  20
ATOM     20  O   UNL     1     -26.622  16.381   2.062  1.00  0.00    -0.504 OA
ATOM     21  H   UNL     1     -26.559  17.304   2.475  1.00  0.00     0.293 HD
ENDBRANCH  17  20
ENDBRANCH   1  12
BRANCH   6  22
ATOM     22  O   UNL     1     -35.574  13.121   3.175  1.00  0.00    -0.507 OA
ATOM     23  H   UNL     1     -35.612  12.748   4.116  1.00  0.00     0.293 HD
ENDBRANCH   6  22
BRANCH   8  24
ATOM     24  O   UNL     1     -34.461   9.671  -0.010  1.00  0.00    -0.508 OA
ATOM     25  H   UNL     1     -35.080   9.642  -0.813  1.00  0.00     0.293 HD
ENDBRANCH   8  24
TORSDOF 5
ENDMDL
MODEL 3
REMARK VINA RESULT:    -7.253      2.622      6.884
REMARK INTER + INTRA:          -8.798
REMARK INTER:                  -8.534
REMARK INTRA:                  -0.263
REMARK UNBOUND:                -0.272
REMARK SMILES O=c1cc(-c2ccc(O)c(O)c2)oc2cc(O)cc(O)c12
REMARK SMILES IDX 4 1 3 2 2 3 1 4 21 5 19 6 18 7 16 8 15 9 14 10 13 11 5 12
REMARK SMILES IDX 6 13 7 14 8 15 12 16 10 17 9 18 11 20 20 22 17 24
REMARK H PARENT 9 19 11 21 20 23 17 25
REMARK Flexibility Score: inf
ROOT
ATOM      1  C   UNL     1     -31.857  13.962   0.761  1.00  0.00     0.138 A 
ATOM      2  C   UNL     1     -31.072  14.799   1.571  1.00  0.00     0.100 A 
ATOM      3  C   UNL     1     -29.706  14.544   1.700  1.00  0.00     0.197 A 
ATOM      4  O   UNL     1     -29.009  15.300   2.429  1.00  0.00    -0.289 OA
ATOM      5  C   UNL     1     -29.134  13.454   1.014  1.00  0.00     0.107 A 
ATOM      6  C   UNL     1     -27.760  13.126   1.091  1.00  0.00     0.134 A 
ATOM      7  C   UNL     1     -27.267  12.026   0.372  1.00  0.00     0.093 A 
ATOM      8  C   UNL     1     -28.118  11.253  -0.420  1.00  0.00     0.123 A 
ATOM      9  C   UNL     1     -29.477  11.573  -0.501  1.00  0.00     0.094 A 
ATOM     10  C   UNL     1     -29.989  12.663   0.210  1.00  0.00     0.146 A 
ATOM     11  O   UNL     1     -31.284  12.947   0.118  1.00  0.00    -0.456 OA
ENDROOT
BRANCH   1  12
ATOM     12  C   UNL     1     -33.315  14.186   0.585  1.00  0.00     0.021 A 
ATOM     13  C   UNL     1     -33.779  14.846  -0.567  1.00  0.00     0.016 A 
ATOM     14  C   UNL     1     -35.146  15.062  -0.759  1.00  0.00     0.051 A 
ATOM     15  C   UNL     1     -36.072  14.614   0.191  1.00  0.00     0.157 A 
ATOM     16  C   UNL     1     -34.254  13.727   1.529  1.00  0.00     0.062 A 
ATOM     17  C   UNL     1     -35.626  13.943   1.334  1.00  0.00     0.158 A 
BRANCH  15  18
ATOM     18  O   UNL     1     -37.436  14.830   0.002  1.00  0.00    -0.504 OA
ATOM     19  H   UNL     1     -37.893  14.600  -0.873  1.00  0.00     0.293 HD
ENDBRANCH  15  18
BRANCH  17  20
ATOM     20  O   UNL     1     -36.552  13.489   2.271  1.00  0.00    -0.504 OA
ATOM     21  H   UNL     1     -36.273  13.228   3.211  1.00  0.00     0.293 HD
ENDBRANCH  17  20
ENDBRANCH   1  12
BRANCH   6  22
ATOM     22  O   UNL     1     -26.884  13.879   1.874  1.00  0.00    -0.507 OA
ATOM     23  H   UNL     1     -26.166  13.443   2.441  1.00  0.00     0.293 HD
ENDBRANCH   6  22
BRANCH   8  24
ATOM     24  O   UNL     1     -27.602  10.167  -1.125  1.00  0.00    -0.508 OA
ATOM     25  H   UNL     1     -28.022   9.851  -1.992  1.00  0.00     0.293 HD
ENDBRANCH   8  24
TORSDOF 5
ENDMDL
MODEL 4
REMARK VINA RESULT:    -7.077      1.997      7.314
REMARK INTER + INTRA:          -8.590
REMARK INTER:                  -8.273
REMARK INTRA:                  -0.317
REMARK UNBOUND:                -0.272
REMARK SMILES O=c1cc(-c2ccc(O)c(O)c2)oc2cc(O)cc(O)c12
REMARK SMILES IDX 4 1 3 2 2 3 1 4 21 5 19 6 18 7 16 8 15 9 14 10 13 11 5 12
REMARK SMILES IDX 6 13 7 14 8 15 12 16 10 17 9 18 11 20 20 22 17 24
REMARK H PARENT 9 19 11 21 20 23 17 25
REMARK Flexibility Score: inf
ROOT
ATOM      1  C   UNL     1     -33.391  12.928   1.294  1.00  0.00     0.138 A 
ATOM      2  C   UNL     1     -33.185  14.317   1.253  1.00  0.00     0.100 A 
ATOM      3  C   UNL     1     -31.990  14.819   0.738  1.00  0.00     0.197 A 
ATOM      4  O   UNL     1     -31.814  16.066   0.705  1.00  0.00    -0.289 OA
ATOM      5  C   UNL     1     -31.008  13.927   0.263  1.00  0.00     0.107 A 
ATOM      6  C   UNL     1     -29.769  14.351  -0.273  1.00  0.00     0.134 A 
ATOM      7  C   UNL     1     -28.846  13.399  -0.730  1.00  0.00     0.093 A 
ATOM      8  C   UNL     1     -29.138  12.035  -0.662  1.00  0.00     0.123 A 
ATOM      9  C   UNL     1     -30.360  11.609  -0.134  1.00  0.00     0.094 A 
ATOM     10  C   UNL     1     -31.293  12.542   0.329  1.00  0.00     0.146 A 
ATOM     11  O   UNL     1     -32.448  12.112   0.828  1.00  0.00    -0.456 OA
ENDROOT
BRANCH   1  12
ATOM     12  C   UNL     1     -34.644  12.336   1.830  1.00  0.00     0.021 A 
ATOM     13  C   UNL     1     -35.723  13.179   2.151  1.00  0.00     0.016 A 
ATOM     14  C   UNL     1     -36.915  12.647   2.649  1.00  0.00     0.051 A 
ATOM     15  C   UNL     1     -37.052  11.265   2.826  1.00  0.00     0.157 A 
ATOM     16  C   UNL     1     -34.795  10.946   1.997  1.00  0.00     0.062 A 
ATOM     17  C   UNL     1     -35.992  10.414   2.496  1.00  0.00     0.158 A 
BRANCH  15  18
ATOM     18  O   UNL     1     -38.239  10.732   3.325  1.00  0.00    -0.504 OA
ATOM     19  H   UNL     1     -38.409   9.732   3.333  1.00  0.00     0.293 HD
ENDBRANCH  15  18
BRANCH  17  20
ATOM     20  O   UNL     1     -36.137   9.037   2.663  1.00  0.00    -0.504 OA
ATOM     21  H   UNL     1     -37.022   8.573   2.495  1.00  0.00     0.293 HD
ENDBRANCH  17  20
ENDBRANCH   1  12
BRANCH   6  22
ATOM     22  O   UNL     1     -29.449  15.708  -0.353  1.00  0.00    -0.507 OA
ATOM     23  H   UNL     1     -30.107  16.390  -0.711  1.00  0.00     0.293 HD
ENDBRANCH   6  22
BRANCH   8  24
ATOM     24  O   UNL     1     -28.204  11.110  -1.125  1.00  0.00    -0.508 OA
ATOM     25  H   UNL     1     -27.874  10.352  -0.537  1.00  0.00     0.293 HD
ENDBRANCH   8  24
TORSDOF 5
ENDMDL
MODEL 5
REMARK VINA RESULT:    -7.068      2.043      6.950
REMARK INTER + INTRA:          -8.580
REMARK INTER:                  -8.282
REMARK INTRA:                  -0.299
REMARK UNBOUND:                -0.272
REMARK SMILES O=c1cc(-c2ccc(O)c(O)c2)oc2cc(O)cc(O)c12
REMARK SMILES IDX 4 1 3 2 2 3 1 4 21 5 19 6 18 7 16 8 15 9 14 10 13 11 5 12
REMARK SMILES IDX 6 13 7 14 8 15 12 16 10 17 9 18 11 20 20 22 17 24
REMARK H PARENT 9 19 11 21 20 23 17 25
REMARK Flexibility Score: inf
ROOT
ATOM      1  C   UNL     1     -32.021  13.417   0.755  1.00  0.00     0.138 A 
ATOM      2  C   UNL     1     -31.382  14.652   0.555  1.00  0.00     0.100 A 
ATOM      3  C   UNL     1     -30.082  14.678   0.050  1.00  0.00     0.197 A 
ATOM      4  O   UNL     1     -29.516  15.791  -0.126  1.00  0.00    -0.289 OA
ATOM      5  C   UNL     1     -29.430  13.467  -0.255  1.00  0.00     0.107 A 
ATOM      6  C   UNL     1     -28.112  13.404  -0.769  1.00  0.00     0.134 A 
ATOM      7  C   UNL     1     -27.536  12.157  -1.052  1.00  0.00     0.093 A 
ATOM      8  C   UNL     1     -28.248  10.976  -0.834  1.00  0.00     0.123 A 
ATOM      9  C   UNL     1     -29.550  11.032  -0.327  1.00  0.00     0.094 A 
ATOM     10  C   UNL     1     -30.143  12.264  -0.035  1.00  0.00     0.146 A 
ATOM     11  O   UNL     1     -31.381  12.291   0.447  1.00  0.00    -0.456 OA
ENDROOT
BRANCH   1  12
ATOM     12  C   UNL     1     -33.404  13.328   1.288  1.00  0.00     0.021 A 
ATOM     13  C   UNL     1     -34.366  14.266   0.874  1.00  0.00     0.016 A 
ATOM     14  C   UNL     1     -35.677  14.200   1.355  1.00  0.00     0.051 A 
ATOM     15  C   UNL     1     -36.050  13.190   2.250  1.00  0.00     0.157 A 
ATOM     16  C   UNL     1     -33.792  12.307   2.178  1.00  0.00     0.062 A 
ATOM     17  C   UNL     1     -35.107  12.241   2.659  1.00  0.00     0.158 A 
BRANCH  15  18
ATOM     18  O   UNL     1     -37.355  13.122   2.732  1.00  0.00    -0.504 OA
ATOM     19  H   UNL     1     -37.691  13.760   3.445  1.00  0.00     0.293 HD
ENDBRANCH  15  18
BRANCH  17  20
ATOM     20  O   UNL     1     -35.486  11.230   3.540  1.00  0.00    -0.504 OA
ATOM     21  H   UNL     1     -36.004  11.431   4.388  1.00  0.00     0.293 HD
ENDBRANCH  17  20
ENDBRANCH   1  12
BRANCH   6  22
ATOM     22  O   UNL     1     -27.375  14.567  -0.998  1.00  0.00    -0.507 OA
ATOM     23  H   UNL     1     -27.115  15.191  -0.242  1.00  0.00     0.293 HD
ENDBRANCH   6  22
BRANCH   8  24
ATOM     24  O   UNL     1     -27.652   9.751  -1.125  1.00  0.00    -0.508 OA
ATOM     25  H   UNL     1     -28.065   8.876  -0.822  1.00  0.00     0.293 HD
ENDBRANCH   8  24
TORSDOF 5
ENDMDL
MODEL 6
REMARK VINA RESULT:    -7.044      2.407      6.554
REMARK INTER + INTRA:          -8.551
REMARK INTER:                  -8.286
REMARK INTRA:                  -0.265
REMARK UNBOUND:                -0.272
REMARK SMILES O=c1cc(-c2ccc(O)c(O)c2)oc2cc(O)cc(O)c12
REMARK SMILES IDX 4 1 3 2 2 3 1 4 21 5 19 6 18 7 16 8 15 9 14 10 13 11 5 12
REMARK SMILES IDX 6 13 7 14 8 15 12 16 10 17 9 18 11 20 20 22 17 24
REMARK H PARENT 9 19 11 21 20 23 17 25
REMARK Flexibility Score: inf
ROOT
ATOM      1  C   UNL     1     -32.033  13.443   0.469  1.00  0.00     0.138 A 
ATOM      2  C   UNL     1     -31.561  12.275  -0.153  1.00  0.00     0.100 A 
ATOM      3  C   UNL     1     -30.213  11.935  -0.042  1.00  0.00     0.197 A 
ATOM      4  O   UNL     1     -29.798  10.885  -0.603  1.00  0.00    -0.289 OA
ATOM      5  C   UNL     1     -29.345  12.764   0.696  1.00  0.00     0.107 A 
ATOM      6  C   UNL     1     -27.965  12.493   0.858  1.00  0.00     0.134 A 
ATOM      7  C   UNL     1     -27.169  13.367   1.614  1.00  0.00     0.093 A 
ATOM      8  C   UNL     1     -27.724  14.502   2.209  1.00  0.00     0.123 A 
ATOM      9  C   UNL     1     -29.087  14.775   2.053  1.00  0.00     0.094 A 
ATOM     10  C   UNL     1     -29.897  13.918   1.302  1.00  0.00     0.146 A 
ATOM     11  O   UNL     1     -31.189  14.199   1.167  1.00  0.00    -0.456 OA
ENDROOT
BRANCH   1  12
ATOM     12  C   UNL     1     -33.458  13.854   0.385  1.00  0.00     0.021 A 
ATOM     13  C   UNL     1     -33.893  14.619  -0.712  1.00  0.00     0.016 A 
ATOM     14  C   UNL     1     -35.229  15.012  -0.818  1.00  0.00     0.051 A 
ATOM     15  C   UNL     1     -36.155  14.640   0.165  1.00  0.00     0.157 A 
ATOM     16  C   UNL     1     -34.398  13.473   1.362  1.00  0.00     0.062 A 
ATOM     17  C   UNL     1     -35.739  13.867   1.254  1.00  0.00     0.158 A 
BRANCH  15  18
ATOM     18  O   UNL     1     -37.488  15.032   0.062  1.00  0.00    -0.504 OA
ATOM     19  H   UNL     1     -38.236  14.479   0.467  1.00  0.00     0.293 HD
ENDBRANCH  15  18
BRANCH  17  20
ATOM     20  O   UNL     1     -36.666  13.489   2.224  1.00  0.00    -0.504 OA
ATOM     21  H   UNL     1     -37.648  13.372   2.002  1.00  0.00     0.293 HD
ENDBRANCH  17  20
ENDBRANCH   1  12
BRANCH   6  22
ATOM     22  O   UNL     1     -27.382  11.367   0.275  1.00  0.00    -0.507 OA
ATOM     23  H   UNL     1     -26.720  10.788   0.779  1.00  0.00     0.293 HD
ENDBRANCH   6  22
BRANCH   8  24
ATOM     24  O   UNL     1     -26.911  15.352   2.955  1.00  0.00    -0.508 OA
ATOM     25  H   UNL     1     -27.295  15.958   3.672  1.00  0.00     0.293 HD
ENDBRANCH   8  24
TORSDOF 5
ENDMDL
MODEL 7
REMARK VINA RESULT:    -6.943     10.978     14.296
REMARK INTER + INTRA:          -8.433
REMARK INTER:                  -8.170
REMARK INTRA:                  -0.264
REMARK UNBOUND:                -0.272
REMARK SMILES O=c1cc(-c2ccc(O)c(O)c2)oc2cc(O)cc(O)c12
REMARK SMILES IDX 4 1 3 2 2 3 1 4 21 5 19 6 18 7 16 8 15 9 14 10 13 11 5 12
REMARK SMILES IDX 6 13 7 14 8 15 12 16 10 17 9 18 11 20 20 22 17 24
REMARK H PARENT 9 19 11 21 20 23 17 25
REMARK Flexibility Score: inf
ROOT
ATOM      1  C   UNL     1     -42.005  11.322   8.942  1.00  0.00     0.138 A 
ATOM      2  C   UNL     1     -42.057  10.452  10.044  1.00  0.00     0.100 A 
ATOM      3  C   UNL     1     -42.131  10.980  11.332  1.00  0.00     0.197 A 
ATOM      4  O   UNL     1     -42.178  10.193  12.315  1.00  0.00    -0.289 OA
ATOM      5  C   UNL     1     -42.156  12.378  11.511  1.00  0.00     0.107 A 
ATOM      6  C   UNL     1     -42.229  12.996  12.782  1.00  0.00     0.134 A 
ATOM      7  C   UNL     1     -42.255  14.396  12.874  1.00  0.00     0.093 A 
ATOM      8  C   UNL     1     -42.211  15.186  11.723  1.00  0.00     0.123 A 
ATOM      9  C   UNL     1     -42.139  14.582  10.464  1.00  0.00     0.094 A 
ATOM     10  C   UNL     1     -42.110  13.188  10.351  1.00  0.00     0.146 A 
ATOM     11  O   UNL     1     -42.040  12.637   9.144  1.00  0.00    -0.456 OA
ENDROOT
BRANCH   1  12
ATOM     12  C   UNL     1     -41.926  10.816   7.548  1.00  0.00     0.021 A 
ATOM     13  C   UNL     1     -43.106  10.685   6.793  1.00  0.00     0.016 A 
ATOM     14  C   UNL     1     -43.058  10.219   5.476  1.00  0.00     0.051 A 
ATOM     15  C   UNL     1     -41.832   9.884   4.890  1.00  0.00     0.157 A 
ATOM     16  C   UNL     1     -40.695  10.490   6.945  1.00  0.00     0.062 A 
ATOM     17  C   UNL     1     -40.649  10.024   5.624  1.00  0.00     0.158 A 
BRANCH  15  18
ATOM     18  O   UNL     1     -41.781   9.417   3.578  1.00  0.00    -0.504 OA
ATOM     19  H   UNL     1     -42.341   9.837   2.844  1.00  0.00     0.293 HD
ENDBRANCH  15  18
BRANCH  17  20
ATOM     20  O   UNL     1     -39.429   9.701   5.032  1.00  0.00    -0.504 OA
ATOM     21  H   UNL     1     -39.320   8.871   4.460  1.00  0.00     0.293 HD
ENDBRANCH  17  20
ENDBRANCH   1  12
BRANCH   6  22
ATOM     22  O   UNL     1     -42.275  12.233  13.949  1.00  0.00    -0.507 OA
ATOM     23  H   UNL     1     -42.762  12.554  14.778  1.00  0.00     0.293 HD
ENDBRANCH   6  22
BRANCH   8  24
ATOM     24  O   UNL     1     -42.240  16.575  11.843  1.00  0.00    -0.508 OA
ATOM     25  H   UNL     1     -41.414  17.100  12.109  1.00  0.00     0.293 HD
ENDBRANCH   8  24
TORSDOF 5
ENDMDL
MODEL 8
REMARK VINA RESULT:    -6.921     10.756     12.988
REMARK INTER + INTRA:          -8.407
REMARK INTER:                  -8.117
REMARK INTRA:                  -0.289
REMARK UNBOUND:                -0.272
REMARK SMILES O=c1cc(-c2ccc(O)c(O)c2)oc2cc(O)cc(O)c12
REMARK SMILES IDX 4 1 3 2 2 3 1 4 21 5 19 6 18 7 16 8 15 9 14 10 13 11 5 12
REMARK SMILES IDX 6 13 7 14 8 15 12 16 10 17 9 18 11 20 20 22 17 24
REMARK H PARENT 9 19 11 21 20 23 17 25
REMARK Flexibility Score: inf
ROOT
ATOM      1  C   UNL     1     -40.953   9.317   6.794  1.00  0.00     0.138 A 
ATOM      2  C   UNL     1     -39.923   8.663   7.489  1.00  0.00     0.100 A 
ATOM      3  C   UNL     1     -39.714   8.952   8.838  1.00  0.00     0.197 A 
ATOM      4  O   UNL     1     -38.787   8.361   9.454  1.00  0.00    -0.289 OA
ATOM      5  C   UNL     1     -40.541   9.893   9.483  1.00  0.00     0.107 A 
ATOM      6  C   UNL     1     -40.397  10.245  10.847  1.00  0.00     0.134 A 
ATOM      7  C   UNL     1     -41.265  11.188  11.417  1.00  0.00     0.093 A 
ATOM      8  C   UNL     1     -42.272  11.782  10.653  1.00  0.00     0.123 A 
ATOM      9  C   UNL     1     -42.420  11.438   9.306  1.00  0.00     0.094 A 
ATOM     10  C   UNL     1     -41.564  10.502   8.718  1.00  0.00     0.146 A 
ATOM     11  O   UNL     1     -41.723  10.192   7.435  1.00  0.00    -0.456 OA
ENDROOT
BRANCH   1  12
ATOM     12  C   UNL     1     -41.223   9.047   5.358  1.00  0.00     0.021 A 
ATOM     13  C   UNL     1     -42.519   9.242   4.850  1.00  0.00     0.016 A 
ATOM     14  C   UNL     1     -42.797   9.003   3.501  1.00  0.00     0.051 A 
ATOM     15  C   UNL     1     -41.782   8.575   2.637  1.00  0.00     0.157 A 
ATOM     16  C   UNL     1     -40.204   8.631   4.478  1.00  0.00     0.062 A 
ATOM     17  C   UNL     1     -40.484   8.393   3.125  1.00  0.00     0.158 A 
BRANCH  15  18
ATOM     18  O   UNL     1     -42.056   8.335   1.292  1.00  0.00    -0.504 OA
ATOM     19  H   UNL     1     -41.313   8.208   0.614  1.00  0.00     0.293 HD
ENDBRANCH  15  18
BRANCH  17  20
ATOM     20  O   UNL     1     -39.474   7.979   2.258  1.00  0.00    -0.504 OA
ATOM     21  H   UNL     1     -39.355   7.003   2.010  1.00  0.00     0.293 HD
ENDBRANCH  17  20
ENDBRANCH   1  12
BRANCH   6  22
ATOM     22  O   UNL     1     -39.399   9.669  11.635  1.00  0.00    -0.507 OA
ATOM     23  H   UNL     1     -39.610   8.954  12.322  1.00  0.00     0.293 HD
ENDBRANCH   6  22
BRANCH   8  24
ATOM     24  O   UNL     1     -43.122  12.715  11.245  1.00  0.00    -0.508 OA
ATOM     25  H   UNL     1     -43.051  13.704  11.035  1.00  0.00     0.293 HD
ENDBRANCH   8  24
TORSDOF 5
ENDMDL
MODEL 9
REMARK VINA RESULT:    -6.588      1.650      6.811
REMARK INTER + INTRA:          -8.015
REMARK INTER:                  -7.740
REMARK INTRA:                  -0.276
REMARK UNBOUND:                -0.272
REMARK SMILES O=c1cc(-c2ccc(O)c(O)c2)oc2cc(O)cc(O)c12
REMARK SMILES IDX 4 1 3 2 2 3 1 4 21 5 19 6 18 7 16 8 15 9 14 10 13 11 5 12
REMARK SMILES IDX 6 13 7 14 8 15 12 16 10 17 9 18 11 20 20 22 17 24
REMARK H PARENT 9 19 11 21 20 23 17 25
REMARK Flexibility Score: inf
ROOT
ATOM      1  C   UNL     1     -32.529  12.550   1.093  1.00  0.00     0.138 A 
ATOM      2  C   UNL     1     -32.093  11.546   0.212  1.00  0.00     0.100 A 
ATOM      3  C   UNL     1     -30.776  11.562  -0.248  1.00  0.00     0.197 A 
ATOM      4  O   UNL     1     -30.393  10.658  -1.038  1.00  0.00    -0.289 OA
ATOM      5  C   UNL     1     -29.902  12.582   0.178  1.00  0.00     0.107 A 
ATOM      6  C   UNL     1     -28.554  12.673  -0.241  1.00  0.00     0.134 A 
ATOM      7  C   UNL     1     -27.747  13.717   0.235  1.00  0.00     0.093 A 
ATOM      8  C   UNL     1     -28.260  14.668   1.119  1.00  0.00     0.123 A 
ATOM      9  C   UNL     1     -29.592  14.583   1.538  1.00  0.00     0.094 A 
ATOM     10  C   UNL     1     -30.413  13.552   1.074  1.00  0.00     0.146 A 
ATOM     11  O   UNL     1     -31.676  13.493   1.485  1.00  0.00    -0.456 OA
ENDROOT
BRANCH   1  12
ATOM     12  C   UNL     1     -33.919  12.582   1.617  1.00  0.00     0.021 A 
ATOM     13  C   UNL     1     -34.647  13.784   1.571  1.00  0.00     0.016 A 
ATOM     14  C   UNL     1     -35.958  13.840   2.051  1.00  0.00     0.051 A 
ATOM     15  C   UNL     1     -36.566  12.693   2.575  1.00  0.00     0.157 A 
ATOM     16  C   UNL     1     -34.543  11.430   2.134  1.00  0.00     0.062 A 
ATOM     17  C   UNL     1     -35.859  11.486   2.613  1.00  0.00     0.158 A 
BRANCH  15  18
ATOM     18  O   UNL     1     -37.874  12.745   3.055  1.00  0.00    -0.504 OA
ATOM     19  H   UNL     1     -38.360  13.626   3.175  1.00  0.00     0.293 HD
ENDBRANCH  15  18
BRANCH  17  20
ATOM     20  O   UNL     1     -36.473  10.344   3.125  1.00  0.00    -0.504 OA
ATOM     21  H   UNL     1     -36.842  10.318   4.069  1.00  0.00     0.293 HD
ENDBRANCH  17  20
ENDBRANCH   1  12
BRANCH   6  22
ATOM     22  O   UNL     1     -28.013  11.738  -1.125  1.00  0.00    -0.507 OA
ATOM     23  H   UNL     1     -27.395  10.999  -0.808  1.00  0.00     0.293 HD
ENDBRANCH   6  22
BRANCH   8  24
ATOM     24  O   UNL     1     -27.436  15.695   1.578  1.00  0.00    -0.508 OA
ATOM     25  H   UNL     1     -26.862  16.236   0.941  1.00  0.00     0.293 HD
ENDBRANCH   8  24
TORSDOF 5
ENDMDL
