MODEL 1
REMARK VINA RESULT:    -4.604      0.000      0.000
REMARK INTER + INTRA:         -13.273
REMARK INTER:                  -9.988
REMARK INTRA:                  -3.286
REMARK UNBOUND:                -3.286
REMARK SMILES CCCCCCCCCCCCCCCCCCCCCC(=O)[O-]
REMARK SMILES IDX 12 1 11 2 10 3 9 4 8 5 7 6 6 7 5 8 4 9 3 10 2 11 1 12 13 13
REMARK SMILES IDX 14 14 15 15 16 16 17 17 18 18 19 19 20 20 21 21 22 22 23 23
REMARK SMILES IDX 24 24
REMARK H PARENT
REMARK Flexibility Score: inf
ROOT
ATOM      1  C   UNL     1      -5.084   3.001  15.986  1.00  0.00     0.000 C 
ENDROOT
BRANCH   1   2
ATOM      2  C   UNL     1      -6.595   2.777  16.159  1.00  0.00     0.000 C 
BRANCH   2   3
ATOM      3  C   UNL     1      -7.399   4.093  16.155  1.00  0.00     0.000 C 
BRANCH   3   4
ATOM      4  C   UNL     1      -8.011   4.489  14.795  1.00  0.00    -0.000 C 
BRANCH   4   5
ATOM      5  C   UNL     1      -7.114   5.371  13.909  1.00  0.00    -0.000 C 
BRANCH   5   6
ATOM      6  C   UNL     1      -6.264   6.359  14.724  1.00  0.00    -0.000 C 
BRANCH   6   7
ATOM      7  C   UNL     1      -4.767   6.153  14.453  1.00  0.00    -0.000 C 
BRANCH   7   8
ATOM      8  C   UNL     1      -4.510   5.545  13.066  1.00  0.00    -0.000 C 
BRANCH   8   9
ATOM      9  C   UNL     1      -3.015   5.240  12.810  1.00  0.00    -0.000 C 
BRANCH   9  10
ATOM     10  C   UNL     1      -2.792   4.066  11.841  1.00  0.00    -0.000 C 
BRANCH  10  11
ATOM     11  C   UNL     1      -3.910   3.955  10.793  1.00  0.00    -0.003 C 
ATOM     12  C   UNL     1      -3.449   4.485   9.438  1.00  0.00     0.004 C 
ENDBRANCH  10  11
ENDBRANCH   9  10
ENDBRANCH   8   9
ENDBRANCH   7   8
ENDBRANCH   6   7
ENDBRANCH   5   6
ENDBRANCH   4   5
ENDBRANCH   3   4
ENDBRANCH   2   3
ENDBRANCH   1   2
BRANCH   1  13
ATOM     13  C   UNL     1      -4.500   2.222  14.797  1.00  0.00     0.000 C 
BRANCH  13  14
ATOM     14  C   UNL     1      -5.543   1.931  13.705  1.00  0.00     0.000 C 
BRANCH  14  15
ATOM     15  C   UNL     1      -4.962   1.013  12.624  1.00  0.00     0.000 C 
BRANCH  15  16
ATOM     16  C   UNL     1      -3.481   0.710  12.887  1.00  0.00     0.000 C 
BRANCH  16  17
ATOM     17  C   UNL     1      -2.825   0.066  11.657  1.00  0.00     0.000 C 
BRANCH  17  18
ATOM     18  C   UNL     1      -3.702   0.144  10.395  1.00  0.00     0.000 C 
BRANCH  18  19
ATOM     19  C   UNL     1      -4.125  -1.216   9.810  1.00  0.00     0.000 C 
BRANCH  19  20
ATOM     20  C   UNL     1      -3.117  -2.341  10.111  1.00  0.00     0.006 C 
BRANCH  20  21
ATOM     21  C   UNL     1      -3.603  -3.705   9.603  1.00  0.00     0.053 C 
BRANCH  21  22
ATOM     22  C   UNL     1      -4.430  -4.418  10.630  1.00  0.00     0.041 C 
ATOM     23  O   UNL     1      -4.213  -4.235  11.856  1.00  0.00    -0.550 OA
ATOM     24  O   UNL     1      -5.454  -5.268  10.231  1.00  0.00    -0.550 OA
ENDBRANCH  21  22
ENDBRANCH  20  21
ENDBRANCH  19  20
ENDBRANCH  18  19
ENDBRANCH  17  18
ENDBRANCH  16  17
ENDBRANCH  15  16
ENDBRANCH  14  15
ENDBRANCH  13  14
ENDBRANCH   1  13
TORSDOF 20
ENDMDL
MODEL 2
REMARK VINA RESULT:    -4.428      3.236      7.524
REMARK INTER + INTRA:         -12.890
REMARK INTER:                  -9.277
REMARK INTRA:                  -3.614
REMARK UNBOUND:                -3.286
REMARK SMILES CCCCCCCCCCCCCCCCCCCCCC(=O)[O-]
REMARK SMILES IDX 12 1 11 2 10 3 9 4 8 5 7 6 6 7 5 8 4 9 3 10 2 11 1 12 13 13
REMARK SMILES IDX 14 14 15 15 16 16 17 17 18 18 19 19 20 20 21 21 22 22 23 23
REMARK SMILES IDX 24 24
REMARK H PARENT
REMARK Flexibility Score: inf
ROOT
ATOM      1  C   UNL     1      -1.505  -2.557  12.239  1.00  0.00     0.000 C 
ENDROOT
BRANCH   1   2
ATOM      2  C   UNL     1      -2.083  -3.865  11.673  1.00  0.00     0.000 C 
BRANCH   2   3
ATOM      3  C   UNL     1      -3.604  -3.790  11.428  1.00  0.00     0.000 C 
BRANCH   3   4
ATOM      4  C   UNL     1      -4.037  -3.799   9.947  1.00  0.00    -0.000 C 
BRANCH   4   5
ATOM      5  C   UNL     1      -2.882  -3.752   8.931  1.00  0.00    -0.000 C 
BRANCH   5   6
ATOM      6  C   UNL     1      -2.725  -2.371   8.275  1.00  0.00    -0.000 C 
BRANCH   6   7
ATOM      7  C   UNL     1      -3.911  -1.459   8.616  1.00  0.00    -0.000 C 
BRANCH   7   8
ATOM      8  C   UNL     1      -3.464  -0.173   9.329  1.00  0.00    -0.000 C 
BRANCH   8   9
ATOM      9  C   UNL     1      -4.041  -0.046  10.760  1.00  0.00    -0.000 C 
BRANCH   9  10
ATOM     10  C   UNL     1      -4.131   1.409  11.251  1.00  0.00    -0.000 C 
BRANCH  10  11
ATOM     11  C   UNL     1      -4.020   2.420  10.099  1.00  0.00    -0.003 C 
ATOM     12  C   UNL     1      -3.656   3.809  10.618  1.00  0.00     0.004 C 
ENDBRANCH  10  11
ENDBRANCH   9  10
ENDBRANCH   8   9
ENDBRANCH   7   8
ENDBRANCH   6   7
ENDBRANCH   5   6
ENDBRANCH   4   5
ENDBRANCH   3   4
ENDBRANCH   2   3
ENDBRANCH   1   2
BRANCH   1  13
ATOM     13  C   UNL     1      -0.322  -2.026  11.414  1.00  0.00     0.000 C 
BRANCH  13  14
ATOM     14  C   UNL     1      -0.403  -0.510  11.163  1.00  0.00     0.000 C 
BRANCH  14  15
ATOM     15  C   UNL     1      -0.591   0.254  12.478  1.00  0.00     0.000 C 
BRANCH  15  16
ATOM     16  C   UNL     1      -0.565   1.771  12.249  1.00  0.00     0.000 C 
BRANCH  16  17
ATOM     17  C   UNL     1      -1.374   2.504  13.330  1.00  0.00     0.000 C 
BRANCH  17  18
ATOM     18  C   UNL     1      -1.857   1.574  14.457  1.00  0.00     0.000 C 
BRANCH  18  19
ATOM     19  C   UNL     1      -3.023   2.122  15.299  1.00  0.00     0.000 C 
BRANCH  19  20
ATOM     20  C   UNL     1      -4.405   1.748  14.730  1.00  0.00     0.006 C 
BRANCH  20  21
ATOM     21  C   UNL     1      -5.240   2.985  14.375  1.00  0.00     0.053 C 
BRANCH  21  22
ATOM     22  C   UNL     1      -6.469   3.089  15.228  1.00  0.00     0.041 C 
ATOM     23  O   UNL     1      -7.510   3.631  14.774  1.00  0.00    -0.550 OA
ATOM     24  O   UNL     1      -6.469   2.566  16.515  1.00  0.00    -0.550 OA
ENDBRANCH  21  22
ENDBRANCH  20  21
ENDBRANCH  19  20
ENDBRANCH  18  19
ENDBRANCH  17  18
ENDBRANCH  16  17
ENDBRANCH  15  16
ENDBRANCH  14  15
ENDBRANCH  13  14
ENDBRANCH   1  13
TORSDOF 20
ENDMDL
MODEL 3
REMARK VINA RESULT:    -4.397      1.242      3.328
REMARK INTER + INTRA:         -12.823
REMARK INTER:                  -9.916
REMARK INTRA:                  -2.907
REMARK UNBOUND:                -3.286
REMARK SMILES CCCCCCCCCCCCCCCCCCCCCC(=O)[O-]
REMARK SMILES IDX 12 1 11 2 10 3 9 4 8 5 7 6 6 7 5 8 4 9 3 10 2 11 1 12 13 13
REMARK SMILES IDX 14 14 15 15 16 16 17 17 18 18 19 19 20 20 21 21 22 22 23 23
REMARK SMILES IDX 24 24
REMARK H PARENT
REMARK Flexibility Score: inf
ROOT
ATOM      1  C   UNL     1      -3.541   5.175  12.984  1.00  0.00     0.000 C 
ENDROOT
BRANCH   1   2
ATOM      2  C   UNL     1      -4.240   6.535  13.141  1.00  0.00     0.000 C 
BRANCH   2   3
ATOM      3  C   UNL     1      -5.160   6.594  14.377  1.00  0.00     0.000 C 
BRANCH   3   4
ATOM      4  C   UNL     1      -6.626   6.183  14.130  1.00  0.00    -0.000 C 
BRANCH   4   5
ATOM      5  C   UNL     1      -6.951   4.711  14.440  1.00  0.00    -0.000 C 
BRANCH   5   6
ATOM      6  C   UNL     1      -6.517   4.293  15.855  1.00  0.00    -0.000 C 
BRANCH   6   7
ATOM      7  C   UNL     1      -5.737   2.972  15.825  1.00  0.00    -0.000 C 
BRANCH   7   8
ATOM      8  C   UNL     1      -5.616   2.404  14.403  1.00  0.00    -0.000 C 
BRANCH   8   9
ATOM      9  C   UNL     1      -4.326   1.576  14.192  1.00  0.00    -0.000 C 
BRANCH   9  10
ATOM     10  C   UNL     1      -3.136   2.084  15.025  1.00  0.00    -0.000 C 
BRANCH  10  11
ATOM     11  C   UNL     1      -1.908   1.167  14.905  1.00  0.00    -0.003 C 
ATOM     12  C   UNL     1      -1.737   0.660  13.475  1.00  0.00     0.004 C 
ENDBRANCH  10  11
ENDBRANCH   9  10
ENDBRANCH   8   9
ENDBRANCH   7   8
ENDBRANCH   6   7
ENDBRANCH   5   6
ENDBRANCH   4   5
ENDBRANCH   3   4
ENDBRANCH   2   3
ENDBRANCH   1   2
BRANCH   1  13
ATOM     13  C   UNL     1      -3.741   4.562  11.588  1.00  0.00     0.000 C 
BRANCH  13  14
ATOM     14  C   UNL     1      -2.637   3.559  11.213  1.00  0.00     0.000 C 
BRANCH  14  15
ATOM     15  C   UNL     1      -3.119   2.595  10.123  1.00  0.00     0.000 C 
BRANCH  15  16
ATOM     16  C   UNL     1      -4.335   1.786  10.595  1.00  0.00     0.000 C 
BRANCH  16  17
ATOM     17  C   UNL     1      -4.031   0.280  10.582  1.00  0.00     0.000 C 
BRANCH  17  18
ATOM     18  C   UNL     1      -3.564  -0.230   9.207  1.00  0.00     0.000 C 
BRANCH  18  19
ATOM     19  C   UNL     1      -4.147  -1.591   8.785  1.00  0.00     0.000 C 
BRANCH  19  20
ATOM     20  C   UNL     1      -3.064  -2.644   8.487  1.00  0.00     0.006 C 
BRANCH  20  21
ATOM     21  C   UNL     1      -3.488  -4.052   8.926  1.00  0.00     0.053 C 
BRANCH  21  22
ATOM     22  C   UNL     1      -3.652  -4.145  10.413  1.00  0.00     0.041 C 
ATOM     23  O   UNL     1      -4.627  -4.771  10.905  1.00  0.00    -0.550 OA
ATOM     24  O   UNL     1      -2.715  -3.558  11.255  1.00  0.00    -0.550 OA
ENDBRANCH  21  22
ENDBRANCH  20  21
ENDBRANCH  19  20
ENDBRANCH  18  19
ENDBRANCH  17  18
ENDBRANCH  16  17
ENDBRANCH  15  16
ENDBRANCH  14  15
ENDBRANCH  13  14
ENDBRANCH   1  13
TORSDOF 20
ENDMDL
MODEL 4
REMARK VINA RESULT:    -4.369      1.963      4.149
REMARK INTER + INTRA:         -12.762
REMARK INTER:                  -9.501
REMARK INTRA:                  -3.261
REMARK UNBOUND:                -3.286
REMARK SMILES CCCCCCCCCCCCCCCCCCCCCC(=O)[O-]
REMARK SMILES IDX 12 1 11 2 10 3 9 4 8 5 7 6 6 7 5 8 4 9 3 10 2 11 1 12 13 13
REMARK SMILES IDX 14 14 15 15 16 16 17 17 18 18 19 19 20 20 21 21 22 22 23 23
REMARK SMILES IDX 24 24
REMARK H PARENT
REMARK Flexibility Score: inf
ROOT
ATOM      1  C   UNL     1      -3.992  -0.064  11.251  1.00  0.00     0.000 C 
ENDROOT
BRANCH   1   2
ATOM      2  C   UNL     1      -3.448   0.971  12.250  1.00  0.00     0.000 C 
BRANCH   2   3
ATOM      3  C   UNL     1      -4.480   2.062  12.602  1.00  0.00     0.000 C 
BRANCH   3   4
ATOM      4  C   UNL     1      -5.472   1.696  13.725  1.00  0.00    -0.000 C 
BRANCH   4   5
ATOM      5  C   UNL     1      -6.122   2.895  14.437  1.00  0.00    -0.000 C 
BRANCH   5   6
ATOM      6  C   UNL     1      -5.887   2.883  15.956  1.00  0.00    -0.000 C 
BRANCH   6   7
ATOM      7  C   UNL     1      -5.286   4.212  16.433  1.00  0.00    -0.000 C 
BRANCH   7   8
ATOM      8  C   UNL     1      -4.221   4.744  15.462  1.00  0.00    -0.000 C 
BRANCH   8   9
ATOM      9  C   UNL     1      -2.777   4.443  15.929  1.00  0.00    -0.000 C 
BRANCH   9  10
ATOM     10  C   UNL     1      -2.072   3.377  15.072  1.00  0.00    -0.000 C 
BRANCH  10  11
ATOM     11  C   UNL     1      -2.209   1.967  15.669  1.00  0.00    -0.003 C 
ATOM     12  C   UNL     1      -1.135   1.031  15.121  1.00  0.00     0.004 C 
ENDBRANCH  10  11
ENDBRANCH   9  10
ENDBRANCH   8   9
ENDBRANCH   7   8
ENDBRANCH   6   7
ENDBRANCH   5   6
ENDBRANCH   4   5
ENDBRANCH   3   4
ENDBRANCH   2   3
ENDBRANCH   1   2
BRANCH   1  13
ATOM     13  C   UNL     1      -3.617   0.260   9.796  1.00  0.00     0.000 C 
BRANCH  13  14
ATOM     14  C   UNL     1      -3.951  -0.886   8.826  1.00  0.00     0.000 C 
BRANCH  14  15
ATOM     15  C   UNL     1      -2.677  -1.456   8.192  1.00  0.00     0.000 C 
BRANCH  15  16
ATOM     16  C   UNL     1      -1.422  -0.775   8.756  1.00  0.00     0.000 C 
BRANCH  16  17
ATOM     17  C   UNL     1      -0.562  -1.774   9.543  1.00  0.00     0.000 C 
BRANCH  17  18
ATOM     18  C   UNL     1      -0.453  -1.430  11.039  1.00  0.00     0.000 C 
BRANCH  18  19
ATOM     19  C   UNL     1      -1.244  -2.356  11.981  1.00  0.00     0.000 C 
BRANCH  19  20
ATOM     20  C   UNL     1      -1.917  -3.530  11.246  1.00  0.00     0.006 C 
BRANCH  20  21
ATOM     21  C   UNL     1      -3.433  -3.568  11.479  1.00  0.00     0.053 C 
BRANCH  21  22
ATOM     22  C   UNL     1      -4.111  -4.543  10.564  1.00  0.00     0.041 C 
ATOM     23  O   UNL     1      -4.788  -5.492  11.039  1.00  0.00    -0.550 OA
ATOM     24  O   UNL     1      -4.014  -4.389   9.187  1.00  0.00    -0.550 OA
ENDBRANCH  21  22
ENDBRANCH  20  21
ENDBRANCH  19  20
ENDBRANCH  18  19
ENDBRANCH  17  18
ENDBRANCH  16  17
ENDBRANCH  15  16
ENDBRANCH  14  15
ENDBRANCH  13  14
ENDBRANCH   1  13
TORSDOF 20
ENDMDL
MODEL 5
REMARK VINA RESULT:    -4.366      3.465      8.363
REMARK INTER + INTRA:         -12.757
REMARK INTER:                  -9.505
REMARK INTRA:                  -3.252
REMARK UNBOUND:                -3.286
REMARK SMILES CCCCCCCCCCCCCCCCCCCCCC(=O)[O-]
REMARK SMILES IDX 12 1 11 2 10 3 9 4 8 5 7 6 6 7 5 8 4 9 3 10 2 11 1 12 13 13
REMARK SMILES IDX 14 14 15 15 16 16 17 17 18 18 19 19 20 20 21 21 22 22 23 23
REMARK SMILES IDX 24 24
REMARK H PARENT
REMARK Flexibility Score: inf
ROOT
ATOM      1  C   UNL     1      -3.450   1.146   9.614  1.00  0.00     0.000 C 
ENDROOT
BRANCH   1   2
ATOM      2  C   UNL     1      -4.001  -0.229  10.027  1.00  0.00     0.000 C 
BRANCH   2   3
ATOM      3  C   UNL     1      -3.422  -0.728  11.366  1.00  0.00     0.000 C 
BRANCH   3   4
ATOM      4  C   UNL     1      -1.884  -0.837  11.421  1.00  0.00    -0.000 C 
BRANCH   4   5
ATOM      5  C   UNL     1      -1.345  -2.165  11.981  1.00  0.00    -0.000 C 
BRANCH   5   6
ATOM      6  C   UNL     1      -0.699  -3.047  10.900  1.00  0.00    -0.000 C 
BRANCH   6   7
ATOM      7  C   UNL     1      -0.638  -2.313   9.554  1.00  0.00    -0.000 C 
BRANCH   7   8
ATOM      8  C   UNL     1      -1.553  -2.959   8.502  1.00  0.00    -0.000 C 
BRANCH   8   9
ATOM      9  C   UNL     1      -2.431  -4.093   9.083  1.00  0.00    -0.000 C 
BRANCH   9  10
ATOM     10  C   UNL     1      -3.933  -3.758   9.085  1.00  0.00    -0.000 C 
BRANCH  10  11
ATOM     11  C   UNL     1      -4.723  -4.631  10.074  1.00  0.00    -0.003 C 
ATOM     12  C   UNL     1      -4.231  -4.425  11.504  1.00  0.00     0.004 C 
ENDBRANCH  10  11
ENDBRANCH   9  10
ENDBRANCH   8   9
ENDBRANCH   7   8
ENDBRANCH   6   7
ENDBRANCH   5   6
ENDBRANCH   4   5
ENDBRANCH   3   4
ENDBRANCH   2   3
ENDBRANCH   1   2
BRANCH   1  13
ATOM     13  C   UNL     1      -3.790   2.251  10.626  1.00  0.00     0.000 C 
BRANCH  13  14
ATOM     14  C   UNL     1      -2.554   3.048  11.076  1.00  0.00     0.000 C 
BRANCH  14  15
ATOM     15  C   UNL     1      -2.636   3.390  12.568  1.00  0.00     0.000 C 
BRANCH  15  16
ATOM     16  C   UNL     1      -2.226   2.193  13.436  1.00  0.00     0.000 C 
BRANCH  16  17
ATOM     17  C   UNL     1      -3.264   1.933  14.538  1.00  0.00     0.000 C 
BRANCH  17  18
ATOM     18  C   UNL     1      -4.580   1.341  14.000  1.00  0.00     0.000 C 
BRANCH  18  19
ATOM     19  C   UNL     1      -5.838   2.178  14.293  1.00  0.00     0.000 C 
BRANCH  19  20
ATOM     20  C   UNL     1      -5.586   3.312  15.304  1.00  0.00     0.006 C 
BRANCH  20  21
ATOM     21  C   UNL     1      -6.585   3.283  16.469  1.00  0.00     0.053 C 
BRANCH  21  22
ATOM     22  C   UNL     1      -7.700   4.265  16.269  1.00  0.00     0.041 C 
ATOM     23  O   UNL     1      -8.619   4.020  15.444  1.00  0.00    -0.550 OA
ATOM     24  O   UNL     1      -7.735   5.439  17.011  1.00  0.00    -0.550 OA
ENDBRANCH  21  22
ENDBRANCH  20  21
ENDBRANCH  19  20
ENDBRANCH  18  19
ENDBRANCH  17  18
ENDBRANCH  16  17
ENDBRANCH  15  16
ENDBRANCH  14  15
ENDBRANCH  13  14
ENDBRANCH   1  13
TORSDOF 20
ENDMDL
MODEL 6
REMARK VINA RESULT:    -4.341      3.374      7.955
REMARK INTER + INTRA:         -12.702
REMARK INTER:                 -10.334
REMARK INTRA:                  -2.368
REMARK UNBOUND:                -3.286
REMARK SMILES CCCCCCCCCCCCCCCCCCCCCC(=O)[O-]
REMARK SMILES IDX 12 1 11 2 10 3 9 4 8 5 7 6 6 7 5 8 4 9 3 10 2 11 1 12 13 13
REMARK SMILES IDX 14 14 15 15 16 16 17 17 18 18 19 19 20 20 21 21 22 22 23 23
REMARK SMILES IDX 24 24
REMARK H PARENT
REMARK Flexibility Score: inf
ROOT
ATOM      1  C   UNL     1      -3.367   4.028  10.731  1.00  0.00     0.000 C 
ENDROOT
BRANCH   1   2
ATOM      2  C   UNL     1      -4.005   2.787  10.086  1.00  0.00     0.000 C 
BRANCH   2   3
ATOM      3  C   UNL     1      -4.357   1.692  11.114  1.00  0.00     0.000 C 
BRANCH   3   4
ATOM      4  C   UNL     1      -3.848   0.277  10.773  1.00  0.00    -0.000 C 
BRANCH   4   5
ATOM      5  C   UNL     1      -3.651  -0.001   9.272  1.00  0.00    -0.000 C 
BRANCH   5   6
ATOM      6  C   UNL     1      -4.317  -1.310   8.819  1.00  0.00    -0.000 C 
BRANCH   6   7
ATOM      7  C   UNL     1      -3.356  -2.498   8.965  1.00  0.00    -0.000 C 
BRANCH   7   8
ATOM      8  C   UNL     1      -3.988  -3.659   9.747  1.00  0.00    -0.000 C 
BRANCH   8   9
ATOM      9  C   UNL     1      -3.487  -3.744  11.209  1.00  0.00    -0.000 C 
BRANCH   9  10
ATOM     10  C   UNL     1      -2.265  -2.851  11.484  1.00  0.00    -0.000 C 
BRANCH  10  11
ATOM     11  C   UNL     1      -1.200  -3.567  12.330  1.00  0.00    -0.003 C 
ATOM     12  C   UNL     1       0.166  -3.520  11.650  1.00  0.00     0.004 C 
ENDBRANCH  10  11
ENDBRANCH   9  10
ENDBRANCH   8   9
ENDBRANCH   7   8
ENDBRANCH   6   7
ENDBRANCH   5   6
ENDBRANCH   4   5
ENDBRANCH   3   4
ENDBRANCH   2   3
ENDBRANCH   1   2
BRANCH   1  13
ATOM     13  C   UNL     1      -3.668   4.138  12.234  1.00  0.00     0.000 C 
BRANCH  13  14
ATOM     14  C   UNL     1      -3.712   5.593  12.729  1.00  0.00     0.000 C 
BRANCH  14  15
ATOM     15  C   UNL     1      -3.468   5.666  14.240  1.00  0.00     0.000 C 
BRANCH  15  16
ATOM     16  C   UNL     1      -2.479   4.585  14.697  1.00  0.00     0.000 C 
BRANCH  16  17
ATOM     17  C   UNL     1      -2.993   3.864  15.951  1.00  0.00     0.000 C 
BRANCH  17  18
ATOM     18  C   UNL     1      -4.528   3.786  16.017  1.00  0.00     0.000 C 
BRANCH  18  19
ATOM     19  C   UNL     1      -5.142   2.506  15.422  1.00  0.00     0.000 C 
BRANCH  19  20
ATOM     20  C   UNL     1      -6.289   2.789  14.435  1.00  0.00     0.006 C 
BRANCH  20  21
ATOM     21  C   UNL     1      -6.833   4.218  14.572  1.00  0.00     0.053 C 
BRANCH  21  22
ATOM     22  C   UNL     1      -8.128   4.249  15.326  1.00  0.00     0.041 C 
ATOM     23  O   UNL     1      -9.211   4.000  14.735  1.00  0.00    -0.550 OA
ATOM     24  O   UNL     1      -8.135   4.531  16.687  1.00  0.00    -0.550 OA
ENDBRANCH  21  22
ENDBRANCH  20  21
ENDBRANCH  19  20
ENDBRANCH  18  19
ENDBRANCH  17  18
ENDBRANCH  16  17
ENDBRANCH  15  16
ENDBRANCH  14  15
ENDBRANCH  13  14
ENDBRANCH   1  13
TORSDOF 20
ENDMDL
MODEL 7
REMARK VINA RESULT:    -4.327      1.099      3.601
REMARK INTER + INTRA:         -12.672
REMARK INTER:                  -9.825
REMARK INTRA:                  -2.847
REMARK UNBOUND:                -3.286
REMARK SMILES CCCCCCCCCCCCCCCCCCCCCC(=O)[O-]
REMARK SMILES IDX 12 1 11 2 10 3 9 4 8 5 7 6 6 7 5 8 4 9 3 10 2 11 1 12 13 13
REMARK SMILES IDX 14 14 15 15 16 16 17 17 18 18 19 19 20 20 21 21 22 22 23 23
REMARK SMILES IDX 24 24
REMARK H PARENT
REMARK Flexibility Score: inf
ROOT
ATOM      1  C   UNL     1      -4.285   3.823  12.503  1.00  0.00     0.000 C 
ENDROOT
BRANCH   1   2
ATOM      2  C   UNL     1      -3.323   3.582  13.678  1.00  0.00     0.000 C 
BRANCH   2   3
ATOM      3  C   UNL     1      -3.501   2.193  14.322  1.00  0.00     0.000 C 
BRANCH   3   4
ATOM      4  C   UNL     1      -4.874   1.941  14.980  1.00  0.00    -0.000 C 
BRANCH   4   5
ATOM      5  C   UNL     1      -5.304   2.996  16.014  1.00  0.00    -0.000 C 
BRANCH   5   6
ATOM      6  C   UNL     1      -6.798   2.909  16.365  1.00  0.00    -0.000 C 
BRANCH   6   7
ATOM      7  C   UNL     1      -7.521   4.220  16.029  1.00  0.00    -0.000 C 
BRANCH   7   8
ATOM      8  C   UNL     1      -7.603   4.463  14.514  1.00  0.00    -0.000 C 
BRANCH   8   9
ATOM      9  C   UNL     1      -6.853   5.741  14.068  1.00  0.00    -0.000 C 
BRANCH   9  10
ATOM     10  C   UNL     1      -6.227   6.518  15.240  1.00  0.00    -0.000 C 
BRANCH  10  11
ATOM     11  C   UNL     1      -4.693   6.549  15.164  1.00  0.00    -0.003 C 
ATOM     12  C   UNL     1      -4.212   7.533  14.101  1.00  0.00     0.004 C 
ENDBRANCH  10  11
ENDBRANCH   9  10
ENDBRANCH   8   9
ENDBRANCH   7   8
ENDBRANCH   6   7
ENDBRANCH   5   6
ENDBRANCH   4   5
ENDBRANCH   3   4
ENDBRANCH   2   3
ENDBRANCH   1   2
BRANCH   1  13
ATOM     13  C   UNL     1      -3.595   4.472  11.293  1.00  0.00     0.000 C 
BRANCH  13  14
ATOM     14  C   UNL     1      -3.686   3.609  10.022  1.00  0.00     0.000 C 
BRANCH  14  15
ATOM     15  C   UNL     1      -2.371   2.864   9.770  1.00  0.00     0.000 C 
BRANCH  15  16
ATOM     16  C   UNL     1      -2.610   1.359   9.589  1.00  0.00     0.000 C 
BRANCH  16  17
ATOM     17  C   UNL     1      -3.993   0.954  10.120  1.00  0.00     0.000 C 
BRANCH  17  18
ATOM     18  C   UNL     1      -3.924   0.111  11.405  1.00  0.00     0.000 C 
BRANCH  18  19
ATOM     19  C   UNL     1      -2.965  -1.092  11.345  1.00  0.00     0.000 C 
BRANCH  19  20
ATOM     20  C   UNL     1      -3.409  -2.167  10.336  1.00  0.00     0.006 C 
BRANCH  20  21
ATOM     21  C   UNL     1      -3.142  -3.589  10.848  1.00  0.00     0.053 C 
BRANCH  21  22
ATOM     22  C   UNL     1      -4.283  -4.512  10.544  1.00  0.00     0.041 C 
ATOM     23  O   UNL     1      -4.805  -5.196  11.463  1.00  0.00    -0.550 OA
ATOM     24  O   UNL     1      -4.784  -4.599   9.251  1.00  0.00    -0.550 OA
ENDBRANCH  21  22
ENDBRANCH  20  21
ENDBRANCH  19  20
ENDBRANCH  18  19
ENDBRANCH  17  18
ENDBRANCH  16  17
ENDBRANCH  15  16
ENDBRANCH  14  15
ENDBRANCH  13  14
ENDBRANCH   1  13
TORSDOF 20
ENDMDL
MODEL 8
REMARK VINA RESULT:    -4.326      3.620      8.180
REMARK INTER + INTRA:         -12.670
REMARK INTER:                  -9.659
REMARK INTRA:                  -3.011
REMARK UNBOUND:                -3.286
REMARK SMILES CCCCCCCCCCCCCCCCCCCCCC(=O)[O-]
REMARK SMILES IDX 12 1 11 2 10 3 9 4 8 5 7 6 6 7 5 8 4 9 3 10 2 11 1 12 13 13
REMARK SMILES IDX 14 14 15 15 16 16 17 17 18 18 19 19 20 20 21 21 22 22 23 23
REMARK SMILES IDX 24 24
REMARK H PARENT
REMARK Flexibility Score: inf
ROOT
ATOM      1  C   UNL     1      -3.872  -1.700   9.049  1.00  0.00     0.000 C 
ENDROOT
BRANCH   1   2
ATOM      2  C   UNL     1      -3.118  -2.911   8.475  1.00  0.00     0.000 C 
BRANCH   2   3
ATOM      3  C   UNL     1      -2.700  -3.925   9.559  1.00  0.00     0.000 C 
BRANCH   3   4
ATOM      4  C   UNL     1      -3.147  -3.579  10.994  1.00  0.00    -0.000 C 
BRANCH   4   5
ATOM      5  C   UNL     1      -2.018  -3.134  11.939  1.00  0.00    -0.000 C 
BRANCH   5   6
ATOM      6  C   UNL     1      -0.676  -2.944  11.213  1.00  0.00    -0.000 C 
BRANCH   6   7
ATOM      7  C   UNL     1      -0.323  -1.456  11.085  1.00  0.00    -0.000 C 
BRANCH   7   8
ATOM      8  C   UNL     1      -0.667  -0.669  12.359  1.00  0.00    -0.000 C 
BRANCH   8   9
ATOM      9  C   UNL     1       0.578  -0.044  13.033  1.00  0.00    -0.000 C 
BRANCH   9  10
ATOM     10  C   UNL     1       0.274   0.584  14.405  1.00  0.00    -0.000 C 
BRANCH  10  11
ATOM     11  C   UNL     1      -1.188   1.043  14.524  1.00  0.00    -0.003 C 
ATOM     12  C   UNL     1      -1.490   1.563  15.927  1.00  0.00     0.004 C 
ENDBRANCH  10  11
ENDBRANCH   9  10
ENDBRANCH   8   9
ENDBRANCH   7   8
ENDBRANCH   6   7
ENDBRANCH   5   6
ENDBRANCH   4   5
ENDBRANCH   3   4
ENDBRANCH   2   3
ENDBRANCH   1   2
BRANCH   1  13
ATOM     13  C   UNL     1      -3.112  -0.379   8.851  1.00  0.00     0.000 C 
BRANCH  13  14
ATOM     14  C   UNL     1      -3.253   0.575  10.049  1.00  0.00     0.000 C 
BRANCH  14  15
ATOM     15  C   UNL     1      -4.117  -0.051  11.149  1.00  0.00     0.000 C 
BRANCH  15  16
ATOM     16  C   UNL     1      -3.973   0.712  12.473  1.00  0.00     0.000 C 
BRANCH  16  17
ATOM     17  C   UNL     1      -4.353   2.190  12.299  1.00  0.00     0.000 C 
BRANCH  17  18
ATOM     18  C   UNL     1      -4.601   2.911  13.636  1.00  0.00     0.000 C 
BRANCH  18  19
ATOM     19  C   UNL     1      -5.428   2.116  14.662  1.00  0.00     0.000 C 
BRANCH  19  20
ATOM     20  C   UNL     1      -5.573   2.842  16.012  1.00  0.00     0.006 C 
BRANCH  20  21
ATOM     21  C   UNL     1      -7.028   2.876  16.498  1.00  0.00     0.053 C 
BRANCH  21  22
ATOM     22  C   UNL     1      -7.747   4.101  16.017  1.00  0.00     0.041 C 
ATOM     23  O   UNL     1      -8.373   4.079  14.925  1.00  0.00    -0.550 OA
ATOM     24  O   UNL     1      -7.741   5.259  16.785  1.00  0.00    -0.550 OA
ENDBRANCH  21  22
ENDBRANCH  20  21
ENDBRANCH  19  20
ENDBRANCH  18  19
ENDBRANCH  17  18
ENDBRANCH  16  17
ENDBRANCH  15  16
ENDBRANCH  14  15
ENDBRANCH  13  14
ENDBRANCH   1  13
TORSDOF 20
ENDMDL
MODEL 9
REMARK VINA RESULT:    -4.300      1.858      4.429
REMARK INTER + INTRA:         -12.613
REMARK INTER:                  -8.893
REMARK INTRA:                  -3.720
REMARK UNBOUND:                -3.286
REMARK SMILES CCCCCCCCCCCCCCCCCCCCCC(=O)[O-]
REMARK SMILES IDX 12 1 11 2 10 3 9 4 8 5 7 6 6 7 5 8 4 9 3 10 2 11 1 12 13 13
REMARK SMILES IDX 14 14 15 15 16 16 17 17 18 18 19 19 20 20 21 21 22 22 23 23
REMARK SMILES IDX 24 24
REMARK H PARENT
REMARK Flexibility Score: inf
ROOT
ATOM      1  C   UNL     1      -1.548   3.307  15.246  1.00  0.00     0.000 C 
ENDROOT
BRANCH   1   2
ATOM      2  C   UNL     1      -2.086   1.883  15.463  1.00  0.00     0.000 C 
BRANCH   2   3
ATOM      3  C   UNL     1      -2.986   1.401  14.306  1.00  0.00     0.000 C 
BRANCH   3   4
ATOM      4  C   UNL     1      -4.497   1.364  14.616  1.00  0.00    -0.000 C 
BRANCH   4   5
ATOM      5  C   UNL     1      -5.374   2.219  13.684  1.00  0.00    -0.000 C 
BRANCH   5   6
ATOM      6  C   UNL     1      -6.331   3.144  14.453  1.00  0.00    -0.000 C 
BRANCH   6   7
ATOM      7  C   UNL     1      -6.168   2.970  15.969  1.00  0.00    -0.000 C 
BRANCH   7   8
ATOM      8  C   UNL     1      -5.982   4.315  16.688  1.00  0.00    -0.000 C 
BRANCH   8   9
ATOM      9  C   UNL     1      -6.919   5.422  16.146  1.00  0.00    -0.000 C 
BRANCH   9  10
ATOM     10  C   UNL     1      -6.392   6.844  16.406  1.00  0.00    -0.000 C 
BRANCH  10  11
ATOM     11  C   UNL     1      -6.024   7.575  15.104  1.00  0.00    -0.003 C 
ATOM     12  C   UNL     1      -6.378   6.733  13.881  1.00  0.00     0.004 C 
ENDBRANCH  10  11
ENDBRANCH   9  10
ENDBRANCH   8   9
ENDBRANCH   7   8
ENDBRANCH   6   7
ENDBRANCH   5   6
ENDBRANCH   4   5
ENDBRANCH   3   4
ENDBRANCH   2   3
ENDBRANCH   1   2
BRANCH   1  13
ATOM     13  C   UNL     1      -2.501   4.389  15.778  1.00  0.00     0.000 C 
BRANCH  13  14
ATOM     14  C   UNL     1      -3.084   5.271  14.661  1.00  0.00     0.000 C 
BRANCH  14  15
ATOM     15  C   UNL     1      -2.426   4.955  13.313  1.00  0.00     0.000 C 
BRANCH  15  16
ATOM     16  C   UNL     1      -3.465   4.897  12.186  1.00  0.00     0.000 C 
BRANCH  16  17
ATOM     17  C   UNL     1      -2.862   4.284  10.914  1.00  0.00     0.000 C 
BRANCH  17  18
ATOM     18  C   UNL     1      -3.920   3.673   9.978  1.00  0.00     0.000 C 
BRANCH  18  19
ATOM     19  C   UNL     1      -4.311   2.219  10.297  1.00  0.00     0.000 C 
BRANCH  19  20
ATOM     20  C   UNL     1      -3.095   1.287  10.449  1.00  0.00     0.006 C 
BRANCH  20  21
ATOM     21  C   UNL     1      -2.920   0.359   9.239  1.00  0.00     0.053 C 
BRANCH  21  22
ATOM     22  C   UNL     1      -3.565  -0.975   9.464  1.00  0.00     0.041 C 
ATOM     23  O   UNL     1      -4.062  -1.609   8.497  1.00  0.00    -0.550 OA
ATOM     24  O   UNL     1      -3.599  -1.526  10.738  1.00  0.00    -0.550 OA
ENDBRANCH  21  22
ENDBRANCH  20  21
ENDBRANCH  19  20
ENDBRANCH  18  19
ENDBRANCH  17  18
ENDBRANCH  16  17
ENDBRANCH  15  16
ENDBRANCH  14  15
ENDBRANCH  13  14
ENDBRANCH   1  13
TORSDOF 20
ENDMDL
