MODEL 1
REMARK VINA RESULT:    -3.771      0.000      0.000
REMARK INTER + INTRA:          -9.655
REMARK INTER:                  -6.858
REMARK INTRA:                  -2.797
REMARK UNBOUND:                -2.797
REMARK SMILES CCCCCCCCCCCCCCCC(=O)[O-]
REMARK SMILES IDX 9 1 10 2 11 3 12 4 13 5 14 6 15 7 16 8 17 9 18 10 8 11 7 12
REMARK SMILES IDX 6 13 5 14 4 15 3 16 2 17 1 18
REMARK H PARENT
REMARK Flexibility Score: inf
ROOT
ATOM      1  C   UNL     1      13.838 -34.567  -1.636  1.00  0.00     0.000 C 
ENDROOT
BRANCH   1   2
ATOM      2  C   UNL     1      13.702 -35.721  -0.630  1.00  0.00     0.000 C 
BRANCH   2   3
ATOM      3  C   UNL     1      14.159 -35.338   0.789  1.00  0.00     0.000 C 
BRANCH   3   4
ATOM      4  C   UNL     1      15.148 -36.325   1.437  1.00  0.00     0.000 C 
BRANCH   4   5
ATOM      5  C   UNL     1      14.786 -37.796   1.168  1.00  0.00     0.000 C 
BRANCH   5   6
ATOM      6  C   UNL     1      16.009 -38.726   1.224  1.00  0.00     0.006 C 
BRANCH   6   7
ATOM      7  C   UNL     1      17.287 -37.994   1.657  1.00  0.00     0.053 C 
BRANCH   7   8
ATOM      8  C   UNL     1      18.494 -38.683   1.103  1.00  0.00     0.041 C 
ATOM      9  O   UNL     1      18.440 -39.901   0.789  1.00  0.00    -0.550 OA
ATOM     10  O   UNL     1      19.664 -37.965   0.879  1.00  0.00    -0.550 OA
ENDBRANCH   7   8
ENDBRANCH   6   7
ENDBRANCH   5   6
ENDBRANCH   4   5
ENDBRANCH   3   4
ENDBRANCH   2   3
ENDBRANCH   1   2
BRANCH   1  11
ATOM     11  C   UNL     1      14.735 -33.454  -1.073  1.00  0.00     0.000 C 
BRANCH  11  12
ATOM     12  C   UNL     1      15.671 -32.855  -2.135  1.00  0.00    -0.000 C 
BRANCH  12  13
ATOM     13  C   UNL     1      17.055 -33.528  -2.147  1.00  0.00    -0.000 C 
BRANCH  13  14
ATOM     14  C   UNL     1      17.368 -34.274  -0.840  1.00  0.00    -0.000 C 
BRANCH  14  15
ATOM     15  C   UNL     1      17.723 -35.763  -1.047  1.00  0.00    -0.000 C 
BRANCH  15  16
ATOM     16  C   UNL     1      17.035 -36.352  -2.292  1.00  0.00    -0.000 C 
BRANCH  16  17
ATOM     17  C   UNL     1      16.879 -37.879  -2.214  1.00  0.00    -0.003 C 
ATOM     18  C   UNL     1      15.465 -38.343  -2.565  1.00  0.00     0.004 C 
ENDBRANCH  16  17
ENDBRANCH  15  16
ENDBRANCH  14  15
ENDBRANCH  13  14
ENDBRANCH  12  13
ENDBRANCH  11  12
ENDBRANCH   1  11
TORSDOF 14
ENDMDL
MODEL 2
REMARK VINA RESULT:    -3.731      1.240      3.622
REMARK INTER + INTRA:          -9.581
REMARK INTER:                  -7.125
REMARK INTRA:                  -2.456
REMARK UNBOUND:                -2.797
REMARK SMILES CCCCCCCCCCCCCCCC(=O)[O-]
REMARK SMILES IDX 9 1 10 2 11 3 12 4 13 5 14 6 15 7 16 8 17 9 18 10 8 11 7 12
REMARK SMILES IDX 6 13 5 14 4 15 3 16 2 17 1 18
REMARK H PARENT
REMARK Flexibility Score: inf
ROOT
ATOM      1  C   UNL     1      16.920 -35.111  -1.969  1.00  0.00     0.000 C 
ENDROOT
BRANCH   1   2
ATOM      2  C   UNL     1      17.605 -34.228  -0.915  1.00  0.00     0.000 C 
BRANCH   2   3
ATOM      3  C   UNL     1      17.606 -34.859   0.489  1.00  0.00     0.000 C 
BRANCH   3   4
ATOM      4  C   UNL     1      16.209 -35.155   1.065  1.00  0.00     0.000 C 
BRANCH   4   5
ATOM      5  C   UNL     1      16.097 -36.568   1.666  1.00  0.00     0.000 C 
BRANCH   5   6
ATOM      6  C   UNL     1      17.410 -37.359   1.566  1.00  0.00     0.006 C 
BRANCH   6   7
ATOM      7  C   UNL     1      17.187 -38.826   1.171  1.00  0.00     0.053 C 
BRANCH   7   8
ATOM      8  C   UNL     1      18.456 -39.424   0.650  1.00  0.00     0.041 C 
ATOM      9  O   UNL     1      18.650 -40.666   0.732  1.00  0.00    -0.550 OA
ATOM     10  O   UNL     1      19.399 -38.619   0.021  1.00  0.00    -0.550 OA
ENDBRANCH   7   8
ENDBRANCH   6   7
ENDBRANCH   5   6
ENDBRANCH   4   5
ENDBRANCH   3   4
ENDBRANCH   2   3
ENDBRANCH   1   2
BRANCH   1  11
ATOM     11  C   UNL     1      17.698 -36.420  -2.177  1.00  0.00     0.000 C 
BRANCH  11  12
ATOM     12  C   UNL     1      16.775 -37.630  -2.391  1.00  0.00    -0.000 C 
BRANCH  12  13
ATOM     13  C   UNL     1      15.382 -37.425  -1.771  1.00  0.00    -0.000 C 
BRANCH  13  14
ATOM     14  C   UNL     1      14.243 -37.880  -2.698  1.00  0.00    -0.000 C 
BRANCH  14  15
ATOM     15  C   UNL     1      13.082 -36.867  -2.796  1.00  0.00    -0.000 C 
BRANCH  15  16
ATOM     16  C   UNL     1      13.321 -35.628  -1.914  1.00  0.00    -0.000 C 
BRANCH  16  17
ATOM     17  C   UNL     1      13.380 -34.326  -2.727  1.00  0.00    -0.003 C 
ATOM     18  C   UNL     1      13.849 -33.133  -1.891  1.00  0.00     0.004 C 
ENDBRANCH  16  17
ENDBRANCH  15  16
ENDBRANCH  14  15
ENDBRANCH  13  14
ENDBRANCH  12  13
ENDBRANCH  11  12
ENDBRANCH   1  11
TORSDOF 14
ENDMDL
MODEL 3
REMARK VINA RESULT:    -3.577      0.948      3.126
REMARK INTER + INTRA:          -9.302
REMARK INTER:                  -7.052
REMARK INTRA:                  -2.250
REMARK UNBOUND:                -2.797
REMARK SMILES CCCCCCCCCCCCCCCC(=O)[O-]
REMARK SMILES IDX 9 1 10 2 11 3 12 4 13 5 14 6 15 7 16 8 17 9 18 10 8 11 7 12
REMARK SMILES IDX 6 13 5 14 4 15 3 16 2 17 1 18
REMARK H PARENT
REMARK Flexibility Score: inf
ROOT
ATOM      1  C   UNL     1      16.197 -38.309  -2.365  1.00  0.00     0.000 C 
ENDROOT
BRANCH   1   2
ATOM      2  C   UNL     1      15.034 -37.328  -2.154  1.00  0.00     0.000 C 
BRANCH   2   3
ATOM      3  C   UNL     1      14.178 -37.667  -0.919  1.00  0.00     0.000 C 
BRANCH   3   4
ATOM      4  C   UNL     1      14.982 -38.026   0.344  1.00  0.00     0.000 C 
BRANCH   4   5
ATOM      5  C   UNL     1      15.569 -36.791   1.051  1.00  0.00     0.000 C 
BRANCH   5   6
ATOM      6  C   UNL     1      16.953 -37.060   1.661  1.00  0.00     0.006 C 
BRANCH   6   7
ATOM      7  C   UNL     1      17.269 -38.558   1.771  1.00  0.00     0.053 C 
BRANCH   7   8
ATOM      8  C   UNL     1      18.553 -38.873   1.071  1.00  0.00     0.041 C 
ATOM      9  O   UNL     1      19.393 -37.961   0.847  1.00  0.00    -0.550 OA
ATOM     10  O   UNL     1      18.850 -40.184   0.717  1.00  0.00    -0.550 OA
ENDBRANCH   7   8
ENDBRANCH   6   7
ENDBRANCH   5   6
ENDBRANCH   4   5
ENDBRANCH   3   4
ENDBRANCH   2   3
ENDBRANCH   1   2
BRANCH   1  11
ATOM     11  C   UNL     1      17.541 -37.643  -2.033  1.00  0.00     0.000 C 
BRANCH  11  12
ATOM     12  C   UNL     1      17.609 -36.181  -2.504  1.00  0.00    -0.000 C 
BRANCH  12  13
ATOM     13  C   UNL     1      17.668 -35.187  -1.332  1.00  0.00    -0.000 C 
BRANCH  13  14
ATOM     14  C   UNL     1      17.523 -33.723  -1.781  1.00  0.00    -0.000 C 
BRANCH  14  15
ATOM     15  C   UNL     1      16.072 -33.319  -2.116  1.00  0.00    -0.000 C 
BRANCH  15  16
ATOM     16  C   UNL     1      15.101 -33.650  -0.967  1.00  0.00    -0.000 C 
BRANCH  16  17
ATOM     17  C   UNL     1      13.690 -33.998  -1.466  1.00  0.00    -0.003 C 
ATOM     18  C   UNL     1      13.497 -33.676  -2.949  1.00  0.00     0.004 C 
ENDBRANCH  16  17
ENDBRANCH  15  16
ENDBRANCH  14  15
ENDBRANCH  13  14
ENDBRANCH  12  13
ENDBRANCH  11  12
ENDBRANCH   1  11
TORSDOF 14
ENDMDL
MODEL 4
REMARK VINA RESULT:    -3.534      1.646      3.314
REMARK INTER + INTRA:          -9.224
REMARK INTER:                  -7.522
REMARK INTRA:                  -1.702
REMARK UNBOUND:                -2.797
REMARK SMILES CCCCCCCCCCCCCCCC(=O)[O-]
REMARK SMILES IDX 9 1 10 2 11 3 12 4 13 5 14 6 15 7 16 8 17 9 18 10 8 11 7 12
REMARK SMILES IDX 6 13 5 14 4 15 3 16 2 17 1 18
REMARK H PARENT
REMARK Flexibility Score: inf
ROOT
ATOM      1  C   UNL     1      15.478 -32.532  -2.144  1.00  0.00     0.000 C 
ENDROOT
BRANCH   1   2
ATOM      2  C   UNL     1      16.630 -33.546  -2.208  1.00  0.00     0.000 C 
BRANCH   2   3
ATOM      3  C   UNL     1      17.131 -33.976  -0.817  1.00  0.00     0.000 C 
BRANCH   3   4
ATOM      4  C   UNL     1      17.394 -35.485  -0.663  1.00  0.00     0.000 C 
BRANCH   4   5
ATOM      5  C   UNL     1      17.695 -36.179  -2.004  1.00  0.00     0.000 C 
BRANCH   5   6
ATOM      6  C   UNL     1      18.025 -37.670  -1.837  1.00  0.00     0.006 C 
BRANCH   6   7
ATOM      7  C   UNL     1      17.554 -38.232  -0.489  1.00  0.00     0.053 C 
BRANCH   7   8
ATOM      8  C   UNL     1      18.721 -38.720   0.310  1.00  0.00     0.041 C 
ATOM      9  O   UNL     1      19.575 -37.903   0.745  1.00  0.00    -0.550 OA
ATOM     10  O   UNL     1      18.835 -40.069   0.624  1.00  0.00    -0.550 OA
ENDBRANCH   7   8
ENDBRANCH   6   7
ENDBRANCH   5   6
ENDBRANCH   4   5
ENDBRANCH   3   4
ENDBRANCH   2   3
ENDBRANCH   1   2
BRANCH   1  11
ATOM     11  C   UNL     1      14.202 -33.186  -1.591  1.00  0.00     0.000 C 
BRANCH  11  12
ATOM     12  C   UNL     1      13.508 -34.091  -2.621  1.00  0.00    -0.000 C 
BRANCH  12  13
ATOM     13  C   UNL     1      13.191 -35.488  -2.059  1.00  0.00    -0.000 C 
BRANCH  13  14
ATOM     14  C   UNL     1      14.237 -36.543  -2.456  1.00  0.00    -0.000 C 
BRANCH  14  15
ATOM     15  C   UNL     1      13.713 -37.993  -2.385  1.00  0.00    -0.000 C 
BRANCH  15  16
ATOM     16  C   UNL     1      14.802 -39.019  -2.745  1.00  0.00    -0.000 C 
BRANCH  16  17
ATOM     17  C   UNL     1      14.540 -39.713  -4.090  1.00  0.00    -0.003 C 
ATOM     18  C   UNL     1      15.738 -40.535  -4.569  1.00  0.00     0.004 C 
ENDBRANCH  16  17
ENDBRANCH  15  16
ENDBRANCH  14  15
ENDBRANCH  13  14
ENDBRANCH  12  13
ENDBRANCH  11  12
ENDBRANCH   1  11
TORSDOF 14
ENDMDL
MODEL 5
REMARK VINA RESULT:    -3.532      1.908      4.220
REMARK INTER + INTRA:          -9.220
REMARK INTER:                  -7.332
REMARK INTRA:                  -1.888
REMARK UNBOUND:                -2.797
REMARK SMILES CCCCCCCCCCCCCCCC(=O)[O-]
REMARK SMILES IDX 9 1 10 2 11 3 12 4 13 5 14 6 15 7 16 8 17 9 18 10 8 11 7 12
REMARK SMILES IDX 6 13 5 14 4 15 3 16 2 17 1 18
REMARK H PARENT
REMARK Flexibility Score: inf
ROOT
ATOM      1  C   UNL     1      17.781 -36.503  -2.330  1.00  0.00     0.000 C 
ENDROOT
BRANCH   1   2
ATOM      2  C   UNL     1      16.785 -35.385  -1.986  1.00  0.00     0.000 C 
BRANCH   2   3
ATOM      3  C   UNL     1      17.423 -34.237  -1.183  1.00  0.00     0.000 C 
BRANCH   3   4
ATOM      4  C   UNL     1      17.777 -34.587   0.274  1.00  0.00     0.000 C 
BRANCH   4   5
ATOM      5  C   UNL     1      16.767 -35.553   0.919  1.00  0.00     0.000 C 
BRANCH   5   6
ATOM      6  C   UNL     1      17.444 -36.629   1.781  1.00  0.00     0.006 C 
BRANCH   6   7
ATOM      7  C   UNL     1      17.218 -38.048   1.239  1.00  0.00     0.053 C 
BRANCH   7   8
ATOM      8  C   UNL     1      18.522 -38.677   0.864  1.00  0.00     0.041 C 
ATOM      9  O   UNL     1      19.572 -37.983   0.825  1.00  0.00    -0.550 OA
ATOM     10  O   UNL     1      18.589 -40.044   0.615  1.00  0.00    -0.550 OA
ENDBRANCH   7   8
ENDBRANCH   6   7
ENDBRANCH   5   6
ENDBRANCH   4   5
ENDBRANCH   3   4
ENDBRANCH   2   3
ENDBRANCH   1   2
BRANCH   1  11
ATOM     11  C   UNL     1      17.083 -37.871  -2.357  1.00  0.00     0.000 C 
BRANCH  11  12
ATOM     12  C   UNL     1      15.556 -37.758  -2.216  1.00  0.00    -0.000 C 
BRANCH  12  13
ATOM     13  C   UNL     1      14.932 -38.998  -1.553  1.00  0.00    -0.000 C 
BRANCH  13  14
ATOM     14  C   UNL     1      15.335 -40.311  -2.243  1.00  0.00    -0.000 C 
BRANCH  14  15
ATOM     15  C   UNL     1      14.267 -40.850  -3.219  1.00  0.00    -0.000 C 
BRANCH  15  16
ATOM     16  C   UNL     1      14.662 -40.622  -4.690  1.00  0.00    -0.000 C 
BRANCH  16  17
ATOM     17  C   UNL     1      16.170 -40.390  -4.869  1.00  0.00    -0.003 C 
ATOM     18  C   UNL     1      16.819 -41.429  -5.785  1.00  0.00     0.004 C 
ENDBRANCH  16  17
ENDBRANCH  15  16
ENDBRANCH  14  15
ENDBRANCH  13  14
ENDBRANCH  12  13
ENDBRANCH  11  12
ENDBRANCH   1  11
TORSDOF 14
ENDMDL
MODEL 6
REMARK VINA RESULT:    -3.509      1.065      3.236
REMARK INTER + INTRA:          -9.178
REMARK INTER:                  -6.870
REMARK INTRA:                  -2.307
REMARK UNBOUND:                -2.797
REMARK SMILES CCCCCCCCCCCCCCCC(=O)[O-]
REMARK SMILES IDX 9 1 10 2 11 3 12 4 13 5 14 6 15 7 16 8 17 9 18 10 8 11 7 12
REMARK SMILES IDX 6 13 5 14 4 15 3 16 2 17 1 18
REMARK H PARENT
REMARK Flexibility Score: inf
ROOT
ATOM      1  C   UNL     1      13.652 -38.355  -0.984  1.00  0.00     0.000 C 
ENDROOT
BRANCH   1   2
ATOM      2  C   UNL     1      12.918 -37.092  -0.506  1.00  0.00     0.000 C 
BRANCH   2   3
ATOM      3  C   UNL     1      13.868 -36.030   0.078  1.00  0.00     0.000 C 
BRANCH   3   4
ATOM      4  C   UNL     1      14.917 -36.574   1.065  1.00  0.00     0.000 C 
BRANCH   4   5
ATOM      5  C   UNL     1      16.058 -35.576   1.334  1.00  0.00     0.000 C 
BRANCH   5   6
ATOM      6  C   UNL     1      17.447 -36.226   1.239  1.00  0.00     0.006 C 
BRANCH   6   7
ATOM      7  C   UNL     1      17.443 -37.695   1.683  1.00  0.00     0.053 C 
BRANCH   7   8
ATOM      8  C   UNL     1      18.643 -38.407   1.142  1.00  0.00     0.041 C 
ATOM      9  O   UNL     1      19.698 -37.767   0.890  1.00  0.00    -0.550 OA
ATOM     10  O   UNL     1      18.616 -39.787   0.972  1.00  0.00    -0.550 OA
ENDBRANCH   7   8
ENDBRANCH   6   7
ENDBRANCH   5   6
ENDBRANCH   4   5
ENDBRANCH   3   4
ENDBRANCH   2   3
ENDBRANCH   1   2
BRANCH   1  11
ATOM     11  C   UNL     1      14.033 -38.238  -2.467  1.00  0.00     0.000 C 
BRANCH  11  12
ATOM     12  C   UNL     1      15.480 -38.677  -2.743  1.00  0.00    -0.000 C 
BRANCH  12  13
ATOM     13  C   UNL     1      16.489 -38.016  -1.789  1.00  0.00    -0.000 C 
BRANCH  13  14
ATOM     14  C   UNL     1      17.743 -37.497  -2.511  1.00  0.00    -0.000 C 
BRANCH  14  15
ATOM     15  C   UNL     1      17.976 -35.981  -2.336  1.00  0.00    -0.000 C 
BRANCH  15  16
ATOM     16  C   UNL     1      16.654 -35.210  -2.164  1.00  0.00    -0.000 C 
BRANCH  16  17
ATOM     17  C   UNL     1      16.873 -33.713  -1.900  1.00  0.00    -0.003 C 
ATOM     18  C   UNL     1      15.586 -32.898  -2.039  1.00  0.00     0.004 C 
ENDBRANCH  16  17
ENDBRANCH  15  16
ENDBRANCH  14  15
ENDBRANCH  13  14
ENDBRANCH  12  13
ENDBRANCH  11  12
ENDBRANCH   1  11
TORSDOF 14
ENDMDL
MODEL 7
REMARK VINA RESULT:    -3.461      1.057      1.898
REMARK INTER + INTRA:          -9.091
REMARK INTER:                  -6.941
REMARK INTRA:                  -2.150
REMARK UNBOUND:                -2.797
REMARK SMILES CCCCCCCCCCCCCCCC(=O)[O-]
REMARK SMILES IDX 9 1 10 2 11 3 12 4 13 5 14 6 15 7 16 8 17 9 18 10 8 11 7 12
REMARK SMILES IDX 6 13 5 14 4 15 3 16 2 17 1 18
REMARK H PARENT
REMARK Flexibility Score: inf
ROOT
ATOM      1  C   UNL     1      14.770 -33.275  -1.725  1.00  0.00     0.000 C 
ENDROOT
BRANCH   1   2
ATOM      2  C   UNL     1      14.715 -33.825  -0.292  1.00  0.00     0.000 C 
BRANCH   2   3
ATOM      3  C   UNL     1      13.807 -35.061  -0.157  1.00  0.00     0.000 C 
BRANCH   3   4
ATOM      4  C   UNL     1      14.411 -36.220   0.657  1.00  0.00     0.000 C 
BRANCH   4   5
ATOM      5  C   UNL     1      15.654 -35.801   1.463  1.00  0.00     0.000 C 
BRANCH   5   6
ATOM      6  C   UNL     1      16.553 -36.993   1.826  1.00  0.00     0.006 C 
BRANCH   6   7
ATOM      7  C   UNL     1      17.933 -36.915   1.159  1.00  0.00     0.053 C 
BRANCH   7   8
ATOM      8  C   UNL     1      18.561 -38.273   1.100  1.00  0.00     0.041 C 
ATOM      9  O   UNL     1      18.249 -39.152   1.946  1.00  0.00    -0.550 OA
ATOM     10  O   UNL     1      19.448 -38.586   0.076  1.00  0.00    -0.550 OA
ENDBRANCH   7   8
ENDBRANCH   6   7
ENDBRANCH   5   6
ENDBRANCH   4   5
ENDBRANCH   3   4
ENDBRANCH   2   3
ENDBRANCH   1   2
BRANCH   1  11
ATOM     11  C   UNL     1      16.222 -33.167  -2.216  1.00  0.00     0.000 C 
BRANCH  11  12
ATOM     12  C   UNL     1      17.192 -34.021  -1.384  1.00  0.00    -0.000 C 
BRANCH  12  13
ATOM     13  C   UNL     1      17.631 -35.299  -2.119  1.00  0.00    -0.000 C 
BRANCH  13  14
ATOM     14  C   UNL     1      16.520 -36.359  -2.192  1.00  0.00    -0.000 C 
BRANCH  14  15
ATOM     15  C   UNL     1      17.049 -37.800  -2.354  1.00  0.00    -0.000 C 
BRANCH  15  16
ATOM     16  C   UNL     1      15.964 -38.757  -2.883  1.00  0.00    -0.000 C 
BRANCH  16  17
ATOM     17  C   UNL     1      14.594 -38.518  -2.230  1.00  0.00    -0.003 C 
ATOM     18  C   UNL     1      13.486 -38.288  -3.258  1.00  0.00     0.004 C 
ENDBRANCH  16  17
ENDBRANCH  15  16
ENDBRANCH  14  15
ENDBRANCH  13  14
ENDBRANCH  12  13
ENDBRANCH  11  12
ENDBRANCH   1  11
TORSDOF 14
ENDMDL
MODEL 8
REMARK VINA RESULT:    -3.342      1.347      3.254
REMARK INTER + INTRA:          -8.875
REMARK INTER:                  -6.487
REMARK INTRA:                  -2.388
REMARK UNBOUND:                -2.797
REMARK SMILES CCCCCCCCCCCCCCCC(=O)[O-]
REMARK SMILES IDX 9 1 10 2 11 3 12 4 13 5 14 6 15 7 16 8 17 9 18 10 8 11 7 12
REMARK SMILES IDX 6 13 5 14 4 15 3 16 2 17 1 18
REMARK H PARENT
REMARK Flexibility Score: inf
ROOT
ATOM      1  C   UNL     1      15.694 -32.689  -2.051  1.00  0.00     0.000 C 
ENDROOT
BRANCH   1   2
ATOM      2  C   UNL     1      17.031 -33.438  -2.151  1.00  0.00     0.000 C 
BRANCH   2   3
ATOM      3  C   UNL     1      17.027 -34.778  -1.393  1.00  0.00     0.000 C 
BRANCH   3   4
ATOM      4  C   UNL     1      17.454 -35.996  -2.232  1.00  0.00     0.000 C 
BRANCH   4   5
ATOM      5  C   UNL     1      17.745 -37.241  -1.374  1.00  0.00     0.000 C 
BRANCH   5   6
ATOM      6  C   UNL     1      18.029 -36.893   0.096  1.00  0.00     0.006 C 
BRANCH   6   7
ATOM      7  C   UNL     1      18.902 -37.945   0.794  1.00  0.00     0.053 C 
BRANCH   7   8
ATOM      8  C   UNL     1      18.105 -39.180   1.074  1.00  0.00     0.041 C 
ATOM      9  O   UNL     1      16.917 -39.089   1.482  1.00  0.00    -0.550 OA
ATOM     10  O   UNL     1      18.656 -40.434   0.830  1.00  0.00    -0.550 OA
ENDBRANCH   7   8
ENDBRANCH   6   7
ENDBRANCH   5   6
ENDBRANCH   4   5
ENDBRANCH   3   4
ENDBRANCH   2   3
ENDBRANCH   1   2
BRANCH   1  11
ATOM     11  C   UNL     1      14.528 -33.586  -2.495  1.00  0.00     0.000 C 
BRANCH  11  12
ATOM     12  C   UNL     1      13.237 -33.311  -1.707  1.00  0.00    -0.000 C 
BRANCH  12  13
ATOM     13  C   UNL     1      13.465 -33.300  -0.186  1.00  0.00    -0.000 C 
BRANCH  13  14
ATOM     14  C   UNL     1      13.068 -34.624   0.487  1.00  0.00    -0.000 C 
BRANCH  14  15
ATOM     15  C   UNL     1      14.275 -35.469   0.950  1.00  0.00    -0.000 C 
BRANCH  15  16
ATOM     16  C   UNL     1      14.368 -36.806   0.191  1.00  0.00    -0.000 C 
BRANCH  16  17
ATOM     17  C   UNL     1      13.306 -36.934  -0.913  1.00  0.00    -0.003 C 
ATOM     18  C   UNL     1      13.919 -37.213  -2.286  1.00  0.00     0.004 C 
ENDBRANCH  16  17
ENDBRANCH  15  16
ENDBRANCH  14  15
ENDBRANCH  13  14
ENDBRANCH  12  13
ENDBRANCH  11  12
ENDBRANCH   1  11
TORSDOF 14
ENDMDL
MODEL 9
REMARK VINA RESULT:    -3.324      1.953      3.316
REMARK INTER + INTRA:          -8.841
REMARK INTER:                  -6.222
REMARK INTRA:                  -2.620
REMARK UNBOUND:                -2.797
REMARK SMILES CCCCCCCCCCCCCCCC(=O)[O-]
REMARK SMILES IDX 9 1 10 2 11 3 12 4 13 5 14 6 15 7 16 8 17 9 18 10 8 11 7 12
REMARK SMILES IDX 6 13 5 14 4 15 3 16 2 17 1 18
REMARK H PARENT
REMARK Flexibility Score: inf
ROOT
ATOM      1  C   UNL     1      17.812 -34.632   0.154  1.00  0.00     0.000 C 
ENDROOT
BRANCH   1   2
ATOM      2  C   UNL     1      16.753 -35.305   1.040  1.00  0.00     0.000 C 
BRANCH   2   3
ATOM      3  C   UNL     1      17.154 -36.723   1.487  1.00  0.00     0.000 C 
BRANCH   3   4
ATOM      4  C   UNL     1      18.515 -37.207   0.953  1.00  0.00     0.000 C 
BRANCH   4   5
ATOM      5  C   UNL     1      18.564 -38.730   0.736  1.00  0.00     0.000 C 
BRANCH   5   6
ATOM      6  C   UNL     1      17.607 -39.491   1.665  1.00  0.00     0.006 C 
BRANCH   6   7
ATOM      7  C   UNL     1      18.309 -40.610   2.447  1.00  0.00     0.053 C 
BRANCH   7   8
ATOM      8  C   UNL     1      18.884 -40.075   3.721  1.00  0.00     0.041 C 
ATOM      9  O   UNL     1      18.131 -39.815   4.696  1.00  0.00    -0.550 OA
ATOM     10  O   UNL     1      20.259 -39.917   3.851  1.00  0.00    -0.550 OA
ENDBRANCH   7   8
ENDBRANCH   6   7
ENDBRANCH   5   6
ENDBRANCH   4   5
ENDBRANCH   3   4
ENDBRANCH   2   3
ENDBRANCH   1   2
BRANCH   1  11
ATOM     11  C   UNL     1      17.196 -34.160  -1.172  1.00  0.00     0.000 C 
BRANCH  11  12
ATOM     12  C   UNL     1      16.656 -35.323  -2.021  1.00  0.00    -0.000 C 
BRANCH  12  13
ATOM     13  C   UNL     1      17.745 -36.350  -2.375  1.00  0.00    -0.000 C 
BRANCH  13  14
ATOM     14  C   UNL     1      17.208 -37.788  -2.453  1.00  0.00    -0.000 C 
BRANCH  14  15
ATOM     15  C   UNL     1      15.688 -37.895  -2.209  1.00  0.00    -0.000 C 
BRANCH  15  16
ATOM     16  C   UNL     1      15.337 -39.042  -1.243  1.00  0.00    -0.000 C 
BRANCH  16  17
ATOM     17  C   UNL     1      14.385 -38.601  -0.121  1.00  0.00    -0.003 C 
ATOM     18  C   UNL     1      13.887 -37.166  -0.306  1.00  0.00     0.004 C 
ENDBRANCH  16  17
ENDBRANCH  15  16
ENDBRANCH  14  15
ENDBRANCH  13  14
ENDBRANCH  12  13
ENDBRANCH  11  12
ENDBRANCH   1  11
TORSDOF 14
ENDMDL
