MODEL 1
REMARK VINA RESULT:    -6.498      0.000      0.000
REMARK INTER + INTRA:          -8.137
REMARK INTER:                  -7.827
REMARK INTRA:                  -0.309
REMARK UNBOUND:                -0.309
REMARK SMILES O=c1c(O)c(-c2ccc(O)c(O)c2)oc2cc(O)cc(O)c12
REMARK SMILES IDX 5 1 3 2 2 3 1 4 22 5 20 6 19 7 17 8 16 9 15 10 14 11 6 12
REMARK SMILES IDX 7 13 8 14 9 15 13 16 11 17 10 18 12 20 4 22 21 24 18 26
REMARK H PARENT 10 19 12 21 4 23 21 25 18 27
REMARK Flexibility Score: inf
ROOT
ATOM      1  C   UNL     1     -20.098  26.698  -1.504  1.00  0.00     0.180 A 
ATOM      2  C   UNL     1     -19.112  26.221  -0.623  1.00  0.00     0.208 A 
ATOM      3  C   UNL     1     -19.129  24.867  -0.250  1.00  0.00     0.238 A 
ATOM      4  O   UNL     1     -18.213  24.435   0.496  1.00  0.00    -0.285 OA
ATOM      5  C   UNL     1     -20.139  24.011  -0.751  1.00  0.00     0.111 A 
ATOM      6  C   UNL     1     -20.276  22.633  -0.408  1.00  0.00     0.134 A 
ATOM      7  C   UNL     1     -21.236  21.850  -1.064  1.00  0.00     0.093 A 
ATOM      8  C   UNL     1     -22.104  22.409  -1.999  1.00  0.00     0.123 A 
ATOM      9  C   UNL     1     -22.018  23.770  -2.299  1.00  0.00     0.094 A 
ATOM     10  C   UNL     1     -21.048  24.569  -1.688  1.00  0.00     0.146 A 
ATOM     11  O   UNL     1     -20.993  25.855  -2.007  1.00  0.00    -0.452 OA
ENDROOT
BRANCH   1  12
ATOM     12  C   UNL     1     -20.160  28.117  -1.924  1.00  0.00     0.025 A 
ATOM     13  C   UNL     1     -21.033  29.026  -1.301  1.00  0.00     0.016 A 
ATOM     14  C   UNL     1     -21.093  30.355  -1.730  1.00  0.00     0.051 A 
ATOM     15  C   UNL     1     -20.296  30.792  -2.792  1.00  0.00     0.157 A 
ATOM     16  C   UNL     1     -19.376  28.554  -3.005  1.00  0.00     0.062 A 
ATOM     17  C   UNL     1     -19.434  29.887  -3.436  1.00  0.00     0.158 A 
BRANCH  15  18
ATOM     18  O   UNL     1     -20.375  32.123  -3.197  1.00  0.00    -0.504 OA
ATOM     19  H   UNL     1     -20.159  32.413  -4.143  1.00  0.00     0.293 HD
ENDBRANCH  15  18
BRANCH  17  20
ATOM     20  O   UNL     1     -18.642  30.315  -4.499  1.00  0.00    -0.504 OA
ATOM     21  H   UNL     1     -18.993  30.961  -5.196  1.00  0.00     0.293 HD
ENDBRANCH  17  20
ENDBRANCH   1  12
BRANCH   2  22
ATOM     22  O   UNL     1     -18.111  27.078  -0.158  1.00  0.00    -0.502 OA
ATOM     23  H   UNL     1     -17.126  26.889  -0.297  1.00  0.00     0.293 HD
ENDBRANCH   2  22
BRANCH   6  24
ATOM     24  O   UNL     1     -19.521  21.995   0.581  1.00  0.00    -0.507 OA
ATOM     25  H   UNL     1     -19.895  21.633   1.446  1.00  0.00     0.293 HD
ENDBRANCH   6  24
BRANCH   8  26
ATOM     26  O   UNL     1     -23.055  21.604  -2.621  1.00  0.00    -0.508 OA
ATOM     27  H   UNL     1     -24.048  21.752  -2.482  1.00  0.00     0.293 HD
ENDBRANCH   8  26
TORSDOF 6
ENDMDL
MODEL 2
REMARK VINA RESULT:    -6.315      1.618      6.980
REMARK INTER + INTRA:          -7.917
REMARK INTER:                  -7.622
REMARK INTRA:                  -0.295
REMARK UNBOUND:                -0.309
REMARK SMILES O=c1c(O)c(-c2ccc(O)c(O)c2)oc2cc(O)cc(O)c12
REMARK SMILES IDX 5 1 3 2 2 3 1 4 22 5 20 6 19 7 17 8 16 9 15 10 14 11 6 12
REMARK SMILES IDX 7 13 8 14 9 15 13 16 11 17 10 18 12 20 4 22 21 24 18 26
REMARK H PARENT 10 19 12 21 4 23 21 25 18 27
REMARK Flexibility Score: inf
ROOT
ATOM      1  C   UNL     1     -20.880  26.850  -1.976  1.00  0.00     0.180 A 
ATOM      2  C   UNL     1     -19.836  27.412  -2.732  1.00  0.00     0.208 A 
ATOM      3  C   UNL     1     -19.650  28.804  -2.707  1.00  0.00     0.238 A 
ATOM      4  O   UNL     1     -18.681  29.295  -3.342  1.00  0.00    -0.285 OA
ATOM      5  C   UNL     1     -20.519  29.617  -1.940  1.00  0.00     0.111 A 
ATOM      6  C   UNL     1     -20.448  31.041  -1.875  1.00  0.00     0.134 A 
ATOM      7  C   UNL     1     -21.276  31.734  -0.982  1.00  0.00     0.093 A 
ATOM      8  C   UNL     1     -22.216  31.061  -0.202  1.00  0.00     0.123 A 
ATOM      9  C   UNL     1     -22.335  29.674  -0.302  1.00  0.00     0.094 A 
ATOM     10  C   UNL     1     -21.498  28.952  -1.157  1.00  0.00     0.146 A 
ATOM     11  O   UNL     1     -21.637  27.634  -1.216  1.00  0.00    -0.452 OA
ENDROOT
BRANCH   1  12
ATOM     12  C   UNL     1     -21.153  25.395  -1.970  1.00  0.00     0.025 A 
ATOM     13  C   UNL     1     -22.199  24.845  -2.731  1.00  0.00     0.016 A 
ATOM     14  C   UNL     1     -22.454  23.471  -2.692  1.00  0.00     0.051 A 
ATOM     15  C   UNL     1     -21.683  22.631  -1.884  1.00  0.00     0.157 A 
ATOM     16  C   UNL     1     -20.394  24.551  -1.143  1.00  0.00     0.062 A 
ATOM     17  C   UNL     1     -20.648  23.173  -1.102  1.00  0.00     0.158 A 
BRANCH  15  18
ATOM     18  O   UNL     1     -21.960  21.265  -1.866  1.00  0.00    -0.504 OA
ATOM     19  H   UNL     1     -22.803  20.892  -1.445  1.00  0.00     0.293 HD
ENDBRANCH  15  18
BRANCH  17  20
ATOM     20  O   UNL     1     -19.880  22.342  -0.289  1.00  0.00    -0.504 OA
ATOM     21  H   UNL     1     -20.269  21.507   0.135  1.00  0.00     0.293 HD
ENDBRANCH  17  20
ENDBRANCH   1  12
BRANCH   2  22
ATOM     22  O   UNL     1     -18.977  26.589  -3.464  1.00  0.00    -0.502 OA
ATOM     23  H   UNL     1     -18.162  26.150  -3.052  1.00  0.00     0.293 HD
ENDBRANCH   2  22
BRANCH   6  24
ATOM     24  O   UNL     1     -19.608  31.819  -2.678  1.00  0.00    -0.507 OA
ATOM     25  H   UNL     1     -19.636  31.841  -3.686  1.00  0.00     0.293 HD
ENDBRANCH   6  24
BRANCH   8  26
ATOM     26  O   UNL     1     -23.034  31.784   0.664  1.00  0.00    -0.508 OA
ATOM     27  H   UNL     1     -22.912  31.739   1.668  1.00  0.00     0.293 HD
ENDBRANCH   8  26
TORSDOF 6
ENDMDL
MODEL 3
REMARK VINA RESULT:    -6.226      1.717      7.127
REMARK INTER + INTRA:          -7.809
REMARK INTER:                  -7.500
REMARK INTRA:                  -0.309
REMARK UNBOUND:                -0.309
REMARK SMILES O=c1c(O)c(-c2ccc(O)c(O)c2)oc2cc(O)cc(O)c12
REMARK SMILES IDX 5 1 3 2 2 3 1 4 22 5 20 6 19 7 17 8 16 9 15 10 14 11 6 12
REMARK SMILES IDX 7 13 8 14 9 15 13 16 11 17 10 18 12 20 4 22 21 24 18 26
REMARK H PARENT 10 19 12 21 4 23 21 25 18 27
REMARK Flexibility Score: inf
ROOT
ATOM      1  C   UNL     1     -21.352  26.884  -1.562  1.00  0.00     0.180 A 
ATOM      2  C   UNL     1     -22.233  27.639  -0.768  1.00  0.00     0.208 A 
ATOM      3  C   UNL     1     -22.048  29.029  -0.679  1.00  0.00     0.238 A 
ATOM      4  O   UNL     1     -22.871  29.706  -0.011  1.00  0.00    -0.285 OA
ATOM      5  C   UNL     1     -20.977  29.643  -1.372  1.00  0.00     0.111 A 
ATOM      6  C   UNL     1     -20.671  31.036  -1.320  1.00  0.00     0.134 A 
ATOM      7  C   UNL     1     -19.667  31.554  -2.149  1.00  0.00     0.093 A 
ATOM      8  C   UNL     1     -18.915  30.721  -2.976  1.00  0.00     0.123 A 
ATOM      9  C   UNL     1     -19.165  29.348  -2.989  1.00  0.00     0.094 A 
ATOM     10  C   UNL     1     -20.185  28.807  -2.201  1.00  0.00     0.146 A 
ATOM     11  O   UNL     1     -20.397  27.498  -2.251  1.00  0.00    -0.452 OA
ENDROOT
BRANCH   1  12
ATOM     12  C   UNL     1     -21.468  25.413  -1.686  1.00  0.00     0.025 A 
ATOM     13  C   UNL     1     -22.361  24.824  -2.597  1.00  0.00     0.016 A 
ATOM     14  C   UNL     1     -22.471  23.432  -2.679  1.00  0.00     0.051 A 
ATOM     15  C   UNL     1     -21.705  22.612  -1.847  1.00  0.00     0.157 A 
ATOM     16  C   UNL     1     -20.715  24.585  -0.835  1.00  0.00     0.062 A 
ATOM     17  C   UNL     1     -20.824  23.190  -0.917  1.00  0.00     0.158 A 
BRANCH  15  18
ATOM     18  O   UNL     1     -21.836  21.228  -1.953  1.00  0.00    -0.504 OA
ATOM     19  H   UNL     1     -21.087  20.595  -1.697  1.00  0.00     0.293 HD
ENDBRANCH  15  18
BRANCH  17  20
ATOM     20  O   UNL     1     -20.062  22.377  -0.079  1.00  0.00    -0.504 OA
ATOM     21  H   UNL     1     -19.445  21.664  -0.450  1.00  0.00     0.293 HD
ENDBRANCH  17  20
ENDBRANCH   1  12
BRANCH   2  22
ATOM     22  O   UNL     1     -23.296  27.016  -0.111  1.00  0.00    -0.502 OA
ATOM     23  H   UNL     1     -23.770  27.438   0.679  1.00  0.00     0.293 HD
ENDBRANCH   2  22
BRANCH   6  24
ATOM     24  O   UNL     1     -21.300  31.942  -0.460  1.00  0.00    -0.507 OA
ATOM     25  H   UNL     1     -20.894  32.810  -0.144  1.00  0.00     0.293 HD
ENDBRANCH   6  24
BRANCH   8  26
ATOM     26  O   UNL     1     -17.915  31.269  -3.775  1.00  0.00    -0.508 OA
ATOM     27  H   UNL     1     -17.576  32.212  -3.629  1.00  0.00     0.293 HD
ENDBRANCH   8  26
TORSDOF 6
ENDMDL
MODEL 4
REMARK VINA RESULT:    -5.403      1.868      6.866
REMARK INTER + INTRA:          -6.818
REMARK INTER:                  -6.710
REMARK INTRA:                  -0.108
REMARK UNBOUND:                -0.309
REMARK SMILES O=c1c(O)c(-c2ccc(O)c(O)c2)oc2cc(O)cc(O)c12
REMARK SMILES IDX 5 1 3 2 2 3 1 4 22 5 20 6 19 7 17 8 16 9 15 10 14 11 6 12
REMARK SMILES IDX 7 13 8 14 9 15 13 16 11 17 10 18 12 20 4 22 21 24 18 26
REMARK H PARENT 10 19 12 21 4 23 21 25 18 27
REMARK Flexibility Score: inf
ROOT
ATOM      1  C   UNL     1     -21.051  26.525  -1.033  1.00  0.00     0.180 A 
ATOM      2  C   UNL     1     -19.813  27.188  -1.093  1.00  0.00     0.208 A 
ATOM      3  C   UNL     1     -19.785  28.589  -1.000  1.00  0.00     0.238 A 
ATOM      4  O   UNL     1     -18.670  29.172  -1.000  1.00  0.00    -0.285 OA
ATOM      5  C   UNL     1     -20.996  29.310  -0.862  1.00  0.00     0.111 A 
ATOM      6  C   UNL     1     -21.088  30.733  -0.799  1.00  0.00     0.134 A 
ATOM      7  C   UNL     1     -22.326  31.333  -0.532  1.00  0.00     0.093 A 
ATOM      8  C   UNL     1     -23.482  30.568  -0.392  1.00  0.00     0.123 A 
ATOM      9  C   UNL     1     -23.413  29.178  -0.511  1.00  0.00     0.094 A 
ATOM     10  C   UNL     1     -22.187  28.549  -0.741  1.00  0.00     0.146 A 
ATOM     11  O   UNL     1     -22.163  27.225  -0.838  1.00  0.00    -0.452 OA
ENDROOT
BRANCH   1  12
ATOM     12  C   UNL     1     -21.164  25.053  -1.149  1.00  0.00     0.025 A 
ATOM     13  C   UNL     1     -21.919  24.456  -2.172  1.00  0.00     0.016 A 
ATOM     14  C   UNL     1     -22.031  23.064  -2.248  1.00  0.00     0.051 A 
ATOM     15  C   UNL     1     -21.405  22.252  -1.298  1.00  0.00     0.157 A 
ATOM     16  C   UNL     1     -20.554  24.234  -0.183  1.00  0.00     0.062 A 
ATOM     17  C   UNL     1     -20.665  22.838  -0.258  1.00  0.00     0.158 A 
BRANCH  15  18
ATOM     18  O   UNL     1     -21.534  20.867  -1.400  1.00  0.00    -0.504 OA
ATOM     19  H   UNL     1     -20.985  20.322  -2.054  1.00  0.00     0.293 HD
ENDBRANCH  15  18
BRANCH  17  20
ATOM     20  O   UNL     1     -20.044  22.034   0.696  1.00  0.00    -0.504 OA
ATOM     21  H   UNL     1     -20.489  21.197   1.055  1.00  0.00     0.293 HD
ENDBRANCH  17  20
ENDBRANCH   1  12
BRANCH   2  22
ATOM     22  O   UNL     1     -18.629  26.455  -1.207  1.00  0.00    -0.502 OA
ATOM     23  H   UNL     1     -18.259  26.154  -2.101  1.00  0.00     0.293 HD
ENDBRANCH   2  22
BRANCH   6  24
ATOM     24  O   UNL     1     -20.010  31.596  -1.017  1.00  0.00    -0.507 OA
ATOM     25  H   UNL     1     -19.381  31.922  -0.298  1.00  0.00     0.293 HD
ENDBRANCH   6  24
BRANCH   8  26
ATOM     26  O   UNL     1     -24.698  31.199  -0.141  1.00  0.00    -0.508 OA
ATOM     27  H   UNL     1     -24.873  31.687   0.729  1.00  0.00     0.293 HD
ENDBRANCH   8  26
TORSDOF 6
ENDMDL
MODEL 5
REMARK VINA RESULT:    -5.391      2.669      6.753
REMARK INTER + INTRA:          -6.803
REMARK INTER:                  -6.648
REMARK INTRA:                  -0.155
REMARK UNBOUND:                -0.309
REMARK SMILES O=c1c(O)c(-c2ccc(O)c(O)c2)oc2cc(O)cc(O)c12
REMARK SMILES IDX 5 1 3 2 2 3 1 4 22 5 20 6 19 7 17 8 16 9 15 10 14 11 6 12
REMARK SMILES IDX 7 13 8 14 9 15 13 16 11 17 10 18 12 20 4 22 21 24 18 26
REMARK H PARENT 10 19 12 21 4 23 21 25 18 27
REMARK Flexibility Score: inf
ROOT
ATOM      1  C   UNL     1     -20.986  26.778  -0.351  1.00  0.00     0.180 A 
ATOM      2  C   UNL     1     -20.461  27.790  -1.174  1.00  0.00     0.208 A 
ATOM      3  C   UNL     1     -21.239  28.928  -1.437  1.00  0.00     0.238 A 
ATOM      4  O   UNL     1     -20.743  29.854  -2.130  1.00  0.00    -0.285 OA
ATOM      5  C   UNL     1     -22.540  29.035  -0.887  1.00  0.00     0.111 A 
ATOM      6  C   UNL     1     -23.431  30.124  -1.120  1.00  0.00     0.134 A 
ATOM      7  C   UNL     1     -24.643  30.187  -0.420  1.00  0.00     0.093 A 
ATOM      8  C   UNL     1     -25.024  29.169   0.453  1.00  0.00     0.123 A 
ATOM      9  C   UNL     1     -24.186  28.069   0.643  1.00  0.00     0.094 A 
ATOM     10  C   UNL     1     -22.955  27.996  -0.013  1.00  0.00     0.146 A 
ATOM     11  O   UNL     1     -22.184  26.938   0.202  1.00  0.00    -0.452 OA
ENDROOT
BRANCH   1  12
ATOM     12  C   UNL     1     -20.236  25.539  -0.049  1.00  0.00     0.025 A 
ATOM     13  C   UNL     1     -19.030  25.572   0.673  1.00  0.00     0.016 A 
ATOM     14  C   UNL     1     -18.325  24.391   0.926  1.00  0.00     0.051 A 
ATOM     15  C   UNL     1     -18.804  23.167   0.452  1.00  0.00     0.157 A 
ATOM     16  C   UNL     1     -20.703  24.309  -0.542  1.00  0.00     0.062 A 
ATOM     17  C   UNL     1     -19.998  23.124  -0.289  1.00  0.00     0.158 A 
BRANCH  15  18
ATOM     18  O   UNL     1     -18.081  22.006   0.721  1.00  0.00    -0.504 OA
ATOM     19  H   UNL     1     -17.467  21.927   1.523  1.00  0.00     0.293 HD
ENDBRANCH  15  18
BRANCH  17  20
ATOM     20  O   UNL     1     -20.476  21.907  -0.770  1.00  0.00    -0.504 OA
ATOM     21  H   UNL     1     -19.934  21.339  -1.411  1.00  0.00     0.293 HD
ENDBRANCH  17  20
ENDBRANCH   1  12
BRANCH   2  22
ATOM     22  O   UNL     1     -19.167  27.674  -1.689  1.00  0.00    -0.502 OA
ATOM     23  H   UNL     1     -18.969  27.729  -2.681  1.00  0.00     0.293 HD
ENDBRANCH   2  22
BRANCH   6  24
ATOM     24  O   UNL     1     -23.189  31.148  -2.041  1.00  0.00    -0.507 OA
ATOM     25  H   UNL     1     -23.906  31.655  -2.538  1.00  0.00     0.293 HD
ENDBRANCH   6  24
BRANCH   8  26
ATOM     26  O   UNL     1     -26.243  29.257   1.121  1.00  0.00    -0.508 OA
ATOM     27  H   UNL     1     -26.400  29.942   1.851  1.00  0.00     0.293 HD
ENDBRANCH   8  26
TORSDOF 6
ENDMDL
MODEL 6
REMARK VINA RESULT:    -5.220      1.950      6.993
REMARK INTER + INTRA:          -6.597
REMARK INTER:                  -6.383
REMARK INTRA:                  -0.214
REMARK UNBOUND:                -0.309
REMARK SMILES O=c1c(O)c(-c2ccc(O)c(O)c2)oc2cc(O)cc(O)c12
REMARK SMILES IDX 5 1 3 2 2 3 1 4 22 5 20 6 19 7 17 8 16 9 15 10 14 11 6 12
REMARK SMILES IDX 7 13 8 14 9 15 13 16 11 17 10 18 12 20 4 22 21 24 18 26
REMARK H PARENT 10 19 12 21 4 23 21 25 18 27
REMARK Flexibility Score: inf
ROOT
ATOM      1  C   UNL     1     -20.639  26.759  -0.479  1.00  0.00     0.180 A 
ATOM      2  C   UNL     1     -21.838  27.129   0.154  1.00  0.00     0.208 A 
ATOM      3  C   UNL     1     -22.441  28.351  -0.188  1.00  0.00     0.238 A 
ATOM      4  O   UNL     1     -23.541  28.651   0.341  1.00  0.00    -0.285 OA
ATOM      5  C   UNL     1     -21.828  29.194  -1.147  1.00  0.00     0.111 A 
ATOM      6  C   UNL     1     -22.328  30.471  -1.540  1.00  0.00     0.134 A 
ATOM      7  C   UNL     1     -21.711  31.161  -2.591  1.00  0.00     0.093 A 
ATOM      8  C   UNL     1     -20.575  30.652  -3.218  1.00  0.00     0.123 A 
ATOM      9  C   UNL     1     -20.042  29.431  -2.802  1.00  0.00     0.094 A 
ATOM     10  C   UNL     1     -20.657  28.702  -1.780  1.00  0.00     0.146 A 
ATOM     11  O   UNL     1     -20.124  27.542  -1.420  1.00  0.00    -0.452 OA
ENDROOT
BRANCH   1  12
ATOM     12  C   UNL     1     -19.933  25.499  -0.153  1.00  0.00     0.025 A 
ATOM     13  C   UNL     1     -18.698  25.505   0.518  1.00  0.00     0.016 A 
ATOM     14  C   UNL     1     -18.037  24.304   0.793  1.00  0.00     0.051 A 
ATOM     15  C   UNL     1     -18.590  23.085   0.391  1.00  0.00     0.157 A 
ATOM     16  C   UNL     1     -20.475  24.273  -0.575  1.00  0.00     0.062 A 
ATOM     17  C   UNL     1     -19.814  23.068  -0.299  1.00  0.00     0.158 A 
BRANCH  15  18
ATOM     18  O   UNL     1     -17.909  21.903   0.681  1.00  0.00    -0.504 OA
ATOM     19  H   UNL     1     -18.341  21.145   1.195  1.00  0.00     0.293 HD
ENDBRANCH  15  18
BRANCH  17  20
ATOM     20  O   UNL     1     -20.367  21.856  -0.709  1.00  0.00    -0.504 OA
ATOM     21  H   UNL     1     -19.857  20.984  -0.623  1.00  0.00     0.293 HD
ENDBRANCH  17  20
ENDBRANCH   1  12
BRANCH   2  22
ATOM     22  O   UNL     1     -22.437  26.272   1.081  1.00  0.00    -0.502 OA
ATOM     23  H   UNL     1     -23.184  26.572   1.695  1.00  0.00     0.293 HD
ENDBRANCH   2  22
BRANCH   6  24
ATOM     24  O   UNL     1     -23.402  31.114  -0.917  1.00  0.00    -0.507 OA
ATOM     25  H   UNL     1     -24.153  30.643  -0.435  1.00  0.00     0.293 HD
ENDBRANCH   6  24
BRANCH   8  26
ATOM     26  O   UNL     1     -19.979  31.372  -4.251  1.00  0.00    -0.508 OA
ATOM     27  H   UNL     1     -19.732  30.933  -5.130  1.00  0.00     0.293 HD
ENDBRANCH   8  26
TORSDOF 6
ENDMDL
MODEL 7
REMARK VINA RESULT:    -4.890      1.609      6.785
REMARK INTER + INTRA:          -6.199
REMARK INTER:                  -6.505
REMARK INTRA:                   0.305
REMARK UNBOUND:                -0.309
REMARK SMILES O=c1c(O)c(-c2ccc(O)c(O)c2)oc2cc(O)cc(O)c12
REMARK SMILES IDX 5 1 3 2 2 3 1 4 22 5 20 6 19 7 17 8 16 9 15 10 14 11 6 12
REMARK SMILES IDX 7 13 8 14 9 15 13 16 11 17 10 18 12 20 4 22 21 24 18 26
REMARK H PARENT 10 19 12 21 4 23 21 25 18 27
REMARK Flexibility Score: inf
ROOT
ATOM      1  C   UNL     1     -20.409  26.790  -1.425  1.00  0.00     0.180 A 
ATOM      2  C   UNL     1     -19.900  27.179  -0.173  1.00  0.00     0.208 A 
ATOM      3  C   UNL     1     -19.416  28.487  -0.011  1.00  0.00     0.238 A 
ATOM      4  O   UNL     1     -19.012  28.846   1.125  1.00  0.00    -0.285 OA
ATOM      5  C   UNL     1     -19.432  29.385  -1.106  1.00  0.00     0.111 A 
ATOM      6  C   UNL     1     -18.930  30.720  -1.067  1.00  0.00     0.134 A 
ATOM      7  C   UNL     1     -19.116  31.561  -2.171  1.00  0.00     0.093 A 
ATOM      8  C   UNL     1     -19.726  31.096  -3.335  1.00  0.00     0.123 A 
ATOM      9  C   UNL     1     -20.168  29.774  -3.407  1.00  0.00     0.094 A 
ATOM     10  C   UNL     1     -20.028  28.922  -2.308  1.00  0.00     0.146 A 
ATOM     11  O   UNL     1     -20.470  27.675  -2.413  1.00  0.00    -0.452 OA
ENDROOT
BRANCH   1  12
ATOM     12  C   UNL     1     -20.914  25.421  -1.679  1.00  0.00     0.025 A 
ATOM     13  C   UNL     1     -21.975  25.188  -2.570  1.00  0.00     0.016 A 
ATOM     14  C   UNL     1     -22.452  23.890  -2.777  1.00  0.00     0.051 A 
ATOM     15  C   UNL     1     -21.888  22.812  -2.089  1.00  0.00     0.157 A 
ATOM     16  C   UNL     1     -20.364  24.338  -0.973  1.00  0.00     0.062 A 
ATOM     17  C   UNL     1     -20.840  23.036  -1.179  1.00  0.00     0.158 A 
BRANCH  15  18
ATOM     18  O   UNL     1     -22.383  21.529  -2.316  1.00  0.00    -0.504 OA
ATOM     19  H   UNL     1     -21.938  20.886  -2.960  1.00  0.00     0.293 HD
ENDBRANCH  15  18
BRANCH  17  20
ATOM     20  O   UNL     1     -20.279  21.966  -0.485  1.00  0.00    -0.504 OA
ATOM     21  H   UNL     1     -20.838  21.371   0.116  1.00  0.00     0.293 HD
ENDBRANCH  17  20
ENDBRANCH   1  12
BRANCH   2  22
ATOM     22  O   UNL     1     -19.913  26.284   0.899  1.00  0.00    -0.502 OA
ATOM     23  H   UNL     1     -19.776  26.581   1.858  1.00  0.00     0.293 HD
ENDBRANCH   2  22
BRANCH   6  24
ATOM     24  O   UNL     1     -18.223  31.257   0.014  1.00  0.00    -0.507 OA
ATOM     25  H   UNL     1     -18.302  30.937   0.968  1.00  0.00     0.293 HD
ENDBRANCH   6  24
BRANCH   8  26
ATOM     26  O   UNL     1     -19.881  31.956  -4.420  1.00  0.00    -0.508 OA
ATOM     27  H   UNL     1     -20.016  32.952  -4.292  1.00  0.00     0.293 HD
ENDBRANCH   8  26
TORSDOF 6
ENDMDL
MODEL 8
REMARK VINA RESULT:    -4.624      1.869      2.344
REMARK INTER + INTRA:          -5.879
REMARK INTER:                  -5.553
REMARK INTRA:                  -0.326
REMARK UNBOUND:                -0.309
REMARK SMILES O=c1c(O)c(-c2ccc(O)c(O)c2)oc2cc(O)cc(O)c12
REMARK SMILES IDX 5 1 3 2 2 3 1 4 22 5 20 6 19 7 17 8 16 9 15 10 14 11 6 12
REMARK SMILES IDX 7 13 8 14 9 15 13 16 11 17 10 18 12 20 4 22 21 24 18 26
REMARK H PARENT 10 19 12 21 4 23 21 25 18 27
REMARK Flexibility Score: inf
ROOT
ATOM      1  C   UNL     1     -21.606  27.057  -0.399  1.00  0.00     0.180 A 
ATOM      2  C   UNL     1     -20.439  26.847   0.357  1.00  0.00     0.208 A 
ATOM      3  C   UNL     1     -19.887  25.557   0.414  1.00  0.00     0.238 A 
ATOM      4  O   UNL     1     -18.813  25.387   1.047  1.00  0.00    -0.285 OA
ATOM      5  C   UNL     1     -20.516  24.491  -0.272  1.00  0.00     0.111 A 
ATOM      6  C   UNL     1     -20.067  23.136  -0.250  1.00  0.00     0.134 A 
ATOM      7  C   UNL     1     -20.692  22.188  -1.070  1.00  0.00     0.093 A 
ATOM      8  C   UNL     1     -21.789  22.530  -1.860  1.00  0.00     0.123 A 
ATOM      9  C   UNL     1     -22.274  23.838  -1.843  1.00  0.00     0.094 A 
ATOM     10  C   UNL     1     -21.649  24.815  -1.063  1.00  0.00     0.146 A 
ATOM     11  O   UNL     1     -22.136  26.049  -1.083  1.00  0.00    -0.452 OA
ENDROOT
BRANCH   1  12
ATOM     12  C   UNL     1     -22.260  28.382  -0.487  1.00  0.00     0.025 A 
ATOM     13  C   UNL     1     -23.296  28.746   0.390  1.00  0.00     0.016 A 
ATOM     14  C   UNL     1     -23.916  29.994   0.273  1.00  0.00     0.051 A 
ATOM     15  C   UNL     1     -23.523  30.888  -0.727  1.00  0.00     0.157 A 
ATOM     16  C   UNL     1     -21.882  29.274  -1.505  1.00  0.00     0.062 A 
ATOM     17  C   UNL     1     -22.502  30.526  -1.623  1.00  0.00     0.158 A 
BRANCH  15  18
ATOM     18  O   UNL     1     -24.158  32.125  -0.819  1.00  0.00    -0.504 OA
ATOM     19  H   UNL     1     -24.233  32.628  -1.695  1.00  0.00     0.293 HD
ENDBRANCH  15  18
BRANCH  17  20
ATOM     20  O   UNL     1     -22.110  31.410  -2.627  1.00  0.00    -0.504 OA
ATOM     21  H   UNL     1     -22.666  32.223  -2.864  1.00  0.00     0.293 HD
ENDBRANCH  17  20
ENDBRANCH   1  12
BRANCH   2  22
ATOM     22  O   UNL     1     -19.822  27.919   1.008  1.00  0.00    -0.502 OA
ATOM     23  H   UNL     1     -19.178  28.543   0.536  1.00  0.00     0.293 HD
ENDBRANCH   2  22
BRANCH   6  24
ATOM     24  O   UNL     1     -19.038  22.668   0.573  1.00  0.00    -0.507 OA
ATOM     25  H   UNL     1     -18.111  23.066   0.616  1.00  0.00     0.293 HD
ENDBRANCH   6  24
BRANCH   8  26
ATOM     26  O   UNL     1     -22.395  21.557  -2.652  1.00  0.00    -0.508 OA
ATOM     27  H   UNL     1     -23.207  21.043  -2.332  1.00  0.00     0.293 HD
ENDBRANCH   8  26
TORSDOF 6
ENDMDL
MODEL 9
REMARK VINA RESULT:    -4.349      1.594      6.691
REMARK INTER + INTRA:          -5.548
REMARK INTER:                  -6.035
REMARK INTRA:                   0.487
REMARK UNBOUND:                -0.309
REMARK SMILES O=c1c(O)c(-c2ccc(O)c(O)c2)oc2cc(O)cc(O)c12
REMARK SMILES IDX 5 1 3 2 2 3 1 4 22 5 20 6 19 7 17 8 16 9 15 10 14 11 6 12
REMARK SMILES IDX 7 13 8 14 9 15 13 16 11 17 10 18 12 20 4 22 21 24 18 26
REMARK H PARENT 10 19 12 21 4 23 21 25 18 27
REMARK Flexibility Score: inf
ROOT
ATOM      1  C   UNL     1     -20.458  26.313  -0.938  1.00  0.00     0.180 A 
ATOM      2  C   UNL     1     -19.363  26.414  -0.062  1.00  0.00     0.208 A 
ATOM      3  C   UNL     1     -18.879  27.687   0.281  1.00  0.00     0.238 A 
ATOM      4  O   UNL     1     -17.935  27.773   1.107  1.00  0.00    -0.285 OA
ATOM      5  C   UNL     1     -19.486  28.842  -0.269  1.00  0.00     0.111 A 
ATOM      6  C   UNL     1     -19.053  30.180  -0.024  1.00  0.00     0.134 A 
ATOM      7  C   UNL     1     -19.808  31.252  -0.517  1.00  0.00     0.093 A 
ATOM      8  C   UNL     1     -20.940  31.035  -1.300  1.00  0.00     0.123 A 
ATOM      9  C   UNL     1     -21.340  29.731  -1.597  1.00  0.00     0.094 A 
ATOM     10  C   UNL     1     -20.627  28.641  -1.088  1.00  0.00     0.146 A 
ATOM     11  O   UNL     1     -21.045  27.417  -1.386  1.00  0.00    -0.452 OA
ENDROOT
BRANCH   1  12
ATOM     12  C   UNL     1     -21.008  25.006  -1.364  1.00  0.00     0.025 A 
ATOM     13  C   UNL     1     -21.902  24.906  -2.444  1.00  0.00     0.016 A 
ATOM     14  C   UNL     1     -22.428  23.664  -2.813  1.00  0.00     0.051 A 
ATOM     15  C   UNL     1     -22.082  22.511  -2.104  1.00  0.00     0.157 A 
ATOM     16  C   UNL     1     -20.679  23.848  -0.640  1.00  0.00     0.062 A 
ATOM     17  C   UNL     1     -21.205  22.601  -1.009  1.00  0.00     0.158 A 
BRANCH  15  18
ATOM     18  O   UNL     1     -22.621  21.286  -2.496  1.00  0.00    -0.504 OA
ATOM     19  H   UNL     1     -22.038  20.503  -2.767  1.00  0.00     0.293 HD
ENDBRANCH  15  18
BRANCH  17  20
ATOM     20  O   UNL     1     -20.862  21.456  -0.294  1.00  0.00    -0.504 OA
ATOM     21  H   UNL     1     -21.200  20.540  -0.565  1.00  0.00     0.293 HD
ENDBRANCH  17  20
ENDBRANCH   1  12
BRANCH   2  22
ATOM     22  O   UNL     1     -18.794  25.262   0.487  1.00  0.00    -0.502 OA
ATOM     23  H   UNL     1     -18.997  24.334   0.134  1.00  0.00     0.293 HD
ENDBRANCH   2  22
BRANCH   6  24
ATOM     24  O   UNL     1     -17.883  30.507   0.669  1.00  0.00    -0.507 OA
ATOM     25  H   UNL     1     -17.744  30.368   1.659  1.00  0.00     0.293 HD
ENDBRANCH   6  24
BRANCH   8  26
ATOM     26  O   UNL     1     -21.659  32.125  -1.786  1.00  0.00    -0.508 OA
ATOM     27  H   UNL     1     -21.855  32.932  -1.206  1.00  0.00     0.293 HD
ENDBRANCH   8  26
TORSDOF 6
ENDMDL
