MODEL 1
REMARK VINA RESULT:    -8.119      0.000      0.000
REMARK INTER + INTRA:         -13.286
REMARK INTER:                 -11.916
REMARK INTRA:                  -1.370
REMARK UNBOUND:                -1.370
REMARK SMILES O=c1c(O[C@@H]2O[C@@H](CO)[C@@H](O)[C@H](O)[C@H]2O)c(-c2ccc(O)c(O)c2)oc2cc(O)cc(O)c12
REMARK SMILES IDX 4 1 3 2 16 3 25 4 2 5 26 6 1 7 33 8 27 9 31 10 28 11 30 12
REMARK SMILES IDX 17 13 18 14 19 15 20 16 24 17 22 18 21 19 23 21 32 23 29 25
REMARK SMILES IDX 5 27 14 28 6 29 12 30 7 31 10 32 15 33 13 35 8 37 9 38 11 40
REMARK H PARENT 21 20 23 22 32 24 29 26 15 34 13 36 9 39 11 41
REMARK Flexibility Score: inf
ROOT
ATOM      1  O   UNL     1      37.873  46.471 162.226  1.00  0.00    -0.454 OA
ENDROOT
BRANCH   1   2
ATOM      2  C   UNL     1      37.175  47.535 162.930  1.00  0.00     0.214 A 
ATOM      3  C   UNL     1      37.269  47.515 164.377  1.00  0.00     0.180 A 
ATOM      4  O   UNL     1      36.357  48.221 165.074  1.00  0.00    -0.452 OA
ATOM      5  C   UNL     1      36.372  48.573 162.350  1.00  0.00     0.239 A 
ATOM      6  C   UNL     1      35.352  48.877 164.512  1.00  0.00     0.146 A 
ATOM      7  O   UNL     1      36.805  49.245 161.407  1.00  0.00    -0.285 OA
ATOM      8  C   UNL     1      35.327  49.031 163.087  1.00  0.00     0.111 A 
ATOM      9  C   UNL     1      34.342  49.390 165.345  1.00  0.00     0.094 A 
ATOM     10  C   UNL     1      34.177  49.728 162.527  1.00  0.00     0.134 A 
ATOM     11  C   UNL     1      33.204  49.995 164.760  1.00  0.00     0.123 A 
ATOM     12  C   UNL     1      33.122  50.145 163.393  1.00  0.00     0.093 A 
BRANCH   3  13
ATOM     13  C   UNL     1      38.327  46.706 165.128  1.00  0.00     0.025 A 
ATOM     14  C   UNL     1      37.781  45.675 165.923  1.00  0.00     0.016 A 
ATOM     15  C   UNL     1      37.716  45.825 167.297  1.00  0.00     0.051 A 
ATOM     16  C   UNL     1      38.341  46.920 167.899  1.00  0.00     0.157 A 
ATOM     17  C   UNL     1      39.354  47.475 165.791  1.00  0.00     0.062 A 
ATOM     18  C   UNL     1      39.161  47.732 167.144  1.00  0.00     0.158 A 
BRANCH  16  19
ATOM     19  O   UNL     1      38.112  47.186 169.233  1.00  0.00    -0.504 OA
ATOM     20  H   UNL     1      38.485  46.615 169.977  1.00  0.00     0.293 HD
ENDBRANCH  16  19
BRANCH  18  21
ATOM     21  O   UNL     1      39.960  48.693 167.718  1.00  0.00    -0.504 OA
ATOM     22  H   UNL     1      39.762  49.192 168.543  1.00  0.00     0.293 HD
ENDBRANCH  18  21
ENDBRANCH   3  13
BRANCH  10  23
ATOM     23  O   UNL     1      34.034  50.026 161.168  1.00  0.00    -0.507 OA
ATOM     24  H   UNL     1      34.691  49.716 160.477  1.00  0.00     0.293 HD
ENDBRANCH  10  23
BRANCH  11  25
ATOM     25  O   UNL     1      32.160  50.386 165.618  1.00  0.00    -0.508 OA
ATOM     26  H   UNL     1      31.861  49.797 166.382  1.00  0.00     0.293 HD
ENDBRANCH  11  25
ENDBRANCH   1   2
BRANCH   1  27
ATOM     27  C   UNL     1      37.534  45.740 161.003  1.00  0.00     0.339 C 
ATOM     28  C   UNL     1      36.025  45.293 161.087  1.00  0.00     0.214 C 
ATOM     29  O   UNL     1      37.709  46.543 159.828  1.00  0.00    -0.332 OA
ATOM     30  C   UNL     1      35.782  44.202 159.963  1.00  0.00     0.180 C 
ATOM     31  C   UNL     1      37.013  46.046 158.649  1.00  0.00     0.179 C 
ATOM     32  C   UNL     1      36.645  44.478 158.745  1.00  0.00     0.177 C 
BRANCH  28  33
ATOM     33  O   UNL     1      35.745  44.759 162.392  1.00  0.00    -0.384 OA
ATOM     34  H   UNL     1      35.943  45.463 163.048  1.00  0.00     0.211 HD
ENDBRANCH  28  33
BRANCH  30  35
ATOM     35  O   UNL     1      34.376  44.108 159.588  1.00  0.00    -0.387 OA
ATOM     36  H   UNL     1      34.251  44.536 158.701  1.00  0.00     0.211 HD
ENDBRANCH  30  35
BRANCH  31  37
ATOM     37  C   UNL     1      37.819  46.416 157.396  1.00  0.00     0.191 C 
BRANCH  37  38
ATOM     38  O   UNL     1      37.765  45.414 156.418  1.00  0.00    -0.394 OA
ATOM     39  H   UNL     1      38.717  45.234 156.220  1.00  0.00     0.210 HD
ENDBRANCH  37  38
ENDBRANCH  31  37
BRANCH  32  40
ATOM     40  O   UNL     1      37.806  43.643 158.797  1.00  0.00    -0.387 OA
ATOM     41  H   UNL     1      37.489  42.711 158.861  1.00  0.00     0.211 HD
ENDBRANCH  32  40
ENDBRANCH   1  27
TORSDOF 12
ENDMDL
MODEL 2
REMARK VINA RESULT:    -7.741      2.065      7.608
REMARK INTER + INTRA:         -12.732
REMARK INTER:                 -11.397
REMARK INTRA:                  -1.335
REMARK UNBOUND:                -1.370
REMARK SMILES O=c1c(O[C@@H]2O[C@@H](CO)[C@@H](O)[C@H](O)[C@H]2O)c(-c2ccc(O)c(O)c2)oc2cc(O)cc(O)c12
REMARK SMILES IDX 4 1 3 2 16 3 25 4 2 5 26 6 1 7 33 8 27 9 31 10 28 11 30 12
REMARK SMILES IDX 17 13 18 14 19 15 20 16 24 17 22 18 21 19 23 21 32 23 29 25
REMARK SMILES IDX 5 27 14 28 6 29 12 30 7 31 10 32 15 33 13 35 8 37 9 38 11 40
REMARK H PARENT 21 20 23 22 32 24 29 26 15 34 13 36 9 39 11 41
REMARK Flexibility Score: inf
ROOT
ATOM      1  O   UNL     1      37.605  46.063 162.926  1.00  0.00    -0.454 OA
ENDROOT
BRANCH   1   2
ATOM      2  C   UNL     1      36.614  45.199 162.305  1.00  0.00     0.214 A 
ATOM      3  C   UNL     1      36.647  45.124 160.857  1.00  0.00     0.180 A 
ATOM      4  O   UNL     1      35.548  44.664 160.228  1.00  0.00    -0.452 OA
ATOM      5  C   UNL     1      35.584  44.450 162.967  1.00  0.00     0.239 A 
ATOM      6  C   UNL     1      34.427  44.335 160.855  1.00  0.00     0.146 A 
ATOM      7  O   UNL     1      35.857  43.730 163.934  1.00  0.00    -0.285 OA
ATOM      8  C   UNL     1      34.422  44.261 162.287  1.00  0.00     0.111 A 
ATOM      9  C   UNL     1      33.280  44.080 160.083  1.00  0.00     0.094 A 
ATOM     10  C   UNL     1      33.152  43.935 162.919  1.00  0.00     0.134 A 
ATOM     11  C   UNL     1      32.047  43.840 160.734  1.00  0.00     0.123 A 
ATOM     12  C   UNL     1      31.986  43.782 162.109  1.00  0.00     0.093 A 
BRANCH   3  13
ATOM     13  C   UNL     1      37.852  45.575 160.032  1.00  0.00     0.025 A 
ATOM     14  C   UNL     1      37.588  46.710 159.233  1.00  0.00     0.016 A 
ATOM     15  C   UNL     1      37.405  46.566 157.870  1.00  0.00     0.051 A 
ATOM     16  C   UNL     1      37.647  45.328 157.271  1.00  0.00     0.157 A 
ATOM     17  C   UNL     1      38.569  44.529 159.341  1.00  0.00     0.062 A 
ATOM     18  C   UNL     1      38.235  44.321 158.008  1.00  0.00     0.158 A 
BRANCH  16  19
ATOM     19  O   UNL     1      37.276  45.122 155.958  1.00  0.00    -0.504 OA
ATOM     20  H   UNL     1      36.316  44.996 155.674  1.00  0.00     0.293 HD
ENDBRANCH  16  19
BRANCH  18  21
ATOM     21  O   UNL     1      38.683  43.160 157.424  1.00  0.00    -0.504 OA
ATOM     22  H   UNL     1      39.083  42.393 157.895  1.00  0.00     0.293 HD
ENDBRANCH  18  21
ENDBRANCH   3  13
BRANCH  10  23
ATOM     23  O   UNL     1      32.992  43.752 164.296  1.00  0.00    -0.507 OA
ATOM     24  H   UNL     1      32.984  44.518 164.943  1.00  0.00     0.293 HD
ENDBRANCH  10  23
BRANCH  11  25
ATOM     25  O   UNL     1      30.900  43.710 159.930  1.00  0.00    -0.508 OA
ATOM     26  H   UNL     1      30.631  44.433 159.279  1.00  0.00     0.293 HD
ENDBRANCH  11  25
ENDBRANCH   1   2
BRANCH   1  27
ATOM     27  C   UNL     1      37.567  46.833 164.172  1.00  0.00     0.339 C 
ATOM     28  C   UNL     1      36.239  47.681 164.199  1.00  0.00     0.214 C 
ATOM     29  O   UNL     1      37.595  45.988 165.330  1.00  0.00    -0.332 OA
ATOM     30  C   UNL     1      36.386  48.772 165.339  1.00  0.00     0.180 C 
ATOM     31  C   UNL     1      37.147  46.632 166.557  1.00  0.00     0.179 C 
ATOM     32  C   UNL     1      37.223  48.243 166.491  1.00  0.00     0.177 C 
BRANCH  28  33
ATOM     33  O   UNL     1      36.027  48.299 162.919  1.00  0.00    -0.384 OA
ATOM     34  H   UNL     1      36.188  47.616 162.231  1.00  0.00     0.211 HD
ENDBRANCH  28  33
BRANCH  30  35
ATOM     35  O   UNL     1      35.092  49.242 165.816  1.00  0.00    -0.387 OA
ATOM     36  H   UNL     1      34.700  48.553 166.414  1.00  0.00     0.211 HD
ENDBRANCH  30  35
BRANCH  31  37
ATOM     37  C   UNL     1      37.905  46.027 167.748  1.00  0.00     0.191 C 
BRANCH  37  38
ATOM     38  O   UNL     1      38.192  46.984 168.732  1.00  0.00    -0.394 OA
ATOM     39  H   UNL     1      38.347  47.810 168.211  1.00  0.00     0.210 HD
ENDBRANCH  37  38
ENDBRANCH  31  37
BRANCH  32  40
ATOM     40  O   UNL     1      38.562  48.726 166.355  1.00  0.00    -0.387 OA
ATOM     41  H   UNL     1      38.511  49.710 166.300  1.00  0.00     0.211 HD
ENDBRANCH  32  40
ENDBRANCH   1  27
TORSDOF 12
ENDMDL
MODEL 3
REMARK VINA RESULT:    -7.644      2.346      7.343
REMARK INTER + INTRA:         -12.590
REMARK INTER:                 -11.070
REMARK INTRA:                  -1.520
REMARK UNBOUND:                -1.370
REMARK SMILES O=c1c(O[C@@H]2O[C@@H](CO)[C@@H](O)[C@H](O)[C@H]2O)c(-c2ccc(O)c(O)c2)oc2cc(O)cc(O)c12
REMARK SMILES IDX 4 1 3 2 16 3 25 4 2 5 26 6 1 7 33 8 27 9 31 10 28 11 30 12
REMARK SMILES IDX 17 13 18 14 19 15 20 16 24 17 22 18 21 19 23 21 32 23 29 25
REMARK SMILES IDX 5 27 14 28 6 29 12 30 7 31 10 32 15 33 13 35 8 37 9 38 11 40
REMARK H PARENT 21 20 23 22 32 24 29 26 15 34 13 36 9 39 11 41
REMARK Flexibility Score: inf
ROOT
ATOM      1  O   UNL     1      36.077  47.442 163.396  1.00  0.00    -0.454 OA
ENDROOT
BRANCH   1   2
ATOM      2  C   UNL     1      35.950  46.961 162.030  1.00  0.00     0.214 A 
ATOM      3  C   UNL     1      35.338  45.657 161.864  1.00  0.00     0.180 A 
ATOM      4  O   UNL     1      35.540  45.013 160.697  1.00  0.00    -0.452 OA
ATOM      5  C   UNL     1      36.402  47.618 160.837  1.00  0.00     0.239 A 
ATOM      6  C   UNL     1      36.310  45.481 159.726  1.00  0.00     0.146 A 
ATOM      7  O   UNL     1      36.118  48.803 160.630  1.00  0.00    -0.285 OA
ATOM      8  C   UNL     1      36.802  46.825 159.808  1.00  0.00     0.111 A 
ATOM      9  C   UNL     1      36.623  44.628 158.653  1.00  0.00     0.094 A 
ATOM     10  C   UNL     1      37.675  47.267 158.730  1.00  0.00     0.134 A 
ATOM     11  C   UNL     1      37.534  45.066 157.663  1.00  0.00     0.123 A 
ATOM     12  C   UNL     1      38.052  46.342 157.711  1.00  0.00     0.093 A 
BRANCH   3  13
ATOM     13  C   UNL     1      34.516  44.982 162.962  1.00  0.00     0.025 A 
ATOM     14  C   UNL     1      34.875  43.634 163.180  1.00  0.00     0.016 A 
ATOM     15  C   UNL     1      34.061  42.619 162.711  1.00  0.00     0.051 A 
ATOM     16  C   UNL     1      32.810  42.933 162.176  1.00  0.00     0.157 A 
ATOM     17  C   UNL     1      33.090  45.205 162.908  1.00  0.00     0.062 A 
ATOM     18  C   UNL     1      32.330  44.221 162.285  1.00  0.00     0.158 A 
BRANCH  16  19
ATOM     19  O   UNL     1      32.082  41.958 161.526  1.00  0.00    -0.504 OA
ATOM     20  H   UNL     1      32.307  40.976 161.586  1.00  0.00     0.293 HD
ENDBRANCH  16  19
BRANCH  18  21
ATOM     21  O   UNL     1      31.032  44.543 161.965  1.00  0.00    -0.504 OA
ATOM     22  H   UNL     1      30.692  45.446 161.767  1.00  0.00     0.293 HD
ENDBRANCH  18  21
ENDBRANCH   3  13
BRANCH  10  23
ATOM     23  O   UNL     1      38.180  48.567 158.620  1.00  0.00    -0.507 OA
ATOM     24  H   UNL     1      37.760  49.349 159.087  1.00  0.00     0.293 HD
ENDBRANCH  10  23
BRANCH  11  25
ATOM     25  O   UNL     1      37.916  44.142 156.673  1.00  0.00    -0.508 OA
ATOM     26  H   UNL     1      38.430  44.433 155.854  1.00  0.00     0.293 HD
ENDBRANCH  11  25
ENDBRANCH   1   2
BRANCH   1  27
ATOM     27  C   UNL     1      36.992  47.055 164.473  1.00  0.00     0.339 C 
ATOM     28  C   UNL     1      37.551  48.362 165.152  1.00  0.00     0.214 C 
ATOM     29  O   UNL     1      36.342  46.261 165.475  1.00  0.00    -0.332 OA
ATOM     30  C   UNL     1      38.799  47.951 166.037  1.00  0.00     0.180 C 
ATOM     31  C   UNL     1      37.050  46.196 166.746  1.00  0.00     0.179 C 
ATOM     32  C   UNL     1      38.617  46.559 166.617  1.00  0.00     0.177 C 
BRANCH  28  33
ATOM     33  O   UNL     1      37.927  49.315 164.143  1.00  0.00    -0.384 OA
ATOM     34  H   UNL     1      37.619  48.966 163.277  1.00  0.00     0.211 HD
ENDBRANCH  28  33
BRANCH  30  35
ATOM     35  O   UNL     1      39.063  48.919 167.094  1.00  0.00    -0.387 OA
ATOM     36  H   UNL     1      39.058  48.450 167.969  1.00  0.00     0.211 HD
ENDBRANCH  30  35
BRANCH  31  37
ATOM     37  C   UNL     1      36.783  44.833 167.401  1.00  0.00     0.191 C 
BRANCH  37  38
ATOM     38  O   UNL     1      37.179  43.767 166.580  1.00  0.00    -0.394 OA
ATOM     39  H   UNL     1      38.029  43.466 166.988  1.00  0.00     0.210 HD
ENDBRANCH  37  38
ENDBRANCH  31  37
BRANCH  32  40
ATOM     40  O   UNL     1      39.334  45.620 165.811  1.00  0.00    -0.387 OA
ATOM     41  H   UNL     1      40.292  45.729 166.024  1.00  0.00     0.211 HD
ENDBRANCH  32  40
ENDBRANCH   1  27
TORSDOF 12
ENDMDL
MODEL 4
REMARK VINA RESULT:    -7.618      2.873      6.174
REMARK INTER + INTRA:         -12.550
REMARK INTER:                 -11.031
REMARK INTRA:                  -1.519
REMARK UNBOUND:                -1.370
REMARK SMILES O=c1c(O[C@@H]2O[C@@H](CO)[C@@H](O)[C@H](O)[C@H]2O)c(-c2ccc(O)c(O)c2)oc2cc(O)cc(O)c12
REMARK SMILES IDX 4 1 3 2 16 3 25 4 2 5 26 6 1 7 33 8 27 9 31 10 28 11 30 12
REMARK SMILES IDX 17 13 18 14 19 15 20 16 24 17 22 18 21 19 23 21 32 23 29 25
REMARK SMILES IDX 5 27 14 28 6 29 12 30 7 31 10 32 15 33 13 35 8 37 9 38 11 40
REMARK H PARENT 21 20 23 22 32 24 29 26 15 34 13 36 9 39 11 41
REMARK Flexibility Score: inf
ROOT
ATOM      1  O   UNL     1      35.365  47.636 160.865  1.00  0.00    -0.454 OA
ENDROOT
BRANCH   1   2
ATOM      2  C   UNL     1      35.664  46.576 161.815  1.00  0.00     0.214 A 
ATOM      3  C   UNL     1      34.612  45.604 162.040  1.00  0.00     0.180 A 
ATOM      4  O   UNL     1      34.683  44.852 163.156  1.00  0.00    -0.452 OA
ATOM      5  C   UNL     1      36.867  46.415 162.581  1.00  0.00     0.239 A 
ATOM      6  C   UNL     1      35.623  44.996 164.079  1.00  0.00     0.146 A 
ATOM      7  O   UNL     1      37.971  46.468 162.029  1.00  0.00    -0.285 OA
ATOM      8  C   UNL     1      36.747  45.843 163.807  1.00  0.00     0.111 A 
ATOM      9  C   UNL     1      35.470  44.313 165.299  1.00  0.00     0.094 A 
ATOM     10  C   UNL     1      37.725  45.991 164.875  1.00  0.00     0.134 A 
ATOM     11  C   UNL     1      36.402  44.541 166.340  1.00  0.00     0.123 A 
ATOM     12  C   UNL     1      37.487  45.365 166.135  1.00  0.00     0.093 A 
BRANCH   3  13
ATOM     13  C   UNL     1      33.427  45.429 161.090  1.00  0.00     0.025 A 
ATOM     14  C   UNL     1      32.306  46.210 161.447  1.00  0.00     0.016 A 
ATOM     15  C   UNL     1      31.210  45.611 162.040  1.00  0.00     0.051 A 
ATOM     16  C   UNL     1      31.151  44.219 162.129  1.00  0.00     0.157 A 
ATOM     17  C   UNL     1      33.101  44.068 160.733  1.00  0.00     0.062 A 
ATOM     18  C   UNL     1      32.092  43.457 161.468  1.00  0.00     0.158 A 
BRANCH  16  19
ATOM     19  O   UNL     1      30.167  43.625 162.893  1.00  0.00    -0.504 OA
ATOM     20  H   UNL     1      30.309  43.359 163.856  1.00  0.00     0.293 HD
ENDBRANCH  16  19
BRANCH  18  21
ATOM     21  O   UNL     1      31.969  42.093 161.348  1.00  0.00    -0.504 OA
ATOM     22  H   UNL     1      31.125  41.594 161.262  1.00  0.00     0.293 HD
ENDBRANCH  18  21
ENDBRANCH   3  13
BRANCH  10  23
ATOM     23  O   UNL     1      38.912  46.720 164.748  1.00  0.00    -0.507 OA
ATOM     24  H   UNL     1      39.651  46.668 165.423  1.00  0.00     0.293 HD
ENDBRANCH  10  23
BRANCH  11  25
ATOM     25  O   UNL     1      36.149  43.935 167.585  1.00  0.00    -0.508 OA
ATOM     26  H   UNL     1      35.550  44.373 168.269  1.00  0.00     0.293 HD
ENDBRANCH  11  25
ENDBRANCH   1   2
BRANCH   1  27
ATOM     27  C   UNL     1      35.935  47.942 159.551  1.00  0.00     0.339 C 
ATOM     28  C   UNL     1      37.000  49.092 159.720  1.00  0.00     0.214 C 
ATOM     29  O   UNL     1      36.580  46.805 158.963  1.00  0.00    -0.332 OA
ATOM     30  C   UNL     1      37.323  49.666 158.279  1.00  0.00     0.180 C 
ATOM     31  C   UNL     1      37.507  47.126 157.887  1.00  0.00     0.179 C 
ATOM     32  C   UNL     1      37.235  48.574 157.228  1.00  0.00     0.177 C 
BRANCH  28  33
ATOM     33  O   UNL     1      36.478  50.120 160.579  1.00  0.00    -0.384 OA
ATOM     34  H   UNL     1      36.201  49.691 161.419  1.00  0.00     0.211 HD
ENDBRANCH  28  33
BRANCH  30  35
ATOM     35  O   UNL     1      38.624  50.323 158.232  1.00  0.00    -0.387 OA
ATOM     36  H   UNL     1      39.313  49.654 157.978  1.00  0.00     0.211 HD
ENDBRANCH  30  35
BRANCH  31  37
ATOM     37  C   UNL     1      37.513  45.976 156.869  1.00  0.00     0.191 C 
BRANCH  37  38
ATOM     38  O   UNL     1      37.491  46.441 155.546  1.00  0.00    -0.394 OA
ATOM     39  H   UNL     1      37.414  47.422 155.649  1.00  0.00     0.210 HD
ENDBRANCH  37  38
ENDBRANCH  31  37
BRANCH  32  40
ATOM     40  O   UNL     1      35.963  48.653 156.579  1.00  0.00    -0.387 OA
ATOM     41  H   UNL     1      35.738  49.611 156.500  1.00  0.00     0.211 HD
ENDBRANCH  32  40
ENDBRANCH   1  27
TORSDOF 12
ENDMDL
MODEL 5
REMARK VINA RESULT:    -7.563      2.271      5.551
REMARK INTER + INTRA:         -12.471
REMARK INTER:                 -11.006
REMARK INTRA:                  -1.465
REMARK UNBOUND:                -1.370
REMARK SMILES O=c1c(O[C@@H]2O[C@@H](CO)[C@@H](O)[C@H](O)[C@H]2O)c(-c2ccc(O)c(O)c2)oc2cc(O)cc(O)c12
REMARK SMILES IDX 4 1 3 2 16 3 25 4 2 5 26 6 1 7 33 8 27 9 31 10 28 11 30 12
REMARK SMILES IDX 17 13 18 14 19 15 20 16 24 17 22 18 21 19 23 21 32 23 29 25
REMARK SMILES IDX 5 27 14 28 6 29 12 30 7 31 10 32 15 33 13 35 8 37 9 38 11 40
REMARK H PARENT 21 20 23 22 32 24 29 26 15 34 13 36 9 39 11 41
REMARK Flexibility Score: inf
ROOT
ATOM      1  O   UNL     1      35.855  48.460 163.398  1.00  0.00    -0.454 OA
ENDROOT
BRANCH   1   2
ATOM      2  C   UNL     1      36.384  47.567 164.417  1.00  0.00     0.214 A 
ATOM      3  C   UNL     1      35.577  46.404 164.730  1.00  0.00     0.180 A 
ATOM      4  O   UNL     1      35.816  45.772 165.897  1.00  0.00    -0.452 OA
ATOM      5  C   UNL     1      37.593  47.737 165.172  1.00  0.00     0.239 A 
ATOM      6  C   UNL     1      36.700  46.191 166.791  1.00  0.00     0.146 A 
ATOM      7  O   UNL     1      38.657  47.995 164.599  1.00  0.00    -0.285 OA
ATOM      8  C   UNL     1      37.605  47.245 166.439  1.00  0.00     0.111 A 
ATOM      9  C   UNL     1      36.705  45.584 168.059  1.00  0.00     0.094 A 
ATOM     10  C   UNL     1      38.526  47.688 167.476  1.00  0.00     0.134 A 
ATOM     11  C   UNL     1      37.562  46.091 169.065  1.00  0.00     0.123 A 
ATOM     12  C   UNL     1      38.434  47.119 168.782  1.00  0.00     0.093 A 
BRANCH   3  13
ATOM     13  C   UNL     1      34.462  45.898 163.816  1.00  0.00     0.025 A 
ATOM     14  C   UNL     1      33.451  45.193 164.506  1.00  0.00     0.016 A 
ATOM     15  C   UNL     1      33.393  43.814 164.421  1.00  0.00     0.051 A 
ATOM     16  C   UNL     1      34.227  43.144 163.523  1.00  0.00     0.157 A 
ATOM     17  C   UNL     1      34.889  45.259 162.594  1.00  0.00     0.062 A 
ATOM     18  C   UNL     1      34.963  43.871 162.611  1.00  0.00     0.158 A 
BRANCH  16  19
ATOM     19  O   UNL     1      34.321  41.769 163.574  1.00  0.00    -0.504 OA
ATOM     20  H   UNL     1      33.928  41.167 162.866  1.00  0.00     0.293 HD
ENDBRANCH  16  19
BRANCH  18  21
ATOM     21  O   UNL     1      35.638  43.268 161.575  1.00  0.00    -0.504 OA
ATOM     22  H   UNL     1      35.782  42.301 161.465  1.00  0.00     0.293 HD
ENDBRANCH  18  21
ENDBRANCH   3  13
BRANCH  10  23
ATOM     23  O   UNL     1      39.519  48.653 167.276  1.00  0.00    -0.507 OA
ATOM     24  H   UNL     1      39.993  48.763 166.400  1.00  0.00     0.293 HD
ENDBRANCH  10  23
BRANCH  11  25
ATOM     25  O   UNL     1      37.453  45.538 170.354  1.00  0.00    -0.508 OA
ATOM     26  H   UNL     1      37.416  44.539 170.495  1.00  0.00     0.293 HD
ENDBRANCH  11  25
ENDBRANCH   1   2
BRANCH   1  27
ATOM     27  C   UNL     1      35.998  48.453 161.941  1.00  0.00     0.339 C 
ATOM     28  C   UNL     1      36.691  49.797 161.497  1.00  0.00     0.214 C 
ATOM     29  O   UNL     1      36.797  47.354 161.482  1.00  0.00    -0.332 OA
ATOM     30  C   UNL     1      36.499  49.946 159.932  1.00  0.00     0.180 C 
ATOM     31  C   UNL     1      37.321  47.512 160.132  1.00  0.00     0.179 C 
ATOM     32  C   UNL     1      36.498  48.587 159.255  1.00  0.00     0.177 C 
BRANCH  28  33
ATOM     33  O   UNL     1      36.100  50.906 162.196  1.00  0.00    -0.384 OA
ATOM     34  H   UNL     1      36.538  51.725 161.874  1.00  0.00     0.211 HD
ENDBRANCH  28  33
BRANCH  30  35
ATOM     35  O   UNL     1      37.506  50.816 159.338  1.00  0.00    -0.387 OA
ATOM     36  H   UNL     1      37.164  51.160 158.471  1.00  0.00     0.211 HD
ENDBRANCH  30  35
BRANCH  31  37
ATOM     37  C   UNL     1      37.432  46.130 159.472  1.00  0.00     0.191 C 
BRANCH  37  38
ATOM     38  O   UNL     1      36.198  45.466 159.426  1.00  0.00    -0.394 OA
ATOM     39  H   UNL     1      35.952  45.502 158.469  1.00  0.00     0.210 HD
ENDBRANCH  37  38
ENDBRANCH  31  37
BRANCH  32  40
ATOM     40  O   UNL     1      35.145  48.184 159.019  1.00  0.00    -0.387 OA
ATOM     41  H   UNL     1      34.800  48.747 158.285  1.00  0.00     0.211 HD
ENDBRANCH  32  40
ENDBRANCH   1  27
TORSDOF 12
ENDMDL
MODEL 6
REMARK VINA RESULT:    -7.454      2.459      4.436
REMARK INTER + INTRA:         -12.310
REMARK INTER:                 -10.908
REMARK INTRA:                  -1.403
REMARK UNBOUND:                -1.370
REMARK SMILES O=c1c(O[C@@H]2O[C@@H](CO)[C@@H](O)[C@H](O)[C@H]2O)c(-c2ccc(O)c(O)c2)oc2cc(O)cc(O)c12
REMARK SMILES IDX 4 1 3 2 16 3 25 4 2 5 26 6 1 7 33 8 27 9 31 10 28 11 30 12
REMARK SMILES IDX 17 13 18 14 19 15 20 16 24 17 22 18 21 19 23 21 32 23 29 25
REMARK SMILES IDX 5 27 14 28 6 29 12 30 7 31 10 32 15 33 13 35 8 37 9 38 11 40
REMARK H PARENT 21 20 23 22 32 24 29 26 15 34 13 36 9 39 11 41
REMARK Flexibility Score: inf
ROOT
ATOM      1  O   UNL     1      36.626  48.230 161.465  1.00  0.00    -0.454 OA
ENDROOT
BRANCH   1   2
ATOM      2  C   UNL     1      35.941  47.212 162.247  1.00  0.00     0.214 A 
ATOM      3  C   UNL     1      36.641  46.728 163.420  1.00  0.00     0.180 A 
ATOM      4  O   UNL     1      36.244  45.551 163.945  1.00  0.00    -0.452 OA
ATOM      5  C   UNL     1      34.671  46.610 161.957  1.00  0.00     0.239 A 
ATOM      6  C   UNL     1      35.296  44.794 163.413  1.00  0.00     0.146 A 
ATOM      7  O   UNL     1      33.690  47.314 161.694  1.00  0.00    -0.285 OA
ATOM      8  C   UNL     1      34.496  45.319 162.346  1.00  0.00     0.111 A 
ATOM      9  C   UNL     1      35.121  43.492 163.916  1.00  0.00     0.094 A 
ATOM     10  C   UNL     1      33.498  44.424 161.777  1.00  0.00     0.134 A 
ATOM     11  C   UNL     1      34.194  42.627 163.289  1.00  0.00     0.123 A 
ATOM     12  C   UNL     1      33.417  43.078 162.244  1.00  0.00     0.093 A 
BRANCH   3  13
ATOM     13  C   UNL     1      37.816  47.474 164.052  1.00  0.00     0.025 A 
ATOM     14  C   UNL     1      38.863  46.621 164.462  1.00  0.00     0.016 A 
ATOM     15  C   UNL     1      39.036  46.338 165.805  1.00  0.00     0.051 A 
ATOM     16  C   UNL     1      38.281  47.030 166.756  1.00  0.00     0.157 A 
ATOM     17  C   UNL     1      37.471  48.485 165.023  1.00  0.00     0.062 A 
ATOM     18  C   UNL     1      37.510  48.102 166.359  1.00  0.00     0.158 A 
BRANCH  16  19
ATOM     19  O   UNL     1      38.299  46.617 168.072  1.00  0.00    -0.504 OA
ATOM     20  H   UNL     1      38.405  47.257 168.845  1.00  0.00     0.293 HD
ENDBRANCH  16  19
BRANCH  18  21
ATOM     21  O   UNL     1      36.912  48.943 167.269  1.00  0.00    -0.504 OA
ATOM     22  H   UNL     1      36.232  49.625 167.065  1.00  0.00     0.293 HD
ENDBRANCH  18  21
ENDBRANCH   3  13
BRANCH  10  23
ATOM     23  O   UNL     1      32.589  44.803 160.783  1.00  0.00    -0.507 OA
ATOM     24  H   UNL     1      32.863  45.333 159.977  1.00  0.00     0.293 HD
ENDBRANCH  10  23
BRANCH  11  25
ATOM     25  O   UNL     1      34.134  41.296 163.743  1.00  0.00    -0.508 OA
ATOM     26  H   UNL     1      34.794  40.603 163.422  1.00  0.00     0.293 HD
ENDBRANCH  11  25
ENDBRANCH   1   2
BRANCH   1  27
ATOM     27  C   UNL     1      36.633  48.496 160.025  1.00  0.00     0.339 C 
ATOM     28  C   UNL     1      37.455  49.815 159.762  1.00  0.00     0.214 C 
ATOM     29  O   UNL     1      37.232  47.427 159.280  1.00  0.00    -0.332 OA
ATOM     30  C   UNL     1      37.142  50.292 158.284  1.00  0.00     0.180 C 
ATOM     31  C   UNL     1      37.647  47.790 157.932  1.00  0.00     0.179 C 
ATOM     32  C   UNL     1      36.898  49.104 157.371  1.00  0.00     0.177 C 
BRANCH  28  33
ATOM     33  O   UNL     1      37.084  50.822 160.718  1.00  0.00    -0.384 OA
ATOM     34  H   UNL     1      37.366  50.506 161.605  1.00  0.00     0.211 HD
ENDBRANCH  28  33
BRANCH  30  35
ATOM     35  O   UNL     1      38.198  51.144 157.750  1.00  0.00    -0.387 OA
ATOM     36  H   UNL     1      38.754  51.477 158.502  1.00  0.00     0.211 HD
ENDBRANCH  30  35
BRANCH  31  37
ATOM     37  C   UNL     1      37.512  46.564 157.018  1.00  0.00     0.191 C 
BRANCH  37  38
ATOM     38  O   UNL     1      37.117  46.915 155.719  1.00  0.00    -0.394 OA
ATOM     39  H   UNL     1      37.922  47.352 155.344  1.00  0.00     0.210 HD
ENDBRANCH  37  38
ENDBRANCH  31  37
BRANCH  32  40
ATOM     40  O   UNL     1      35.488  48.912 157.222  1.00  0.00    -0.387 OA
ATOM     41  H   UNL     1      35.252  48.099 157.730  1.00  0.00     0.211 HD
ENDBRANCH  32  40
ENDBRANCH   1  27
TORSDOF 12
ENDMDL
MODEL 7
REMARK VINA RESULT:    -7.358      2.243      3.214
REMARK INTER + INTRA:         -12.169
REMARK INTER:                 -10.522
REMARK INTRA:                  -1.647
REMARK UNBOUND:                -1.370
REMARK SMILES O=c1c(O[C@@H]2O[C@@H](CO)[C@@H](O)[C@H](O)[C@H]2O)c(-c2ccc(O)c(O)c2)oc2cc(O)cc(O)c12
REMARK SMILES IDX 4 1 3 2 16 3 25 4 2 5 26 6 1 7 33 8 27 9 31 10 28 11 30 12
REMARK SMILES IDX 17 13 18 14 19 15 20 16 24 17 22 18 21 19 23 21 32 23 29 25
REMARK SMILES IDX 5 27 14 28 6 29 12 30 7 31 10 32 15 33 13 35 8 37 9 38 11 40
REMARK H PARENT 21 20 23 22 32 24 29 26 15 34 13 36 9 39 11 41
REMARK Flexibility Score: inf
ROOT
ATOM      1  O   UNL     1      36.568  48.116 160.258  1.00  0.00    -0.454 OA
ENDROOT
BRANCH   1   2
ATOM      2  C   UNL     1      35.452  48.259 161.180  1.00  0.00     0.214 A 
ATOM      3  C   UNL     1      35.710  47.895 162.559  1.00  0.00     0.180 A 
ATOM      4  O   UNL     1      34.648  47.644 163.350  1.00  0.00    -0.452 OA
ATOM      5  C   UNL     1      34.117  48.678 160.862  1.00  0.00     0.239 A 
ATOM      6  C   UNL     1      33.395  47.655 162.921  1.00  0.00     0.146 A 
ATOM      7  O   UNL     1      33.925  49.704 160.198  1.00  0.00    -0.285 OA
ATOM      8  C   UNL     1      33.109  48.153 161.607  1.00  0.00     0.111 A 
ATOM      9  C   UNL     1      32.392  47.164 163.775  1.00  0.00     0.094 A 
ATOM     10  C   UNL     1      31.719  48.102 161.178  1.00  0.00     0.134 A 
ATOM     11  C   UNL     1      31.065  47.061 163.296  1.00  0.00     0.123 A 
ATOM     12  C   UNL     1      30.744  47.504 162.032  1.00  0.00     0.093 A 
BRANCH   3  13
ATOM     13  C   UNL     1      37.122  47.753 163.129  1.00  0.00     0.025 A 
ATOM     14  C   UNL     1      37.504  46.411 163.347  1.00  0.00     0.016 A 
ATOM     15  C   UNL     1      37.529  45.902 164.633  1.00  0.00     0.051 A 
ATOM     16  C   UNL     1      37.340  46.762 165.717  1.00  0.00     0.157 A 
ATOM     17  C   UNL     1      37.453  48.639 164.220  1.00  0.00     0.062 A 
ATOM     18  C   UNL     1      37.311  48.125 165.504  1.00  0.00     0.158 A 
BRANCH  16  19
ATOM     19  O   UNL     1      37.162  46.238 166.981  1.00  0.00    -0.504 OA
ATOM     20  H   UNL     1      37.907  46.182 167.659  1.00  0.00     0.293 HD
ENDBRANCH  16  19
BRANCH  18  21
ATOM     21  O   UNL     1      37.334  49.024 166.544  1.00  0.00    -0.504 OA
ATOM     22  H   UNL     1      37.908  49.821 166.606  1.00  0.00     0.293 HD
ENDBRANCH  18  21
ENDBRANCH   3  13
BRANCH  10  23
ATOM     23  O   UNL     1      31.262  48.613 159.959  1.00  0.00    -0.507 OA
ATOM     24  H   UNL     1      30.643  49.399 159.903  1.00  0.00     0.293 HD
ENDBRANCH  10  23
BRANCH  11  25
ATOM     25  O   UNL     1      30.114  46.453 164.137  1.00  0.00    -0.508 OA
ATOM     26  H   UNL     1      29.818  45.499 163.991  1.00  0.00     0.293 HD
ENDBRANCH  11  25
ENDBRANCH   1   2
BRANCH   1  27
ATOM     27  C   UNL     1      36.852  47.105 159.237  1.00  0.00     0.339 C 
ATOM     28  C   UNL     1      36.868  47.807 157.826  1.00  0.00     0.214 C 
ATOM     29  O   UNL     1      38.119  46.467 159.445  1.00  0.00    -0.332 OA
ATOM     30  C   UNL     1      36.796  46.672 156.722  1.00  0.00     0.180 C 
ATOM     31  C   UNL     1      38.646  45.777 158.276  1.00  0.00     0.179 C 
ATOM     32  C   UNL     1      37.510  45.416 157.188  1.00  0.00     0.177 C 
BRANCH  28  33
ATOM     33  O   UNL     1      35.752  48.706 157.714  1.00  0.00    -0.384 OA
ATOM     34  H   UNL     1      34.981  48.275 158.147  1.00  0.00     0.211 HD
ENDBRANCH  28  33
BRANCH  30  35
ATOM     35  O   UNL     1      37.327  47.122 155.441  1.00  0.00    -0.387 OA
ATOM     36  H   UNL     1      36.577  47.217 154.797  1.00  0.00     0.211 HD
ENDBRANCH  30  35
BRANCH  31  37
ATOM     37  C   UNL     1      39.468  44.565 158.736  1.00  0.00     0.191 C 
BRANCH  37  38
ATOM     38  O   UNL     1      39.048  43.377 158.120  1.00  0.00    -0.394 OA
ATOM     39  H   UNL     1      38.878  43.651 157.184  1.00  0.00     0.210 HD
ENDBRANCH  37  38
ENDBRANCH  31  37
BRANCH  32  40
ATOM     40  O   UNL     1      36.544  44.489 157.689  1.00  0.00    -0.387 OA
ATOM     41  H   UNL     1      36.015  44.177 156.916  1.00  0.00     0.211 HD
ENDBRANCH  32  40
ENDBRANCH   1  27
TORSDOF 12
ENDMDL
MODEL 8
REMARK VINA RESULT:    -7.263      2.314      6.877
REMARK INTER + INTRA:         -12.029
REMARK INTER:                 -10.501
REMARK INTRA:                  -1.528
REMARK UNBOUND:                -1.370
REMARK SMILES O=c1c(O[C@@H]2O[C@@H](CO)[C@@H](O)[C@H](O)[C@H]2O)c(-c2ccc(O)c(O)c2)oc2cc(O)cc(O)c12
REMARK SMILES IDX 4 1 3 2 16 3 25 4 2 5 26 6 1 7 33 8 27 9 31 10 28 11 30 12
REMARK SMILES IDX 17 13 18 14 19 15 20 16 24 17 22 18 21 19 23 21 32 23 29 25
REMARK SMILES IDX 5 27 14 28 6 29 12 30 7 31 10 32 15 33 13 35 8 37 9 38 11 40
REMARK H PARENT 21 20 23 22 32 24 29 26 15 34 13 36 9 39 11 41
REMARK Flexibility Score: inf
ROOT
ATOM      1  O   UNL     1      34.790  45.662 164.438  1.00  0.00    -0.454 OA
ENDROOT
BRANCH   1   2
ATOM      2  C   UNL     1      35.271  46.644 163.479  1.00  0.00     0.214 A 
ATOM      3  C   UNL     1      34.500  47.867 163.375  1.00  0.00     0.180 A 
ATOM      4  O   UNL     1      34.665  48.619 162.268  1.00  0.00    -0.452 OA
ATOM      5  C   UNL     1      36.398  46.513 162.599  1.00  0.00     0.239 A 
ATOM      6  C   UNL     1      35.444  48.270 161.254  1.00  0.00     0.146 A 
ATOM      7  O   UNL     1      37.494  46.148 163.038  1.00  0.00    -0.285 OA
ATOM      8  C   UNL     1      36.322  47.147 161.400  1.00  0.00     0.111 A 
ATOM      9  C   UNL     1      35.367  49.018 160.066  1.00  0.00     0.094 A 
ATOM     10  C   UNL     1      37.123  46.789 160.237  1.00  0.00     0.134 A 
ATOM     11  C   UNL     1      36.104  48.596 158.934  1.00  0.00     0.123 A 
ATOM     12  C   UNL     1      36.944  47.508 159.017  1.00  0.00     0.093 A 
BRANCH   3  13
ATOM     13  C   UNL     1      33.497  48.309 164.440  1.00  0.00     0.025 A 
ATOM     14  C   UNL     1      32.170  47.920 164.154  1.00  0.00     0.016 A 
ATOM     15  C   UNL     1      31.261  48.858 163.698  1.00  0.00     0.051 A 
ATOM     16  C   UNL     1      31.615  50.209 163.685  1.00  0.00     0.157 A 
ATOM     17  C   UNL     1      33.621  49.674 164.895  1.00  0.00     0.062 A 
ATOM     18  C   UNL     1      32.788  50.608 164.290  1.00  0.00     0.158 A 
BRANCH  16  19
ATOM     19  O   UNL     1      30.798  51.121 163.049  1.00  0.00    -0.504 OA
ATOM     20  H   UNL     1      29.792  51.100 163.124  1.00  0.00     0.293 HD
ENDBRANCH  16  19
BRANCH  18  21
ATOM     21  O   UNL     1      33.087  51.936 164.490  1.00  0.00    -0.504 OA
ATOM     22  H   UNL     1      33.693  52.294 165.178  1.00  0.00     0.293 HD
ENDBRANCH  18  21
ENDBRANCH   3  13
BRANCH  10  23
ATOM     23  O   UNL     1      38.079  45.769 160.235  1.00  0.00    -0.507 OA
ATOM     24  H   UNL     1      38.250  45.193 159.432  1.00  0.00     0.293 HD
ENDBRANCH  10  23
BRANCH  11  25
ATOM     25  O   UNL     1      35.908  49.298 157.730  1.00  0.00    -0.508 OA
ATOM     26  H   UNL     1      36.689  49.642 157.191  1.00  0.00     0.293 HD
ENDBRANCH  11  25
ENDBRANCH   1   2
BRANCH   1  27
ATOM     27  C   UNL     1      35.361  45.186 165.700  1.00  0.00     0.339 C 
ATOM     28  C   UNL     1      35.958  43.746 165.471  1.00  0.00     0.214 C 
ATOM     29  O   UNL     1      36.405  46.045 166.178  1.00  0.00    -0.332 OA
ATOM     30  C   UNL     1      36.222  43.101 166.894  1.00  0.00     0.180 C 
ATOM     31  C   UNL     1      37.280  45.435 167.170  1.00  0.00     0.179 C 
ATOM     32  C   UNL     1      36.614  44.163 167.907  1.00  0.00     0.177 C 
BRANCH  28  33
ATOM     33  O   UNL     1      35.037  42.950 164.708  1.00  0.00    -0.384 OA
ATOM     34  H   UNL     1      35.522  42.154 164.395  1.00  0.00     0.211 HD
ENDBRANCH  28  33
BRANCH  30  35
ATOM     35  O   UNL     1      37.228  42.047 166.839  1.00  0.00    -0.387 OA
ATOM     36  H   UNL     1      37.947  42.322 166.212  1.00  0.00     0.211 HD
ENDBRANCH  30  35
BRANCH  31  37
ATOM     37  C   UNL     1      37.776  46.519 168.137  1.00  0.00     0.191 C 
BRANCH  37  38
ATOM     38  O   UNL     1      37.741  46.091 169.472  1.00  0.00    -0.394 OA
ATOM     39  H   UNL     1      37.532  46.918 169.973  1.00  0.00     0.210 HD
ENDBRANCH  37  38
ENDBRANCH  31  37
BRANCH  32  40
ATOM     40  O   UNL     1      35.463  44.517 168.680  1.00  0.00    -0.387 OA
ATOM     41  H   UNL     1      35.360  43.825 169.377  1.00  0.00     0.211 HD
ENDBRANCH  32  40
ENDBRANCH   1  27
TORSDOF 12
ENDMDL
MODEL 9
REMARK VINA RESULT:    -7.130      2.652      6.303
REMARK INTER + INTRA:         -11.834
REMARK INTER:                 -11.219
REMARK INTRA:                  -0.616
REMARK UNBOUND:                -1.370
REMARK SMILES O=c1c(O[C@@H]2O[C@@H](CO)[C@@H](O)[C@H](O)[C@H]2O)c(-c2ccc(O)c(O)c2)oc2cc(O)cc(O)c12
REMARK SMILES IDX 4 1 3 2 16 3 25 4 2 5 26 6 1 7 33 8 27 9 31 10 28 11 30 12
REMARK SMILES IDX 17 13 18 14 19 15 20 16 24 17 22 18 21 19 23 21 32 23 29 25
REMARK SMILES IDX 5 27 14 28 6 29 12 30 7 31 10 32 15 33 13 35 8 37 9 38 11 40
REMARK H PARENT 21 20 23 22 32 24 29 26 15 34 13 36 9 39 11 41
REMARK Flexibility Score: inf
ROOT
ATOM      1  O   UNL     1      36.195  46.617 162.066  1.00  0.00    -0.454 OA
ENDROOT
BRANCH   1   2
ATOM      2  C   UNL     1      36.726  47.024 160.775  1.00  0.00     0.214 A 
ATOM      3  C   UNL     1      36.341  48.343 160.312  1.00  0.00     0.180 A 
ATOM      4  O   UNL     1      36.479  48.610 158.998  1.00  0.00    -0.452 OA
ATOM      5  C   UNL     1      37.552  46.246 159.896  1.00  0.00     0.239 A 
ATOM      6  C   UNL     1      36.888  47.718 158.107  1.00  0.00     0.146 A 
ATOM      7  O   UNL     1      38.561  45.678 160.327  1.00  0.00    -0.285 OA
ATOM      8  C   UNL     1      37.411  46.463 158.562  1.00  0.00     0.111 A 
ATOM      9  C   UNL     1      36.782  48.041 156.743  1.00  0.00     0.094 A 
ATOM     10  C   UNL     1      37.807  45.510 157.535  1.00  0.00     0.134 A 
ATOM     11  C   UNL     1      37.106  47.062 155.773  1.00  0.00     0.123 A 
ATOM     12  C   UNL     1      37.590  45.832 156.161  1.00  0.00     0.093 A 
BRANCH   3  13
ATOM     13  C   UNL     1      35.761  49.411 161.238  1.00  0.00     0.025 A 
ATOM     14  C   UNL     1      36.738  50.059 162.024  1.00  0.00     0.016 A 
ATOM     15  C   UNL     1      36.861  49.748 163.366  1.00  0.00     0.051 A 
ATOM     16  C   UNL     1      35.911  48.921 163.970  1.00  0.00     0.157 A 
ATOM     17  C   UNL     1      34.578  49.031 161.974  1.00  0.00     0.062 A 
ATOM     18  C   UNL     1      34.773  48.575 163.273  1.00  0.00     0.158 A 
BRANCH  16  19
ATOM     19  O   UNL     1      36.134  48.444 165.246  1.00  0.00    -0.504 OA
ATOM     20  H   UNL     1      35.593  47.696 165.652  1.00  0.00     0.293 HD
ENDBRANCH  16  19
BRANCH  18  21
ATOM     21  O   UNL     1      33.714  47.941 163.879  1.00  0.00    -0.504 OA
ATOM     22  H   UNL     1      33.671  47.659 164.821  1.00  0.00     0.293 HD
ENDBRANCH  18  21
ENDBRANCH   3  13
BRANCH  10  23
ATOM     23  O   UNL     1      38.401  44.274 157.807  1.00  0.00    -0.507 OA
ATOM     24  H   UNL     1      38.640  43.985 158.737  1.00  0.00     0.293 HD
ENDBRANCH  10  23
BRANCH  11  25
ATOM     25  O   UNL     1      36.872  47.380 154.422  1.00  0.00    -0.508 OA
ATOM     26  H   UNL     1      37.631  47.620 153.801  1.00  0.00     0.293 HD
ENDBRANCH  11  25
ENDBRANCH   1   2
BRANCH   1  27
ATOM     27  C   UNL     1      35.640  45.340 162.521  1.00  0.00     0.339 C 
ATOM     28  C   UNL     1      35.838  45.233 164.081  1.00  0.00     0.214 C 
ATOM     29  O   UNL     1      34.240  45.224 162.229  1.00  0.00    -0.332 OA
ATOM     30  C   UNL     1      35.589  43.725 164.497  1.00  0.00     0.180 C 
ATOM     31  C   UNL     1      33.546  44.203 163.000  1.00  0.00     0.179 C 
ATOM     32  C   UNL     1      34.538  43.084 163.607  1.00  0.00     0.177 C 
BRANCH  28  33
ATOM     33  O   UNL     1      37.167  45.651 164.435  1.00  0.00    -0.384 OA
ATOM     34  H   UNL     1      37.794  44.990 164.064  1.00  0.00     0.211 HD
ENDBRANCH  28  33
BRANCH  30  35
ATOM     35  O   UNL     1      35.221  43.599 165.902  1.00  0.00    -0.387 OA
ATOM     36  H   UNL     1      34.387  44.113 166.063  1.00  0.00     0.211 HD
ENDBRANCH  30  35
BRANCH  31  37
ATOM     37  C   UNL     1      32.406  43.622 162.152  1.00  0.00     0.191 C 
BRANCH  37  38
ATOM     38  O   UNL     1      32.590  42.258 161.882  1.00  0.00    -0.394 OA
ATOM     39  H   UNL     1      31.745  41.846 162.192  1.00  0.00     0.210 HD
ENDBRANCH  37  38
ENDBRANCH  31  37
BRANCH  32  40
ATOM     40  O   UNL     1      35.192  42.318 162.591  1.00  0.00    -0.387 OA
ATOM     41  H   UNL     1      36.143  42.581 162.598  1.00  0.00     0.211 HD
ENDBRANCH  32  40
ENDBRANCH   1  27
TORSDOF 12
ENDMDL
