MODEL 1
REMARK VINA RESULT:    -2.321      0.000      0.000
REMARK INTER + INTRA:          -7.284
REMARK INTER:                  -5.850
REMARK INTRA:                  -1.434
REMARK UNBOUND:                -1.434
REMARK SMILES CCCCCCCCCCCCCCCCCCCCCCCCCCCC(=O)[O-]
REMARK SMILES IDX 15 1 16 2 17 3 18 4 19 5 20 6 21 7 22 8 23 9 24 10 25 11
REMARK SMILES IDX 26 12 27 13 28 14 29 15 30 16 14 17 13 18 12 19 11 20 10 21
REMARK SMILES IDX 9 22 8 23 7 24 6 25 5 26 4 27 3 28 2 29 1 30
REMARK H PARENT
REMARK Flexibility Score: inf
ROOT
ATOM      1  C   UNL     1       0.769 -21.856  15.991  1.00  0.00     0.000 C 
ENDROOT
BRANCH   1   2
ATOM      2  C   UNL     1      -0.712 -21.614  16.342  1.00  0.00     0.000 C 
BRANCH   2   3
ATOM      3  C   UNL     1      -1.664 -22.767  15.966  1.00  0.00     0.000 C 
BRANCH   3   4
ATOM      4  C   UNL     1      -3.107 -22.340  15.628  1.00  0.00     0.000 C 
BRANCH   4   5
ATOM      5  C   UNL     1      -4.203 -23.057  16.437  1.00  0.00     0.000 C 
BRANCH   5   6
ATOM      6  C   UNL     1      -5.546 -22.308  16.419  1.00  0.00     0.000 C 
BRANCH   6   7
ATOM      7  C   UNL     1      -6.682 -23.117  17.066  1.00  0.00     0.000 C 
BRANCH   7   8
ATOM      8  C   UNL     1      -6.811 -22.852  18.574  1.00  0.00     0.000 C 
BRANCH   8   9
ATOM      9  C   UNL     1      -8.272 -22.600  18.971  1.00  0.00     0.000 C 
BRANCH   9  10
ATOM     10  C   UNL     1      -8.986 -21.631  18.005  1.00  0.00     0.000 C 
BRANCH  10  11
ATOM     11  C   UNL     1     -10.507 -21.525  18.233  1.00  0.00     0.000 C 
BRANCH  11  12
ATOM     12  C   UNL     1     -10.927 -21.048  19.636  1.00  0.00     0.006 C 
BRANCH  12  13
ATOM     13  C   UNL     1     -10.386 -19.662  20.024  1.00  0.00     0.053 C 
BRANCH  13  14
ATOM     14  C   UNL     1     -10.084 -19.570  21.488  1.00  0.00     0.041 C 
ATOM     15  O   UNL     1      -9.689 -20.586  22.117  1.00  0.00    -0.550 OA
ATOM     16  O   UNL     1     -10.272 -18.371  22.164  1.00  0.00    -0.550 OA
ENDBRANCH  13  14
ENDBRANCH  12  13
ENDBRANCH  11  12
ENDBRANCH  10  11
ENDBRANCH   9  10
ENDBRANCH   8   9
ENDBRANCH   7   8
ENDBRANCH   6   7
ENDBRANCH   5   6
ENDBRANCH   4   5
ENDBRANCH   3   4
ENDBRANCH   2   3
ENDBRANCH   1   2
BRANCH   1  17
ATOM     17  C   UNL     1       1.034 -23.072  15.081  1.00  0.00     0.000 C 
BRANCH  17  18
ATOM     18  C   UNL     1       1.872 -22.782  13.822  1.00  0.00     0.000 C 
BRANCH  18  19
ATOM     19  C   UNL     1       3.386 -22.836  14.084  1.00  0.00     0.000 C 
BRANCH  19  20
ATOM     20  C   UNL     1       3.728 -22.895  15.585  1.00  0.00     0.000 C 
BRANCH  20  21
ATOM     21  C   UNL     1       4.431 -21.643  16.145  1.00  0.00     0.000 C 
BRANCH  21  22
ATOM     22  C   UNL     1       5.423 -21.903  17.297  1.00  0.00    -0.000 C 
BRANCH  22  23
ATOM     23  C   UNL     1       6.826 -21.299  17.102  1.00  0.00    -0.000 C 
BRANCH  23  24
ATOM     24  C   UNL     1       7.931 -22.367  17.029  1.00  0.00    -0.000 C 
BRANCH  24  25
ATOM     25  C   UNL     1       8.284 -22.755  15.584  1.00  0.00    -0.000 C 
BRANCH  25  26
ATOM     26  C   UNL     1       8.309 -21.544  14.635  1.00  0.00    -0.000 C 
BRANCH  26  27
ATOM     27  C   UNL     1       8.020 -21.935  13.177  1.00  0.00    -0.000 C 
BRANCH  27  28
ATOM     28  C   UNL     1       7.059 -20.955  12.480  1.00  0.00    -0.000 C 
BRANCH  28  29
ATOM     29  C   UNL     1       7.802 -19.891  11.655  1.00  0.00    -0.003 C 
ATOM     30  C   UNL     1       9.125 -20.404  11.087  1.00  0.00     0.004 C 
ENDBRANCH  28  29
ENDBRANCH  27  28
ENDBRANCH  26  27
ENDBRANCH  25  26
ENDBRANCH  24  25
ENDBRANCH  23  24
ENDBRANCH  22  23
ENDBRANCH  21  22
ENDBRANCH  20  21
ENDBRANCH  19  20
ENDBRANCH  18  19
ENDBRANCH  17  18
ENDBRANCH   1  17
TORSDOF 26
ENDMDL
MODEL 2
REMARK VINA RESULT:    -2.251      5.424     15.309
REMARK INTER + INTRA:          -7.106
REMARK INTER:                  -5.835
REMARK INTRA:                  -1.271
REMARK UNBOUND:                -1.434
REMARK SMILES CCCCCCCCCCCCCCCCCCCCCCCCCCCC(=O)[O-]
REMARK SMILES IDX 15 1 16 2 17 3 18 4 19 5 20 6 21 7 22 8 23 9 24 10 25 11
REMARK SMILES IDX 26 12 27 13 28 14 29 15 30 16 14 17 13 18 12 19 11 20 10 21
REMARK SMILES IDX 9 22 8 23 7 24 6 25 5 26 4 27 3 28 2 29 1 30
REMARK H PARENT
REMARK Flexibility Score: inf
ROOT
ATOM      1  C   UNL     1      -2.196 -21.628  16.059  1.00  0.00     0.000 C 
ENDROOT
BRANCH   1   2
ATOM      2  C   UNL     1      -1.180 -22.715  15.659  1.00  0.00     0.000 C 
BRANCH   2   3
ATOM      3  C   UNL     1       0.291 -22.373  15.969  1.00  0.00     0.000 C 
BRANCH   3   4
ATOM      4  C   UNL     1       1.309 -22.841  14.909  1.00  0.00     0.000 C 
BRANCH   4   5
ATOM      5  C   UNL     1       2.739 -23.061  15.434  1.00  0.00     0.000 C 
BRANCH   5   6
ATOM      6  C   UNL     1       3.808 -22.918  14.337  1.00  0.00     0.000 C 
BRANCH   6   7
ATOM      7  C   UNL     1       5.136 -22.361  14.875  1.00  0.00     0.000 C 
BRANCH   7   8
ATOM      8  C   UNL     1       5.028 -21.883  16.331  1.00  0.00     0.000 C 
BRANCH   8   9
ATOM      9  C   UNL     1       6.414 -21.584  16.921  1.00  0.00     0.000 C 
BRANCH   9  10
ATOM     10  C   UNL     1       7.387 -21.002  15.873  1.00  0.00     0.000 C 
BRANCH  10  11
ATOM     11  C   UNL     1       8.290 -22.055  15.203  1.00  0.00     0.000 C 
BRANCH  11  12
ATOM     12  C   UNL     1       9.006 -21.585  13.923  1.00  0.00     0.006 C 
BRANCH  12  13
ATOM     13  C   UNL     1       8.647 -20.155  13.483  1.00  0.00     0.053 C 
BRANCH  13  14
ATOM     14  C   UNL     1       8.090 -20.123  12.093  1.00  0.00     0.041 C 
ATOM     15  O   UNL     1       7.610 -19.056  11.629  1.00  0.00    -0.550 OA
ATOM     16  O   UNL     1       8.070 -21.278  11.323  1.00  0.00    -0.550 OA
ENDBRANCH  13  14
ENDBRANCH  12  13
ENDBRANCH  11  12
ENDBRANCH  10  11
ENDBRANCH   9  10
ENDBRANCH   8   9
ENDBRANCH   7   8
ENDBRANCH   6   7
ENDBRANCH   5   6
ENDBRANCH   4   5
ENDBRANCH   3   4
ENDBRANCH   2   3
ENDBRANCH   1   2
BRANCH   1  17
ATOM     17  C   UNL     1      -3.418 -21.502  15.127  1.00  0.00     0.000 C 
BRANCH  17  18
ATOM     18  C   UNL     1      -4.778 -21.813  15.778  1.00  0.00     0.000 C 
BRANCH  18  19
ATOM     19  C   UNL     1      -4.646 -22.534  17.129  1.00  0.00     0.000 C 
BRANCH  19  20
ATOM     20  C   UNL     1      -6.007 -22.953  17.715  1.00  0.00     0.000 C 
BRANCH  20  21
ATOM     21  C   UNL     1      -7.225 -22.647  16.821  1.00  0.00     0.000 C 
BRANCH  21  22
ATOM     22  C   UNL     1      -8.532 -22.328  17.574  1.00  0.00    -0.000 C 
BRANCH  22  23
ATOM     23  C   UNL     1      -8.443 -22.426  19.109  1.00  0.00    -0.000 C 
BRANCH  23  24
ATOM     24  C   UNL     1      -9.792 -22.167  19.802  1.00  0.00    -0.000 C 
BRANCH  24  25
ATOM     25  C   UNL     1     -10.820 -21.508  18.868  1.00  0.00    -0.000 C 
BRANCH  25  26
ATOM     26  C   UNL     1     -11.006 -20.008  19.155  1.00  0.00    -0.000 C 
BRANCH  26  27
ATOM     27  C   UNL     1     -10.602 -19.631  20.590  1.00  0.00    -0.000 C 
BRANCH  27  28
ATOM     28  C   UNL     1     -10.624 -18.110  20.831  1.00  0.00    -0.000 C 
BRANCH  28  29
ATOM     29  C   UNL     1      -9.274 -17.576  21.336  1.00  0.00    -0.003 C 
ATOM     30  C   UNL     1      -9.137 -17.665  22.856  1.00  0.00     0.004 C 
ENDBRANCH  28  29
ENDBRANCH  27  28
ENDBRANCH  26  27
ENDBRANCH  25  26
ENDBRANCH  24  25
ENDBRANCH  23  24
ENDBRANCH  22  23
ENDBRANCH  21  22
ENDBRANCH  20  21
ENDBRANCH  19  20
ENDBRANCH  18  19
ENDBRANCH  17  18
ENDBRANCH   1  17
TORSDOF 26
ENDMDL
MODEL 3
REMARK VINA RESULT:    -2.250      0.994      2.193
REMARK INTER + INTRA:          -7.104
REMARK INTER:                  -5.444
REMARK INTRA:                  -1.660
REMARK UNBOUND:                -1.434
REMARK SMILES CCCCCCCCCCCCCCCCCCCCCCCCCCCC(=O)[O-]
REMARK SMILES IDX 15 1 16 2 17 3 18 4 19 5 20 6 21 7 22 8 23 9 24 10 25 11
REMARK SMILES IDX 26 12 27 13 28 14 29 15 30 16 14 17 13 18 12 19 11 20 10 21
REMARK SMILES IDX 9 22 8 23 7 24 6 25 5 26 4 27 3 28 2 29 1 30
REMARK H PARENT
REMARK Flexibility Score: inf
ROOT
ATOM      1  C   UNL     1      -2.124 -21.575  15.578  1.00  0.00     0.000 C 
ENDROOT
BRANCH   1   2
ATOM      2  C   UNL     1      -3.440 -22.204  16.074  1.00  0.00     0.000 C 
BRANCH   2   3
ATOM      3  C   UNL     1      -4.717 -21.442  15.665  1.00  0.00     0.000 C 
BRANCH   3   4
ATOM      4  C   UNL     1      -6.036 -22.049  16.186  1.00  0.00     0.000 C 
BRANCH   4   5
ATOM      5  C   UNL     1      -5.936 -22.741  17.557  1.00  0.00     0.000 C 
BRANCH   5   6
ATOM      6  C   UNL     1      -7.113 -22.402  18.486  1.00  0.00     0.000 C 
BRANCH   6   7
ATOM      7  C   UNL     1      -8.452 -22.952  17.970  1.00  0.00     0.000 C 
BRANCH   7   8
ATOM      8  C   UNL     1      -9.579 -22.828  19.006  1.00  0.00     0.000 C 
BRANCH   8   9
ATOM      9  C   UNL     1     -10.849 -22.235  18.377  1.00  0.00     0.000 C 
BRANCH   9  10
ATOM     10  C   UNL     1     -10.566 -20.935  17.594  1.00  0.00     0.000 C 
BRANCH  10  11
ATOM     11  C   UNL     1     -11.063 -19.658  18.299  1.00  0.00     0.000 C 
BRANCH  11  12
ATOM     12  C   UNL     1     -11.028 -19.703  19.839  1.00  0.00     0.006 C 
BRANCH  12  13
ATOM     13  C   UNL     1      -9.932 -18.832  20.475  1.00  0.00     0.053 C 
BRANCH  13  14
ATOM     14  C   UNL     1      -9.942 -18.924  21.969  1.00  0.00     0.041 C 
ATOM     15  O   UNL     1     -10.394 -19.953  22.536  1.00  0.00    -0.550 OA
ATOM     16  O   UNL     1      -9.485 -17.860  22.736  1.00  0.00    -0.550 OA
ENDBRANCH  13  14
ENDBRANCH  12  13
ENDBRANCH  11  12
ENDBRANCH  10  11
ENDBRANCH   9  10
ENDBRANCH   8   9
ENDBRANCH   7   8
ENDBRANCH   6   7
ENDBRANCH   5   6
ENDBRANCH   4   5
ENDBRANCH   3   4
ENDBRANCH   2   3
ENDBRANCH   1   2
BRANCH   1  17
ATOM     17  C   UNL     1      -0.844 -22.146  16.222  1.00  0.00     0.000 C 
BRANCH  17  18
ATOM     18  C   UNL     1      -0.004 -23.065  15.316  1.00  0.00     0.000 C 
BRANCH  18  19
ATOM     19  C   UNL     1       1.298 -22.404  14.834  1.00  0.00     0.000 C 
BRANCH  19  20
ATOM     20  C   UNL     1       2.557 -23.125  15.352  1.00  0.00     0.000 C 
BRANCH  20  21
ATOM     21  C   UNL     1       3.787 -23.035  14.427  1.00  0.00     0.000 C 
BRANCH  21  22
ATOM     22  C   UNL     1       5.069 -22.486  15.086  1.00  0.00    -0.000 C 
BRANCH  22  23
ATOM     23  C   UNL     1       4.848 -21.709  16.398  1.00  0.00    -0.000 C 
BRANCH  23  24
ATOM     24  C   UNL     1       6.012 -21.871  17.390  1.00  0.00    -0.000 C 
BRANCH  24  25
ATOM     25  C   UNL     1       7.323 -21.260  16.868  1.00  0.00    -0.000 C 
BRANCH  25  26
ATOM     26  C   UNL     1       8.365 -22.327  16.493  1.00  0.00    -0.000 C 
BRANCH  26  27
ATOM     27  C   UNL     1       9.083 -22.007  15.172  1.00  0.00    -0.000 C 
BRANCH  27  28
ATOM     28  C   UNL     1       8.345 -20.944  14.338  1.00  0.00    -0.000 C 
BRANCH  28  29
ATOM     29  C   UNL     1       8.591 -21.105  12.829  1.00  0.00    -0.003 C 
ATOM     30  C   UNL     1       7.295 -21.144  12.021  1.00  0.00     0.004 C 
ENDBRANCH  28  29
ENDBRANCH  27  28
ENDBRANCH  26  27
ENDBRANCH  25  26
ENDBRANCH  24  25
ENDBRANCH  23  24
ENDBRANCH  22  23
ENDBRANCH  21  22
ENDBRANCH  20  21
ENDBRANCH  19  20
ENDBRANCH  18  19
ENDBRANCH  17  18
ENDBRANCH   1  17
TORSDOF 26
ENDMDL
MODEL 4
REMARK VINA RESULT:    -2.007      5.457     15.484
REMARK INTER + INTRA:          -6.491
REMARK INTER:                  -5.474
REMARK INTRA:                  -1.017
REMARK UNBOUND:                -1.434
REMARK SMILES CCCCCCCCCCCCCCCCCCCCCCCCCCCC(=O)[O-]
REMARK SMILES IDX 15 1 16 2 17 3 18 4 19 5 20 6 21 7 22 8 23 9 24 10 25 11
REMARK SMILES IDX 26 12 27 13 28 14 29 15 30 16 14 17 13 18 12 19 11 20 10 21
REMARK SMILES IDX 9 22 8 23 7 24 6 25 5 26 4 27 3 28 2 29 1 30
REMARK H PARENT
REMARK Flexibility Score: inf
ROOT
ATOM      1  C   UNL     1      -3.442 -21.823  16.149  1.00  0.00     0.000 C 
ENDROOT
BRANCH   1   2
ATOM      2  C   UNL     1      -2.201 -22.035  15.260  1.00  0.00     0.000 C 
BRANCH   2   3
ATOM      3  C   UNL     1      -0.850 -21.937  15.996  1.00  0.00     0.000 C 
BRANCH   3   4
ATOM      4  C   UNL     1       0.191 -23.002  15.598  1.00  0.00     0.000 C 
BRANCH   4   5
ATOM      5  C   UNL     1       1.405 -22.465  14.818  1.00  0.00     0.000 C 
BRANCH   5   6
ATOM      6  C   UNL     1       2.744 -22.771  15.510  1.00  0.00     0.000 C 
BRANCH   6   7
ATOM      7  C   UNL     1       3.955 -22.480  14.609  1.00  0.00     0.000 C 
BRANCH   7   8
ATOM      8  C   UNL     1       5.293 -22.672  15.340  1.00  0.00     0.000 C 
BRANCH   8   9
ATOM      9  C   UNL     1       5.424 -21.700  16.522  1.00  0.00     0.000 C 
BRANCH   9  10
ATOM     10  C   UNL     1       6.859 -21.152  16.676  1.00  0.00     0.000 C 
BRANCH  10  11
ATOM     11  C   UNL     1       7.946 -22.063  16.073  1.00  0.00     0.000 C 
BRANCH  11  12
ATOM     12  C   UNL     1       8.143 -21.929  14.551  1.00  0.00     0.006 C 
BRANCH  12  13
ATOM     13  C   UNL     1       8.883 -20.653  14.116  1.00  0.00     0.053 C 
BRANCH  13  14
ATOM     14  C   UNL     1       8.485 -20.218  12.740  1.00  0.00     0.041 C 
ATOM     15  O   UNL     1       8.289 -18.999  12.494  1.00  0.00    -0.550 OA
ATOM     16  O   UNL     1       8.296 -21.162  11.739  1.00  0.00    -0.550 OA
ENDBRANCH  13  14
ENDBRANCH  12  13
ENDBRANCH  11  12
ENDBRANCH  10  11
ENDBRANCH   9  10
ENDBRANCH   8   9
ENDBRANCH   7   8
ENDBRANCH   6   7
ENDBRANCH   5   6
ENDBRANCH   4   5
ENDBRANCH   3   4
ENDBRANCH   2   3
ENDBRANCH   1   2
BRANCH   1  17
ATOM     17  C   UNL     1      -4.406 -23.025  16.222  1.00  0.00     0.000 C 
BRANCH  17  18
ATOM     18  C   UNL     1      -5.520 -22.912  17.279  1.00  0.00     0.000 C 
BRANCH  18  19
ATOM     19  C   UNL     1      -6.790 -22.233  16.740  1.00  0.00     0.000 C 
BRANCH  19  20
ATOM     20  C   UNL     1      -7.710 -21.717  17.863  1.00  0.00     0.000 C 
BRANCH  20  21
ATOM     21  C   UNL     1      -9.191 -22.121  17.732  1.00  0.00     0.000 C 
BRANCH  21  22
ATOM     22  C   UNL     1      -9.698 -23.123  18.790  1.00  0.00    -0.000 C 
BRANCH  22  23
ATOM     23  C   UNL     1     -10.867 -22.620  19.658  1.00  0.00    -0.000 C 
BRANCH  23  24
ATOM     24  C   UNL     1     -10.520 -21.344  20.444  1.00  0.00    -0.000 C 
BRANCH  24  25
ATOM     25  C   UNL     1      -9.511 -21.601  21.575  1.00  0.00    -0.000 C 
BRANCH  25  26
ATOM     26  C   UNL     1      -9.869 -20.852  22.870  1.00  0.00    -0.000 C 
BRANCH  26  27
ATOM     27  C   UNL     1     -10.449 -19.454  22.598  1.00  0.00    -0.000 C 
BRANCH  27  28
ATOM     28  C   UNL     1      -9.368 -18.358  22.581  1.00  0.00    -0.000 C 
BRANCH  28  29
ATOM     29  C   UNL     1      -9.353 -17.569  21.261  1.00  0.00    -0.003 C 
ATOM     30  C   UNL     1     -10.641 -17.743  20.456  1.00  0.00     0.004 C 
ENDBRANCH  28  29
ENDBRANCH  27  28
ENDBRANCH  26  27
ENDBRANCH  25  26
ENDBRANCH  24  25
ENDBRANCH  23  24
ENDBRANCH  22  23
ENDBRANCH  21  22
ENDBRANCH  20  21
ENDBRANCH  19  20
ENDBRANCH  18  19
ENDBRANCH  17  18
ENDBRANCH   1  17
TORSDOF 26
ENDMDL
MODEL 5
REMARK VINA RESULT:    -1.980      5.807     15.522
REMARK INTER + INTRA:          -6.423
REMARK INTER:                  -5.067
REMARK INTRA:                  -1.356
REMARK UNBOUND:                -1.434
REMARK SMILES CCCCCCCCCCCCCCCCCCCCCCCCCCCC(=O)[O-]
REMARK SMILES IDX 15 1 16 2 17 3 18 4 19 5 20 6 21 7 22 8 23 9 24 10 25 11
REMARK SMILES IDX 26 12 27 13 28 14 29 15 30 16 14 17 13 18 12 19 11 20 10 21
REMARK SMILES IDX 9 22 8 23 7 24 6 25 5 26 4 27 3 28 2 29 1 30
REMARK H PARENT
REMARK Flexibility Score: inf
ROOT
ATOM      1  C   UNL     1       0.072 -22.703  15.578  1.00  0.00     0.000 C 
ENDROOT
BRANCH   1   2
ATOM      2  C   UNL     1       0.591 -21.511  16.403  1.00  0.00     0.000 C 
BRANCH   2   3
ATOM      3  C   UNL     1       2.126 -21.366  16.440  1.00  0.00     0.000 C 
BRANCH   3   4
ATOM      4  C   UNL     1       2.907 -22.505  15.752  1.00  0.00     0.000 C 
BRANCH   4   5
ATOM      5  C   UNL     1       4.430 -22.297  15.680  1.00  0.00     0.000 C 
BRANCH   5   6
ATOM      6  C   UNL     1       5.008 -21.660  16.954  1.00  0.00     0.000 C 
BRANCH   6   7
ATOM      7  C   UNL     1       6.476 -21.235  16.789  1.00  0.00     0.000 C 
BRANCH   7   8
ATOM      8  C   UNL     1       7.435 -22.434  16.738  1.00  0.00     0.000 C 
BRANCH   8   9
ATOM      9  C   UNL     1       8.698 -22.101  15.931  1.00  0.00     0.000 C 
BRANCH   9  10
ATOM     10  C   UNL     1       8.605 -22.582  14.467  1.00  0.00     0.000 C 
BRANCH  10  11
ATOM     11  C   UNL     1       8.123 -21.500  13.482  1.00  0.00     0.000 C 
BRANCH  11  12
ATOM     12  C   UNL     1       8.544 -21.715  12.015  1.00  0.00     0.006 C 
BRANCH  12  13
ATOM     13  C   UNL     1       8.270 -20.515  11.093  1.00  0.00     0.053 C 
BRANCH  13  14
ATOM     14  C   UNL     1       8.201 -20.921   9.653  1.00  0.00     0.041 C 
ATOM     15  O   UNL     1       8.586 -20.130   8.754  1.00  0.00    -0.550 OA
ATOM     16  O   UNL     1       7.679 -22.160   9.303  1.00  0.00    -0.550 OA
ENDBRANCH  13  14
ENDBRANCH  12  13
ENDBRANCH  11  12
ENDBRANCH  10  11
ENDBRANCH   9  10
ENDBRANCH   8   9
ENDBRANCH   7   8
ENDBRANCH   6   7
ENDBRANCH   5   6
ENDBRANCH   4   5
ENDBRANCH   3   4
ENDBRANCH   2   3
ENDBRANCH   1   2
BRANCH   1  17
ATOM     17  C   UNL     1      -1.409 -23.064  15.811  1.00  0.00     0.000 C 
BRANCH  17  18
ATOM     18  C   UNL     1      -2.339 -21.872  16.106  1.00  0.00     0.000 C 
BRANCH  18  19
ATOM     19  C   UNL     1      -3.719 -22.010  15.442  1.00  0.00     0.000 C 
BRANCH  19  20
ATOM     20  C   UNL     1      -4.879 -21.805  16.435  1.00  0.00     0.000 C 
BRANCH  20  21
ATOM     21  C   UNL     1      -5.454 -23.099  17.043  1.00  0.00     0.000 C 
BRANCH  21  22
ATOM     22  C   UNL     1      -6.843 -22.957  17.701  1.00  0.00    -0.000 C 
BRANCH  22  23
ATOM     23  C   UNL     1      -7.854 -22.103  16.914  1.00  0.00    -0.000 C 
BRANCH  23  24
ATOM     24  C   UNL     1      -9.220 -22.000  17.615  1.00  0.00    -0.000 C 
BRANCH  24  25
ATOM     25  C   UNL     1      -9.107 -22.083  19.146  1.00  0.00    -0.000 C 
BRANCH  25  26
ATOM     26  C   UNL     1     -10.221 -21.303  19.865  1.00  0.00    -0.000 C 
BRANCH  26  27
ATOM     27  C   UNL     1     -10.367 -19.867  19.337  1.00  0.00    -0.000 C 
BRANCH  27  28
ATOM     28  C   UNL     1     -10.829 -18.880  20.425  1.00  0.00    -0.000 C 
BRANCH  28  29
ATOM     29  C   UNL     1      -9.687 -17.980  20.926  1.00  0.00    -0.003 C 
ATOM     30  C   UNL     1      -9.522 -18.027  22.444  1.00  0.00     0.004 C 
ENDBRANCH  28  29
ENDBRANCH  27  28
ENDBRANCH  26  27
ENDBRANCH  25  26
ENDBRANCH  24  25
ENDBRANCH  23  24
ENDBRANCH  22  23
ENDBRANCH  21  22
ENDBRANCH  20  21
ENDBRANCH  19  20
ENDBRANCH  18  19
ENDBRANCH  17  18
ENDBRANCH   1  17
TORSDOF 26
ENDMDL
MODEL 6
REMARK VINA RESULT:    -1.818      6.057     15.724
REMARK INTER + INTRA:          -6.016
REMARK INTER:                  -4.474
REMARK INTRA:                  -1.542
REMARK UNBOUND:                -1.434
REMARK SMILES CCCCCCCCCCCCCCCCCCCCCCCCCCCC(=O)[O-]
REMARK SMILES IDX 15 1 16 2 17 3 18 4 19 5 20 6 21 7 22 8 23 9 24 10 25 11
REMARK SMILES IDX 26 12 27 13 28 14 29 15 30 16 14 17 13 18 12 19 11 20 10 21
REMARK SMILES IDX 9 22 8 23 7 24 6 25 5 26 4 27 3 28 2 29 1 30
REMARK H PARENT
REMARK Flexibility Score: inf
ROOT
ATOM      1  C   UNL     1       0.574 -21.441  16.265  1.00  0.00     0.000 C 
ENDROOT
BRANCH   1   2
ATOM      2  C   UNL     1       1.903 -22.066  15.800  1.00  0.00     0.000 C 
BRANCH   2   3
ATOM      3  C   UNL     1       1.846 -22.760  14.424  1.00  0.00     0.000 C 
BRANCH   3   4
ATOM      4  C   UNL     1       3.217 -23.124  13.818  1.00  0.00     0.000 C 
BRANCH   4   5
ATOM      5  C   UNL     1       4.414 -22.956  14.771  1.00  0.00     0.000 C 
BRANCH   5   6
ATOM      6  C   UNL     1       5.587 -22.196  14.129  1.00  0.00     0.000 C 
BRANCH   6   7
ATOM      7  C   UNL     1       6.734 -21.935  15.118  1.00  0.00     0.000 C 
BRANCH   7   8
ATOM      8  C   UNL     1       7.701 -23.124  15.227  1.00  0.00     0.000 C 
BRANCH   8   9
ATOM      9  C   UNL     1       9.073 -22.780  14.629  1.00  0.00     0.000 C 
BRANCH   9  10
ATOM     10  C   UNL     1       9.112 -22.969  13.097  1.00  0.00     0.000 C 
BRANCH  10  11
ATOM     11  C   UNL     1       9.123 -21.649  12.302  1.00  0.00     0.000 C 
BRANCH  11  12
ATOM     12  C   UNL     1       7.860 -21.380  11.462  1.00  0.00     0.006 C 
BRANCH  12  13
ATOM     13  C   UNL     1       7.746 -22.242  10.193  1.00  0.00     0.053 C 
BRANCH  13  14
ATOM     14  C   UNL     1       8.252 -21.521   8.982  1.00  0.00     0.041 C 
ATOM     15  O   UNL     1       8.276 -20.263   8.958  1.00  0.00    -0.550 OA
ATOM     16  O   UNL     1       8.664 -22.239   7.866  1.00  0.00    -0.550 OA
ENDBRANCH  13  14
ENDBRANCH  12  13
ENDBRANCH  11  12
ENDBRANCH  10  11
ENDBRANCH   9  10
ENDBRANCH   8   9
ENDBRANCH   7   8
ENDBRANCH   6   7
ENDBRANCH   5   6
ENDBRANCH   4   5
ENDBRANCH   3   4
ENDBRANCH   2   3
ENDBRANCH   1   2
BRANCH   1  17
ATOM     17  C   UNL     1      -0.683 -22.287  15.974  1.00  0.00     0.000 C 
BRANCH  17  18
ATOM     18  C   UNL     1      -2.007 -21.699  16.494  1.00  0.00     0.000 C 
BRANCH  18  19
ATOM     19  C   UNL     1      -3.218 -22.095  15.633  1.00  0.00     0.000 C 
BRANCH  19  20
ATOM     20  C   UNL     1      -4.241 -22.950  16.404  1.00  0.00     0.000 C 
BRANCH  20  21
ATOM     21  C   UNL     1      -5.474 -22.184  16.923  1.00  0.00     0.000 C 
BRANCH  21  22
ATOM     22  C   UNL     1      -6.782 -22.435  16.145  1.00  0.00    -0.000 C 
BRANCH  22  23
ATOM     23  C   UNL     1      -8.066 -22.389  16.994  1.00  0.00    -0.000 C 
BRANCH  23  24
ATOM     24  C   UNL     1      -7.839 -21.773  18.386  1.00  0.00    -0.000 C 
BRANCH  24  25
ATOM     25  C   UNL     1      -8.830 -22.303  19.435  1.00  0.00    -0.000 C 
BRANCH  25  26
ATOM     26  C   UNL     1     -10.235 -21.693  19.285  1.00  0.00    -0.000 C 
BRANCH  26  27
ATOM     27  C   UNL     1     -10.567 -20.700  20.411  1.00  0.00    -0.000 C 
BRANCH  27  28
ATOM     28  C   UNL     1     -10.633 -21.374  21.794  1.00  0.00    -0.000 C 
BRANCH  28  29
ATOM     29  C   UNL     1      -9.424 -21.023  22.677  1.00  0.00    -0.003 C 
ATOM     30  C   UNL     1      -8.693 -22.261  23.194  1.00  0.00     0.004 C 
ENDBRANCH  28  29
ENDBRANCH  27  28
ENDBRANCH  26  27
ENDBRANCH  25  26
ENDBRANCH  24  25
ENDBRANCH  23  24
ENDBRANCH  22  23
ENDBRANCH  21  22
ENDBRANCH  20  21
ENDBRANCH  19  20
ENDBRANCH  18  19
ENDBRANCH  17  18
ENDBRANCH   1  17
TORSDOF 26
ENDMDL
MODEL 7
REMARK VINA RESULT:    -1.688      1.794      3.711
REMARK INTER + INTRA:          -5.687
REMARK INTER:                  -4.950
REMARK INTRA:                  -0.737
REMARK UNBOUND:                -1.434
REMARK SMILES CCCCCCCCCCCCCCCCCCCCCCCCCCCC(=O)[O-]
REMARK SMILES IDX 15 1 16 2 17 3 18 4 19 5 20 6 21 7 22 8 23 9 24 10 25 11
REMARK SMILES IDX 26 12 27 13 28 14 29 15 30 16 14 17 13 18 12 19 11 20 10 21
REMARK SMILES IDX 9 22 8 23 7 24 6 25 5 26 4 27 3 28 2 29 1 30
REMARK H PARENT
REMARK Flexibility Score: inf
ROOT
ATOM      1  C   UNL     1      -4.394 -23.038  16.390  1.00  0.00     0.000 C 
ENDROOT
BRANCH   1   2
ATOM      2  C   UNL     1      -5.453 -22.099  16.999  1.00  0.00     0.000 C 
BRANCH   2   3
ATOM      3  C   UNL     1      -6.370 -21.404  15.972  1.00  0.00     0.000 C 
BRANCH   3   4
ATOM      4  C   UNL     1      -7.825 -21.915  15.944  1.00  0.00     0.000 C 
BRANCH   4   5
ATOM      5  C   UNL     1      -8.337 -22.492  17.276  1.00  0.00     0.000 C 
BRANCH   5   6
ATOM      6  C   UNL     1      -9.819 -22.173  17.537  1.00  0.00     0.000 C 
BRANCH   6   7
ATOM      7  C   UNL     1     -10.353 -22.847  18.810  1.00  0.00     0.000 C 
BRANCH   7   8
ATOM      8  C   UNL     1     -10.025 -22.049  20.082  1.00  0.00     0.000 C 
BRANCH   8   9
ATOM      9  C   UNL     1      -9.787 -20.566  19.761  1.00  0.00     0.000 C 
BRANCH   9  10
ATOM     10  C   UNL     1     -11.106 -19.786  19.571  1.00  0.00     0.000 C 
BRANCH  10  11
ATOM     11  C   UNL     1     -11.103 -18.383  20.208  1.00  0.00     0.000 C 
BRANCH  11  12
ATOM     12  C   UNL     1      -9.717 -17.858  20.627  1.00  0.00     0.006 C 
BRANCH  12  13
ATOM     13  C   UNL     1      -9.491 -17.803  22.148  1.00  0.00     0.053 C 
BRANCH  13  14
ATOM     14  C   UNL     1      -9.804 -19.110  22.806  1.00  0.00     0.041 C 
ATOM     15  O   UNL     1      -8.881 -19.926  23.063  1.00  0.00    -0.550 OA
ATOM     16  O   UNL     1     -11.119 -19.443  23.104  1.00  0.00    -0.550 OA
ENDBRANCH  13  14
ENDBRANCH  12  13
ENDBRANCH  11  12
ENDBRANCH  10  11
ENDBRANCH   9  10
ENDBRANCH   8   9
ENDBRANCH   7   8
ENDBRANCH   6   7
ENDBRANCH   5   6
ENDBRANCH   4   5
ENDBRANCH   3   4
ENDBRANCH   2   3
ENDBRANCH   1   2
BRANCH   1  17
ATOM     17  C   UNL     1      -3.248 -22.331  15.640  1.00  0.00     0.000 C 
BRANCH  17  18
ATOM     18  C   UNL     1      -1.862 -22.985  15.787  1.00  0.00     0.000 C 
BRANCH  18  19
ATOM     19  C   UNL     1      -0.706 -21.985  15.617  1.00  0.00     0.000 C 
BRANCH  19  20
ATOM     20  C   UNL     1       0.660 -22.587  15.997  1.00  0.00     0.000 C 
BRANCH  20  21
ATOM     21  C   UNL     1       1.580 -22.923  14.807  1.00  0.00     0.000 C 
BRANCH  21  22
ATOM     22  C   UNL     1       3.086 -22.695  15.052  1.00  0.00    -0.000 C 
BRANCH  22  23
ATOM     23  C   UNL     1       4.000 -23.032  13.859  1.00  0.00    -0.000 C 
BRANCH  23  24
ATOM     24  C   UNL     1       5.484 -23.124  14.253  1.00  0.00    -0.000 C 
BRANCH  24  25
ATOM     25  C   UNL     1       6.346 -22.053  13.566  1.00  0.00    -0.000 C 
BRANCH  25  26
ATOM     26  C   UNL     1       6.299 -22.148  12.031  1.00  0.00    -0.000 C 
BRANCH  26  27
ATOM     27  C   UNL     1       7.530 -22.861  11.449  1.00  0.00    -0.000 C 
BRANCH  27  28
ATOM     28  C   UNL     1       8.298 -21.987  10.439  1.00  0.00    -0.000 C 
BRANCH  28  29
ATOM     29  C   UNL     1       8.466 -22.677   9.075  1.00  0.00    -0.003 C 
ATOM     30  C   UNL     1       7.129 -22.973   8.397  1.00  0.00     0.004 C 
ENDBRANCH  28  29
ENDBRANCH  27  28
ENDBRANCH  26  27
ENDBRANCH  25  26
ENDBRANCH  24  25
ENDBRANCH  23  24
ENDBRANCH  22  23
ENDBRANCH  21  22
ENDBRANCH  20  21
ENDBRANCH  19  20
ENDBRANCH  18  19
ENDBRANCH  17  18
ENDBRANCH   1  17
TORSDOF 26
ENDMDL
MODEL 8
REMARK VINA RESULT:    -1.566      2.078      2.502
REMARK INTER + INTRA:          -5.379
REMARK INTER:                  -3.932
REMARK INTRA:                  -1.447
REMARK UNBOUND:                -1.434
REMARK SMILES CCCCCCCCCCCCCCCCCCCCCCCCCCCC(=O)[O-]
REMARK SMILES IDX 15 1 16 2 17 3 18 4 19 5 20 6 21 7 22 8 23 9 24 10 25 11
REMARK SMILES IDX 26 12 27 13 28 14 29 15 30 16 14 17 13 18 12 19 11 20 10 21
REMARK SMILES IDX 9 22 8 23 7 24 6 25 5 26 4 27 3 28 2 29 1 30
REMARK H PARENT
REMARK Flexibility Score: inf
ROOT
ATOM      1  C   UNL     1       1.343 -21.428  16.287  1.00  0.00     0.000 C 
ENDROOT
BRANCH   1   2
ATOM      2  C   UNL     1      -0.107 -21.159  16.732  1.00  0.00     0.000 C 
BRANCH   2   3
ATOM      3  C   UNL     1      -1.125 -22.238  16.311  1.00  0.00     0.000 C 
BRANCH   3   4
ATOM      4  C   UNL     1      -2.454 -21.699  15.745  1.00  0.00     0.000 C 
BRANCH   4   5
ATOM      5  C   UNL     1      -3.635 -22.684  15.809  1.00  0.00     0.000 C 
BRANCH   5   6
ATOM      6  C   UNL     1      -4.912 -22.050  16.388  1.00  0.00     0.000 C 
BRANCH   6   7
ATOM      7  C   UNL     1      -5.806 -23.074  17.106  1.00  0.00     0.000 C 
BRANCH   7   8
ATOM      8  C   UNL     1      -5.729 -22.953  18.636  1.00  0.00     0.000 C 
BRANCH   8   9
ATOM      9  C   UNL     1      -7.119 -23.082  19.274  1.00  0.00     0.000 C 
BRANCH   9  10
ATOM     10  C   UNL     1      -8.231 -22.476  18.391  1.00  0.00     0.000 C 
BRANCH  10  11
ATOM     11  C   UNL     1      -9.127 -21.457  19.122  1.00  0.00     0.000 C 
BRANCH  11  12
ATOM     12  C   UNL     1     -10.321 -20.930  18.304  1.00  0.00     0.006 C 
BRANCH  12  13
ATOM     13  C   UNL     1     -10.364 -21.429  16.849  1.00  0.00     0.053 C 
BRANCH  13  14
ATOM     14  C   UNL     1     -10.431 -20.296  15.872  1.00  0.00     0.041 C 
ATOM     15  O   UNL     1     -10.787 -19.151  16.255  1.00  0.00    -0.550 OA
ATOM     16  O   UNL     1     -10.134 -20.512  14.533  1.00  0.00    -0.550 OA
ENDBRANCH  13  14
ENDBRANCH  12  13
ENDBRANCH  11  12
ENDBRANCH  10  11
ENDBRANCH   9  10
ENDBRANCH   8   9
ENDBRANCH   7   8
ENDBRANCH   6   7
ENDBRANCH   5   6
ENDBRANCH   4   5
ENDBRANCH   3   4
ENDBRANCH   2   3
ENDBRANCH   1   2
BRANCH   1  17
ATOM     17  C   UNL     1       1.577 -22.794  15.612  1.00  0.00     0.000 C 
BRANCH  17  18
ATOM     18  C   UNL     1       2.220 -22.737  14.214  1.00  0.00     0.000 C 
BRANCH  18  19
ATOM     19  C   UNL     1       3.714 -22.374  14.255  1.00  0.00     0.000 C 
BRANCH  19  20
ATOM     20  C   UNL     1       4.390 -22.789  15.575  1.00  0.00     0.000 C 
BRANCH  20  21
ATOM     21  C   UNL     1       4.698 -21.630  16.544  1.00  0.00     0.000 C 
BRANCH  21  22
ATOM     22  C   UNL     1       6.116 -21.638  17.151  1.00  0.00    -0.000 C 
BRANCH  22  23
ATOM     23  C   UNL     1       7.244 -21.237  16.182  1.00  0.00    -0.000 C 
BRANCH  23  24
ATOM     24  C   UNL     1       8.152 -22.420  15.802  1.00  0.00    -0.000 C 
BRANCH  24  25
ATOM     25  C   UNL     1       7.737 -23.082  14.478  1.00  0.00    -0.000 C 
BRANCH  25  26
ATOM     26  C   UNL     1       7.726 -22.093  13.299  1.00  0.00    -0.000 C 
BRANCH  26  27
ATOM     27  C   UNL     1       9.117 -21.917  12.668  1.00  0.00    -0.000 C 
BRANCH  27  28
ATOM     28  C   UNL     1       9.125 -22.218  11.158  1.00  0.00    -0.000 C 
BRANCH  28  29
ATOM     29  C   UNL     1       7.943 -21.566  10.422  1.00  0.00    -0.003 C 
ATOM     30  C   UNL     1       8.321 -21.066   9.029  1.00  0.00     0.004 C 
ENDBRANCH  28  29
ENDBRANCH  27  28
ENDBRANCH  26  27
ENDBRANCH  25  26
ENDBRANCH  24  25
ENDBRANCH  23  24
ENDBRANCH  22  23
ENDBRANCH  21  22
ENDBRANCH  20  21
ENDBRANCH  19  20
ENDBRANCH  18  19
ENDBRANCH  17  18
ENDBRANCH   1  17
TORSDOF 26
ENDMDL
MODEL 9
REMARK VINA RESULT:    -0.801      1.402      3.976
REMARK INTER + INTRA:          -3.452
REMARK INTER:                  -2.225
REMARK INTRA:                  -1.227
REMARK UNBOUND:                -1.434
REMARK SMILES CCCCCCCCCCCCCCCCCCCCCCCCCCCC(=O)[O-]
REMARK SMILES IDX 15 1 16 2 17 3 18 4 19 5 20 6 21 7 22 8 23 9 24 10 25 11
REMARK SMILES IDX 26 12 27 13 28 14 29 15 30 16 14 17 13 18 12 19 11 20 10 21
REMARK SMILES IDX 9 22 8 23 7 24 6 25 5 26 4 27 3 28 2 29 1 30
REMARK H PARENT
REMARK Flexibility Score: inf
ROOT
ATOM      1  C   UNL     1      -4.426 -23.123  16.439  1.00  0.00     0.000 C 
ENDROOT
BRANCH   1   2
ATOM      2  C   UNL     1      -5.622 -22.300  16.954  1.00  0.00     0.000 C 
BRANCH   2   3
ATOM      3  C   UNL     1      -6.266 -21.368  15.908  1.00  0.00     0.000 C 
BRANCH   3   4
ATOM      4  C   UNL     1      -7.784 -21.559  15.707  1.00  0.00     0.000 C 
BRANCH   4   5
ATOM      5  C   UNL     1      -8.521 -22.196  16.899  1.00  0.00     0.000 C 
BRANCH   5   6
ATOM      6  C   UNL     1      -9.920 -21.599  17.125  1.00  0.00     0.000 C 
BRANCH   6   7
ATOM      7  C   UNL     1     -10.670 -22.274  18.284  1.00  0.00     0.000 C 
BRANCH   7   8
ATOM      8  C   UNL     1     -10.426 -21.576  19.631  1.00  0.00     0.000 C 
BRANCH   8   9
ATOM      9  C   UNL     1      -9.818 -20.180  19.430  1.00  0.00     0.000 C 
BRANCH   9  10
ATOM     10  C   UNL     1     -10.884 -19.064  19.457  1.00  0.00     0.000 C 
BRANCH  10  11
ATOM     11  C   UNL     1     -10.783 -18.129  20.678  1.00  0.00     0.000 C 
BRANCH  11  12
ATOM     12  C   UNL     1     -10.046 -18.719  21.895  1.00  0.00     0.006 C 
BRANCH  12  13
ATOM     13  C   UNL     1     -10.886 -19.699  22.733  1.00  0.00     0.053 C 
BRANCH  13  14
ATOM     14  C   UNL     1     -10.096 -20.904  23.141  1.00  0.00     0.041 C 
ATOM     15  O   UNL     1     -10.682 -21.921  23.593  1.00  0.00    -0.550 OA
ATOM     16  O   UNL     1      -8.709 -20.889  23.056  1.00  0.00    -0.550 OA
ENDBRANCH  13  14
ENDBRANCH  12  13
ENDBRANCH  11  12
ENDBRANCH  10  11
ENDBRANCH   9  10
ENDBRANCH   8   9
ENDBRANCH   7   8
ENDBRANCH   6   7
ENDBRANCH   5   6
ENDBRANCH   4   5
ENDBRANCH   3   4
ENDBRANCH   2   3
ENDBRANCH   1   2
BRANCH   1  17
ATOM     17  C   UNL     1      -3.255 -22.292  15.876  1.00  0.00     0.000 C 
BRANCH  17  18
ATOM     18  C   UNL     1      -1.852 -22.866  16.140  1.00  0.00     0.000 C 
BRANCH  18  19
ATOM     19  C   UNL     1      -0.727 -21.862  15.841  1.00  0.00     0.000 C 
BRANCH  19  20
ATOM     20  C   UNL     1       0.677 -22.468  16.031  1.00  0.00     0.000 C 
BRANCH  20  21
ATOM     21  C   UNL     1       1.408 -22.844  14.727  1.00  0.00     0.000 C 
BRANCH  21  22
ATOM     22  C   UNL     1       2.926 -22.574  14.722  1.00  0.00    -0.000 C 
BRANCH  22  23
ATOM     23  C   UNL     1       3.684 -23.125  13.499  1.00  0.00    -0.000 C 
BRANCH  23  24
ATOM     24  C   UNL     1       5.212 -23.047  13.659  1.00  0.00    -0.000 C 
BRANCH  24  25
ATOM     25  C   UNL     1       5.870 -22.134  12.611  1.00  0.00    -0.000 C 
BRANCH  25  26
ATOM     26  C   UNL     1       7.398 -22.304  12.553  1.00  0.00    -0.000 C 
BRANCH  26  27
ATOM     27  C   UNL     1       8.141 -21.203  13.325  1.00  0.00    -0.000 C 
BRANCH  27  28
ATOM     28  C   UNL     1       8.800 -21.725  14.615  1.00  0.00    -0.000 C 
BRANCH  28  29
ATOM     29  C   UNL     1       8.097 -21.213  15.883  1.00  0.00    -0.003 C 
ATOM     30  C   UNL     1       6.928 -22.100  16.308  1.00  0.00     0.004 C 
ENDBRANCH  28  29
ENDBRANCH  27  28
ENDBRANCH  26  27
ENDBRANCH  25  26
ENDBRANCH  24  25
ENDBRANCH  23  24
ENDBRANCH  22  23
ENDBRANCH  21  22
ENDBRANCH  20  21
ENDBRANCH  19  20
ENDBRANCH  18  19
ENDBRANCH  17  18
ENDBRANCH   1  17
TORSDOF 26
ENDMDL
