MODEL 1
REMARK VINA RESULT:    -4.465      0.000      0.000
REMARK INTER + INTRA:          -8.252
REMARK INTER:                  -7.597
REMARK INTRA:                  -0.655
REMARK UNBOUND:                -0.655
REMARK SMILES CCCCCCCCCCCCCC(=O)[O-]
REMARK SMILES IDX 8 1 9 2 10 3 11 4 12 5 13 6 14 7 15 8 16 9 7 10 6 11 5 12
REMARK SMILES IDX 4 13 3 14 2 15 1 16
REMARK H PARENT
REMARK Flexibility Score: inf
ROOT
ATOM      1  C   UNL     1       1.429  -0.257   7.591  1.00  0.00     0.000 C 
ENDROOT
BRANCH   1   2
ATOM      2  C   UNL     1       1.417   1.139   8.234  1.00  0.00     0.000 C 
BRANCH   2   3
ATOM      3  C   UNL     1       1.575   2.271   7.206  1.00  0.00     0.000 C 
BRANCH   3   4
ATOM      4  C   UNL     1       0.695   3.495   7.546  1.00  0.00     0.000 C 
BRANCH   4   5
ATOM      5  C   UNL     1       0.984   4.723   6.662  1.00  0.00     0.006 C 
BRANCH   5   6
ATOM      6  C   UNL     1      -0.227   5.646   6.460  1.00  0.00     0.053 C 
BRANCH   6   7
ATOM      7  C   UNL     1      -0.485   5.919   5.009  1.00  0.00     0.041 C 
ATOM      8  O   UNL     1       0.022   5.178   4.127  1.00  0.00    -0.550 OA
ATOM      9  O   UNL     1      -1.299   6.980   4.631  1.00  0.00    -0.550 OA
ENDBRANCH   6   7
ENDBRANCH   5   6
ENDBRANCH   4   5
ENDBRANCH   3   4
ENDBRANCH   2   3
ENDBRANCH   1   2
BRANCH   1  10
ATOM     10  C   UNL     1       1.471  -0.199   6.054  1.00  0.00     0.000 C 
BRANCH  10  11
ATOM     11  C   UNL     1       1.213  -1.570   5.405  1.00  0.00    -0.000 C 
BRANCH  11  12
ATOM     12  C   UNL     1       0.368  -2.495   6.298  1.00  0.00    -0.000 C 
BRANCH  12  13
ATOM     13  C   UNL     1      -1.137  -2.392   5.999  1.00  0.00    -0.000 C 
BRANCH  13  14
ATOM     14  C   UNL     1      -1.446  -2.437   4.494  1.00  0.00    -0.000 C 
BRANCH  14  15
ATOM     15  C   UNL     1      -2.940  -2.688   4.249  1.00  0.00    -0.003 C 
ATOM     16  C   UNL     1      -3.696  -1.377   4.060  1.00  0.00     0.004 C 
ENDBRANCH  14  15
ENDBRANCH  13  14
ENDBRANCH  12  13
ENDBRANCH  11  12
ENDBRANCH  10  11
ENDBRANCH   1  10
TORSDOF 12
ENDMDL
MODEL 2
REMARK VINA RESULT:    -4.438      0.982      1.367
REMARK INTER + INTRA:          -8.206
REMARK INTER:                  -7.563
REMARK INTRA:                  -0.643
REMARK UNBOUND:                -0.655
REMARK SMILES CCCCCCCCCCCCCC(=O)[O-]
REMARK SMILES IDX 8 1 9 2 10 3 11 4 12 5 13 6 14 7 15 8 16 9 7 10 6 11 5 12
REMARK SMILES IDX 4 13 3 14 2 15 1 16
REMARK H PARENT
REMARK Flexibility Score: inf
ROOT
ATOM      1  C   UNL     1       2.276  -0.825   6.247  1.00  0.00     0.000 C 
ENDROOT
BRANCH   1   2
ATOM      2  C   UNL     1       1.450   0.468   6.329  1.00  0.00     0.000 C 
BRANCH   2   3
ATOM      3  C   UNL     1       2.003   1.465   7.363  1.00  0.00     0.000 C 
BRANCH   3   4
ATOM      4  C   UNL     1       1.095   2.705   7.521  1.00  0.00     0.000 C 
BRANCH   4   5
ATOM      5  C   UNL     1       1.395   3.819   6.500  1.00  0.00     0.006 C 
BRANCH   5   6
ATOM      6  C   UNL     1       0.306   4.898   6.415  1.00  0.00     0.053 C 
BRANCH   6   7
ATOM      7  C   UNL     1       0.349   5.633   5.110  1.00  0.00     0.041 C 
ATOM      8  O   UNL     1       0.132   5.021   4.032  1.00  0.00    -0.550 OA
ATOM      9  O   UNL     1       0.610   6.998   5.084  1.00  0.00    -0.550 OA
ENDBRANCH   6   7
ENDBRANCH   5   6
ENDBRANCH   4   5
ENDBRANCH   3   4
ENDBRANCH   2   3
ENDBRANCH   1   2
BRANCH   1  10
ATOM     10  C   UNL     1       1.617  -1.893   5.356  1.00  0.00     0.000 C 
BRANCH  10  11
ATOM     11  C   UNL     1       0.142  -1.581   5.055  1.00  0.00    -0.000 C 
BRANCH  11  12
ATOM     12  C   UNL     1      -0.822  -2.533   5.785  1.00  0.00    -0.000 C 
BRANCH  12  13
ATOM     13  C   UNL     1      -2.060  -2.881   4.942  1.00  0.00    -0.000 C 
BRANCH  13  14
ATOM     14  C   UNL     1      -2.436  -1.766   3.953  1.00  0.00    -0.000 C 
BRANCH  14  15
ATOM     15  C   UNL     1      -3.955  -1.554   3.919  1.00  0.00    -0.003 C 
ATOM     16  C   UNL     1      -4.443  -0.857   5.184  1.00  0.00     0.004 C 
ENDBRANCH  14  15
ENDBRANCH  13  14
ENDBRANCH  12  13
ENDBRANCH  11  12
ENDBRANCH  10  11
ENDBRANCH   1  10
TORSDOF 12
ENDMDL
MODEL 3
REMARK VINA RESULT:    -4.362      4.719      6.278
REMARK INTER + INTRA:          -8.077
REMARK INTER:                  -6.137
REMARK INTRA:                  -1.940
REMARK UNBOUND:                -0.655
REMARK SMILES CCCCCCCCCCCCCC(=O)[O-]
REMARK SMILES IDX 8 1 9 2 10 3 11 4 12 5 13 6 14 7 15 8 16 9 7 10 6 11 5 12
REMARK SMILES IDX 4 13 3 14 2 15 1 16
REMARK H PARENT
REMARK Flexibility Score: inf
ROOT
ATOM      1  C   UNL     1      -4.767  -2.391   6.358  1.00  0.00     0.000 C 
ENDROOT
BRANCH   1   2
ATOM      2  C   UNL     1      -3.714  -2.409   7.478  1.00  0.00     0.000 C 
BRANCH   2   3
ATOM      3  C   UNL     1      -2.512  -3.311   7.151  1.00  0.00     0.000 C 
BRANCH   3   4
ATOM      4  C   UNL     1      -1.172  -2.543   7.216  1.00  0.00     0.000 C 
BRANCH   4   5
ATOM      5  C   UNL     1      -0.199  -2.911   6.081  1.00  0.00     0.006 C 
BRANCH   5   6
ATOM      6  C   UNL     1       0.349  -1.700   5.311  1.00  0.00     0.053 C 
BRANCH   6   7
ATOM      7  C   UNL     1       1.824  -1.531   5.513  1.00  0.00     0.041 C 
ATOM      8  O   UNL     1       2.256  -0.813   6.451  1.00  0.00    -0.550 OA
ATOM      9  O   UNL     1       2.724  -2.182   4.676  1.00  0.00    -0.550 OA
ENDBRANCH   6   7
ENDBRANCH   5   6
ENDBRANCH   4   5
ENDBRANCH   3   4
ENDBRANCH   2   3
ENDBRANCH   1   2
BRANCH   1  10
ATOM     10  C   UNL     1      -4.775  -1.067   5.574  1.00  0.00     0.000 C 
BRANCH  10  11
ATOM     11  C   UNL     1      -4.411  -1.258   4.091  1.00  0.00    -0.000 C 
BRANCH  11  12
ATOM     12  C   UNL     1      -2.907  -1.506   3.880  1.00  0.00    -0.000 C 
BRANCH  12  13
ATOM     13  C   UNL     1      -2.614  -2.893   3.286  1.00  0.00    -0.000 C 
BRANCH  13  14
ATOM     14  C   UNL     1      -3.893  -3.670   2.937  1.00  0.00    -0.000 C 
BRANCH  14  15
ATOM     15  C   UNL     1      -3.908  -5.039   3.631  1.00  0.00    -0.003 C 
ATOM     16  C   UNL     1      -2.508  -5.446   4.078  1.00  0.00     0.004 C 
ENDBRANCH  14  15
ENDBRANCH  13  14
ENDBRANCH  12  13
ENDBRANCH  11  12
ENDBRANCH  10  11
ENDBRANCH   1  10
TORSDOF 12
ENDMDL
MODEL 4
REMARK VINA RESULT:    -4.332      4.936      6.734
REMARK INTER + INTRA:          -8.025
REMARK INTER:                  -7.108
REMARK INTRA:                  -0.917
REMARK UNBOUND:                -0.655
REMARK SMILES CCCCCCCCCCCCCC(=O)[O-]
REMARK SMILES IDX 8 1 9 2 10 3 11 4 12 5 13 6 14 7 15 8 16 9 7 10 6 11 5 12
REMARK SMILES IDX 4 13 3 14 2 15 1 16
REMARK H PARENT
REMARK Flexibility Score: inf
ROOT
ATOM      1  C   UNL     1      -2.650  -3.373   3.739  1.00  0.00     0.000 C 
ENDROOT
BRANCH   1   2
ATOM      2  C   UNL     1      -1.571  -2.517   4.423  1.00  0.00     0.000 C 
BRANCH   2   3
ATOM      3  C   UNL     1      -1.349  -2.902   5.895  1.00  0.00     0.000 C 
BRANCH   3   4
ATOM      4  C   UNL     1      -0.047  -2.297   6.466  1.00  0.00     0.000 C 
BRANCH   4   5
ATOM      5  C   UNL     1       0.716  -1.418   5.457  1.00  0.00     0.006 C 
BRANCH   5   6
ATOM      6  C   UNL     1       2.199  -1.216   5.800  1.00  0.00     0.053 C 
BRANCH   6   7
ATOM      7  C   UNL     1       3.035  -2.384   5.371  1.00  0.00     0.041 C 
ATOM      8  O   UNL     1       3.077  -3.425   6.077  1.00  0.00    -0.550 OA
ATOM      9  O   UNL     1       3.753  -2.332   4.182  1.00  0.00    -0.550 OA
ENDBRANCH   6   7
ENDBRANCH   5   6
ENDBRANCH   4   5
ENDBRANCH   3   4
ENDBRANCH   2   3
ENDBRANCH   1   2
BRANCH   1  10
ATOM     10  C   UNL     1      -4.032  -2.696   3.742  1.00  0.00     0.000 C 
BRANCH  10  11
ATOM     11  C   UNL     1      -3.940  -1.168   3.886  1.00  0.00    -0.000 C 
BRANCH  11  12
ATOM     12  C   UNL     1      -4.781  -0.634   5.059  1.00  0.00    -0.000 C 
BRANCH  12  13
ATOM     13  C   UNL     1      -4.739  -1.560   6.285  1.00  0.00    -0.000 C 
BRANCH  13  14
ATOM     14  C   UNL     1      -5.505  -0.987   7.488  1.00  0.00    -0.000 C 
BRANCH  14  15
ATOM     15  C   UNL     1      -6.213   0.321   7.113  1.00  0.00    -0.003 C 
ATOM     16  C   UNL     1      -7.709   0.239   7.396  1.00  0.00     0.004 C 
ENDBRANCH  14  15
ENDBRANCH  13  14
ENDBRANCH  12  13
ENDBRANCH  11  12
ENDBRANCH  10  11
ENDBRANCH   1  10
TORSDOF 12
ENDMDL
MODEL 5
REMARK VINA RESULT:    -4.324      4.685      6.085
REMARK INTER + INTRA:          -8.013
REMARK INTER:                  -6.845
REMARK INTRA:                  -1.168
REMARK UNBOUND:                -0.655
REMARK SMILES CCCCCCCCCCCCCC(=O)[O-]
REMARK SMILES IDX 8 1 9 2 10 3 11 4 12 5 13 6 14 7 15 8 16 9 7 10 6 11 5 12
REMARK SMILES IDX 4 13 3 14 2 15 1 16
REMARK H PARENT
REMARK Flexibility Score: inf
ROOT
ATOM      1  C   UNL     1      -2.225  -3.451   5.585  1.00  0.00     0.000 C 
ENDROOT
BRANCH   1   2
ATOM      2  C   UNL     1      -1.729  -2.766   6.868  1.00  0.00     0.000 C 
BRANCH   2   3
ATOM      3  C   UNL     1      -0.207  -2.885   7.058  1.00  0.00     0.000 C 
BRANCH   3   4
ATOM      4  C   UNL     1       0.411  -1.593   7.639  1.00  0.00     0.000 C 
BRANCH   4   5
ATOM      5  C   UNL     1       1.501  -0.978   6.741  1.00  0.00     0.006 C 
BRANCH   5   6
ATOM      6  C   UNL     1       1.801  -1.794   5.475  1.00  0.00     0.053 C 
BRANCH   6   7
ATOM      7  C   UNL     1       3.275  -1.930   5.236  1.00  0.00     0.041 C 
ATOM      8  O   UNL     1       3.697  -2.414   4.153  1.00  0.00    -0.550 OA
ATOM      9  O   UNL     1       4.182  -1.507   6.199  1.00  0.00    -0.550 OA
ENDBRANCH   6   7
ENDBRANCH   5   6
ENDBRANCH   4   5
ENDBRANCH   3   4
ENDBRANCH   2   3
ENDBRANCH   1   2
BRANCH   1  10
ATOM     10  C   UNL     1      -1.760  -2.727   4.310  1.00  0.00     0.000 C 
BRANCH  10  11
ATOM     11  C   UNL     1      -2.816  -1.748   3.770  1.00  0.00    -0.000 C 
BRANCH  11  12
ATOM     12  C   UNL     1      -4.195  -2.408   3.590  1.00  0.00    -0.000 C 
BRANCH  12  13
ATOM     13  C   UNL     1      -5.305  -1.680   4.366  1.00  0.00    -0.000 C 
BRANCH  13  14
ATOM     14  C   UNL     1      -4.752  -0.677   5.391  1.00  0.00    -0.000 C 
BRANCH  14  15
ATOM     15  C   UNL     1      -5.473  -0.817   6.737  1.00  0.00    -0.003 C 
ATOM     16  C   UNL     1      -6.281   0.435   7.063  1.00  0.00     0.004 C 
ENDBRANCH  14  15
ENDBRANCH  13  14
ENDBRANCH  12  13
ENDBRANCH  11  12
ENDBRANCH  10  11
ENDBRANCH   1  10
TORSDOF 12
ENDMDL
MODEL 6
REMARK VINA RESULT:    -4.279      4.658      6.151
REMARK INTER + INTRA:          -7.936
REMARK INTER:                  -6.389
REMARK INTRA:                  -1.547
REMARK UNBOUND:                -0.655
REMARK SMILES CCCCCCCCCCCCCC(=O)[O-]
REMARK SMILES IDX 8 1 9 2 10 3 11 4 12 5 13 6 14 7 15 8 16 9 7 10 6 11 5 12
REMARK SMILES IDX 4 13 3 14 2 15 1 16
REMARK H PARENT
REMARK Flexibility Score: inf
ROOT
ATOM      1  C   UNL     1      -2.960  -4.543   5.783  1.00  0.00     0.000 C 
ENDROOT
BRANCH   1   2
ATOM      2  C   UNL     1      -2.009  -4.218   6.946  1.00  0.00     0.000 C 
BRANCH   2   3
ATOM      3  C   UNL     1      -1.693  -2.717   7.056  1.00  0.00     0.000 C 
BRANCH   3   4
ATOM      4  C   UNL     1      -0.175  -2.434   6.988  1.00  0.00     0.000 C 
BRANCH   4   5
ATOM      5  C   UNL     1       0.295  -1.935   5.609  1.00  0.00     0.006 C 
BRANCH   5   6
ATOM      6  C   UNL     1       1.416  -0.887   5.673  1.00  0.00     0.053 C 
BRANCH   6   7
ATOM      7  C   UNL     1       2.772  -1.511   5.540  1.00  0.00     0.041 C 
ATOM      8  O   UNL     1       3.058  -2.190   4.520  1.00  0.00    -0.550 OA
ATOM      9  O   UNL     1       3.727  -1.328   6.533  1.00  0.00    -0.550 OA
ENDBRANCH   6   7
ENDBRANCH   5   6
ENDBRANCH   4   5
ENDBRANCH   3   4
ENDBRANCH   2   3
ENDBRANCH   1   2
BRANCH   1  10
ATOM     10  C   UNL     1      -2.369  -4.167   4.413  1.00  0.00     0.000 C 
BRANCH  10  11
ATOM     11  C   UNL     1      -3.304  -3.260   3.596  1.00  0.00    -0.000 C 
BRANCH  11  12
ATOM     12  C   UNL     1      -2.946  -1.769   3.734  1.00  0.00    -0.000 C 
BRANCH  12  13
ATOM     13  C   UNL     1      -4.133  -0.918   4.211  1.00  0.00    -0.000 C 
BRANCH  13  14
ATOM     14  C   UNL     1      -5.277  -1.766   4.789  1.00  0.00    -0.000 C 
BRANCH  14  15
ATOM     15  C   UNL     1      -5.372  -1.595   6.310  1.00  0.00    -0.003 C 
ATOM     16  C   UNL     1      -5.639  -0.141   6.686  1.00  0.00     0.004 C 
ENDBRANCH  14  15
ENDBRANCH  13  14
ENDBRANCH  12  13
ENDBRANCH  11  12
ENDBRANCH  10  11
ENDBRANCH   1  10
TORSDOF 12
ENDMDL
MODEL 7
REMARK VINA RESULT:    -4.273      4.728      6.125
REMARK INTER + INTRA:          -7.926
REMARK INTER:                  -6.427
REMARK INTRA:                  -1.499
REMARK UNBOUND:                -0.655
REMARK SMILES CCCCCCCCCCCCCC(=O)[O-]
REMARK SMILES IDX 8 1 9 2 10 3 11 4 12 5 13 6 14 7 15 8 16 9 7 10 6 11 5 12
REMARK SMILES IDX 4 13 3 14 2 15 1 16
REMARK H PARENT
REMARK Flexibility Score: inf
ROOT
ATOM      1  C   UNL     1      -2.854  -3.911   6.782  1.00  0.00     0.000 C 
ENDROOT
BRANCH   1   2
ATOM      2  C   UNL     1      -1.365  -3.950   6.405  1.00  0.00     0.000 C 
BRANCH   2   3
ATOM      3  C   UNL     1      -0.676  -2.582   6.549  1.00  0.00     0.000 C 
BRANCH   3   4
ATOM      4  C   UNL     1      -0.198  -2.024   5.189  1.00  0.00     0.000 C 
BRANCH   4   5
ATOM      5  C   UNL     1       1.077  -1.167   5.292  1.00  0.00     0.006 C 
BRANCH   5   6
ATOM      6  C   UNL     1       2.381  -1.977   5.229  1.00  0.00     0.053 C 
BRANCH   6   7
ATOM      7  C   UNL     1       3.367  -1.529   6.265  1.00  0.00     0.041 C 
ATOM      8  O   UNL     1       4.602  -1.597   6.033  1.00  0.00    -0.550 OA
ATOM      9  O   UNL     1       2.923  -1.020   7.480  1.00  0.00    -0.550 OA
ENDBRANCH   6   7
ENDBRANCH   5   6
ENDBRANCH   4   5
ENDBRANCH   3   4
ENDBRANCH   2   3
ENDBRANCH   1   2
BRANCH   1  10
ATOM     10  C   UNL     1      -3.405  -2.477   6.869  1.00  0.00     0.000 C 
BRANCH  10  11
ATOM     11  C   UNL     1      -4.605  -2.249   5.935  1.00  0.00    -0.000 C 
BRANCH  11  12
ATOM     12  C   UNL     1      -4.368  -1.099   4.939  1.00  0.00    -0.000 C 
BRANCH  12  13
ATOM     13  C   UNL     1      -3.504  -1.525   3.740  1.00  0.00    -0.000 C 
BRANCH  13  14
ATOM     14  C   UNL     1      -3.837  -2.940   3.243  1.00  0.00    -0.000 C 
BRANCH  14  15
ATOM     15  C   UNL     1      -2.563  -3.690   2.833  1.00  0.00    -0.003 C 
ATOM     16  C   UNL     1      -2.821  -4.605   1.641  1.00  0.00     0.004 C 
ENDBRANCH  14  15
ENDBRANCH  13  14
ENDBRANCH  12  13
ENDBRANCH  11  12
ENDBRANCH  10  11
ENDBRANCH   1  10
TORSDOF 12
ENDMDL
MODEL 8
REMARK VINA RESULT:    -4.253      2.199      3.635
REMARK INTER + INTRA:          -7.892
REMARK INTER:                  -6.855
REMARK INTRA:                  -1.037
REMARK UNBOUND:                -0.655
REMARK SMILES CCCCCCCCCCCCCC(=O)[O-]
REMARK SMILES IDX 8 1 9 2 10 3 11 4 12 5 13 6 14 7 15 8 16 9 7 10 6 11 5 12
REMARK SMILES IDX 4 13 3 14 2 15 1 16
REMARK H PARENT
REMARK Flexibility Score: inf
ROOT
ATOM      1  C   UNL     1       1.962   1.976   7.857  1.00  0.00     0.000 C 
ENDROOT
BRANCH   1   2
ATOM      2  C   UNL     1       0.793   2.847   8.344  1.00  0.00     0.000 C 
BRANCH   2   3
ATOM      3  C   UNL     1       0.538   4.063   7.436  1.00  0.00     0.000 C 
BRANCH   3   4
ATOM      4  C   UNL     1       1.375   4.007   6.138  1.00  0.00     0.000 C 
BRANCH   4   5
ATOM      5  C   UNL     1       1.081   5.168   5.169  1.00  0.00     0.006 C 
BRANCH   5   6
ATOM      6  C   UNL     1      -0.415   5.414   4.925  1.00  0.00     0.053 C 
BRANCH   6   7
ATOM      7  C   UNL     1      -0.795   6.841   5.183  1.00  0.00     0.041 C 
ATOM      8  O   UNL     1      -1.462   7.142   6.207  1.00  0.00    -0.550 OA
ATOM      9  O   UNL     1      -0.397   7.841   4.304  1.00  0.00    -0.550 OA
ENDBRANCH   6   7
ENDBRANCH   5   6
ENDBRANCH   4   5
ENDBRANCH   3   4
ENDBRANCH   2   3
ENDBRANCH   1   2
BRANCH   1  10
ATOM     10  C   UNL     1       1.533   0.531   7.546  1.00  0.00     0.000 C 
BRANCH  10  11
ATOM     11  C   UNL     1       1.447   0.254   6.036  1.00  0.00    -0.000 C 
BRANCH  11  12
ATOM     12  C   UNL     1       0.973  -1.177   5.725  1.00  0.00    -0.000 C 
BRANCH  12  13
ATOM     13  C   UNL     1       2.080  -2.223   5.929  1.00  0.00    -0.000 C 
BRANCH  13  14
ATOM     14  C   UNL     1       3.353  -1.904   5.129  1.00  0.00    -0.000 C 
BRANCH  14  15
ATOM     15  C   UNL     1       4.571  -1.798   6.056  1.00  0.00    -0.003 C 
ATOM     16  C   UNL     1       4.175  -2.014   7.513  1.00  0.00     0.004 C 
ENDBRANCH  14  15
ENDBRANCH  13  14
ENDBRANCH  12  13
ENDBRANCH  11  12
ENDBRANCH  10  11
ENDBRANCH   1  10
TORSDOF 12
ENDMDL
MODEL 9
REMARK VINA RESULT:    -4.180      4.989      7.017
REMARK INTER + INTRA:          -7.766
REMARK INTER:                  -6.278
REMARK INTRA:                  -1.488
REMARK UNBOUND:                -0.655
REMARK SMILES CCCCCCCCCCCCCC(=O)[O-]
REMARK SMILES IDX 8 1 9 2 10 3 11 4 12 5 13 6 14 7 15 8 16 9 7 10 6 11 5 12
REMARK SMILES IDX 4 13 3 14 2 15 1 16
REMARK H PARENT
REMARK Flexibility Score: inf
ROOT
ATOM      1  C   UNL     1      -2.470  -4.465   5.675  1.00  0.00     0.000 C 
ENDROOT
BRANCH   1   2
ATOM      2  C   UNL     1      -3.489  -4.044   4.603  1.00  0.00     0.000 C 
BRANCH   2   3
ATOM      3  C   UNL     1      -2.874  -3.147   3.516  1.00  0.00     0.000 C 
BRANCH   3   4
ATOM      4  C   UNL     1      -3.112  -1.645   3.795  1.00  0.00     0.000 C 
BRANCH   4   5
ATOM      5  C   UNL     1      -4.568  -1.316   4.174  1.00  0.00     0.006 C 
BRANCH   5   6
ATOM      6  C   UNL     1      -4.735  -0.776   5.602  1.00  0.00     0.053 C 
BRANCH   6   7
ATOM      7  C   UNL     1      -5.958  -1.328   6.268  1.00  0.00     0.041 C 
ATOM      8  O   UNL     1      -6.981  -0.609   6.408  1.00  0.00    -0.550 OA
ATOM      9  O   UNL     1      -5.976  -2.643   6.719  1.00  0.00    -0.550 OA
ENDBRANCH   6   7
ENDBRANCH   5   6
ENDBRANCH   4   5
ENDBRANCH   3   4
ENDBRANCH   2   3
ENDBRANCH   1   2
BRANCH   1  10
ATOM     10  C   UNL     1      -2.611  -3.655   6.975  1.00  0.00     0.000 C 
BRANCH  10  11
ATOM     11  C   UNL     1      -1.476  -2.633   7.160  1.00  0.00    -0.000 C 
BRANCH  11  12
ATOM     12  C   UNL     1      -0.252  -2.948   6.281  1.00  0.00    -0.000 C 
BRANCH  12  13
ATOM     13  C   UNL     1       0.101  -1.796   5.326  1.00  0.00    -0.000 C 
BRANCH  13  14
ATOM     14  C   UNL     1       1.545  -1.301   5.501  1.00  0.00    -0.000 C 
BRANCH  14  15
ATOM     15  C   UNL     1       2.514  -2.480   5.658  1.00  0.00    -0.003 C 
ATOM     16  C   UNL     1       3.702  -2.348   4.711  1.00  0.00     0.004 C 
ENDBRANCH  14  15
ENDBRANCH  13  14
ENDBRANCH  12  13
ENDBRANCH  11  12
ENDBRANCH  10  11
ENDBRANCH   1  10
TORSDOF 12
ENDMDL
