MODEL 1
REMARK VINA RESULT:     7.398      0.000      0.000
REMARK INTER + INTRA:           9.385
REMARK INTER:                   8.911
REMARK INTRA:                   0.474
REMARK UNBOUND:                 0.474
REMARK SMILES O=c1c(O)c(-c2ccc(O)c(O)c2)oc2cc(O)cc(O)c12
REMARK SMILES IDX 5 1 3 2 2 3 1 4 22 5 20 6 19 7 17 8 16 9 15 10 14 11 6 12
REMARK SMILES IDX 7 13 8 14 9 15 13 16 11 17 10 18 12 20 4 22 21 24 18 26
REMARK H PARENT 10 19 12 21 4 23 21 25 18 27
REMARK Flexibility Score: inf
ROOT
ATOM      1  C   UNL     1      -0.073  26.612  30.727  1.00  0.00     0.180 A 
ATOM      2  C   UNL     1      -0.052  25.893  31.934  1.00  0.00     0.208 A 
ATOM      3  C   UNL     1       0.005  26.599  33.147  1.00  0.00     0.238 A 
ATOM      4  O   UNL     1      -0.032  25.952  34.225  1.00  0.00    -0.285 OA
ATOM      5  C   UNL     1       0.056  28.014  33.135  1.00  0.00     0.111 A 
ATOM      6  C   UNL     1       0.155  28.830  34.302  1.00  0.00     0.134 A 
ATOM      7  C   UNL     1       0.066  30.222  34.181  1.00  0.00     0.093 A 
ATOM      8  C   UNL     1      -0.052  30.830  32.932  1.00  0.00     0.123 A 
ATOM      9  C   UNL     1      -0.091  30.044  31.780  1.00  0.00     0.094 A 
ATOM     10  C   UNL     1      -0.041  28.651  31.872  1.00  0.00     0.146 A 
ATOM     11  O   UNL     1      -0.091  27.939  30.752  1.00  0.00    -0.452 OA
ENDROOT
BRANCH   1  12
ATOM     12  C   UNL     1      -0.107  25.937  29.408  1.00  0.00     0.025 A 
ATOM     13  C   UNL     1      -0.085  26.709  28.236  1.00  0.00     0.016 A 
ATOM     14  C   UNL     1      -0.096  26.094  26.982  1.00  0.00     0.051 A 
ATOM     15  C   UNL     1      -0.112  24.696  26.882  1.00  0.00     0.157 A 
ATOM     16  C   UNL     1      -0.104  24.534  29.304  1.00  0.00     0.062 A 
ATOM     17  C   UNL     1      -0.111  23.914  28.049  1.00  0.00     0.158 A 
BRANCH  15  18
ATOM     18  O   UNL     1      -0.125  24.084  25.629  1.00  0.00    -0.504 OA
ATOM     19  H   UNL     1       0.637  24.204  24.972  1.00  0.00     0.293 HD
ENDBRANCH  15  18
BRANCH  17  20
ATOM     20  O   UNL     1      -0.114  22.521  27.982  1.00  0.00    -0.504 OA
ATOM     21  H   UNL     1      -0.815  22.008  27.463  1.00  0.00     0.293 HD
ENDBRANCH  17  20
ENDBRANCH   1  12
BRANCH   2  22
ATOM     22  O   UNL     1      -0.125  24.497  31.923  1.00  0.00    -0.502 OA
ATOM     23  H   UNL     1      -0.333  23.969  31.084  1.00  0.00     0.293 HD
ENDBRANCH   2  22
BRANCH   6  24
ATOM     24  O   UNL     1       0.368  28.328  35.590  1.00  0.00    -0.507 OA
ATOM     25  H   UNL     1       0.186  28.835  36.442  1.00  0.00     0.293 HD
ENDBRANCH   6  24
BRANCH   8  26
ATOM     26  O   UNL     1      -0.122  32.219  32.847  1.00  0.00    -0.508 OA
ATOM     27  H   UNL     1       0.713  32.792  32.841  1.00  0.00     0.293 HD
ENDBRANCH   8  26
TORSDOF 6
ENDMDL
MODEL 2
REMARK VINA RESULT:     7.469      1.607      6.777
REMARK INTER + INTRA:           9.471
REMARK INTER:                   8.931
REMARK INTRA:                   0.541
REMARK UNBOUND:                 0.474
REMARK SMILES O=c1c(O)c(-c2ccc(O)c(O)c2)oc2cc(O)cc(O)c12
REMARK SMILES IDX 5 1 3 2 2 3 1 4 22 5 20 6 19 7 17 8 16 9 15 10 14 11 6 12
REMARK SMILES IDX 7 13 8 14 9 15 13 16 11 17 10 18 12 20 4 22 21 24 18 26
REMARK H PARENT 10 19 12 21 4 23 21 25 18 27
REMARK Flexibility Score: inf
ROOT
ATOM      1  C   UNL     1      -0.019  27.481  32.002  1.00  0.00     0.180 A 
ATOM      2  C   UNL     1       0.109  26.081  31.964  1.00  0.00     0.208 A 
ATOM      3  C   UNL     1       0.122  25.432  30.718  1.00  0.00     0.238 A 
ATOM      4  O   UNL     1       0.291  24.186  30.688  1.00  0.00    -0.285 OA
ATOM      5  C   UNL     1      -0.008  26.189  29.529  1.00  0.00     0.111 A 
ATOM      6  C   UNL     1      -0.048  25.633  28.215  1.00  0.00     0.134 A 
ATOM      7  C   UNL     1      -0.048  26.484  27.104  1.00  0.00     0.093 A 
ATOM      8  C   UNL     1      -0.077  27.870  27.258  1.00  0.00     0.123 A 
ATOM      9  C   UNL     1      -0.098  28.424  28.539  1.00  0.00     0.094 A 
ATOM     10  C   UNL     1      -0.061  27.600  29.667  1.00  0.00     0.146 A 
ATOM     11  O   UNL     1      -0.073  28.167  30.867  1.00  0.00    -0.452 OA
ENDROOT
BRANCH   1  12
ATOM     12  C   UNL     1      -0.066  28.233  33.277  1.00  0.00     0.025 A 
ATOM     13  C   UNL     1      -0.042  27.534  34.494  1.00  0.00     0.016 A 
ATOM     14  C   UNL     1      -0.065  28.224  35.708  1.00  0.00     0.051 A 
ATOM     15  C   UNL     1      -0.094  29.625  35.723  1.00  0.00     0.157 A 
ATOM     16  C   UNL     1      -0.075  29.640  33.297  1.00  0.00     0.062 A 
ATOM     17  C   UNL     1      -0.094  30.335  34.511  1.00  0.00     0.158 A 
BRANCH  15  18
ATOM     18  O   UNL     1      -0.119  30.311  36.937  1.00  0.00    -0.504 OA
ATOM     19  H   UNL     1      -0.733  30.033  37.692  1.00  0.00     0.293 HD
ENDBRANCH  15  18
BRANCH  17  20
ATOM     20  O   UNL     1      -0.109  31.729  34.493  1.00  0.00    -0.504 OA
ATOM     21  H   UNL     1      -0.972  32.258  34.457  1.00  0.00     0.293 HD
ENDBRANCH  17  20
ENDBRANCH   1  12
BRANCH   2  22
ATOM     22  O   UNL     1       0.258  25.356  33.149  1.00  0.00    -0.502 OA
ATOM     23  H   UNL     1       0.187  24.347  33.182  1.00  0.00     0.293 HD
ENDBRANCH   2  22
BRANCH   6  24
ATOM     24  O   UNL     1      -0.115  24.261  27.950  1.00  0.00    -0.507 OA
ATOM     25  H   UNL     1      -0.742  23.617  28.408  1.00  0.00     0.293 HD
ENDBRANCH   6  24
BRANCH   8  26
ATOM     26  O   UNL     1      -0.092  28.688  26.130  1.00  0.00    -0.508 OA
ATOM     27  H   UNL     1      -0.553  29.590  26.136  1.00  0.00     0.293 HD
ENDBRANCH   8  26
TORSDOF 6
ENDMDL
