MODEL 1
REMARK VINA RESULT:     2.759      0.000      0.000
REMARK INTER + INTRA:           7.559
REMARK INTER:                   5.017
REMARK INTRA:                   2.542
REMARK UNBOUND:                 2.542
REMARK SMILES CCCCCCCCCCCCCCCC(=O)[O-]
REMARK SMILES IDX 9 1 10 2 11 3 12 4 13 5 14 6 15 7 16 8 17 9 18 10 8 11 7 12
REMARK SMILES IDX 6 13 5 14 4 15 3 16 2 17 1 18
REMARK H PARENT
REMARK Flexibility Score: inf
ROOT
ATOM      1  C   UNL     1      28.767  22.014  27.966  1.00  0.00     0.000 C 
ENDROOT
BRANCH   1   2
ATOM      2  C   UNL     1      30.043  21.730  27.144  1.00  0.00     0.000 C 
BRANCH   2   3
ATOM      3  C   UNL     1      30.900  22.983  26.880  1.00  0.00     0.000 C 
BRANCH   3   4
ATOM      4  C   UNL     1      32.420  22.741  26.885  1.00  0.00     0.000 C 
BRANCH   4   5
ATOM      5  C   UNL     1      33.154  23.248  28.141  1.00  0.00     0.000 C 
BRANCH   5   6
ATOM      6  C   UNL     1      34.619  23.659  27.881  1.00  0.00     0.006 C 
BRANCH   6   7
ATOM      7  C   UNL     1      35.351  22.667  26.968  1.00  0.00     0.053 C 
BRANCH   7   8
ATOM      8  C   UNL     1      36.492  22.030  27.696  1.00  0.00     0.041 C 
ATOM      9  O   UNL     1      37.017  22.610  28.683  1.00  0.00    -0.550 OA
ATOM     10  O   UNL     1      37.009  20.818  27.254  1.00  0.00    -0.550 OA
ENDBRANCH   7   8
ENDBRANCH   6   7
ENDBRANCH   5   6
ENDBRANCH   4   5
ENDBRANCH   3   4
ENDBRANCH   2   3
ENDBRANCH   1   2
BRANCH   1  11
ATOM     11  C   UNL     1      28.951  23.192  28.939  1.00  0.00     0.000 C 
BRANCH  11  12
ATOM     12  C   UNL     1      30.402  23.698  28.986  1.00  0.00    -0.000 C 
BRANCH  12  13
ATOM     13  C   UNL     1      31.127  23.283  30.279  1.00  0.00    -0.000 C 
BRANCH  13  14
ATOM     14  C   UNL     1      30.700  24.125  31.492  1.00  0.00    -0.000 C 
BRANCH  14  15
ATOM     15  C   UNL     1      30.249  23.265  32.682  1.00  0.00    -0.000 C 
BRANCH  15  16
ATOM     16  C   UNL     1      31.445  22.891  33.572  1.00  0.00    -0.000 C 
BRANCH  16  17
ATOM     17  C   UNL     1      31.982  24.087  34.373  1.00  0.00    -0.003 C 
ATOM     18  C   UNL     1      33.451  23.928  34.761  1.00  0.00     0.004 C 
ENDBRANCH  16  17
ENDBRANCH  15  16
ENDBRANCH  14  15
ENDBRANCH  13  14
ENDBRANCH  12  13
ENDBRANCH  11  12
ENDBRANCH   1  11
TORSDOF 14
ENDMDL
MODEL 2
REMARK VINA RESULT:     5.513     11.740     15.206
REMARK INTER + INTRA:          12.567
REMARK INTER:                  13.621
REMARK INTRA:                  -1.054
REMARK UNBOUND:                 2.542
REMARK SMILES CCCCCCCCCCCCCCCC(=O)[O-]
REMARK SMILES IDX 9 1 10 2 11 3 12 4 13 5 14 6 15 7 16 8 17 9 18 10 8 11 7 12
REMARK SMILES IDX 6 13 5 14 4 15 3 16 2 17 1 18
REMARK H PARENT
REMARK Flexibility Score: inf
ROOT
ATOM      1  C   UNL     1      36.337  15.264  43.746  1.00  0.00     0.000 C 
ENDROOT
BRANCH   1   2
ATOM      2  C   UNL     1      34.915  15.863  43.740  1.00  0.00     0.000 C 
BRANCH   2   3
ATOM      3  C   UNL     1      34.765  17.091  42.819  1.00  0.00     0.000 C 
BRANCH   3   4
ATOM      4  C   UNL     1      33.916  16.854  41.558  1.00  0.00     0.000 C 
BRANCH   4   5
ATOM      5  C   UNL     1      34.208  17.815  40.389  1.00  0.00     0.000 C 
BRANCH   5   6
ATOM      6  C   UNL     1      33.283  17.610  39.170  1.00  0.00     0.006 C 
BRANCH   6   7
ATOM      7  C   UNL     1      32.342  18.801  38.944  1.00  0.00     0.053 C 
BRANCH   7   8
ATOM      8  C   UNL     1      31.497  18.576  37.730  1.00  0.00     0.041 C 
ATOM      9  O   UNL     1      31.731  17.602  36.967  1.00  0.00    -0.550 OA
ATOM     10  O   UNL     1      30.484  19.472  37.413  1.00  0.00    -0.550 OA
ENDBRANCH   7   8
ENDBRANCH   6   7
ENDBRANCH   5   6
ENDBRANCH   4   5
ENDBRANCH   3   4
ENDBRANCH   2   3
ENDBRANCH   1   2
BRANCH   1  11
ATOM     11  C   UNL     1      36.383  13.865  43.105  1.00  0.00     0.000 C 
BRANCH  11  12
ATOM     12  C   UNL     1      34.997  13.377  42.653  1.00  0.00    -0.000 C 
BRANCH  12  13
ATOM     13  C   UNL     1      35.079  12.372  41.490  1.00  0.00    -0.000 C 
BRANCH  13  14
ATOM     14  C   UNL     1      34.396  12.890  40.214  1.00  0.00    -0.000 C 
BRANCH  14  15
ATOM     15  C   UNL     1      33.077  12.163  39.910  1.00  0.00    -0.000 C 
BRANCH  15  16
ATOM     16  C   UNL     1      32.905  10.937  40.821  1.00  0.00    -0.000 C 
BRANCH  16  17
ATOM     17  C   UNL     1      32.906   9.615  40.037  1.00  0.00    -0.003 C 
ATOM     18  C   UNL     1      34.313   9.155  39.654  1.00  0.00     0.004 C 
ENDBRANCH  16  17
ENDBRANCH  15  16
ENDBRANCH  14  15
ENDBRANCH  13  14
ENDBRANCH  12  13
ENDBRANCH  11  12
ENDBRANCH   1  11
TORSDOF 14
ENDMDL
MODEL 3
REMARK VINA RESULT:     5.584     11.816     15.169
REMARK INTER + INTRA:          12.697
REMARK INTER:                  13.719
REMARK INTRA:                  -1.023
REMARK UNBOUND:                 2.542
REMARK SMILES CCCCCCCCCCCCCCCC(=O)[O-]
REMARK SMILES IDX 9 1 10 2 11 3 12 4 13 5 14 6 15 7 16 8 17 9 18 10 8 11 7 12
REMARK SMILES IDX 6 13 5 14 4 15 3 16 2 17 1 18
REMARK H PARENT
REMARK Flexibility Score: inf
ROOT
ATOM      1  C   UNL     1      34.730  15.733  43.508  1.00  0.00     0.000 C 
ENDROOT
BRANCH   1   2
ATOM      2  C   UNL     1      36.113  15.073  43.695  1.00  0.00     0.000 C 
BRANCH   2   3
ATOM      3  C   UNL     1      36.220  13.672  43.061  1.00  0.00     0.000 C 
BRANCH   3   4
ATOM      4  C   UNL     1      34.931  13.165  42.390  1.00  0.00     0.000 C 
BRANCH   4   5
ATOM      5  C   UNL     1      34.978  13.114  40.851  1.00  0.00     0.000 C 
BRANCH   5   6
ATOM      6  C   UNL     1      33.790  12.358  40.217  1.00  0.00     0.006 C 
BRANCH   6   7
ATOM      7  C   UNL     1      33.330  11.172  41.073  1.00  0.00     0.053 C 
BRANCH   7   8
ATOM      8  C   UNL     1      33.197   9.941  40.233  1.00  0.00     0.041 C 
ATOM      9  O   UNL     1      32.060   9.453  40.000  1.00  0.00    -0.550 OA
ATOM     10  O   UNL     1      34.333   9.303  39.750  1.00  0.00    -0.550 OA
ENDBRANCH   7   8
ENDBRANCH   6   7
ENDBRANCH   5   6
ENDBRANCH   4   5
ENDBRANCH   3   4
ENDBRANCH   2   3
ENDBRANCH   1   2
BRANCH   1  11
ATOM     11  C   UNL     1      34.838  17.165  42.955  1.00  0.00     0.000 C 
BRANCH  11  12
ATOM     12  C   UNL     1      33.812  17.449  41.845  1.00  0.00    -0.000 C 
BRANCH  12  13
ATOM     13  C   UNL     1      34.205  16.807  40.503  1.00  0.00    -0.000 C 
BRANCH  13  14
ATOM     14  C   UNL     1      34.052  17.774  39.318  1.00  0.00    -0.000 C 
BRANCH  14  15
ATOM     15  C   UNL     1      32.614  18.289  39.155  1.00  0.00    -0.000 C 
BRANCH  15  16
ATOM     16  C   UNL     1      32.072  17.964  37.754  1.00  0.00    -0.000 C 
BRANCH  16  17
ATOM     17  C   UNL     1      30.851  18.819  37.381  1.00  0.00    -0.003 C 
ATOM     18  C   UNL     1      30.878  20.204  38.029  1.00  0.00     0.004 C 
ENDBRANCH  16  17
ENDBRANCH  15  16
ENDBRANCH  14  15
ENDBRANCH  13  14
ENDBRANCH  12  13
ENDBRANCH  11  12
ENDBRANCH   1  11
TORSDOF 14
ENDMDL
