MODEL 1
REMARK VINA RESULT:    -4.444      0.000      0.000
REMARK INTER + INTRA:          -7.376
REMARK INTER:                  -7.042
REMARK INTRA:                  -0.334
REMARK UNBOUND:                -0.334
REMARK SMILES CCCCCCCCCCCC(=O)[O-]
REMARK SMILES IDX 7 1 8 2 9 3 10 4 11 5 12 6 13 7 14 8 6 9 5 10 4 11 3 12 2 13
REMARK SMILES IDX 1 14
REMARK H PARENT
REMARK Flexibility Score: inf
ROOT
ATOM      1  C   UNL     1     -36.241  -8.886   1.806  1.00  0.00     0.000 C 
ENDROOT
BRANCH   1   2
ATOM      2  C   UNL     1     -36.268 -10.398   2.081  1.00  0.00     0.000 C 
BRANCH   2   3
ATOM      3  C   UNL     1     -35.028 -11.121   1.527  1.00  0.00     0.000 C 
BRANCH   3   4
ATOM      4  C   UNL     1     -34.180 -11.770   2.634  1.00  0.00     0.006 C 
BRANCH   4   5
ATOM      5  C   UNL     1     -32.721 -11.984   2.212  1.00  0.00     0.053 C 
BRANCH   5   6
ATOM      6  C   UNL     1     -31.794 -11.347   3.199  1.00  0.00     0.041 C 
ATOM      7  O   UNL     1     -30.657 -10.948   2.835  1.00  0.00    -0.550 OA
ATOM      8  O   UNL     1     -32.205 -11.150   4.511  1.00  0.00    -0.550 OA
ENDBRANCH   5   6
ENDBRANCH   4   5
ENDBRANCH   3   4
ENDBRANCH   2   3
ENDBRANCH   1   2
BRANCH   1   9
ATOM      9  C   UNL     1     -37.333  -8.441   0.820  1.00  0.00     0.000 C 
BRANCH   9  10
ATOM     10  C   UNL     1     -36.710  -7.846  -0.452  1.00  0.00    -0.000 C 
BRANCH  10  11
ATOM     11  C   UNL     1     -37.698  -6.978  -1.249  1.00  0.00    -0.000 C 
BRANCH  11  12
ATOM     12  C   UNL     1     -38.017  -5.611  -0.615  1.00  0.00    -0.000 C 
BRANCH  12  13
ATOM     13  C   UNL     1     -37.177  -4.448  -1.185  1.00  0.00    -0.003 C 
ATOM     14  C   UNL     1     -37.384  -3.144  -0.414  1.00  0.00     0.004 C 
ENDBRANCH  12  13
ENDBRANCH  11  12
ENDBRANCH  10  11
ENDBRANCH   9  10
ENDBRANCH   1   9
TORSDOF 10
ENDMDL
MODEL 2
REMARK VINA RESULT:    -4.358      3.295      6.663
REMARK INTER + INTRA:          -7.239
REMARK INTER:                  -6.425
REMARK INTRA:                  -0.813
REMARK UNBOUND:                -0.334
REMARK SMILES CCCCCCCCCCCC(=O)[O-]
REMARK SMILES IDX 7 1 8 2 9 3 10 4 11 5 12 6 13 7 14 8 6 9 5 10 4 11 3 12 2 13
REMARK SMILES IDX 1 14
REMARK H PARENT
REMARK Flexibility Score: inf
ROOT
ATOM      1  C   UNL     1     -36.009  -9.158   2.092  1.00  0.00     0.000 C 
ENDROOT
BRANCH   1   2
ATOM      2  C   UNL     1     -36.907  -9.102   0.846  1.00  0.00     0.000 C 
BRANCH   2   3
ATOM      3  C   UNL     1     -36.253  -8.339  -0.320  1.00  0.00     0.000 C 
BRANCH   3   4
ATOM      4  C   UNL     1     -36.490  -9.020  -1.677  1.00  0.00     0.006 C 
BRANCH   4   5
ATOM      5  C   UNL     1     -36.362 -10.547  -1.603  1.00  0.00     0.053 C 
BRANCH   5   6
ATOM      6  C   UNL     1     -35.348 -11.034  -2.590  1.00  0.00     0.041 C 
ATOM      7  O   UNL     1     -34.151 -11.206  -2.237  1.00  0.00    -0.550 OA
ATOM      8  O   UNL     1     -35.734 -11.344  -3.888  1.00  0.00    -0.550 OA
ENDBRANCH   5   6
ENDBRANCH   4   5
ENDBRANCH   3   4
ENDBRANCH   2   3
ENDBRANCH   1   2
BRANCH   1   9
ATOM      9  C   UNL     1     -35.678 -10.595   2.523  1.00  0.00     0.000 C 
BRANCH   9  10
ATOM     10  C   UNL     1     -34.676 -11.239   1.553  1.00  0.00    -0.000 C 
BRANCH  10  11
ATOM     11  C   UNL     1     -33.438 -11.809   2.265  1.00  0.00    -0.000 C 
BRANCH  11  12
ATOM     12  C   UNL     1     -33.296 -11.402   3.744  1.00  0.00    -0.000 C 
BRANCH  12  13
ATOM     13  C   UNL     1     -31.858 -11.009   4.146  1.00  0.00    -0.003 C 
ATOM     14  C   UNL     1     -30.869 -11.144   2.988  1.00  0.00     0.004 C 
ENDBRANCH  12  13
ENDBRANCH  11  12
ENDBRANCH  10  11
ENDBRANCH   9  10
ENDBRANCH   1   9
TORSDOF 10
ENDMDL
MODEL 3
REMARK VINA RESULT:    -3.916      1.376      2.452
REMARK INTER + INTRA:          -6.539
REMARK INTER:                  -6.167
REMARK INTRA:                  -0.372
REMARK UNBOUND:                -0.334
REMARK SMILES CCCCCCCCCCCC(=O)[O-]
REMARK SMILES IDX 7 1 8 2 9 3 10 4 11 5 12 6 13 7 14 8 6 9 5 10 4 11 3 12 2 13
REMARK SMILES IDX 1 14
REMARK H PARENT
REMARK Flexibility Score: inf
ROOT
ATOM      1  C   UNL     1     -37.829  -7.358   0.385  1.00  0.00     0.000 C 
ENDROOT
BRANCH   1   2
ATOM      2  C   UNL     1     -37.818  -8.732   1.073  1.00  0.00     0.000 C 
BRANCH   2   3
ATOM      3  C   UNL     1     -36.420  -9.374   1.088  1.00  0.00     0.000 C 
BRANCH   3   4
ATOM      4  C   UNL     1     -35.811  -9.427   2.499  1.00  0.00     0.006 C 
BRANCH   4   5
ATOM      5  C   UNL     1     -35.450 -10.853   2.933  1.00  0.00     0.053 C 
BRANCH   5   6
ATOM      6  C   UNL     1     -34.001 -11.125   2.679  1.00  0.00     0.041 C 
ATOM      7  O   UNL     1     -33.627 -11.582   1.567  1.00  0.00    -0.550 OA
ATOM      8  O   UNL     1     -33.056 -10.827   3.653  1.00  0.00    -0.550 OA
ENDBRANCH   5   6
ENDBRANCH   4   5
ENDBRANCH   3   4
ENDBRANCH   2   3
ENDBRANCH   1   2
BRANCH   1   9
ATOM      9  C   UNL     1     -38.001  -7.456  -1.139  1.00  0.00     0.000 C 
BRANCH   9  10
ATOM     10  C   UNL     1     -37.991  -6.061  -1.781  1.00  0.00    -0.000 C 
BRANCH  10  11
ATOM     11  C   UNL     1     -37.323  -5.000  -0.892  1.00  0.00    -0.000 C 
BRANCH  11  12
ATOM     12  C   UNL     1     -37.254  -3.589  -1.506  1.00  0.00    -0.000 C 
BRANCH  12  13
ATOM     13  C   UNL     1     -37.117  -2.461  -0.461  1.00  0.00    -0.003 C 
ATOM     14  C   UNL     1     -36.630  -1.149  -1.077  1.00  0.00     0.004 C 
ENDBRANCH  12  13
ENDBRANCH  11  12
ENDBRANCH  10  11
ENDBRANCH   9  10
ENDBRANCH   1   9
TORSDOF 10
ENDMDL
MODEL 4
REMARK VINA RESULT:    -3.890     20.016     21.489
REMARK INTER + INTRA:          -6.498
REMARK INTER:                  -5.142
REMARK INTRA:                  -1.356
REMARK UNBOUND:                -0.334
REMARK SMILES CCCCCCCCCCCC(=O)[O-]
REMARK SMILES IDX 7 1 8 2 9 3 10 4 11 5 12 6 13 7 14 8 6 9 5 10 4 11 3 12 2 13
REMARK SMILES IDX 1 14
REMARK H PARENT
REMARK Flexibility Score: inf
ROOT
ATOM      1  C   UNL     1     -24.108   5.159  12.302  1.00  0.00     0.000 C 
ENDROOT
BRANCH   1   2
ATOM      2  C   UNL     1     -22.796   4.755  12.994  1.00  0.00     0.000 C 
BRANCH   2   3
ATOM      3  C   UNL     1     -22.186   3.474  12.400  1.00  0.00     0.000 C 
BRANCH   3   4
ATOM      4  C   UNL     1     -22.699   3.180  10.980  1.00  0.00     0.006 C 
BRANCH   4   5
ATOM      5  C   UNL     1     -22.151   1.865  10.414  1.00  0.00     0.053 C 
BRANCH   5   6
ATOM      6  C   UNL     1     -21.802   2.025   8.967  1.00  0.00     0.041 C 
ATOM      7  O   UNL     1     -20.990   2.917   8.606  1.00  0.00    -0.550 OA
ATOM      8  O   UNL     1     -22.337   1.158   8.023  1.00  0.00    -0.550 OA
ENDBRANCH   5   6
ENDBRANCH   4   5
ENDBRANCH   3   4
ENDBRANCH   2   3
ENDBRANCH   1   2
BRANCH   1   9
ATOM      9  C   UNL     1     -24.342   6.678  12.310  1.00  0.00     0.000 C 
BRANCH   9  10
ATOM     10  C   UNL     1     -23.007   7.436  12.269  1.00  0.00    -0.000 C 
BRANCH  10  11
ATOM     11  C   UNL     1     -22.735   8.091  10.904  1.00  0.00    -0.000 C 
BRANCH  11  12
ATOM     12  C   UNL     1     -21.328   7.836  10.332  1.00  0.00    -0.000 C 
BRANCH  12  13
ATOM     13  C   UNL     1     -21.086   6.373   9.902  1.00  0.00    -0.003 C 
ATOM     14  C   UNL     1     -19.901   5.738  10.629  1.00  0.00     0.004 C 
ENDBRANCH  12  13
ENDBRANCH  11  12
ENDBRANCH  10  11
ENDBRANCH   9  10
ENDBRANCH   1   9
TORSDOF 10
ENDMDL
MODEL 5
REMARK VINA RESULT:    -3.878      2.429      3.809
REMARK INTER + INTRA:          -6.479
REMARK INTER:                  -5.439
REMARK INTRA:                  -1.040
REMARK UNBOUND:                -0.334
REMARK SMILES CCCCCCCCCCCC(=O)[O-]
REMARK SMILES IDX 7 1 8 2 9 3 10 4 11 5 12 6 13 7 14 8 6 9 5 10 4 11 3 12 2 13
REMARK SMILES IDX 1 14
REMARK H PARENT
REMARK Flexibility Score: inf
ROOT
ATOM      1  C   UNL     1     -36.716  -9.086   1.774  1.00  0.00     0.000 C 
ENDROOT
BRANCH   1   2
ATOM      2  C   UNL     1     -35.610  -9.724   2.630  1.00  0.00     0.000 C 
BRANCH   2   3
ATOM      3  C   UNL     1     -35.884 -11.206   2.941  1.00  0.00     0.000 C 
BRANCH   3   4
ATOM      4  C   UNL     1     -34.600 -11.987   3.264  1.00  0.00     0.006 C 
BRANCH   4   5
ATOM      5  C   UNL     1     -33.419 -11.580   2.374  1.00  0.00     0.053 C 
BRANCH   5   6
ATOM      6  C   UNL     1     -32.195 -11.351   3.203  1.00  0.00     0.041 C 
ATOM      7  O   UNL     1     -31.060 -11.311   2.660  1.00  0.00    -0.550 OA
ATOM      8  O   UNL     1     -32.313 -11.134   4.570  1.00  0.00    -0.550 OA
ENDBRANCH   5   6
ENDBRANCH   4   5
ENDBRANCH   3   4
ENDBRANCH   2   3
ENDBRANCH   1   2
BRANCH   1   9
ATOM      9  C   UNL     1     -36.223  -8.666   0.381  1.00  0.00     0.000 C 
BRANCH   9  10
ATOM     10  C   UNL     1     -37.038  -9.360  -0.720  1.00  0.00    -0.000 C 
BRANCH  10  11
ATOM     11  C   UNL     1     -36.613 -10.821  -0.944  1.00  0.00    -0.000 C 
BRANCH  11  12
ATOM     12  C   UNL     1     -35.093 -11.067  -0.909  1.00  0.00    -0.000 C 
BRANCH  12  13
ATOM     13  C   UNL     1     -34.501 -11.504  -2.266  1.00  0.00    -0.003 C 
ATOM     14  C   UNL     1     -35.514 -11.401  -3.407  1.00  0.00     0.004 C 
ENDBRANCH  12  13
ENDBRANCH  11  12
ENDBRANCH  10  11
ENDBRANCH   9  10
ENDBRANCH   1   9
TORSDOF 10
ENDMDL
MODEL 6
REMARK VINA RESULT:    -3.847     19.969     21.479
REMARK INTER + INTRA:          -6.430
REMARK INTER:                  -5.424
REMARK INTRA:                  -1.005
REMARK UNBOUND:                -0.334
REMARK SMILES CCCCCCCCCCCC(=O)[O-]
REMARK SMILES IDX 7 1 8 2 9 3 10 4 11 5 12 6 13 7 14 8 6 9 5 10 4 11 3 12 2 13
REMARK SMILES IDX 1 14
REMARK H PARENT
REMARK Flexibility Score: inf
ROOT
ATOM      1  C   UNL     1     -20.889   5.579  11.327  1.00  0.00     0.000 C 
ENDROOT
BRANCH   1   2
ATOM      2  C   UNL     1     -21.198   4.765  12.593  1.00  0.00     0.000 C 
BRANCH   2   3
ATOM      3  C   UNL     1     -21.447   3.276  12.291  1.00  0.00     0.000 C 
BRANCH   3   4
ATOM      4  C   UNL     1     -22.482   3.067  11.173  1.00  0.00     0.006 C 
BRANCH   4   5
ATOM      5  C   UNL     1     -22.288   1.740  10.429  1.00  0.00     0.053 C 
BRANCH   5   6
ATOM      6  C   UNL     1     -21.992   1.992   8.984  1.00  0.00     0.041 C 
ATOM      7  O   UNL     1     -22.674   1.427   8.089  1.00  0.00    -0.550 OA
ATOM      8  O   UNL     1     -20.993   2.888   8.625  1.00  0.00    -0.550 OA
ENDBRANCH   5   6
ENDBRANCH   4   5
ENDBRANCH   3   4
ENDBRANCH   2   3
ENDBRANCH   1   2
BRANCH   1   9
ATOM      9  C   UNL     1     -21.555   6.964  11.333  1.00  0.00     0.000 C 
BRANCH   9  10
ATOM     10  C   UNL     1     -21.774   7.459  12.770  1.00  0.00    -0.000 C 
BRANCH  10  11
ATOM     11  C   UNL     1     -23.261   7.626  13.124  1.00  0.00    -0.000 C 
BRANCH  11  12
ATOM     12  C   UNL     1     -24.243   7.161  12.033  1.00  0.00    -0.000 C 
BRANCH  12  13
ATOM     13  C   UNL     1     -24.907   5.799  12.331  1.00  0.00    -0.003 C 
ATOM     14  C   UNL     1     -26.391   5.780  11.967  1.00  0.00     0.004 C 
ENDBRANCH  12  13
ENDBRANCH  11  12
ENDBRANCH  10  11
ENDBRANCH   9  10
ENDBRANCH   1   9
TORSDOF 10
ENDMDL
MODEL 7
REMARK VINA RESULT:    -3.831     18.888     20.993
REMARK INTER + INTRA:          -6.404
REMARK INTER:                  -5.792
REMARK INTRA:                  -0.612
REMARK UNBOUND:                -0.334
REMARK SMILES CCCCCCCCCCCC(=O)[O-]
REMARK SMILES IDX 7 1 8 2 9 3 10 4 11 5 12 6 13 7 14 8 6 9 5 10 4 11 3 12 2 13
REMARK SMILES IDX 1 14
REMARK H PARENT
REMARK Flexibility Score: inf
ROOT
ATOM      1  C   UNL     1     -20.303   4.805  -3.410  1.00  0.00     0.000 C 
ENDROOT
BRANCH   1   2
ATOM      2  C   UNL     1     -20.543   6.315  -3.255  1.00  0.00     0.000 C 
BRANCH   2   3
ATOM      3  C   UNL     1     -20.337   6.801  -1.810  1.00  0.00     0.000 C 
BRANCH   3   4
ATOM      4  C   UNL     1     -20.516   5.675  -0.778  1.00  0.00     0.006 C 
BRANCH   4   5
ATOM      5  C   UNL     1     -21.802   5.825   0.044  1.00  0.00     0.053 C 
BRANCH   5   6
ATOM      6  C   UNL     1     -22.955   5.195  -0.673  1.00  0.00     0.041 C 
ATOM      7  O   UNL     1     -23.929   5.899  -1.048  1.00  0.00    -0.550 OA
ATOM      8  O   UNL     1     -22.931   3.838  -0.969  1.00  0.00    -0.550 OA
ENDBRANCH   5   6
ENDBRANCH   4   5
ENDBRANCH   3   4
ENDBRANCH   2   3
ENDBRANCH   1   2
BRANCH   1   9
ATOM      9  C   UNL     1     -19.404   4.465  -4.608  1.00  0.00     0.000 C 
BRANCH   9  10
ATOM     10  C   UNL     1     -18.315   3.460  -4.206  1.00  0.00    -0.000 C 
BRANCH  10  11
ATOM     11  C   UNL     1     -18.872   2.052  -3.937  1.00  0.00    -0.000 C 
BRANCH  11  12
ATOM     12  C   UNL     1     -17.900   0.899  -4.252  1.00  0.00    -0.000 C 
BRANCH  12  13
ATOM     13  C   UNL     1     -18.603  -0.445  -4.541  1.00  0.00    -0.003 C 
ATOM     14  C   UNL     1     -19.665  -0.787  -3.495  1.00  0.00     0.004 C 
ENDBRANCH  12  13
ENDBRANCH  11  12
ENDBRANCH  10  11
ENDBRANCH   9  10
ENDBRANCH   1   9
TORSDOF 10
ENDMDL
MODEL 8
REMARK VINA RESULT:    -3.762     19.576     21.235
REMARK INTER + INTRA:          -6.295
REMARK INTER:                  -5.537
REMARK INTRA:                  -0.758
REMARK UNBOUND:                -0.334
REMARK SMILES CCCCCCCCCCCC(=O)[O-]
REMARK SMILES IDX 7 1 8 2 9 3 10 4 11 5 12 6 13 7 14 8 6 9 5 10 4 11 3 12 2 13
REMARK SMILES IDX 1 14
REMARK H PARENT
REMARK Flexibility Score: inf
ROOT
ATOM      1  C   UNL     1     -19.545   3.061  12.930  1.00  0.00     0.000 C 
ENDROOT
BRANCH   1   2
ATOM      2  C   UNL     1     -19.097   2.179  11.754  1.00  0.00     0.000 C 
BRANCH   2   3
ATOM      3  C   UNL     1     -18.856   2.988  10.468  1.00  0.00     0.000 C 
BRANCH   3   4
ATOM      4  C   UNL     1     -19.492   2.331   9.231  1.00  0.00     0.006 C 
BRANCH   4   5
ATOM      5  C   UNL     1     -20.881   2.896   8.910  1.00  0.00     0.053 C 
BRANCH   5   6
ATOM      6  C   UNL     1     -21.916   1.820   9.007  1.00  0.00     0.041 C 
ATOM      7  O   UNL     1     -22.340   1.253   7.965  1.00  0.00    -0.550 OA
ATOM      8  O   UNL     1     -22.378   1.409  10.251  1.00  0.00    -0.550 OA
ENDBRANCH   5   6
ENDBRANCH   4   5
ENDBRANCH   3   4
ENDBRANCH   2   3
ENDBRANCH   1   2
BRANCH   1   9
ATOM      9  C   UNL     1     -21.066   3.276  12.966  1.00  0.00     0.000 C 
BRANCH   9  10
ATOM     10  C   UNL     1     -21.404   4.767  13.125  1.00  0.00    -0.000 C 
BRANCH  10  11
ATOM     11  C   UNL     1     -22.380   5.274  12.051  1.00  0.00    -0.000 C 
BRANCH  11  12
ATOM     12  C   UNL     1     -23.866   4.984  12.337  1.00  0.00    -0.000 C 
BRANCH  12  13
ATOM     13  C   UNL     1     -24.779   6.222  12.200  1.00  0.00    -0.003 C 
ATOM     14  C   UNL     1     -26.264   5.857  12.215  1.00  0.00     0.004 C 
ENDBRANCH  12  13
ENDBRANCH  11  12
ENDBRANCH  10  11
ENDBRANCH   9  10
ENDBRANCH   1   9
TORSDOF 10
ENDMDL
MODEL 9
REMARK VINA RESULT:    -3.755     19.552     21.032
REMARK INTER + INTRA:          -6.284
REMARK INTER:                  -5.328
REMARK INTRA:                  -0.956
REMARK UNBOUND:                -0.334
REMARK SMILES CCCCCCCCCCCC(=O)[O-]
REMARK SMILES IDX 7 1 8 2 9 3 10 4 11 5 12 6 13 7 14 8 6 9 5 10 4 11 3 12 2 13
REMARK SMILES IDX 1 14
REMARK H PARENT
REMARK Flexibility Score: inf
ROOT
ATOM      1  C   UNL     1     -21.818   3.526  12.117  1.00  0.00     0.000 C 
ENDROOT
BRANCH   1   2
ATOM      2  C   UNL     1     -22.504   3.180  10.786  1.00  0.00     0.000 C 
BRANCH   2   3
ATOM      3  C   UNL     1     -22.357   1.695  10.414  1.00  0.00     0.000 C 
BRANCH   3   4
ATOM      4  C   UNL     1     -21.615   1.491   9.083  1.00  0.00     0.006 C 
BRANCH   4   5
ATOM      5  C   UNL     1     -20.289   2.260   9.021  1.00  0.00     0.053 C 
BRANCH   5   6
ATOM      6  C   UNL     1     -19.217   1.507   9.743  1.00  0.00     0.041 C 
ATOM      7  O   UNL     1     -18.766   0.432   9.267  1.00  0.00    -0.550 OA
ATOM      8  O   UNL     1     -18.680   2.018  10.918  1.00  0.00    -0.550 OA
ENDBRANCH   5   6
ENDBRANCH   4   5
ENDBRANCH   3   4
ENDBRANCH   2   3
ENDBRANCH   1   2
BRANCH   1   9
ATOM      9  C   UNL     1     -21.187   4.927  12.115  1.00  0.00     0.000 C 
BRANCH   9  10
ATOM     10  C   UNL     1     -22.098   5.935  11.399  1.00  0.00    -0.000 C 
BRANCH  10  11
ATOM     11  C   UNL     1     -22.700   6.978  12.355  1.00  0.00    -0.000 C 
BRANCH  11  12
ATOM     12  C   UNL     1     -24.238   7.060  12.339  1.00  0.00    -0.000 C 
BRANCH  12  13
ATOM     13  C   UNL     1     -24.933   5.691  12.170  1.00  0.00    -0.003 C 
ATOM     14  C   UNL     1     -26.422   5.827  11.848  1.00  0.00     0.004 C 
ENDBRANCH  12  13
ENDBRANCH  11  12
ENDBRANCH  10  11
ENDBRANCH   9  10
ENDBRANCH   1   9
TORSDOF 10
ENDMDL
