MODEL 1
REMARK VINA RESULT:    -1.785      0.000      0.000
REMARK INTER + INTRA:          -7.520
REMARK INTER:                  -4.497
REMARK INTRA:                  -3.022
REMARK UNBOUND:                -3.022
REMARK SMILES CCCCCCCCCCCCCCCCCCCCCCCCCCCC(=O)[O-]
REMARK SMILES IDX 15 1 16 2 17 3 18 4 19 5 20 6 21 7 22 8 23 9 24 10 25 11
REMARK SMILES IDX 26 12 27 13 28 14 29 15 30 16 14 17 13 18 12 19 11 20 10 21
REMARK SMILES IDX 9 22 8 23 7 24 6 25 5 26 4 27 3 28 2 29 1 30
REMARK H PARENT
REMARK Flexibility Score: inf
ROOT
ATOM      1  C   UNL     1     -10.093   1.881  -8.294  1.00  0.00     0.000 C 
ENDROOT
BRANCH   1   2
ATOM      2  C   UNL     1      -9.829   0.383  -8.080  1.00  0.00     0.000 C 
BRANCH   2   3
ATOM      3  C   UNL     1      -9.112   0.099  -6.743  1.00  0.00     0.000 C 
BRANCH   3   4
ATOM      4  C   UNL     1      -9.623   0.961  -5.578  1.00  0.00     0.000 C 
BRANCH   4   5
ATOM      5  C   UNL     1      -8.565   1.955  -5.068  1.00  0.00     0.000 C 
BRANCH   5   6
ATOM      6  C   UNL     1      -7.851   1.465  -3.799  1.00  0.00     0.000 C 
BRANCH   6   7
ATOM      7  C   UNL     1      -7.632   2.582  -2.767  1.00  0.00     0.000 C 
BRANCH   7   8
ATOM      8  C   UNL     1      -6.201   2.556  -2.216  1.00  0.00     0.000 C 
BRANCH   8   9
ATOM      9  C   UNL     1      -5.340   1.535  -2.976  1.00  0.00     0.000 C 
BRANCH   9  10
ATOM     10  C   UNL     1      -4.412   0.733  -2.041  1.00  0.00     0.000 C 
BRANCH  10  11
ATOM     11  C   UNL     1      -4.888   0.695  -0.578  1.00  0.00     0.000 C 
BRANCH  11  12
ATOM     12  C   UNL     1      -3.822   1.201   0.407  1.00  0.00     0.006 C 
BRANCH  12  13
ATOM     13  C   UNL     1      -4.102   2.632   0.887  1.00  0.00     0.053 C 
BRANCH  13  14
ATOM     14  C   UNL     1      -5.261   2.694   1.836  1.00  0.00     0.041 C 
ATOM     15  O   UNL     1      -6.444   2.738   1.397  1.00  0.00    -0.550 OA
ATOM     16  O   UNL     1      -5.034   2.718   3.206  1.00  0.00    -0.550 OA
ENDBRANCH  13  14
ENDBRANCH  12  13
ENDBRANCH  11  12
ENDBRANCH  10  11
ENDBRANCH   9  10
ENDBRANCH   8   9
ENDBRANCH   7   8
ENDBRANCH   6   7
ENDBRANCH   5   6
ENDBRANCH   4   5
ENDBRANCH   3   4
ENDBRANCH   2   3
ENDBRANCH   1   2
BRANCH   1  17
ATOM     17  C   UNL     1      -9.269   2.418  -9.469  1.00  0.00     0.000 C 
BRANCH  17  18
ATOM     18  C   UNL     1      -7.842   2.780  -9.030  1.00  0.00     0.000 C 
BRANCH  18  19
ATOM     19  C   UNL     1      -7.596   4.299  -8.995  1.00  0.00     0.000 C 
BRANCH  19  20
ATOM     20  C   UNL     1      -8.869   5.166  -9.085  1.00  0.00     0.000 C 
BRANCH  20  21
ATOM     21  C   UNL     1      -9.339   5.773  -7.748  1.00  0.00     0.000 C 
BRANCH  21  22
ATOM     22  C   UNL     1      -8.968   4.950  -6.500  1.00  0.00    -0.000 C 
BRANCH  22  23
ATOM     23  C   UNL     1      -9.403   5.630  -5.194  1.00  0.00    -0.000 C 
BRANCH  23  24
ATOM     24  C   UNL     1      -9.897   7.061  -5.450  1.00  0.00    -0.000 C 
BRANCH  24  25
ATOM     25  C   UNL     1      -9.032   8.120  -4.748  1.00  0.00    -0.000 C 
BRANCH  25  26
ATOM     26  C   UNL     1      -9.095   9.492  -5.438  1.00  0.00    -0.000 C 
BRANCH  26  27
ATOM     27  C   UNL     1      -9.397   9.343  -6.935  1.00  0.00    -0.000 C 
BRANCH  27  28
ATOM     28  C   UNL     1      -8.292   9.993  -7.783  1.00  0.00    -0.000 C 
BRANCH  28  29
ATOM     29  C   UNL     1      -7.036   9.116  -7.888  1.00  0.00    -0.003 C 
ATOM     30  C   UNL     1      -6.979   8.319  -9.190  1.00  0.00     0.004 C 
ENDBRANCH  28  29
ENDBRANCH  27  28
ENDBRANCH  26  27
ENDBRANCH  25  26
ENDBRANCH  24  25
ENDBRANCH  23  24
ENDBRANCH  22  23
ENDBRANCH  21  22
ENDBRANCH  20  21
ENDBRANCH  19  20
ENDBRANCH  18  19
ENDBRANCH  17  18
ENDBRANCH   1  17
TORSDOF 26
ENDMDL
MODEL 2
REMARK VINA RESULT:    -1.148      3.579      8.621
REMARK INTER + INTRA:          -5.915
REMARK INTER:                  -3.601
REMARK INTRA:                  -2.314
REMARK UNBOUND:                -3.022
REMARK SMILES CCCCCCCCCCCCCCCCCCCCCCCCCCCC(=O)[O-]
REMARK SMILES IDX 15 1 16 2 17 3 18 4 19 5 20 6 21 7 22 8 23 9 24 10 25 11
REMARK SMILES IDX 26 12 27 13 28 14 29 15 30 16 14 17 13 18 12 19 11 20 10 21
REMARK SMILES IDX 9 22 8 23 7 24 6 25 5 26 4 27 3 28 2 29 1 30
REMARK H PARENT
REMARK Flexibility Score: inf
ROOT
ATOM      1  C   UNL     1      -9.154   0.563  -6.202  1.00  0.00     0.000 C 
ENDROOT
BRANCH   1   2
ATOM      2  C   UNL     1      -9.797  -0.305  -7.294  1.00  0.00     0.000 C 
BRANCH   2   3
ATOM      3  C   UNL     1      -9.870   0.421  -8.654  1.00  0.00     0.000 C 
BRANCH   3   4
ATOM      4  C   UNL     1      -8.535   0.430  -9.417  1.00  0.00     0.000 C 
BRANCH   4   5
ATOM      5  C   UNL     1      -8.192   1.814  -9.993  1.00  0.00     0.000 C 
BRANCH   5   6
ATOM      6  C   UNL     1      -9.331   2.831  -9.819  1.00  0.00     0.000 C 
BRANCH   6   7
ATOM      7  C   UNL     1      -8.849   4.288  -9.897  1.00  0.00     0.000 C 
BRANCH   7   8
ATOM      8  C   UNL     1      -9.941   5.259  -9.432  1.00  0.00     0.000 C 
BRANCH   8   9
ATOM      9  C   UNL     1      -9.738   5.647  -7.959  1.00  0.00     0.000 C 
BRANCH   9  10
ATOM     10  C   UNL     1      -8.258   5.584  -7.531  1.00  0.00     0.000 C 
BRANCH  10  11
ATOM     11  C   UNL     1      -7.846   6.701  -6.555  1.00  0.00     0.000 C 
BRANCH  11  12
ATOM     12  C   UNL     1      -8.455   8.064  -6.920  1.00  0.00     0.006 C 
BRANCH  12  13
ATOM     13  C   UNL     1      -7.417   9.027  -7.514  1.00  0.00     0.053 C 
BRANCH  13  14
ATOM     14  C   UNL     1      -7.343   8.927  -9.008  1.00  0.00     0.041 C 
ATOM     15  O   UNL     1      -7.246   7.800  -9.569  1.00  0.00    -0.550 OA
ATOM     16  O   UNL     1      -7.366  10.081  -9.782  1.00  0.00    -0.550 OA
ENDBRANCH  13  14
ENDBRANCH  12  13
ENDBRANCH  11  12
ENDBRANCH  10  11
ENDBRANCH   9  10
ENDBRANCH   8   9
ENDBRANCH   7   8
ENDBRANCH   6   7
ENDBRANCH   5   6
ENDBRANCH   4   5
ENDBRANCH   3   4
ENDBRANCH   2   3
ENDBRANCH   1   2
BRANCH   1  17
ATOM     17  C   UNL     1     -10.043   1.766  -5.868  1.00  0.00     0.000 C 
BRANCH  17  18
ATOM     18  C   UNL     1      -9.201   2.990  -5.479  1.00  0.00     0.000 C 
BRANCH  18  19
ATOM     19  C   UNL     1      -9.532   3.521  -4.073  1.00  0.00     0.000 C 
BRANCH  19  20
ATOM     20  C   UNL     1      -8.613   3.002  -2.949  1.00  0.00     0.000 C 
BRANCH  20  21
ATOM     21  C   UNL     1      -7.499   2.041  -3.410  1.00  0.00     0.000 C 
BRANCH  21  22
ATOM     22  C   UNL     1      -6.188   2.143  -2.609  1.00  0.00    -0.000 C 
BRANCH  22  23
ATOM     23  C   UNL     1      -5.047   1.331  -3.241  1.00  0.00    -0.000 C 
BRANCH  23  24
ATOM     24  C   UNL     1      -4.193   0.644  -2.166  1.00  0.00    -0.000 C 
BRANCH  24  25
ATOM     25  C   UNL     1      -4.878   0.622  -0.790  1.00  0.00    -0.000 C 
BRANCH  25  26
ATOM     26  C   UNL     1      -3.921   0.988   0.356  1.00  0.00    -0.000 C 
BRANCH  26  27
ATOM     27  C   UNL     1      -4.659   1.742   1.470  1.00  0.00    -0.000 C 
BRANCH  27  28
ATOM     28  C   UNL     1      -5.868   2.505   0.906  1.00  0.00    -0.000 C 
BRANCH  28  29
ATOM     29  C   UNL     1      -5.481   3.866   0.312  1.00  0.00    -0.003 C 
ATOM     30  C   UNL     1      -3.975   4.125   0.357  1.00  0.00     0.004 C 
ENDBRANCH  28  29
ENDBRANCH  27  28
ENDBRANCH  26  27
ENDBRANCH  25  26
ENDBRANCH  24  25
ENDBRANCH  23  24
ENDBRANCH  22  23
ENDBRANCH  21  22
ENDBRANCH  20  21
ENDBRANCH  19  20
ENDBRANCH  18  19
ENDBRANCH  17  18
ENDBRANCH   1  17
TORSDOF 26
ENDMDL
MODEL 3
REMARK VINA RESULT:    -0.856      3.365      8.898
REMARK INTER + INTRA:          -5.179
REMARK INTER:                  -3.930
REMARK INTRA:                  -1.248
REMARK UNBOUND:                -3.022
REMARK SMILES CCCCCCCCCCCCCCCCCCCCCCCCCCCC(=O)[O-]
REMARK SMILES IDX 15 1 16 2 17 3 18 4 19 5 20 6 21 7 22 8 23 9 24 10 25 11
REMARK SMILES IDX 26 12 27 13 28 14 29 15 30 16 14 17 13 18 12 19 11 20 10 21
REMARK SMILES IDX 9 22 8 23 7 24 6 25 5 26 4 27 3 28 2 29 1 30
REMARK H PARENT
REMARK Flexibility Score: inf
ROOT
ATOM      1  C   UNL     1      -9.267   2.959  -8.382  1.00  0.00     0.000 C 
ENDROOT
BRANCH   1   2
ATOM      2  C   UNL     1      -8.263   1.993  -9.027  1.00  0.00     0.000 C 
BRANCH   2   3
ATOM      3  C   UNL     1      -7.139   2.732  -9.784  1.00  0.00     0.000 C 
BRANCH   3   4
ATOM      4  C   UNL     1      -7.227   4.263  -9.669  1.00  0.00     0.000 C 
BRANCH   4   5
ATOM      5  C   UNL     1      -7.614   4.729  -8.255  1.00  0.00     0.000 C 
BRANCH   5   6
ATOM      6  C   UNL     1      -7.522   6.254  -8.085  1.00  0.00     0.000 C 
BRANCH   6   7
ATOM      7  C   UNL     1      -7.485   6.690  -6.613  1.00  0.00     0.000 C 
BRANCH   7   8
ATOM      8  C   UNL     1      -8.866   6.557  -5.959  1.00  0.00     0.000 C 
BRANCH   8   9
ATOM      9  C   UNL     1      -9.068   7.634  -4.882  1.00  0.00     0.000 C 
BRANCH   9  10
ATOM     10  C   UNL     1      -9.663   8.936  -5.454  1.00  0.00     0.000 C 
BRANCH  10  11
ATOM     11  C   UNL     1     -10.125   8.818  -6.917  1.00  0.00     0.000 C 
BRANCH  11  12
ATOM     12  C   UNL     1      -9.856  10.093  -7.731  1.00  0.00     0.006 C 
BRANCH  12  13
ATOM     13  C   UNL     1      -8.992   9.823  -8.972  1.00  0.00     0.053 C 
BRANCH  13  14
ATOM     14  C   UNL     1      -7.526   9.890  -8.666  1.00  0.00     0.041 C 
ATOM     15  O   UNL     1      -7.128  10.040  -7.477  1.00  0.00    -0.550 OA
ATOM     16  O   UNL     1      -6.598   9.802  -9.696  1.00  0.00    -0.550 OA
ENDBRANCH  13  14
ENDBRANCH  12  13
ENDBRANCH  11  12
ENDBRANCH  10  11
ENDBRANCH   9  10
ENDBRANCH   8   9
ENDBRANCH   7   8
ENDBRANCH   6   7
ENDBRANCH   5   6
ENDBRANCH   4   5
ENDBRANCH   3   4
ENDBRANCH   2   3
ENDBRANCH   1   2
BRANCH   1  17
ATOM     17  C   UNL     1     -10.117   2.239  -7.329  1.00  0.00     0.000 C 
BRANCH  17  18
ATOM     18  C   UNL     1     -10.066   2.967  -5.978  1.00  0.00     0.000 C 
BRANCH  18  19
ATOM     19  C   UNL     1      -9.881   2.008  -4.789  1.00  0.00     0.000 C 
BRANCH  19  20
ATOM     20  C   UNL     1      -8.753   0.970  -4.961  1.00  0.00     0.000 C 
BRANCH  20  21
ATOM     21  C   UNL     1      -7.499   1.222  -4.100  1.00  0.00     0.000 C 
BRANCH  21  22
ATOM     22  C   UNL     1      -7.710   2.191  -2.923  1.00  0.00    -0.000 C 
BRANCH  22  23
ATOM     23  C   UNL     1      -6.395   2.554  -2.214  1.00  0.00    -0.000 C 
BRANCH  23  24
ATOM     24  C   UNL     1      -5.195   1.876  -2.890  1.00  0.00    -0.000 C 
BRANCH  24  25
ATOM     25  C   UNL     1      -4.587   0.756  -2.031  1.00  0.00    -0.000 C 
BRANCH  25  26
ATOM     26  C   UNL     1      -5.115   0.760  -0.588  1.00  0.00    -0.000 C 
BRANCH  26  27
ATOM     27  C   UNL     1      -4.059   1.303   0.383  1.00  0.00    -0.000 C 
BRANCH  27  28
ATOM     28  C   UNL     1      -4.308   2.789   0.688  1.00  0.00    -0.000 C 
BRANCH  28  29
ATOM     29  C   UNL     1      -5.612   3.019   1.467  1.00  0.00    -0.003 C 
ATOM     30  C   UNL     1      -5.592   2.379   2.855  1.00  0.00     0.004 C 
ENDBRANCH  28  29
ENDBRANCH  27  28
ENDBRANCH  26  27
ENDBRANCH  25  26
ENDBRANCH  24  25
ENDBRANCH  23  24
ENDBRANCH  22  23
ENDBRANCH  21  22
ENDBRANCH  20  21
ENDBRANCH  19  20
ENDBRANCH  18  19
ENDBRANCH  17  18
ENDBRANCH   1  17
TORSDOF 26
ENDMDL
MODEL 4
REMARK VINA RESULT:    -0.439      2.078      3.662
REMARK INTER + INTRA:          -4.130
REMARK INTER:                  -2.578
REMARK INTRA:                  -1.552
REMARK UNBOUND:                -3.022
REMARK SMILES CCCCCCCCCCCCCCCCCCCCCCCCCCCC(=O)[O-]
REMARK SMILES IDX 15 1 16 2 17 3 18 4 19 5 20 6 21 7 22 8 23 9 24 10 25 11
REMARK SMILES IDX 26 12 27 13 28 14 29 15 30 16 14 17 13 18 12 19 11 20 10 21
REMARK SMILES IDX 9 22 8 23 7 24 6 25 5 26 4 27 3 28 2 29 1 30
REMARK H PARENT
REMARK Flexibility Score: inf
ROOT
ATOM      1  C   UNL     1      -9.999   1.900  -6.191  1.00  0.00     0.000 C 
ENDROOT
BRANCH   1   2
ATOM      2  C   UNL     1      -9.016   3.079  -6.129  1.00  0.00     0.000 C 
BRANCH   2   3
ATOM      3  C   UNL     1      -9.143   3.880  -4.816  1.00  0.00     0.000 C 
BRANCH   3   4
ATOM      4  C   UNL     1      -9.232   2.994  -3.563  1.00  0.00     0.000 C 
BRANCH   4   5
ATOM      5  C   UNL     1      -7.933   2.215  -3.295  1.00  0.00     0.000 C 
BRANCH   5   6
ATOM      6  C   UNL     1      -6.852   3.074  -2.619  1.00  0.00     0.000 C 
BRANCH   6   7
ATOM      7  C   UNL     1      -6.686   2.758  -1.124  1.00  0.00     0.000 C 
BRANCH   7   8
ATOM      8  C   UNL     1      -5.591   3.626  -0.493  1.00  0.00     0.000 C 
BRANCH   8   9
ATOM      9  C   UNL     1      -5.197   3.089   0.892  1.00  0.00     0.000 C 
BRANCH   9  10
ATOM     10  C   UNL     1      -5.189   1.548   0.947  1.00  0.00     0.000 C 
BRANCH  10  11
ATOM     11  C   UNL     1      -3.861   0.917   0.494  1.00  0.00     0.000 C 
BRANCH  11  12
ATOM     12  C   UNL     1      -3.989   0.145  -0.829  1.00  0.00     0.006 C 
BRANCH  12  13
ATOM     13  C   UNL     1      -4.623   0.994  -1.941  1.00  0.00     0.053 C 
BRANCH  13  14
ATOM     14  C   UNL     1      -4.068   0.661  -3.293  1.00  0.00     0.041 C 
ATOM     15  O   UNL     1      -2.856   0.330  -3.422  1.00  0.00    -0.550 OA
ATOM     16  O   UNL     1      -4.886   0.730  -4.414  1.00  0.00    -0.550 OA
ENDBRANCH  13  14
ENDBRANCH  12  13
ENDBRANCH  11  12
ENDBRANCH  10  11
ENDBRANCH   9  10
ENDBRANCH   8   9
ENDBRANCH   7   8
ENDBRANCH   6   7
ENDBRANCH   5   6
ENDBRANCH   4   5
ENDBRANCH   3   4
ENDBRANCH   2   3
ENDBRANCH   1   2
BRANCH   1  17
ATOM     17  C   UNL     1     -10.025   1.287  -7.596  1.00  0.00     0.000 C 
BRANCH  17  18
ATOM     18  C   UNL     1      -8.728   0.520  -7.894  1.00  0.00     0.000 C 
BRANCH  18  19
ATOM     19  C   UNL     1      -7.889   1.175  -9.006  1.00  0.00     0.000 C 
BRANCH  19  20
ATOM     20  C   UNL     1      -8.707   1.867 -10.115  1.00  0.00     0.000 C 
BRANCH  20  21
ATOM     21  C   UNL     1      -8.654   3.408 -10.098  1.00  0.00     0.000 C 
BRANCH  21  22
ATOM     22  C   UNL     1      -7.487   4.004  -9.289  1.00  0.00    -0.000 C 
BRANCH  22  23
ATOM     23  C   UNL     1      -7.448   5.538  -9.352  1.00  0.00    -0.000 C 
BRANCH  23  24
ATOM     24  C   UNL     1      -8.863   6.132  -9.303  1.00  0.00    -0.000 C 
BRANCH  24  25
ATOM     25  C   UNL     1      -8.858   7.664  -9.179  1.00  0.00    -0.000 C 
BRANCH  25  26
ATOM     26  C   UNL     1      -7.458   8.233  -8.898  1.00  0.00    -0.000 C 
BRANCH  26  27
ATOM     27  C   UNL     1      -7.379   8.832  -7.488  1.00  0.00    -0.000 C 
BRANCH  27  28
ATOM     28  C   UNL     1      -8.752   9.355  -7.037  1.00  0.00    -0.000 C 
BRANCH  28  29
ATOM     29  C   UNL     1      -9.200   8.755  -5.697  1.00  0.00    -0.003 C 
ATOM     30  C   UNL     1      -8.610   7.368  -5.443  1.00  0.00     0.004 C 
ENDBRANCH  28  29
ENDBRANCH  27  28
ENDBRANCH  26  27
ENDBRANCH  25  26
ENDBRANCH  24  25
ENDBRANCH  23  24
ENDBRANCH  22  23
ENDBRANCH  21  22
ENDBRANCH  20  21
ENDBRANCH  19  20
ENDBRANCH  18  19
ENDBRANCH  17  18
ENDBRANCH   1  17
TORSDOF 26
ENDMDL
MODEL 5
REMARK VINA RESULT:     0.186      1.312      2.687
REMARK INTER + INTRA:          -2.553
REMARK INTER:                  -0.936
REMARK INTRA:                  -1.616
REMARK UNBOUND:                -3.022
REMARK SMILES CCCCCCCCCCCCCCCCCCCCCCCCCCCC(=O)[O-]
REMARK SMILES IDX 15 1 16 2 17 3 18 4 19 5 20 6 21 7 22 8 23 9 24 10 25 11
REMARK SMILES IDX 26 12 27 13 28 14 29 15 30 16 14 17 13 18 12 19 11 20 10 21
REMARK SMILES IDX 9 22 8 23 7 24 6 25 5 26 4 27 3 28 2 29 1 30
REMARK H PARENT
REMARK Flexibility Score: inf
ROOT
ATOM      1  C   UNL     1     -10.125   1.426  -7.156  1.00  0.00     0.000 C 
ENDROOT
BRANCH   1   2
ATOM      2  C   UNL     1     -10.106   1.766  -5.658  1.00  0.00     0.000 C 
BRANCH   2   3
ATOM      3  C   UNL     1      -9.753   3.245  -5.396  1.00  0.00     0.000 C 
BRANCH   3   4
ATOM      4  C   UNL     1      -9.936   3.668  -3.929  1.00  0.00     0.000 C 
BRANCH   4   5
ATOM      5  C   UNL     1      -8.688   3.393  -3.073  1.00  0.00     0.000 C 
BRANCH   5   6
ATOM      6  C   UNL     1      -8.256   1.918  -3.107  1.00  0.00     0.000 C 
BRANCH   6   7
ATOM      7  C   UNL     1      -6.793   1.733  -3.538  1.00  0.00     0.000 C 
BRANCH   7   8
ATOM      8  C   UNL     1      -5.831   2.063  -2.390  1.00  0.00     0.000 C 
BRANCH   8   9
ATOM      9  C   UNL     1      -4.537   1.241  -2.507  1.00  0.00     0.000 C 
BRANCH   9  10
ATOM     10  C   UNL     1      -4.255   0.403  -1.245  1.00  0.00     0.000 C 
BRANCH  10  11
ATOM     11  C   UNL     1      -4.753   1.054   0.058  1.00  0.00     0.000 C 
BRANCH  11  12
ATOM     12  C   UNL     1      -4.264   2.502   0.224  1.00  0.00     0.006 C 
BRANCH  12  13
ATOM     13  C   UNL     1      -5.131   3.303   1.206  1.00  0.00     0.053 C 
BRANCH  13  14
ATOM     14  C   UNL     1      -5.598   2.468   2.359  1.00  0.00     0.041 C 
ATOM     15  O   UNL     1      -6.505   1.604   2.197  1.00  0.00    -0.550 OA
ATOM     16  O   UNL     1      -5.042   2.652   3.619  1.00  0.00    -0.550 OA
ENDBRANCH  13  14
ENDBRANCH  12  13
ENDBRANCH  11  12
ENDBRANCH  10  11
ENDBRANCH   9  10
ENDBRANCH   8   9
ENDBRANCH   7   8
ENDBRANCH   6   7
ENDBRANCH   5   6
ENDBRANCH   4   5
ENDBRANCH   3   4
ENDBRANCH   2   3
ENDBRANCH   1   2
BRANCH   1  17
ATOM     17  C   UNL     1      -9.087   0.347  -7.483  1.00  0.00     0.000 C 
BRANCH  17  18
ATOM     18  C   UNL     1      -7.718   0.967  -7.799  1.00  0.00     0.000 C 
BRANCH  18  19
ATOM     19  C   UNL     1      -7.420   1.018  -9.308  1.00  0.00     0.000 C 
BRANCH  19  20
ATOM     20  C   UNL     1      -7.432   2.431  -9.926  1.00  0.00     0.000 C 
BRANCH  20  21
ATOM     21  C   UNL     1      -8.833   3.043 -10.125  1.00  0.00     0.000 C 
BRANCH  21  22
ATOM     22  C   UNL     1      -9.116   4.295  -9.274  1.00  0.00    -0.000 C 
BRANCH  22  23
ATOM     23  C   UNL     1      -8.013   4.568  -8.241  1.00  0.00    -0.000 C 
BRANCH  23  24
ATOM     24  C   UNL     1      -7.345   5.928  -8.487  1.00  0.00    -0.000 C 
BRANCH  24  25
ATOM     25  C   UNL     1      -7.975   6.692  -9.663  1.00  0.00    -0.000 C 
BRANCH  25  26
ATOM     26  C   UNL     1      -7.328   8.067  -9.893  1.00  0.00    -0.000 C 
BRANCH  26  27
ATOM     27  C   UNL     1      -8.189   9.188  -9.297  1.00  0.00    -0.000 C 
BRANCH  27  28
ATOM     28  C   UNL     1      -9.509   8.629  -8.743  1.00  0.00    -0.000 C 
BRANCH  28  29
ATOM     29  C   UNL     1      -9.569   8.670  -7.209  1.00  0.00    -0.003 C 
ATOM     30  C   UNL     1      -8.646   9.731  -6.610  1.00  0.00     0.004 C 
ENDBRANCH  28  29
ENDBRANCH  27  28
ENDBRANCH  26  27
ENDBRANCH  25  26
ENDBRANCH  24  25
ENDBRANCH  23  24
ENDBRANCH  22  23
ENDBRANCH  21  22
ENDBRANCH  20  21
ENDBRANCH  19  20
ENDBRANCH  18  19
ENDBRANCH  17  18
ENDBRANCH   1  17
TORSDOF 26
ENDMDL
MODEL 6
REMARK VINA RESULT:     0.203      2.394      3.943
REMARK INTER + INTRA:          -2.512
REMARK INTER:                  -1.156
REMARK INTRA:                  -1.356
REMARK UNBOUND:                -3.022
REMARK SMILES CCCCCCCCCCCCCCCCCCCCCCCCCCCC(=O)[O-]
REMARK SMILES IDX 15 1 16 2 17 3 18 4 19 5 20 6 21 7 22 8 23 9 24 10 25 11
REMARK SMILES IDX 26 12 27 13 28 14 29 15 30 16 14 17 13 18 12 19 11 20 10 21
REMARK SMILES IDX 9 22 8 23 7 24 6 25 5 26 4 27 3 28 2 29 1 30
REMARK H PARENT
REMARK Flexibility Score: inf
ROOT
ATOM      1  C   UNL     1      -9.249   1.055  -4.962  1.00  0.00     0.000 C 
ENDROOT
BRANCH   1   2
ATOM      2  C   UNL     1     -10.053   2.344  -4.735  1.00  0.00     0.000 C 
BRANCH   2   3
ATOM      3  C   UNL     1      -9.278   3.378  -3.891  1.00  0.00     0.000 C 
BRANCH   3   4
ATOM      4  C   UNL     1      -8.525   2.758  -2.702  1.00  0.00     0.000 C 
BRANCH   4   5
ATOM      5  C   UNL     1      -7.023   2.583  -2.979  1.00  0.00     0.000 C 
BRANCH   5   6
ATOM      6  C   UNL     1      -6.145   2.992  -1.785  1.00  0.00     0.000 C 
BRANCH   6   7
ATOM      7  C   UNL     1      -6.842   2.784  -0.431  1.00  0.00     0.000 C 
BRANCH   7   8
ATOM      8  C   UNL     1      -6.117   3.542   0.687  1.00  0.00     0.000 C 
BRANCH   8   9
ATOM      9  C   UNL     1      -4.793   2.850   1.049  1.00  0.00     0.000 C 
BRANCH   9  10
ATOM     10  C   UNL     1      -4.915   1.313   1.060  1.00  0.00     0.000 C 
BRANCH  10  11
ATOM     11  C   UNL     1      -3.937   0.605   0.106  1.00  0.00     0.000 C 
BRANCH  11  12
ATOM     12  C   UNL     1      -4.516   0.417  -1.306  1.00  0.00     0.006 C 
BRANCH  12  13
ATOM     13  C   UNL     1      -3.425   0.392  -2.386  1.00  0.00     0.053 C 
BRANCH  13  14
ATOM     14  C   UNL     1      -3.937   0.846  -3.719  1.00  0.00     0.041 C 
ATOM     15  O   UNL     1      -5.152   0.688  -4.024  1.00  0.00    -0.550 OA
ATOM     16  O   UNL     1      -3.070   1.433  -4.632  1.00  0.00    -0.550 OA
ENDBRANCH  13  14
ENDBRANCH  12  13
ENDBRANCH  11  12
ENDBRANCH  10  11
ENDBRANCH   9  10
ENDBRANCH   8   9
ENDBRANCH   7   8
ENDBRANCH   6   7
ENDBRANCH   5   6
ENDBRANCH   4   5
ENDBRANCH   3   4
ENDBRANCH   2   3
ENDBRANCH   1   2
BRANCH   1  17
ATOM     17  C   UNL     1     -10.121  -0.021  -5.620  1.00  0.00     0.000 C 
BRANCH  17  18
ATOM     18  C   UNL     1     -10.001   0.023  -7.151  1.00  0.00     0.000 C 
BRANCH  18  19
ATOM     19  C   UNL     1      -8.799   0.856  -7.631  1.00  0.00     0.000 C 
BRANCH  19  20
ATOM     20  C   UNL     1      -8.705   1.040  -9.160  1.00  0.00     0.000 C 
BRANCH  20  21
ATOM     21  C   UNL     1      -9.193   2.405  -9.683  1.00  0.00     0.000 C 
BRANCH  21  22
ATOM     22  C   UNL     1     -10.025   3.221  -8.676  1.00  0.00    -0.000 C 
BRANCH  22  23
ATOM     23  C   UNL     1      -9.479   4.643  -8.475  1.00  0.00    -0.000 C 
BRANCH  23  24
ATOM     24  C   UNL     1      -7.952   4.634  -8.315  1.00  0.00    -0.000 C 
BRANCH  24  25
ATOM     25  C   UNL     1      -7.277   5.831  -9.004  1.00  0.00    -0.000 C 
BRANCH  25  26
ATOM     26  C   UNL     1      -8.110   7.120  -8.908  1.00  0.00    -0.000 C 
BRANCH  26  27
ATOM     27  C   UNL     1      -7.465   8.121  -7.940  1.00  0.00    -0.000 C 
BRANCH  27  28
ATOM     28  C   UNL     1      -7.036   9.398  -8.680  1.00  0.00    -0.000 C 
BRANCH  28  29
ATOM     29  C   UNL     1      -5.606   9.831  -8.326  1.00  0.00    -0.003 C 
ATOM     30  C   UNL     1      -4.592   9.468  -9.410  1.00  0.00     0.004 C 
ENDBRANCH  28  29
ENDBRANCH  27  28
ENDBRANCH  26  27
ENDBRANCH  25  26
ENDBRANCH  24  25
ENDBRANCH  23  24
ENDBRANCH  22  23
ENDBRANCH  21  22
ENDBRANCH  20  21
ENDBRANCH  19  20
ENDBRANCH  18  19
ENDBRANCH  17  18
ENDBRANCH   1  17
TORSDOF 26
ENDMDL
