MODEL 1
REMARK VINA RESULT:    -4.113      0.000      0.000
REMARK INTER + INTRA:         -13.349
REMARK INTER:                  -9.403
REMARK INTRA:                  -3.947
REMARK UNBOUND:                -3.947
REMARK SMILES CCCCCCCCCCCCCCCCCCCCCCCC(=O)[O-]
REMARK SMILES IDX 13 1 14 2 15 3 16 4 17 5 18 6 19 7 20 8 21 9 22 10 23 11
REMARK SMILES IDX 24 12 25 13 26 14 12 15 11 16 10 17 9 18 8 19 7 20 6 21 5 22
REMARK SMILES IDX 4 23 3 24 2 25 1 26
REMARK H PARENT
REMARK Flexibility Score: inf
ROOT
ATOM      1  C   UNL     1      16.487  -2.806  62.893  1.00  0.00     0.000 C 
ENDROOT
BRANCH   1   2
ATOM      2  C   UNL     1      15.861  -3.254  61.560  1.00  0.00     0.000 C 
BRANCH   2   3
ATOM      3  C   UNL     1      14.854  -2.264  60.943  1.00  0.00     0.000 C 
BRANCH   3   4
ATOM      4  C   UNL     1      13.895  -1.591  61.948  1.00  0.00     0.000 C 
BRANCH   4   5
ATOM      5  C   UNL     1      13.839  -0.054  61.864  1.00  0.00     0.000 C 
BRANCH   5   6
ATOM      6  C   UNL     1      14.790   0.572  60.825  1.00  0.00     0.000 C 
BRANCH   6   7
ATOM      7  C   UNL     1      15.438   1.894  61.293  1.00  0.00     0.000 C 
BRANCH   7   8
ATOM      8  C   UNL     1      16.303   1.709  62.552  1.00  0.00     0.000 C 
BRANCH   8   9
ATOM      9  C   UNL     1      17.382   2.794  62.693  1.00  0.00     0.000 C 
BRANCH   9  10
ATOM     10  C   UNL     1      16.814   4.135  63.191  1.00  0.00     0.006 C 
BRANCH  10  11
ATOM     11  C   UNL     1      17.185   4.413  64.653  1.00  0.00     0.053 C 
BRANCH  11  12
ATOM     12  C   UNL     1      17.279   5.882  64.932  1.00  0.00     0.041 C 
ATOM     13  O   UNL     1      17.258   6.305  66.117  1.00  0.00    -0.550 OA
ATOM     14  O   UNL     1      17.420   6.780  63.883  1.00  0.00    -0.550 OA
ENDBRANCH  11  12
ENDBRANCH  10  11
ENDBRANCH   9  10
ENDBRANCH   8   9
ENDBRANCH   7   8
ENDBRANCH   6   7
ENDBRANCH   5   6
ENDBRANCH   4   5
ENDBRANCH   3   4
ENDBRANCH   2   3
ENDBRANCH   1   2
BRANCH   1  15
ATOM     15  C   UNL     1      17.599  -1.760  62.708  1.00  0.00     0.000 C 
BRANCH  15  16
ATOM     16  C   UNL     1      18.852  -2.343  62.035  1.00  0.00     0.000 C 
BRANCH  16  17
ATOM     17  C   UNL     1      19.585  -1.313  61.158  1.00  0.00     0.000 C 
BRANCH  17  18
ATOM     18  C   UNL     1      18.638  -0.241  60.594  1.00  0.00    -0.000 C 
BRANCH  18  19
ATOM     19  C   UNL     1      18.496  -0.327  59.064  1.00  0.00    -0.000 C 
BRANCH  19  20
ATOM     20  C   UNL     1      17.285  -1.168  58.633  1.00  0.00    -0.000 C 
BRANCH  20  21
ATOM     21  C   UNL     1      16.796  -0.817  57.216  1.00  0.00    -0.000 C 
BRANCH  21  22
ATOM     22  C   UNL     1      15.536   0.076  57.240  1.00  0.00    -0.000 C 
BRANCH  22  23
ATOM     23  C   UNL     1      15.833   1.554  57.544  1.00  0.00    -0.000 C 
BRANCH  23  24
ATOM     24  C   UNL     1      16.865   2.167  56.587  1.00  0.00    -0.000 C 
BRANCH  24  25
ATOM     25  C   UNL     1      18.001   2.846  57.361  1.00  0.00    -0.003 C 
ATOM     26  C   UNL     1      17.502   3.417  58.684  1.00  0.00     0.004 C 
ENDBRANCH  24  25
ENDBRANCH  23  24
ENDBRANCH  22  23
ENDBRANCH  21  22
ENDBRANCH  20  21
ENDBRANCH  19  20
ENDBRANCH  18  19
ENDBRANCH  17  18
ENDBRANCH  16  17
ENDBRANCH  15  16
ENDBRANCH   1  15
TORSDOF 22
ENDMDL
MODEL 2
REMARK VINA RESULT:    -4.083      1.521      5.482
REMARK INTER + INTRA:         -13.280
REMARK INTER:                  -9.240
REMARK INTRA:                  -4.040
REMARK UNBOUND:                -3.947
REMARK SMILES CCCCCCCCCCCCCCCCCCCCCCCC(=O)[O-]
REMARK SMILES IDX 13 1 14 2 15 3 16 4 17 5 18 6 19 7 20 8 21 9 22 10 23 11
REMARK SMILES IDX 24 12 25 13 26 14 12 15 11 16 10 17 9 18 8 19 7 20 6 21 5 22
REMARK SMILES IDX 4 23 3 24 2 25 1 26
REMARK H PARENT
REMARK Flexibility Score: inf
ROOT
ATOM      1  C   UNL     1      17.603   0.689  55.220  1.00  0.00     0.000 C 
ENDROOT
BRANCH   1   2
ATOM      2  C   UNL     1      17.859   2.158  54.836  1.00  0.00     0.000 C 
BRANCH   2   3
ATOM      3  C   UNL     1      17.717   3.171  55.989  1.00  0.00     0.000 C 
BRANCH   3   4
ATOM      4  C   UNL     1      16.424   4.012  55.969  1.00  0.00     0.000 C 
BRANCH   4   5
ATOM      5  C   UNL     1      15.551   3.893  57.232  1.00  0.00     0.000 C 
BRANCH   5   6
ATOM      6  C   UNL     1      16.333   3.881  58.560  1.00  0.00     0.000 C 
BRANCH   6   7
ATOM      7  C   UNL     1      15.830   4.919  59.587  1.00  0.00     0.000 C 
BRANCH   7   8
ATOM      8  C   UNL     1      16.459   4.718  60.978  1.00  0.00     0.000 C 
BRANCH   8   9
ATOM      9  C   UNL     1      15.406   4.523  62.080  1.00  0.00     0.000 C 
BRANCH   9  10
ATOM     10  C   UNL     1      15.894   3.596  63.208  1.00  0.00     0.006 C 
BRANCH  10  11
ATOM     11  C   UNL     1      17.397   3.752  63.475  1.00  0.00     0.053 C 
BRANCH  11  12
ATOM     12  C   UNL     1      17.674   4.834  64.473  1.00  0.00     0.041 C 
ATOM     13  O   UNL     1      17.028   4.882  65.553  1.00  0.00    -0.550 OA
ATOM     14  O   UNL     1      18.668   5.771  64.223  1.00  0.00    -0.550 OA
ENDBRANCH  11  12
ENDBRANCH  10  11
ENDBRANCH   9  10
ENDBRANCH   8   9
ENDBRANCH   7   8
ENDBRANCH   6   7
ENDBRANCH   5   6
ENDBRANCH   4   5
ENDBRANCH   3   4
ENDBRANCH   2   3
ENDBRANCH   1   2
BRANCH   1  15
ATOM     15  C   UNL     1      17.317   0.507  56.720  1.00  0.00     0.000 C 
BRANCH  15  16
ATOM     16  C   UNL     1      15.854   0.125  57.000  1.00  0.00     0.000 C 
BRANCH  16  17
ATOM     17  C   UNL     1      15.621  -0.291  58.463  1.00  0.00     0.000 C 
BRANCH  17  18
ATOM     18  C   UNL     1      14.704   0.687  59.215  1.00  0.00    -0.000 C 
BRANCH  18  19
ATOM     19  C   UNL     1      15.237   1.035  60.615  1.00  0.00    -0.000 C 
BRANCH  19  20
ATOM     20  C   UNL     1      16.764   0.884  60.718  1.00  0.00    -0.000 C 
BRANCH  20  21
ATOM     21  C   UNL     1      17.212   0.327  62.081  1.00  0.00    -0.000 C 
BRANCH  21  22
ATOM     22  C   UNL     1      17.796  -1.097  61.964  1.00  0.00    -0.000 C 
BRANCH  22  23
ATOM     23  C   UNL     1      16.774  -2.209  62.252  1.00  0.00    -0.000 C 
BRANCH  23  24
ATOM     24  C   UNL     1      16.374  -2.995  60.996  1.00  0.00    -0.000 C 
BRANCH  24  25
ATOM     25  C   UNL     1      14.863  -2.909  60.749  1.00  0.00    -0.003 C 
ATOM     26  C   UNL     1      14.129  -2.408  61.989  1.00  0.00     0.004 C 
ENDBRANCH  24  25
ENDBRANCH  23  24
ENDBRANCH  22  23
ENDBRANCH  21  22
ENDBRANCH  20  21
ENDBRANCH  19  20
ENDBRANCH  18  19
ENDBRANCH  17  18
ENDBRANCH  16  17
ENDBRANCH  15  16
ENDBRANCH   1  15
TORSDOF 22
ENDMDL
MODEL 3
REMARK VINA RESULT:    -4.065      1.311      5.134
REMARK INTER + INTRA:         -13.241
REMARK INTER:                  -9.637
REMARK INTRA:                  -3.604
REMARK UNBOUND:                -3.947
REMARK SMILES CCCCCCCCCCCCCCCCCCCCCCCC(=O)[O-]
REMARK SMILES IDX 13 1 14 2 15 3 16 4 17 5 18 6 19 7 20 8 21 9 22 10 23 11
REMARK SMILES IDX 24 12 25 13 26 14 12 15 11 16 10 17 9 18 8 19 7 20 6 21 5 22
REMARK SMILES IDX 4 23 3 24 2 25 1 26
REMARK H PARENT
REMARK Flexibility Score: inf
ROOT
ATOM      1  C   UNL     1      17.475   1.010  55.888  1.00  0.00     0.000 C 
ENDROOT
BRANCH   1   2
ATOM      2  C   UNL     1      17.592   2.168  56.896  1.00  0.00     0.000 C 
BRANCH   2   3
ATOM      3  C   UNL     1      16.594   3.323  56.687  1.00  0.00     0.000 C 
BRANCH   3   4
ATOM      4  C   UNL     1      15.426   3.373  57.694  1.00  0.00     0.000 C 
BRANCH   4   5
ATOM      5  C   UNL     1      15.818   3.787  59.124  1.00  0.00     0.000 C 
BRANCH   5   6
ATOM      6  C   UNL     1      15.496   2.743  60.211  1.00  0.00     0.000 C 
BRANCH   6   7
ATOM      7  C   UNL     1      16.748   2.137  60.882  1.00  0.00     0.000 C 
BRANCH   7   8
ATOM      8  C   UNL     1      16.569   1.956  62.400  1.00  0.00     0.000 C 
BRANCH   8   9
ATOM      9  C   UNL     1      15.158   2.331  62.878  1.00  0.00     0.000 C 
BRANCH   9  10
ATOM     10  C   UNL     1      15.166   3.467  63.916  1.00  0.00     0.006 C 
BRANCH  10  11
ATOM     11  C   UNL     1      15.786   4.755  63.359  1.00  0.00     0.053 C 
BRANCH  11  12
ATOM     12  C   UNL     1      16.940   5.220  64.192  1.00  0.00     0.041 C 
ATOM     13  O   UNL     1      16.825   6.238  64.924  1.00  0.00    -0.550 OA
ATOM     14  O   UNL     1      18.134   4.510  64.184  1.00  0.00    -0.550 OA
ENDBRANCH  11  12
ENDBRANCH  10  11
ENDBRANCH   9  10
ENDBRANCH   8   9
ENDBRANCH   7   8
ENDBRANCH   6   7
ENDBRANCH   5   6
ENDBRANCH   4   5
ENDBRANCH   3   4
ENDBRANCH   2   3
ENDBRANCH   1   2
BRANCH   1  15
ATOM     15  C   UNL     1      16.443  -0.048  56.313  1.00  0.00     0.000 C 
BRANCH  15  16
ATOM     16  C   UNL     1      16.630  -0.503  57.770  1.00  0.00     0.000 C 
BRANCH  16  17
ATOM     17  C   UNL     1      15.357  -0.319  58.614  1.00  0.00     0.000 C 
BRANCH  17  18
ATOM     18  C   UNL     1      15.270  -1.322  59.776  1.00  0.00    -0.000 C 
BRANCH  18  19
ATOM     19  C   UNL     1      14.435  -0.789  60.953  1.00  0.00    -0.000 C 
BRANCH  19  20
ATOM     20  C   UNL     1      13.810  -1.917  61.789  1.00  0.00    -0.000 C 
BRANCH  20  21
ATOM     21  C   UNL     1      14.397  -3.299  61.449  1.00  0.00    -0.000 C 
BRANCH  21  22
ATOM     22  C   UNL     1      15.397  -3.785  62.520  1.00  0.00    -0.000 C 
BRANCH  22  23
ATOM     23  C   UNL     1      16.868  -3.675  62.086  1.00  0.00    -0.000 C 
BRANCH  23  24
ATOM     24  C   UNL     1      17.678  -2.703  62.955  1.00  0.00    -0.000 C 
BRANCH  24  25
ATOM     25  C   UNL     1      17.912  -1.375  62.226  1.00  0.00    -0.003 C 
ATOM     26  C   UNL     1      19.058  -1.488  61.226  1.00  0.00     0.004 C 
ENDBRANCH  24  25
ENDBRANCH  23  24
ENDBRANCH  22  23
ENDBRANCH  21  22
ENDBRANCH  20  21
ENDBRANCH  19  20
ENDBRANCH  18  19
ENDBRANCH  17  18
ENDBRANCH  16  17
ENDBRANCH  15  16
ENDBRANCH   1  15
TORSDOF 22
ENDMDL
MODEL 4
REMARK VINA RESULT:    -4.002      2.461      5.936
REMARK INTER + INTRA:         -13.096
REMARK INTER:                  -9.282
REMARK INTRA:                  -3.814
REMARK UNBOUND:                -3.947
REMARK SMILES CCCCCCCCCCCCCCCCCCCCCCCC(=O)[O-]
REMARK SMILES IDX 13 1 14 2 15 3 16 4 17 5 18 6 19 7 20 8 21 9 22 10 23 11
REMARK SMILES IDX 24 12 25 13 26 14 12 15 11 16 10 17 9 18 8 19 7 20 6 21 5 22
REMARK SMILES IDX 4 23 3 24 2 25 1 26
REMARK H PARENT
REMARK Flexibility Score: inf
ROOT
ATOM      1  C   UNL     1      15.951   1.875  59.208  1.00  0.00     0.000 C 
ENDROOT
BRANCH   1   2
ATOM      2  C   UNL     1      14.875   1.481  58.180  1.00  0.00     0.000 C 
BRANCH   2   3
ATOM      3  C   UNL     1      15.095   0.121  57.489  1.00  0.00     0.000 C 
BRANCH   3   4
ATOM      4  C   UNL     1      16.568  -0.317  57.355  1.00  0.00     0.000 C 
BRANCH   4   5
ATOM      5  C   UNL     1      17.004  -0.703  55.930  1.00  0.00     0.000 C 
BRANCH   5   6
ATOM      6  C   UNL     1      17.631   0.443  55.112  1.00  0.00     0.000 C 
BRANCH   6   7
ATOM      7  C   UNL     1      17.925   1.711  55.944  1.00  0.00     0.000 C 
BRANCH   7   8
ATOM      8  C   UNL     1      17.581   3.004  55.182  1.00  0.00     0.000 C 
BRANCH   8   9
ATOM      9  C   UNL     1      16.497   3.835  55.886  1.00  0.00     0.000 C 
BRANCH   9  10
ATOM     10  C   UNL     1      17.055   5.123  56.518  1.00  0.00     0.006 C 
BRANCH  10  11
ATOM     11  C   UNL     1      17.115   5.036  58.049  1.00  0.00     0.053 C 
BRANCH  11  12
ATOM     12  C   UNL     1      15.944   5.716  58.689  1.00  0.00     0.041 C 
ATOM     13  O   UNL     1      14.902   5.947  58.022  1.00  0.00    -0.550 OA
ATOM     14  O   UNL     1      15.994   6.067  60.032  1.00  0.00    -0.550 OA
ENDBRANCH  11  12
ENDBRANCH  10  11
ENDBRANCH   9  10
ENDBRANCH   8   9
ENDBRANCH   7   8
ENDBRANCH   6   7
ENDBRANCH   5   6
ENDBRANCH   4   5
ENDBRANCH   3   4
ENDBRANCH   2   3
ENDBRANCH   1   2
BRANCH   1  15
ATOM     15  C   UNL     1      15.353   2.409  60.521  1.00  0.00     0.000 C 
BRANCH  15  16
ATOM     16  C   UNL     1      15.300   1.339  61.624  1.00  0.00     0.000 C 
BRANCH  16  17
ATOM     17  C   UNL     1      14.038   0.463  61.536  1.00  0.00     0.000 C 
BRANCH  17  18
ATOM     18  C   UNL     1      14.332  -1.020  61.815  1.00  0.00    -0.000 C 
BRANCH  18  19
ATOM     19  C   UNL     1      14.836  -1.765  60.566  1.00  0.00    -0.000 C 
BRANCH  19  20
ATOM     20  C   UNL     1      15.416  -3.148  60.901  1.00  0.00    -0.000 C 
BRANCH  20  21
ATOM     21  C   UNL     1      15.660  -3.338  62.409  1.00  0.00    -0.000 C 
BRANCH  21  22
ATOM     22  C   UNL     1      17.162  -3.458  62.744  1.00  0.00    -0.000 C 
BRANCH  22  23
ATOM     23  C   UNL     1      17.858  -2.103  62.954  1.00  0.00    -0.000 C 
BRANCH  23  24
ATOM     24  C   UNL     1      18.792  -1.724  61.797  1.00  0.00    -0.000 C 
BRANCH  24  25
ATOM     25  C   UNL     1      18.197  -0.587  60.958  1.00  0.00    -0.003 C 
ATOM     26  C   UNL     1      19.293   0.227  60.276  1.00  0.00     0.004 C 
ENDBRANCH  24  25
ENDBRANCH  23  24
ENDBRANCH  22  23
ENDBRANCH  21  22
ENDBRANCH  20  21
ENDBRANCH  19  20
ENDBRANCH  18  19
ENDBRANCH  17  18
ENDBRANCH  16  17
ENDBRANCH  15  16
ENDBRANCH   1  15
TORSDOF 22
ENDMDL
MODEL 5
REMARK VINA RESULT:    -3.946      1.772      3.514
REMARK INTER + INTRA:         -12.968
REMARK INTER:                  -9.264
REMARK INTRA:                  -3.704
REMARK UNBOUND:                -3.947
REMARK SMILES CCCCCCCCCCCCCCCCCCCCCCCC(=O)[O-]
REMARK SMILES IDX 13 1 14 2 15 3 16 4 17 5 18 6 19 7 20 8 21 9 22 10 23 11
REMARK SMILES IDX 24 12 25 13 26 14 12 15 11 16 10 17 9 18 8 19 7 20 6 21 5 22
REMARK SMILES IDX 4 23 3 24 2 25 1 26
REMARK H PARENT
REMARK Flexibility Score: inf
ROOT
ATOM      1  C   UNL     1      14.333  -1.976  62.202  1.00  0.00     0.000 C 
ENDROOT
BRANCH   1   2
ATOM      2  C   UNL     1      14.901  -3.059  61.267  1.00  0.00     0.000 C 
BRANCH   2   3
ATOM      3  C   UNL     1      16.262  -3.643  61.692  1.00  0.00     0.000 C 
BRANCH   3   4
ATOM      4  C   UNL     1      16.884  -3.010  62.954  1.00  0.00     0.000 C 
BRANCH   4   5
ATOM      5  C   UNL     1      17.957  -1.940  62.683  1.00  0.00     0.000 C 
BRANCH   5   6
ATOM      6  C   UNL     1      18.701  -2.095  61.343  1.00  0.00     0.000 C 
BRANCH   6   7
ATOM      7  C   UNL     1      18.446  -0.937  60.352  1.00  0.00     0.000 C 
BRANCH   7   8
ATOM      8  C   UNL     1      19.132   0.369  60.790  1.00  0.00     0.000 C 
BRANCH   8   9
ATOM      9  C   UNL     1      18.170   1.567  60.804  1.00  0.00     0.000 C 
BRANCH   9  10
ATOM     10  C   UNL     1      17.345   1.651  62.101  1.00  0.00     0.006 C 
BRANCH  10  11
ATOM     11  C   UNL     1      16.895   3.085  62.409  1.00  0.00     0.053 C 
BRANCH  11  12
ATOM     12  C   UNL     1      15.758   3.112  63.383  1.00  0.00     0.041 C 
ATOM     13  O   UNL     1      14.759   2.366  63.213  1.00  0.00    -0.550 OA
ATOM     14  O   UNL     1      15.817   3.940  64.496  1.00  0.00    -0.550 OA
ENDBRANCH  11  12
ENDBRANCH  10  11
ENDBRANCH   9  10
ENDBRANCH   8   9
ENDBRANCH   7   8
ENDBRANCH   6   7
ENDBRANCH   5   6
ENDBRANCH   4   5
ENDBRANCH   3   4
ENDBRANCH   2   3
ENDBRANCH   1   2
BRANCH   1  15
ATOM     15  C   UNL     1      14.131  -0.625  61.495  1.00  0.00     0.000 C 
BRANCH  15  16
ATOM     16  C   UNL     1      14.874  -0.545  60.151  1.00  0.00     0.000 C 
BRANCH  16  17
ATOM     17  C   UNL     1      14.690   0.815  59.454  1.00  0.00     0.000 C 
BRANCH  17  18
ATOM     18  C   UNL     1      15.668   1.014  58.285  1.00  0.00    -0.000 C 
BRANCH  18  19
ATOM     19  C   UNL     1      15.815  -0.248  57.419  1.00  0.00    -0.000 C 
BRANCH  19  20
ATOM     20  C   UNL     1      17.213  -0.373  56.792  1.00  0.00    -0.000 C 
BRANCH  20  21
ATOM     21  C   UNL     1      17.516   0.760  55.794  1.00  0.00    -0.000 C 
BRANCH  21  22
ATOM     22  C   UNL     1      18.683   1.654  56.267  1.00  0.00    -0.000 C 
BRANCH  22  23
ATOM     23  C   UNL     1      18.239   3.045  56.749  1.00  0.00    -0.000 C 
BRANCH  23  24
ATOM     24  C   UNL     1      17.026   3.586  55.980  1.00  0.00    -0.000 C 
BRANCH  24  25
ATOM     25  C   UNL     1      16.062   4.322  56.918  1.00  0.00    -0.003 C 
ATOM     26  C   UNL     1      15.247   5.367  56.162  1.00  0.00     0.004 C 
ENDBRANCH  24  25
ENDBRANCH  23  24
ENDBRANCH  22  23
ENDBRANCH  21  22
ENDBRANCH  20  21
ENDBRANCH  19  20
ENDBRANCH  18  19
ENDBRANCH  17  18
ENDBRANCH  16  17
ENDBRANCH  15  16
ENDBRANCH   1  15
TORSDOF 22
ENDMDL
MODEL 6
REMARK VINA RESULT:    -3.936      1.744      5.198
REMARK INTER + INTRA:         -12.944
REMARK INTER:                  -8.592
REMARK INTRA:                  -4.352
REMARK UNBOUND:                -3.947
REMARK SMILES CCCCCCCCCCCCCCCCCCCCCCCC(=O)[O-]
REMARK SMILES IDX 13 1 14 2 15 3 16 4 17 5 18 6 19 7 20 8 21 9 22 10 23 11
REMARK SMILES IDX 24 12 25 13 26 14 12 15 11 16 10 17 9 18 8 19 7 20 6 21 5 22
REMARK SMILES IDX 4 23 3 24 2 25 1 26
REMARK H PARENT
REMARK Flexibility Score: inf
ROOT
ATOM      1  C   UNL     1      16.832  -0.167  57.579  1.00  0.00     0.000 C 
ENDROOT
BRANCH   1   2
ATOM      2  C   UNL     1      17.648   0.146  56.312  1.00  0.00     0.000 C 
BRANCH   2   3
ATOM      3  C   UNL     1      18.574   1.374  56.416  1.00  0.00     0.000 C 
BRANCH   3   4
ATOM      4  C   UNL     1      17.886   2.681  56.862  1.00  0.00     0.000 C 
BRANCH   4   5
ATOM      5  C   UNL     1      17.096   3.409  55.758  1.00  0.00     0.000 C 
BRANCH   5   6
ATOM      6  C   UNL     1      16.277   4.621  56.241  1.00  0.00     0.000 C 
BRANCH   6   7
ATOM      7  C   UNL     1      15.272   4.284  57.365  1.00  0.00     0.000 C 
BRANCH   7   8
ATOM      8  C   UNL     1      15.293   5.325  58.499  1.00  0.00     0.000 C 
BRANCH   8   9
ATOM      9  C   UNL     1      15.833   4.751  59.819  1.00  0.00     0.000 C 
BRANCH   9  10
ATOM     10  C   UNL     1      15.155   5.368  61.055  1.00  0.00     0.006 C 
BRANCH  10  11
ATOM     11  C   UNL     1      15.434   4.562  62.330  1.00  0.00     0.053 C 
BRANCH  11  12
ATOM     12  C   UNL     1      16.889   4.572  62.686  1.00  0.00     0.041 C 
ATOM     13  O   UNL     1      17.486   5.661  62.886  1.00  0.00    -0.550 OA
ATOM     14  O   UNL     1      17.578   3.374  62.826  1.00  0.00    -0.550 OA
ENDBRANCH  11  12
ENDBRANCH  10  11
ENDBRANCH   9  10
ENDBRANCH   8   9
ENDBRANCH   7   8
ENDBRANCH   6   7
ENDBRANCH   5   6
ENDBRANCH   4   5
ENDBRANCH   3   4
ENDBRANCH   2   3
ENDBRANCH   1   2
BRANCH   1  15
ATOM     15  C   UNL     1      15.331   0.125  57.409  1.00  0.00     0.000 C 
BRANCH  15  16
ATOM     16  C   UNL     1      14.749   0.931  58.581  1.00  0.00     0.000 C 
BRANCH  16  17
ATOM     17  C   UNL     1      15.820   1.339  59.607  1.00  0.00     0.000 C 
BRANCH  17  18
ATOM     18  C   UNL     1      15.354   1.136  61.057  1.00  0.00    -0.000 C 
BRANCH  18  19
ATOM     19  C   UNL     1      14.202   0.122  61.169  1.00  0.00    -0.000 C 
BRANCH  19  20
ATOM     20  C   UNL     1      14.667  -1.240  61.709  1.00  0.00    -0.000 C 
BRANCH  20  21
ATOM     21  C   UNL     1      15.074  -2.213  60.588  1.00  0.00    -0.000 C 
BRANCH  21  22
ATOM     22  C   UNL     1      16.605  -2.395  60.504  1.00  0.00    -0.000 C 
BRANCH  22  23
ATOM     23  C   UNL     1      17.346  -1.993  61.790  1.00  0.00    -0.000 C 
BRANCH  23  24
ATOM     24  C   UNL     1      18.802  -1.576  61.537  1.00  0.00    -0.000 C 
BRANCH  24  25
ATOM     25  C   UNL     1      18.870  -0.232  60.800  1.00  0.00    -0.003 C 
ATOM     26  C   UNL     1      19.875  -0.282  59.654  1.00  0.00     0.004 C 
ENDBRANCH  24  25
ENDBRANCH  23  24
ENDBRANCH  22  23
ENDBRANCH  21  22
ENDBRANCH  20  21
ENDBRANCH  19  20
ENDBRANCH  18  19
ENDBRANCH  17  18
ENDBRANCH  16  17
ENDBRANCH  15  16
ENDBRANCH   1  15
TORSDOF 22
ENDMDL
MODEL 7
REMARK VINA RESULT:    -3.935      1.864      5.481
REMARK INTER + INTRA:         -12.944
REMARK INTER:                  -8.692
REMARK INTRA:                  -4.252
REMARK UNBOUND:                -3.947
REMARK SMILES CCCCCCCCCCCCCCCCCCCCCCCC(=O)[O-]
REMARK SMILES IDX 13 1 14 2 15 3 16 4 17 5 18 6 19 7 20 8 21 9 22 10 23 11
REMARK SMILES IDX 24 12 25 13 26 14 12 15 11 16 10 17 9 18 8 19 7 20 6 21 5 22
REMARK SMILES IDX 4 23 3 24 2 25 1 26
REMARK H PARENT
REMARK Flexibility Score: inf
ROOT
ATOM      1  C   UNL     1      19.807   2.433  58.385  1.00  0.00     0.000 C 
ENDROOT
BRANCH   1   2
ATOM      2  C   UNL     1      19.346   1.936  57.002  1.00  0.00     0.000 C 
BRANCH   2   3
ATOM      3  C   UNL     1      19.305   0.405  56.837  1.00  0.00     0.000 C 
BRANCH   3   4
ATOM      4  C   UNL     1      17.920  -0.182  56.491  1.00  0.00     0.000 C 
BRANCH   4   5
ATOM      5  C   UNL     1      16.730   0.755  56.769  1.00  0.00     0.000 C 
BRANCH   5   6
ATOM      6  C   UNL     1      15.477   0.059  57.334  1.00  0.00     0.000 C 
BRANCH   6   7
ATOM      7  C   UNL     1      14.897   0.746  58.591  1.00  0.00     0.000 C 
BRANCH   7   8
ATOM      8  C   UNL     1      15.772   1.916  59.074  1.00  0.00     0.000 C 
BRANCH   8   9
ATOM      9  C   UNL     1      15.354   2.436  60.458  1.00  0.00     0.000 C 
BRANCH   9  10
ATOM     10  C   UNL     1      15.696   1.451  61.590  1.00  0.00     0.006 C 
BRANCH  10  11
ATOM     11  C   UNL     1      16.876   1.936  62.442  1.00  0.00     0.053 C 
BRANCH  11  12
ATOM     12  C   UNL     1      16.464   3.013  63.397  1.00  0.00     0.041 C 
ATOM     13  O   UNL     1      17.303   3.864  63.794  1.00  0.00    -0.550 OA
ATOM     14  O   UNL     1      15.145   3.096  63.825  1.00  0.00    -0.550 OA
ENDBRANCH  11  12
ENDBRANCH  10  11
ENDBRANCH   9  10
ENDBRANCH   8   9
ENDBRANCH   7   8
ENDBRANCH   6   7
ENDBRANCH   5   6
ENDBRANCH   4   5
ENDBRANCH   3   4
ENDBRANCH   2   3
ENDBRANCH   1   2
BRANCH   1  15
ATOM     15  C   UNL     1      19.140   1.673  59.544  1.00  0.00     0.000 C 
BRANCH  15  16
ATOM     16  C   UNL     1      20.150   0.878  60.387  1.00  0.00     0.000 C 
BRANCH  16  17
ATOM     17  C   UNL     1      19.620  -0.508  60.793  1.00  0.00     0.000 C 
BRANCH  17  18
ATOM     18  C   UNL     1      18.280  -0.846  60.119  1.00  0.00    -0.000 C 
BRANCH  18  19
ATOM     19  C   UNL     1      17.392  -1.747  60.995  1.00  0.00    -0.000 C 
BRANCH  19  20
ATOM     20  C   UNL     1      16.170  -2.287  60.234  1.00  0.00    -0.000 C 
BRANCH  20  21
ATOM     21  C   UNL     1      14.852  -2.057  60.995  1.00  0.00    -0.000 C 
BRANCH  21  22
ATOM     22  C   UNL     1      14.158  -3.384  61.370  1.00  0.00    -0.000 C 
BRANCH  22  23
ATOM     23  C   UNL     1      15.116  -4.586  61.427  1.00  0.00    -0.000 C 
BRANCH  23  24
ATOM     24  C   UNL     1      15.562  -4.929  62.855  1.00  0.00    -0.000 C 
BRANCH  24  25
ATOM     25  C   UNL     1      17.088  -4.866  62.987  1.00  0.00    -0.003 C 
ATOM     26  C   UNL     1      17.772  -5.494  61.776  1.00  0.00     0.004 C 
ENDBRANCH  24  25
ENDBRANCH  23  24
ENDBRANCH  22  23
ENDBRANCH  21  22
ENDBRANCH  20  21
ENDBRANCH  19  20
ENDBRANCH  18  19
ENDBRANCH  17  18
ENDBRANCH  16  17
ENDBRANCH  15  16
ENDBRANCH   1  15
TORSDOF 22
ENDMDL
MODEL 8
REMARK VINA RESULT:    -3.929      1.979      5.661
REMARK INTER + INTRA:         -12.929
REMARK INTER:                  -8.304
REMARK INTRA:                  -4.625
REMARK UNBOUND:                -3.947
REMARK SMILES CCCCCCCCCCCCCCCCCCCCCCCC(=O)[O-]
REMARK SMILES IDX 13 1 14 2 15 3 16 4 17 5 18 6 19 7 20 8 21 9 22 10 23 11
REMARK SMILES IDX 24 12 25 13 26 14 12 15 11 16 10 17 9 18 8 19 7 20 6 21 5 22
REMARK SMILES IDX 4 23 3 24 2 25 1 26
REMARK H PARENT
REMARK Flexibility Score: inf
ROOT
ATOM      1  C   UNL     1      17.951   3.131  56.383  1.00  0.00     0.000 C 
ENDROOT
BRANCH   1   2
ATOM      2  C   UNL     1      18.319   1.913  55.516  1.00  0.00     0.000 C 
BRANCH   2   3
ATOM      3  C   UNL     1      17.437   0.667  55.729  1.00  0.00     0.000 C 
BRANCH   3   4
ATOM      4  C   UNL     1      17.918  -0.299  56.831  1.00  0.00     0.000 C 
BRANCH   4   5
ATOM      5  C   UNL     1      19.428  -0.244  57.129  1.00  0.00     0.000 C 
BRANCH   5   6
ATOM      6  C   UNL     1      19.794   0.313  58.518  1.00  0.00     0.000 C 
BRANCH   6   7
ATOM      7  C   UNL     1      18.570   0.749  59.355  1.00  0.00     0.000 C 
BRANCH   7   8
ATOM      8  C   UNL     1      18.932   1.806  60.413  1.00  0.00     0.000 C 
BRANCH   8   9
ATOM      9  C   UNL     1      17.970   1.798  61.612  1.00  0.00     0.000 C 
BRANCH   9  10
ATOM     10  C   UNL     1      17.832   3.181  62.271  1.00  0.00     0.006 C 
BRANCH  10  11
ATOM     11  C   UNL     1      16.366   3.614  62.405  1.00  0.00     0.053 C 
BRANCH  11  12
ATOM     12  C   UNL     1      16.102   4.906  61.694  1.00  0.00     0.041 C 
ATOM     13  O   UNL     1      14.942   5.392  61.672  1.00  0.00    -0.550 OA
ATOM     14  O   UNL     1      17.146   5.588  61.083  1.00  0.00    -0.550 OA
ENDBRANCH  11  12
ENDBRANCH  10  11
ENDBRANCH   9  10
ENDBRANCH   8   9
ENDBRANCH   7   8
ENDBRANCH   6   7
ENDBRANCH   5   6
ENDBRANCH   4   5
ENDBRANCH   3   4
ENDBRANCH   2   3
ENDBRANCH   1   2
BRANCH   1  15
ATOM     15  C   UNL     1      16.432   3.317  56.534  1.00  0.00     0.000 C 
BRANCH  15  16
ATOM     16  C   UNL     1      16.035   3.819  57.932  1.00  0.00     0.000 C 
BRANCH  16  17
ATOM     17  C   UNL     1      15.598   2.678  58.867  1.00  0.00     0.000 C 
BRANCH  17  18
ATOM     18  C   UNL     1      14.872   1.549  58.119  1.00  0.00    -0.000 C 
BRANCH  18  19
ATOM     19  C   UNL     1      14.911   0.215  58.885  1.00  0.00    -0.000 C 
BRANCH  19  20
ATOM     20  C   UNL     1      14.692   0.398  60.395  1.00  0.00    -0.000 C 
BRANCH  20  21
ATOM     21  C   UNL     1      15.379  -0.699  61.228  1.00  0.00    -0.000 C 
BRANCH  21  22
ATOM     22  C   UNL     1      15.692  -1.956  60.388  1.00  0.00    -0.000 C 
BRANCH  22  23
ATOM     23  C   UNL     1      17.169  -2.382  60.441  1.00  0.00    -0.000 C 
BRANCH  23  24
ATOM     24  C   UNL     1      17.889  -1.891  61.704  1.00  0.00    -0.000 C 
BRANCH  24  25
ATOM     25  C   UNL     1      18.875  -2.945  62.222  1.00  0.00    -0.003 C 
ATOM     26  C   UNL     1      20.303  -2.623  61.792  1.00  0.00     0.004 C 
ENDBRANCH  24  25
ENDBRANCH  23  24
ENDBRANCH  22  23
ENDBRANCH  21  22
ENDBRANCH  20  21
ENDBRANCH  19  20
ENDBRANCH  18  19
ENDBRANCH  17  18
ENDBRANCH  16  17
ENDBRANCH  15  16
ENDBRANCH   1  15
TORSDOF 22
ENDMDL
MODEL 9
REMARK VINA RESULT:    -3.908      3.853      6.209
REMARK INTER + INTRA:         -12.881
REMARK INTER:                  -8.601
REMARK INTRA:                  -4.280
REMARK UNBOUND:                -3.947
REMARK SMILES CCCCCCCCCCCCCCCCCCCCCCCC(=O)[O-]
REMARK SMILES IDX 13 1 14 2 15 3 16 4 17 5 18 6 19 7 20 8 21 9 22 10 23 11
REMARK SMILES IDX 24 12 25 13 26 14 12 15 11 16 10 17 9 18 8 19 7 20 6 21 5 22
REMARK SMILES IDX 4 23 3 24 2 25 1 26
REMARK H PARENT
REMARK Flexibility Score: inf
ROOT
ATOM      1  C   UNL     1      15.090   1.106  60.520  1.00  0.00     0.000 C 
ENDROOT
BRANCH   1   2
ATOM      2  C   UNL     1      15.710   1.558  61.855  1.00  0.00     0.000 C 
BRANCH   2   3
ATOM      3  C   UNL     1      17.226   1.833  61.814  1.00  0.00     0.000 C 
BRANCH   3   4
ATOM      4  C   UNL     1      17.823   2.016  60.402  1.00  0.00     0.000 C 
BRANCH   4   5
ATOM      5  C   UNL     1      19.155   1.283  60.161  1.00  0.00     0.000 C 
BRANCH   5   6
ATOM      6  C   UNL     1      19.049  -0.254  60.116  1.00  0.00     0.000 C 
BRANCH   6   7
ATOM      7  C   UNL     1      20.055  -0.974  61.043  1.00  0.00     0.000 C 
BRANCH   7   8
ATOM      8  C   UNL     1      19.391  -2.084  61.877  1.00  0.00     0.000 C 
BRANCH   8   9
ATOM      9  C   UNL     1      17.955  -1.731  62.296  1.00  0.00     0.000 C 
BRANCH   9  10
ATOM     10  C   UNL     1      17.094  -2.977  62.570  1.00  0.00     0.006 C 
BRANCH  10  11
ATOM     11  C   UNL     1      16.651  -3.670  61.275  1.00  0.00     0.053 C 
BRANCH  11  12
ATOM     12  C   UNL     1      17.204  -5.058  61.171  1.00  0.00     0.041 C 
ATOM     13  O   UNL     1      16.717  -5.875  60.347  1.00  0.00    -0.550 OA
ATOM     14  O   UNL     1      18.278  -5.439  61.965  1.00  0.00    -0.550 OA
ENDBRANCH  11  12
ENDBRANCH  10  11
ENDBRANCH   9  10
ENDBRANCH   8   9
ENDBRANCH   7   8
ENDBRANCH   6   7
ENDBRANCH   5   6
ENDBRANCH   4   5
ENDBRANCH   3   4
ENDBRANCH   2   3
ENDBRANCH   1   2
BRANCH   1  15
ATOM     15  C   UNL     1      14.983  -0.424  60.401  1.00  0.00     0.000 C 
BRANCH  15  16
ATOM     16  C   UNL     1      15.637  -0.964  59.119  1.00  0.00     0.000 C 
BRANCH  16  17
ATOM     17  C   UNL     1      15.875   0.135  58.069  1.00  0.00     0.000 C 
BRANCH  17  18
ATOM     18  C   UNL     1      16.499  -0.412  56.775  1.00  0.00    -0.000 C 
BRANCH  18  19
ATOM     19  C   UNL     1      17.825   0.283  56.422  1.00  0.00    -0.000 C 
BRANCH  19  20
ATOM     20  C   UNL     1      17.618   1.552  55.579  1.00  0.00    -0.000 C 
BRANCH  20  21
ATOM     21  C   UNL     1      17.811   2.842  56.397  1.00  0.00    -0.000 C 
BRANCH  21  22
ATOM     22  C   UNL     1      16.596   3.787  56.286  1.00  0.00    -0.000 C 
BRANCH  22  23
ATOM     23  C   UNL     1      15.638   3.705  57.486  1.00  0.00    -0.000 C 
BRANCH  23  24
ATOM     24  C   UNL     1      15.591   5.002  58.304  1.00  0.00    -0.000 C 
BRANCH  24  25
ATOM     25  C   UNL     1      15.498   4.704  59.806  1.00  0.00    -0.003 C 
ATOM     26  C   UNL     1      16.432   5.606  60.607  1.00  0.00     0.004 C 
ENDBRANCH  24  25
ENDBRANCH  23  24
ENDBRANCH  22  23
ENDBRANCH  21  22
ENDBRANCH  20  21
ENDBRANCH  19  20
ENDBRANCH  18  19
ENDBRANCH  17  18
ENDBRANCH  16  17
ENDBRANCH  15  16
ENDBRANCH   1  15
TORSDOF 22
ENDMDL
