MODEL 1
REMARK VINA RESULT:    -5.781      0.000      0.000
REMARK INTER + INTRA:         -10.365
REMARK INTER:                  -7.977
REMARK INTRA:                  -2.387
REMARK UNBOUND:                -2.387
REMARK SMILES CC[C@H](CC[C@@H](C)[C@@H]1CC[C@H]2C3=CC[C@@H]4C[C@@H](O)CC[C@@]4(C)[C@@H]3CC[C@]21C)C(C)C
REMARK SMILES IDX 5 1 4 2 3 3 2 4 1 5 28 6 29 7 30 8 6 9 7 10 8 11 9 12 26 13
REMARK SMILES IDX 10 14 11 15 25 16 27 17 12 18 24 19 23 20 13 21 21 22 14 23
REMARK SMILES IDX 15 24 20 25 22 26 16 27 19 28 17 29 18 30
REMARK H PARENT 18 31
REMARK Flexibility Score: inf
ROOT
ATOM      1  C   UNL     1     137.429 142.562 140.993  1.00  0.00     0.004 C 
ENDROOT
BRANCH   1   2
ATOM      2  C   UNL     1     136.380 141.671 141.696  1.00  0.00     0.004 C 
BRANCH   2   3
ATOM      3  C   UNL     1     136.829 140.194 141.913  1.00  0.00    -0.009 C 
BRANCH   3   4
ATOM      4  C   UNL     1     137.573 139.636 140.664  1.00  0.00     0.000 C 
ATOM      5  C   UNL     1     136.707 139.355 139.433  1.00  0.00     0.004 C 
ENDBRANCH   3   4
BRANCH   3   6
ATOM      6  C   UNL     1     137.501 139.915 143.302  1.00  0.00    -0.014 C 
ATOM      7  C   UNL     1     136.715 138.887 144.134  1.00  0.00     0.007 C 
ATOM      8  C   UNL     1     138.992 139.527 143.260  1.00  0.00     0.007 C 
ENDBRANCH   3   6
ENDBRANCH   2   3
ENDBRANCH   1   2
BRANCH   1   9
ATOM      9  C   UNL     1     138.179 143.547 141.952  1.00  0.00    -0.011 C 
ATOM     10  C   UNL     1     137.329 143.704 143.236  1.00  0.00     0.008 C 
BRANCH   9  11
ATOM     11  C   UNL     1     139.653 143.081 142.274  1.00  0.00    -0.002 C 
ATOM     12  C   UNL     1     140.228 143.717 143.558  1.00  0.00     0.005 C 
ATOM     13  C   UNL     1     140.765 143.328 141.192  1.00  0.00    -0.023 C 
ATOM     14  C   UNL     1     141.725 143.936 143.350  1.00  0.00     0.009 C 
ATOM     15  C   UNL     1     142.088 143.328 141.998  1.00  0.00     0.021 C 
ATOM     16  C   UNL     1     140.856 142.265 140.074  1.00  0.00     0.008 C 
ATOM     17  C   UNL     1     140.614 144.719 140.513  1.00  0.00     0.012 C 
ATOM     18  C   UNL     1     142.730 141.954 142.175  1.00  0.00    -0.067 C 
ATOM     19  C   UNL     1     141.044 140.826 140.571  1.00  0.00     0.009 C 
ATOM     20  C   UNL     1     141.984 140.670 141.808  1.00  0.00     0.021 C 
ATOM     21  C   UNL     1     143.939 141.914 142.786  1.00  0.00    -0.027 C 
ATOM     22  C   UNL     1     142.937 139.413 141.719  1.00  0.00    -0.023 C 
ATOM     23  C   UNL     1     144.674 140.648 143.134  1.00  0.00     0.031 C 
ATOM     24  C   UNL     1     143.783 139.397 143.036  1.00  0.00     0.002 C 
ATOM     25  C   UNL     1     142.080 138.113 141.655  1.00  0.00     0.010 C 
ATOM     26  C   UNL     1     143.853 139.503 140.456  1.00  0.00     0.012 C 
ATOM     27  C   UNL     1     144.623 138.117 143.220  1.00  0.00     0.036 C 
ATOM     28  C   UNL     1     142.905 136.833 141.849  1.00  0.00     0.032 C 
ATOM     29  C   UNL     1     143.766 136.848 143.133  1.00  0.00     0.114 C 
BRANCH  29  30
ATOM     30  O   UNL     1     143.014 136.677 144.311  1.00  0.00    -0.393 OA
ATOM     31  H   UNL     1     143.602 136.808 145.095  1.00  0.00     0.210 HD
ENDBRANCH  29  30
ENDBRANCH   9  11
ENDBRANCH   1   9
TORSDOF 7
ENDMDL
MODEL 2
REMARK VINA RESULT:    -5.700      4.817      8.360
REMARK INTER + INTRA:         -10.253
REMARK INTER:                  -8.094
REMARK INTRA:                  -2.160
REMARK UNBOUND:                -2.387
REMARK SMILES CC[C@H](CC[C@@H](C)[C@@H]1CC[C@H]2C3=CC[C@@H]4C[C@@H](O)CC[C@@]4(C)[C@@H]3CC[C@]21C)C(C)C
REMARK SMILES IDX 5 1 4 2 3 3 2 4 1 5 28 6 29 7 30 8 6 9 7 10 8 11 9 12 26 13
REMARK SMILES IDX 10 14 11 15 25 16 27 17 12 18 24 19 23 20 13 21 21 22 14 23
REMARK SMILES IDX 15 24 20 25 22 26 16 27 19 28 17 29 18 30
REMARK H PARENT 18 31
REMARK Flexibility Score: inf
ROOT
ATOM      1  C   UNL     1     145.207 141.754 134.271  1.00  0.00     0.004 C 
ENDROOT
BRANCH   1   2
ATOM      2  C   UNL     1     146.523 141.414 135.005  1.00  0.00     0.004 C 
BRANCH   2   3
ATOM      3  C   UNL     1     147.157 142.609 135.780  1.00  0.00    -0.009 C 
BRANCH   3   4
ATOM      4  C   UNL     1     146.940 143.955 135.027  1.00  0.00     0.000 C 
ATOM      5  C   UNL     1     148.013 144.338 134.005  1.00  0.00     0.004 C 
ENDBRANCH   3   4
BRANCH   3   6
ATOM      6  C   UNL     1     146.858 142.620 137.319  1.00  0.00    -0.014 C 
ATOM      7  C   UNL     1     148.138 142.492 138.163  1.00  0.00     0.007 C 
ATOM      8  C   UNL     1     146.008 143.801 137.829  1.00  0.00     0.007 C 
ENDBRANCH   3   6
ENDBRANCH   2   3
ENDBRANCH   1   2
BRANCH   1   9
ATOM      9  C   UNL     1     144.159 140.590 134.264  1.00  0.00    -0.011 C 
ATOM     10  C   UNL     1     144.390 139.745 132.988  1.00  0.00     0.008 C 
BRANCH   9  11
ATOM     11  C   UNL     1     144.217 139.708 135.573  1.00  0.00    -0.002 C 
ATOM     12  C   UNL     1     144.662 138.253 135.311  1.00  0.00     0.005 C 
ATOM     13  C   UNL     1     142.909 139.561 136.431  1.00  0.00    -0.023 C 
ATOM     14  C   UNL     1     143.919 137.346 136.289  1.00  0.00     0.009 C 
ATOM     15  C   UNL     1     143.119 138.249 137.225  1.00  0.00     0.021 C 
ATOM     16  C   UNL     1     142.629 140.712 137.422  1.00  0.00     0.008 C 
ATOM     17  C   UNL     1     141.648 139.387 135.537  1.00  0.00     0.012 C 
ATOM     18  C   UNL     1     143.837 138.417 138.562  1.00  0.00    -0.067 C 
ATOM     19  C   UNL     1     143.767 140.998 138.412  1.00  0.00     0.009 C 
ATOM     20  C   UNL     1     144.514 139.735 138.946  1.00  0.00     0.021 C 
ATOM     21  C   UNL     1     143.955 137.314 139.340  1.00  0.00    -0.027 C 
ATOM     22  C   UNL     1     144.865 139.817 140.484  1.00  0.00    -0.023 C 
ATOM     23  C   UNL     1     144.714 137.268 140.639  1.00  0.00     0.031 C 
ATOM     24  C   UNL     1     145.621 138.494 140.842  1.00  0.00     0.002 C 
ATOM     25  C   UNL     1     145.817 141.025 140.736  1.00  0.00     0.010 C 
ATOM     26  C   UNL     1     143.568 139.979 141.339  1.00  0.00     0.012 C 
ATOM     27  C   UNL     1     146.230 138.489 142.259  1.00  0.00     0.036 C 
ATOM     28  C   UNL     1     146.438 141.024 142.141  1.00  0.00     0.032 C 
ATOM     29  C   UNL     1     147.146 139.697 142.495  1.00  0.00     0.114 C 
BRANCH  29  30
ATOM     30  O   UNL     1     148.375 139.524 141.829  1.00  0.00    -0.393 OA
ATOM     31  H   UNL     1     148.627 140.371 141.384  1.00  0.00     0.210 HD
ENDBRANCH  29  30
ENDBRANCH   9  11
ENDBRANCH   1   9
TORSDOF 7
ENDMDL
MODEL 3
REMARK VINA RESULT:    -5.646      2.069      3.791
REMARK INTER + INTRA:         -10.179
REMARK INTER:                  -8.413
REMARK INTRA:                  -1.766
REMARK UNBOUND:                -2.387
REMARK SMILES CC[C@H](CC[C@@H](C)[C@@H]1CC[C@H]2C3=CC[C@@H]4C[C@@H](O)CC[C@@]4(C)[C@@H]3CC[C@]21C)C(C)C
REMARK SMILES IDX 5 1 4 2 3 3 2 4 1 5 28 6 29 7 30 8 6 9 7 10 8 11 9 12 26 13
REMARK SMILES IDX 10 14 11 15 25 16 27 17 12 18 24 19 23 20 13 21 21 22 14 23
REMARK SMILES IDX 15 24 20 25 22 26 16 27 19 28 17 29 18 30
REMARK H PARENT 18 31
REMARK Flexibility Score: inf
ROOT
ATOM      1  C   UNL     1     139.799 141.314 141.463  1.00  0.00     0.004 C 
ENDROOT
BRANCH   1   2
ATOM      2  C   UNL     1     139.426 140.692 142.827  1.00  0.00     0.004 C 
BRANCH   2   3
ATOM      3  C   UNL     1     137.897 140.665 143.129  1.00  0.00    -0.009 C 
BRANCH   3   4
ATOM      4  C   UNL     1     137.137 141.753 142.314  1.00  0.00     0.000 C 
ATOM      5  C   UNL     1     137.201 143.178 142.869  1.00  0.00     0.004 C 
ENDBRANCH   3   4
BRANCH   3   6
ATOM      6  C   UNL     1     137.260 139.232 143.135  1.00  0.00    -0.014 C 
ATOM      7  C   UNL     1     138.249 138.152 142.665  1.00  0.00     0.007 C 
ATOM      8  C   UNL     1     136.597 138.798 144.458  1.00  0.00     0.007 C 
ENDBRANCH   3   6
ENDBRANCH   2   3
ENDBRANCH   1   2
BRANCH   1   9
ATOM      9  C   UNL     1     141.200 142.012 141.439  1.00  0.00    -0.011 C 
ATOM     10  C   UNL     1     141.022 143.460 141.956  1.00  0.00     0.008 C 
BRANCH   9  11
ATOM     11  C   UNL     1     142.291 141.222 142.264  1.00  0.00    -0.002 C 
ATOM     12  C   UNL     1     143.355 142.139 142.905  1.00  0.00     0.005 C 
ATOM     13  C   UNL     1     143.129 140.118 141.525  1.00  0.00    -0.023 C 
ATOM     14  C   UNL     1     144.688 141.394 142.900  1.00  0.00     0.009 C 
ATOM     15  C   UNL     1     144.418 139.987 142.373  1.00  0.00     0.021 C 
ATOM     16  C   UNL     1     142.455 138.733 141.413  1.00  0.00     0.008 C 
ATOM     17  C   UNL     1     143.538 140.565 140.092  1.00  0.00     0.012 C 
ATOM     18  C   UNL     1     144.330 138.984 143.521  1.00  0.00    -0.067 C 
ATOM     19  C   UNL     1     142.017 138.122 142.751  1.00  0.00     0.009 C 
ATOM     20  C   UNL     1     142.995 138.367 143.943  1.00  0.00     0.021 C 
ATOM     21  C   UNL     1     145.463 138.759 144.230  1.00  0.00    -0.027 C 
ATOM     22  C   UNL     1     143.172 137.107 144.879  1.00  0.00    -0.023 C 
ATOM     23  C   UNL     1     145.541 137.885 145.452  1.00  0.00     0.031 C 
ATOM     24  C   UNL     1     144.155 137.532 146.021  1.00  0.00     0.002 C 
ATOM     25  C   UNL     1     141.798 136.732 145.513  1.00  0.00     0.010 C 
ATOM     26  C   UNL     1     143.730 135.892 144.071  1.00  0.00     0.012 C 
ATOM     27  C   UNL     1     144.283 136.491 147.152  1.00  0.00     0.036 C 
ATOM     28  C   UNL     1     141.914 135.704 146.648  1.00  0.00     0.032 C 
ATOM     29  C   UNL     1     142.918 136.119 147.747  1.00  0.00     0.114 C 
BRANCH  29  30
ATOM     30  O   UNL     1     142.443 137.151 148.578  1.00  0.00    -0.393 OA
ATOM     31  H   UNL     1     142.690 138.025 148.187  1.00  0.00     0.210 HD
ENDBRANCH  29  30
ENDBRANCH   9  11
ENDBRANCH   1   9
TORSDOF 7
ENDMDL
MODEL 4
REMARK VINA RESULT:    -5.611      2.770      7.419
REMARK INTER + INTRA:         -10.131
REMARK INTER:                  -8.325
REMARK INTRA:                  -1.806
REMARK UNBOUND:                -2.387
REMARK SMILES CC[C@H](CC[C@@H](C)[C@@H]1CC[C@H]2C3=CC[C@@H]4C[C@@H](O)CC[C@@]4(C)[C@@H]3CC[C@]21C)C(C)C
REMARK SMILES IDX 5 1 4 2 3 3 2 4 1 5 28 6 29 7 30 8 6 9 7 10 8 11 9 12 26 13
REMARK SMILES IDX 10 14 11 15 25 16 27 17 12 18 24 19 23 20 13 21 21 22 14 23
REMARK SMILES IDX 15 24 20 25 22 26 16 27 19 28 17 29 18 30
REMARK H PARENT 18 31
REMARK Flexibility Score: inf
ROOT
ATOM      1  C   UNL     1     144.115 137.758 143.130  1.00  0.00     0.004 C 
ENDROOT
BRANCH   1   2
ATOM      2  C   UNL     1     144.537 138.509 144.412  1.00  0.00     0.004 C 
BRANCH   2   3
ATOM      3  C   UNL     1     145.924 138.083 144.983  1.00  0.00    -0.009 C 
BRANCH   3   4
ATOM      4  C   UNL     1     147.027 139.127 144.636  1.00  0.00     0.000 C 
ATOM      5  C   UNL     1     148.161 138.635 143.734  1.00  0.00     0.004 C 
ENDBRANCH   3   4
BRANCH   3   6
ATOM      6  C   UNL     1     145.890 137.578 146.468  1.00  0.00    -0.014 C 
ATOM      7  C   UNL     1     145.089 136.274 146.621  1.00  0.00     0.007 C 
ATOM      8  C   UNL     1     147.261 137.438 147.160  1.00  0.00     0.007 C 
ENDBRANCH   3   6
ENDBRANCH   2   3
ENDBRANCH   1   2
BRANCH   1   9
ATOM      9  C   UNL     1     144.874 138.218 141.840  1.00  0.00    -0.011 C 
ATOM     10  C   UNL     1     144.946 137.013 140.872  1.00  0.00     0.008 C 
BRANCH   9  11
ATOM     11  C   UNL     1     144.215 139.482 141.160  1.00  0.00    -0.002 C 
ATOM     12  C   UNL     1     144.154 139.386 139.620  1.00  0.00     0.005 C 
ATOM     13  C   UNL     1     144.852 140.892 141.432  1.00  0.00    -0.023 C 
ATOM     14  C   UNL     1     144.342 140.789 139.050  1.00  0.00     0.009 C 
ATOM     15  C   UNL     1     144.395 141.755 140.231  1.00  0.00     0.021 C 
ATOM     16  C   UNL     1     144.414 141.580 142.744  1.00  0.00     0.008 C 
ATOM     17  C   UNL     1     146.407 140.836 141.422  1.00  0.00     0.012 C 
ATOM     18  C   UNL     1     143.052 142.456 140.420  1.00  0.00    -0.067 C 
ATOM     19  C   UNL     1     142.898 141.751 142.903  1.00  0.00     0.009 C 
ATOM     20  C   UNL     1     142.130 142.115 141.592  1.00  0.00     0.021 C 
ATOM     21  C   UNL     1     142.656 143.303 139.438  1.00  0.00    -0.027 C 
ATOM     22  C   UNL     1     140.992 143.189 141.809  1.00  0.00    -0.023 C 
ATOM     23  C   UNL     1     141.324 144.002 139.406  1.00  0.00     0.031 C 
ATOM     24  C   UNL     1     140.320 143.416 140.414  1.00  0.00     0.002 C 
ATOM     25  C   UNL     1     139.926 142.626 142.795  1.00  0.00     0.010 C 
ATOM     26  C   UNL     1     141.587 144.517 142.376  1.00  0.00     0.012 C 
ATOM     27  C   UNL     1     139.043 144.279 140.471  1.00  0.00     0.036 C 
ATOM     28  C   UNL     1     138.646 143.472 142.853  1.00  0.00     0.032 C 
ATOM     29  C   UNL     1     138.016 143.721 141.464  1.00  0.00     0.114 C 
BRANCH  29  30
ATOM     30  O   UNL     1     137.376 142.586 140.928  1.00  0.00    -0.393 OA
ATOM     31  H   UNL     1     136.434 142.570 141.228  1.00  0.00     0.210 HD
ENDBRANCH  29  30
ENDBRANCH   9  11
ENDBRANCH   1   9
TORSDOF 7
ENDMDL
MODEL 5
REMARK VINA RESULT:    -5.569      2.165      4.680
REMARK INTER + INTRA:         -10.072
REMARK INTER:                  -8.104
REMARK INTRA:                  -1.968
REMARK UNBOUND:                -2.387
REMARK SMILES CC[C@H](CC[C@@H](C)[C@@H]1CC[C@H]2C3=CC[C@@H]4C[C@@H](O)CC[C@@]4(C)[C@@H]3CC[C@]21C)C(C)C
REMARK SMILES IDX 5 1 4 2 3 3 2 4 1 5 28 6 29 7 30 8 6 9 7 10 8 11 9 12 26 13
REMARK SMILES IDX 10 14 11 15 25 16 27 17 12 18 24 19 23 20 13 21 21 22 14 23
REMARK SMILES IDX 15 24 20 25 22 26 16 27 19 28 17 29 18 30
REMARK H PARENT 18 31
REMARK Flexibility Score: inf
ROOT
ATOM      1  C   UNL     1     140.610 141.517 140.796  1.00  0.00     0.004 C 
ENDROOT
BRANCH   1   2
ATOM      2  C   UNL     1     140.378 141.557 142.323  1.00  0.00     0.004 C 
BRANCH   2   3
ATOM      3  C   UNL     1     139.618 142.821 142.828  1.00  0.00    -0.009 C 
BRANCH   3   4
ATOM      4  C   UNL     1     140.604 143.961 143.215  1.00  0.00     0.000 C 
ATOM      5  C   UNL     1     141.833 143.543 144.028  1.00  0.00     0.004 C 
ENDBRANCH   3   4
BRANCH   3   6
ATOM      6  C   UNL     1     138.389 143.238 141.946  1.00  0.00    -0.014 C 
ATOM      7  C   UNL     1     137.115 143.447 142.782  1.00  0.00     0.007 C 
ATOM      8  C   UNL     1     138.611 144.446 141.015  1.00  0.00     0.007 C 
ENDBRANCH   3   6
ENDBRANCH   2   3
ENDBRANCH   1   2
BRANCH   1   9
ATOM      9  C   UNL     1     142.116 141.611 140.375  1.00  0.00    -0.011 C 
ATOM     10  C   UNL     1     142.490 143.109 140.266  1.00  0.00     0.008 C 
BRANCH   9  11
ATOM     11  C   UNL     1     143.075 140.834 141.361  1.00  0.00    -0.002 C 
ATOM     12  C   UNL     1     144.240 141.700 141.889  1.00  0.00     0.005 C 
ATOM     13  C   UNL     1     143.773 139.525 140.843  1.00  0.00    -0.023 C 
ATOM     14  C   UNL     1     145.461 140.799 142.058  1.00  0.00     0.009 C 
ATOM     15  C   UNL     1     145.016 139.371 141.754  1.00  0.00     0.021 C 
ATOM     16  C   UNL     1     142.923 138.238 140.928  1.00  0.00     0.008 C 
ATOM     17  C   UNL     1     144.265 139.673 139.375  1.00  0.00     0.012 C 
ATOM     18  C   UNL     1     144.773 138.591 143.043  1.00  0.00    -0.067 C 
ATOM     19  C   UNL     1     142.381 137.917 142.328  1.00  0.00     0.009 C 
ATOM     20  C   UNL     1     143.360 138.228 143.504  1.00  0.00     0.021 C 
ATOM     21  C   UNL     1     145.852 138.342 143.825  1.00  0.00    -0.027 C 
ATOM     22  C   UNL     1     143.349 137.128 144.637  1.00  0.00    -0.023 C 
ATOM     23  C   UNL     1     145.789 137.678 145.174  1.00  0.00     0.031 C 
ATOM     24  C   UNL     1     144.358 137.605 145.735  1.00  0.00     0.002 C 
ATOM     25  C   UNL     1     141.926 137.042 145.266  1.00  0.00     0.010 C 
ATOM     26  C   UNL     1     143.756 135.735 144.058  1.00  0.00     0.012 C 
ATOM     27  C   UNL     1     144.324 136.757 147.022  1.00  0.00     0.036 C 
ATOM     28  C   UNL     1     141.882 136.209 146.555  1.00  0.00     0.032 C 
ATOM     29  C   UNL     1     142.911 136.666 147.613  1.00  0.00     0.114 C 
BRANCH  29  30
ATOM     30  O   UNL     1     142.561 137.874 148.248  1.00  0.00    -0.393 OA
ATOM     31  H   UNL     1     143.384 138.378 148.467  1.00  0.00     0.210 HD
ENDBRANCH  29  30
ENDBRANCH   9  11
ENDBRANCH   1   9
TORSDOF 7
ENDMDL
MODEL 6
REMARK VINA RESULT:    -5.549      1.918      4.856
REMARK INTER + INTRA:         -10.045
REMARK INTER:                  -7.313
REMARK INTRA:                  -2.732
REMARK UNBOUND:                -2.387
REMARK SMILES CC[C@H](CC[C@@H](C)[C@@H]1CC[C@H]2C3=CC[C@@H]4C[C@@H](O)CC[C@@]4(C)[C@@H]3CC[C@]21C)C(C)C
REMARK SMILES IDX 5 1 4 2 3 3 2 4 1 5 28 6 29 7 30 8 6 9 7 10 8 11 9 12 26 13
REMARK SMILES IDX 10 14 11 15 25 16 27 17 12 18 24 19 23 20 13 21 21 22 14 23
REMARK SMILES IDX 15 24 20 25 22 26 16 27 19 28 17 29 18 30
REMARK H PARENT 18 31
REMARK Flexibility Score: inf
ROOT
ATOM      1  C   UNL     1     138.757 142.940 142.611  1.00  0.00     0.004 C 
ENDROOT
BRANCH   1   2
ATOM      2  C   UNL     1     140.270 143.055 142.899  1.00  0.00     0.004 C 
BRANCH   2   3
ATOM      3  C   UNL     1     140.924 144.380 142.402  1.00  0.00    -0.009 C 
BRANCH   3   4
ATOM      4  C   UNL     1     141.652 145.125 143.560  1.00  0.00     0.000 C 
ATOM      5  C   UNL     1     141.640 144.428 144.923  1.00  0.00     0.004 C 
ENDBRANCH   3   4
BRANCH   3   6
ATOM      6  C   UNL     1     141.718 144.249 141.056  1.00  0.00    -0.014 C 
ATOM      7  C   UNL     1     142.630 143.011 141.036  1.00  0.00     0.007 C 
ATOM      8  C   UNL     1     140.869 144.298 139.770  1.00  0.00     0.007 C 
ENDBRANCH   3   6
ENDBRANCH   2   3
ENDBRANCH   1   2
BRANCH   1   9
ATOM      9  C   UNL     1     138.374 141.755 141.662  1.00  0.00    -0.011 C 
ATOM     10  C   UNL     1     137.654 142.345 140.426  1.00  0.00     0.008 C 
BRANCH   9  11
ATOM     11  C   UNL     1     139.619 140.873 141.254  1.00  0.00    -0.002 C 
ATOM     12  C   UNL     1     139.857 140.819 139.729  1.00  0.00     0.005 C 
ATOM     13  C   UNL     1     139.643 139.366 141.700  1.00  0.00    -0.023 C 
ATOM     14  C   UNL     1     140.399 139.434 139.383  1.00  0.00     0.009 C 
ATOM     15  C   UNL     1     140.608 138.687 140.697  1.00  0.00     0.021 C 
ATOM     16  C   UNL     1     140.143 139.105 143.138  1.00  0.00     0.008 C 
ATOM     17  C   UNL     1     138.246 138.698 141.555  1.00  0.00     0.012 C 
ATOM     18  C   UNL     1     142.078 138.710 141.107  1.00  0.00    -0.067 C 
ATOM     19  C   UNL     1     141.536 139.671 143.447  1.00  0.00     0.009 C 
ATOM     20  C   UNL     1     142.568 139.562 142.280  1.00  0.00     0.021 C 
ATOM     21  C   UNL     1     142.949 138.041 140.313  1.00  0.00    -0.027 C 
ATOM     22  C   UNL     1     144.020 139.165 142.760  1.00  0.00    -0.023 C 
ATOM     23  C   UNL     1     144.442 138.036 140.504  1.00  0.00     0.031 C 
ATOM     24  C   UNL     1     144.920 139.124 141.481  1.00  0.00     0.002 C 
ATOM     25  C   UNL     1     144.566 140.260 143.725  1.00  0.00     0.010 C 
ATOM     26  C   UNL     1     144.002 137.782 143.487  1.00  0.00     0.012 C 
ATOM     27  C   UNL     1     146.423 138.959 141.782  1.00  0.00     0.036 C 
ATOM     28  C   UNL     1     146.065 140.112 144.024  1.00  0.00     0.032 C 
ATOM     29  C   UNL     1     146.937 140.032 142.751  1.00  0.00     0.114 C 
BRANCH  29  30
ATOM     30  O   UNL     1     147.076 141.269 142.091  1.00  0.00    -0.393 OA
ATOM     31  H   UNL     1     148.015 141.382 141.804  1.00  0.00     0.210 HD
ENDBRANCH  29  30
ENDBRANCH   9  11
ENDBRANCH   1   9
TORSDOF 7
ENDMDL
MODEL 7
REMARK VINA RESULT:    -5.547      1.529      2.154
REMARK INTER + INTRA:         -10.042
REMARK INTER:                  -7.314
REMARK INTRA:                  -2.727
REMARK UNBOUND:                -2.387
REMARK SMILES CC[C@H](CC[C@@H](C)[C@@H]1CC[C@H]2C3=CC[C@@H]4C[C@@H](O)CC[C@@]4(C)[C@@H]3CC[C@]21C)C(C)C
REMARK SMILES IDX 5 1 4 2 3 3 2 4 1 5 28 6 29 7 30 8 6 9 7 10 8 11 9 12 26 13
REMARK SMILES IDX 10 14 11 15 25 16 27 17 12 18 24 19 23 20 13 21 21 22 14 23
REMARK SMILES IDX 15 24 20 25 22 26 16 27 19 28 17 29 18 30
REMARK H PARENT 18 31
REMARK Flexibility Score: inf
ROOT
ATOM      1  C   UNL     1     136.710 141.751 141.745  1.00  0.00     0.004 C 
ENDROOT
BRANCH   1   2
ATOM      2  C   UNL     1     137.538 140.451 141.640  1.00  0.00     0.004 C 
BRANCH   2   3
ATOM      3  C   UNL     1     137.856 139.775 143.009  1.00  0.00    -0.009 C 
BRANCH   3   4
ATOM      4  C   UNL     1     136.565 139.227 143.686  1.00  0.00     0.000 C 
ATOM      5  C   UNL     1     136.770 138.170 144.773  1.00  0.00     0.004 C 
ENDBRANCH   3   4
BRANCH   3   6
ATOM      6  C   UNL     1     139.091 138.809 142.987  1.00  0.00    -0.014 C 
ATOM      7  C   UNL     1     139.129 137.941 141.718  1.00  0.00     0.007 C 
ATOM      8  C   UNL     1     140.465 139.472 143.212  1.00  0.00     0.007 C 
ENDBRANCH   3   6
ENDBRANCH   2   3
ENDBRANCH   1   2
BRANCH   1   9
ATOM      9  C   UNL     1     137.573 143.051 141.879  1.00  0.00    -0.011 C 
ATOM     10  C   UNL     1     137.190 143.746 143.207  1.00  0.00     0.008 C 
BRANCH   9  11
ATOM     11  C   UNL     1     139.124 142.767 141.788  1.00  0.00    -0.002 C 
ATOM     12  C   UNL     1     139.898 143.188 143.057  1.00  0.00     0.005 C 
ATOM     13  C   UNL     1     139.934 143.418 140.610  1.00  0.00    -0.023 C 
ATOM     14  C   UNL     1     141.277 143.682 142.628  1.00  0.00     0.009 C 
ATOM     15  C   UNL     1     141.395 143.451 141.124  1.00  0.00     0.021 C 
ATOM     16  C   UNL     1     139.888 142.655 139.268  1.00  0.00     0.008 C 
ATOM     17  C   UNL     1     139.484 144.882 140.339  1.00  0.00     0.012 C 
ATOM     18  C   UNL     1     142.206 142.192 140.829  1.00  0.00    -0.067 C 
ATOM     19  C   UNL     1     140.339 141.190 139.346  1.00  0.00     0.009 C 
ATOM     20  C   UNL     1     141.542 140.917 140.304  1.00  0.00     0.021 C 
ATOM     21  C   UNL     1     143.518 142.212 141.169  1.00  0.00    -0.027 C 
ATOM     22  C   UNL     1     142.582 139.879 139.726  1.00  0.00    -0.023 C 
ATOM     23  C   UNL     1     144.445 141.033 141.046  1.00  0.00     0.031 C 
ATOM     24  C   UNL     1     143.696 139.709 140.812  1.00  0.00     0.002 C 
ATOM     25  C   UNL     1     141.879 138.505 139.507  1.00  0.00     0.010 C 
ATOM     26  C   UNL     1     143.178 140.388 138.375  1.00  0.00     0.012 C 
ATOM     27  C   UNL     1     144.691 138.570 140.510  1.00  0.00     0.036 C 
ATOM     28  C   UNL     1     142.861 137.361 139.216  1.00  0.00     0.032 C 
ATOM     29  C   UNL     1     143.979 137.231 140.275  1.00  0.00     0.114 C 
BRANCH  29  30
ATOM     30  O   UNL     1     143.532 136.688 141.496  1.00  0.00    -0.393 OA
ATOM     31  H   UNL     1     144.299 136.601 142.114  1.00  0.00     0.210 HD
ENDBRANCH  29  30
ENDBRANCH   9  11
ENDBRANCH   1   9
TORSDOF 7
ENDMDL
MODEL 8
REMARK VINA RESULT:    -5.517      4.104      8.160
REMARK INTER + INTRA:         -10.001
REMARK INTER:                  -7.372
REMARK INTRA:                  -2.629
REMARK UNBOUND:                -2.387
REMARK SMILES CC[C@H](CC[C@@H](C)[C@@H]1CC[C@H]2C3=CC[C@@H]4C[C@@H](O)CC[C@@]4(C)[C@@H]3CC[C@]21C)C(C)C
REMARK SMILES IDX 5 1 4 2 3 3 2 4 1 5 28 6 29 7 30 8 6 9 7 10 8 11 9 12 26 13
REMARK SMILES IDX 10 14 11 15 25 16 27 17 12 18 24 19 23 20 13 21 21 22 14 23
REMARK SMILES IDX 15 24 20 25 22 26 16 27 19 28 17 29 18 30
REMARK H PARENT 18 31
REMARK Flexibility Score: inf
ROOT
ATOM      1  C   UNL     1     139.530 140.921 141.668  1.00  0.00     0.004 C 
ENDROOT
BRANCH   1   2
ATOM      2  C   UNL     1     140.575 142.057 141.599  1.00  0.00     0.004 C 
BRANCH   2   3
ATOM      3  C   UNL     1     140.091 143.416 142.193  1.00  0.00    -0.009 C 
BRANCH   3   4
ATOM      4  C   UNL     1     138.770 143.247 142.999  1.00  0.00     0.000 C 
ATOM      5  C   UNL     1     137.507 143.822 142.353  1.00  0.00     0.004 C 
ENDBRANCH   3   4
BRANCH   3   6
ATOM      6  C   UNL     1     141.218 144.264 142.879  1.00  0.00    -0.014 C 
ATOM      7  C   UNL     1     141.473 145.593 142.148  1.00  0.00     0.007 C 
ATOM      8  C   UNL     1     141.040 144.519 144.389  1.00  0.00     0.007 C 
ENDBRANCH   3   6
ENDBRANCH   2   3
ENDBRANCH   1   2
BRANCH   1   9
ATOM      9  C   UNL     1     138.944 140.507 140.276  1.00  0.00    -0.011 C 
ATOM     10  C   UNL     1     138.068 139.248 140.482  1.00  0.00     0.008 C 
BRANCH   9  11
ATOM     11  C   UNL     1     138.142 141.675 139.578  1.00  0.00    -0.002 C 
ATOM     12  C   UNL     1     136.638 141.369 139.409  1.00  0.00     0.005 C 
ATOM     13  C   UNL     1     138.602 142.144 138.151  1.00  0.00    -0.023 C 
ATOM     14  C   UNL     1     136.167 142.011 138.107  1.00  0.00     0.009 C 
ATOM     15  C   UNL     1     137.341 142.808 137.544  1.00  0.00     0.021 C 
ATOM     16  C   UNL     1     139.767 143.157 138.125  1.00  0.00     0.008 C 
ATOM     17  C   UNL     1     138.996 140.942 137.246  1.00  0.00     0.012 C 
ATOM     18  C   UNL     1     137.188 144.295 137.855  1.00  0.00    -0.067 C 
ATOM     19  C   UNL     1     139.529 144.432 138.945  1.00  0.00     0.009 C 
ATOM     20  C   UNL     1     138.071 144.990 138.893  1.00  0.00     0.021 C 
ATOM     21  C   UNL     1     136.155 144.944 137.263  1.00  0.00    -0.027 C 
ATOM     22  C   UNL     1     138.005 146.565 138.796  1.00  0.00    -0.023 C 
ATOM     23  C   UNL     1     135.790 146.380 137.529  1.00  0.00     0.031 C 
ATOM     24  C   UNL     1     136.488 146.950 138.776  1.00  0.00     0.002 C 
ATOM     25  C   UNL     1     138.667 147.193 140.059  1.00  0.00     0.010 C 
ATOM     26  C   UNL     1     138.736 147.071 137.511  1.00  0.00     0.012 C 
ATOM     27  C   UNL     1     136.228 148.465 138.897  1.00  0.00     0.036 C 
ATOM     28  C   UNL     1     138.406 148.700 140.196  1.00  0.00     0.032 C 
ATOM     29  C   UNL     1     136.906 149.068 140.134  1.00  0.00     0.114 C 
BRANCH  29  30
ATOM     30  O   UNL     1     136.198 148.725 141.302  1.00  0.00    -0.393 OA
ATOM     31  H   UNL     1     136.756 148.926 142.093  1.00  0.00     0.210 HD
ENDBRANCH  29  30
ENDBRANCH   9  11
ENDBRANCH   1   9
TORSDOF 7
ENDMDL
MODEL 9
REMARK VINA RESULT:    -5.459      1.522      2.570
REMARK INTER + INTRA:          -9.920
REMARK INTER:                  -7.587
REMARK INTRA:                  -2.333
REMARK UNBOUND:                -2.387
REMARK SMILES CC[C@H](CC[C@@H](C)[C@@H]1CC[C@H]2C3=CC[C@@H]4C[C@@H](O)CC[C@@]4(C)[C@@H]3CC[C@]21C)C(C)C
REMARK SMILES IDX 5 1 4 2 3 3 2 4 1 5 28 6 29 7 30 8 6 9 7 10 8 11 9 12 26 13
REMARK SMILES IDX 10 14 11 15 25 16 27 17 12 18 24 19 23 20 13 21 21 22 14 23
REMARK SMILES IDX 15 24 20 25 22 26 16 27 19 28 17 29 18 30
REMARK H PARENT 18 31
REMARK Flexibility Score: inf
ROOT
ATOM      1  C   UNL     1     138.068 140.808 143.007  1.00  0.00     0.004 C 
ENDROOT
BRANCH   1   2
ATOM      2  C   UNL     1     137.528 139.756 142.013  1.00  0.00     0.004 C 
BRANCH   2   3
ATOM      3  C   UNL     1     137.725 140.124 140.511  1.00  0.00    -0.009 C 
BRANCH   3   4
ATOM      4  C   UNL     1     138.302 138.925 139.703  1.00  0.00     0.000 C 
ATOM      5  C   UNL     1     138.518 137.626 140.483  1.00  0.00     0.004 C 
ENDBRANCH   3   4
BRANCH   3   6
ATOM      6  C   UNL     1     136.514 140.879 139.861  1.00  0.00    -0.014 C 
ATOM      7  C   UNL     1     135.239 140.780 140.717  1.00  0.00     0.007 C 
ATOM      8  C   UNL     1     136.771 142.348 139.470  1.00  0.00     0.007 C 
ENDBRANCH   3   6
ENDBRANCH   2   3
ENDBRANCH   1   2
BRANCH   1   9
ATOM      9  C   UNL     1     138.945 141.923 142.344  1.00  0.00    -0.011 C 
ATOM     10  C   UNL     1     138.443 143.295 142.855  1.00  0.00     0.008 C 
BRANCH   9  11
ATOM     11  C   UNL     1     140.490 141.724 142.610  1.00  0.00    -0.002 C 
ATOM     12  C   UNL     1     141.165 142.961 143.242  1.00  0.00     0.005 C 
ATOM     13  C   UNL     1     141.415 141.360 141.394  1.00  0.00    -0.023 C 
ATOM     14  C   UNL     1     142.590 143.051 142.701  1.00  0.00     0.009 C 
ATOM     15  C   UNL     1     142.827 141.812 141.840  1.00  0.00     0.021 C 
ATOM     16  C   UNL     1     141.460 139.863 141.015  1.00  0.00     0.008 C 
ATOM     17  C   UNL     1     141.033 142.162 140.117  1.00  0.00     0.012 C 
ATOM     18  C   UNL     1     143.623 140.761 142.609  1.00  0.00    -0.067 C 
ATOM     19  C   UNL     1     141.859 138.923 142.160  1.00  0.00     0.009 C 
ATOM     20  C   UNL     1     142.968 139.473 143.113  1.00  0.00     0.021 C 
ATOM     21  C   UNL     1     144.901 141.073 142.934  1.00  0.00    -0.027 C 
ATOM     22  C   UNL     1     144.023 138.379 143.546  1.00  0.00    -0.023 C 
ATOM     23  C   UNL     1     145.801 140.205 143.772  1.00  0.00     0.031 C 
ATOM     24  C   UNL     1     145.036 139.088 144.505  1.00  0.00     0.002 C 
ATOM     25  C   UNL     1     143.301 137.241 144.328  1.00  0.00     0.010 C 
ATOM     26  C   UNL     1     144.746 137.784 142.295  1.00  0.00     0.012 C 
ATOM     27  C   UNL     1     146.019 138.123 145.197  1.00  0.00     0.036 C 
ATOM     28  C   UNL     1     144.271 136.279 145.030  1.00  0.00     0.032 C 
ATOM     29  C   UNL     1     145.290 136.997 145.943  1.00  0.00     0.114 C 
BRANCH  29  30
ATOM     30  O   UNL     1     144.726 137.481 147.139  1.00  0.00    -0.393 OA
ATOM     31  H   UNL     1     145.145 138.347 147.370  1.00  0.00     0.210 HD
ENDBRANCH  29  30
ENDBRANCH   9  11
ENDBRANCH   1   9
TORSDOF 7
ENDMDL
