MODEL 1
REMARK VINA RESULT:    -6.035      0.000      0.000
REMARK INTER + INTRA:          -7.390
REMARK INTER:                  -7.094
REMARK INTRA:                  -0.296
REMARK UNBOUND:                -0.296
REMARK SMILES O=c1c(O)c(-c2ccc(O)cc2)oc2cc(O)cc(O)c12
REMARK SMILES IDX 5 1 3 2 2 3 1 4 21 5 19 6 18 7 16 8 15 9 14 10 13 11 6 12
REMARK SMILES IDX 7 13 8 14 9 15 12 16 11 17 10 18 4 20 20 22 17 24
REMARK H PARENT 10 19 4 21 20 23 17 25
REMARK Flexibility Score: inf
ROOT
ATOM      1  C   UNL     1      -2.869  52.039  10.708  1.00  0.00     0.180 A 
ATOM      2  C   UNL     1      -1.902  53.010  11.018  1.00  0.00     0.208 A 
ATOM      3  C   UNL     1      -1.702  53.366  12.362  1.00  0.00     0.238 A 
ATOM      4  O   UNL     1      -0.797  54.198  12.639  1.00  0.00    -0.285 OA
ATOM      5  C   UNL     1      -2.480  52.759  13.375  1.00  0.00     0.111 A 
ATOM      6  C   UNL     1      -2.390  53.073  14.765  1.00  0.00     0.134 A 
ATOM      7  C   UNL     1      -3.117  52.316  15.692  1.00  0.00     0.093 A 
ATOM      8  C   UNL     1      -3.979  51.302  15.277  1.00  0.00     0.123 A 
ATOM      9  C   UNL     1      -4.120  51.026  13.917  1.00  0.00     0.094 A 
ATOM     10  C   UNL     1      -3.381  51.740  12.970  1.00  0.00     0.146 A 
ATOM     11  O   UNL     1      -3.537  51.439  11.687  1.00  0.00    -0.452 OA
ENDROOT
BRANCH   1  12
ATOM     12  C   UNL     1      -3.154  51.629   9.314  1.00  0.00     0.021 A 
ATOM     13  C   UNL     1      -4.072  52.335   8.516  1.00  0.00     0.016 A 
ATOM     14  C   UNL     1      -4.344  51.915   7.210  1.00  0.00     0.047 A 
ATOM     15  C   UNL     1      -3.715  50.780   6.691  1.00  0.00     0.115 A 
ATOM     16  C   UNL     1      -2.541  50.476   8.792  1.00  0.00     0.016 A 
ATOM     17  C   UNL     1      -2.815  50.059   7.486  1.00  0.00     0.047 A 
BRANCH  15  18
ATOM     18  O   UNL     1      -3.995  50.373   5.387  1.00  0.00    -0.508 OA
ATOM     19  H   UNL     1      -4.299  49.429   5.182  1.00  0.00     0.293 HD
ENDBRANCH  15  18
ENDBRANCH   1  12
BRANCH   2  20
ATOM     20  O   UNL     1      -1.129  53.582  10.004  1.00  0.00    -0.502 OA
ATOM     21  H   UNL     1      -1.122  54.579   9.821  1.00  0.00     0.293 HD
ENDBRANCH   2  20
BRANCH   6  22
ATOM     22  O   UNL     1      -1.629  54.127  15.279  1.00  0.00    -0.507 OA
ATOM     23  H   UNL     1      -0.634  54.094  15.436  1.00  0.00     0.293 HD
ENDBRANCH   6  22
BRANCH   8  24
ATOM     24  O   UNL     1      -4.698  50.580  16.227  1.00  0.00    -0.508 OA
ATOM     25  H   UNL     1      -5.661  50.808  16.448  1.00  0.00     0.293 HD
ENDBRANCH   8  24
TORSDOF 5
ENDMDL
MODEL 2
REMARK VINA RESULT:    -6.032      0.167      1.070
REMARK INTER + INTRA:          -7.387
REMARK INTER:                  -7.124
REMARK INTRA:                  -0.263
REMARK UNBOUND:                -0.296
REMARK SMILES O=c1c(O)c(-c2ccc(O)cc2)oc2cc(O)cc(O)c12
REMARK SMILES IDX 5 1 3 2 2 3 1 4 21 5 19 6 18 7 16 8 15 9 14 10 13 11 6 12
REMARK SMILES IDX 7 13 8 14 9 15 12 16 11 17 10 18 4 20 20 22 17 24
REMARK H PARENT 10 19 4 21 20 23 17 25
REMARK Flexibility Score: inf
ROOT
ATOM      1  C   UNL     1      -2.964  52.067  10.665  1.00  0.00     0.180 A 
ATOM      2  C   UNL     1      -2.067  53.116  10.928  1.00  0.00     0.208 A 
ATOM      3  C   UNL     1      -1.860  53.517  12.258  1.00  0.00     0.238 A 
ATOM      4  O   UNL     1      -1.014  54.421  12.492  1.00  0.00    -0.285 OA
ATOM      5  C   UNL     1      -2.562  52.876  13.305  1.00  0.00     0.111 A 
ATOM      6  C   UNL     1      -2.460  53.228  14.685  1.00  0.00     0.134 A 
ATOM      7  C   UNL     1      -3.103  52.439  15.648  1.00  0.00     0.093 A 
ATOM      8  C   UNL     1      -3.895  51.353  15.278  1.00  0.00     0.123 A 
ATOM      9  C   UNL     1      -4.050  51.037  13.928  1.00  0.00     0.094 A 
ATOM     10  C   UNL     1      -3.393  51.782  12.947  1.00  0.00     0.146 A 
ATOM     11  O   UNL     1      -3.559  51.441  11.675  1.00  0.00    -0.452 OA
ENDROOT
BRANCH   1  12
ATOM     12  C   UNL     1      -3.253  51.605   9.289  1.00  0.00     0.021 A 
ATOM     13  C   UNL     1      -2.607  50.482   8.741  1.00  0.00     0.016 A 
ATOM     14  C   UNL     1      -2.878  50.080   7.429  1.00  0.00     0.047 A 
ATOM     15  C   UNL     1      -3.785  50.799   6.646  1.00  0.00     0.115 A 
ATOM     16  C   UNL     1      -4.148  52.336   8.487  1.00  0.00     0.016 A 
ATOM     17  C   UNL     1      -4.418  51.931   7.176  1.00  0.00     0.047 A 
BRANCH  15  18
ATOM     18  O   UNL     1      -4.046  50.385   5.341  1.00  0.00    -0.508 OA
ATOM     19  H   UNL     1      -4.098  51.048   4.576  1.00  0.00     0.293 HD
ENDBRANCH  15  18
ENDBRANCH   1  12
BRANCH   2  20
ATOM     20  O   UNL     1      -1.366  53.721   9.881  1.00  0.00    -0.502 OA
ATOM     21  H   UNL     1      -1.832  54.199   9.119  1.00  0.00     0.293 HD
ENDBRANCH   2  20
BRANCH   6  22
ATOM     22  O   UNL     1      -1.769  54.348  15.155  1.00  0.00    -0.507 OA
ATOM     23  H   UNL     1      -1.722  55.236  14.679  1.00  0.00     0.293 HD
ENDBRANCH   6  22
BRANCH   8  24
ATOM     24  O   UNL     1      -4.532  50.601  16.263  1.00  0.00    -0.508 OA
ATOM     25  H   UNL     1      -5.237  49.912  16.029  1.00  0.00     0.293 HD
ENDBRANCH   8  24
TORSDOF 5
ENDMDL
MODEL 3
REMARK VINA RESULT:    -5.990      1.713      6.538
REMARK INTER + INTRA:          -7.337
REMARK INTER:                  -7.092
REMARK INTRA:                  -0.245
REMARK UNBOUND:                -0.296
REMARK SMILES O=c1c(O)c(-c2ccc(O)cc2)oc2cc(O)cc(O)c12
REMARK SMILES IDX 5 1 3 2 2 3 1 4 21 5 19 6 18 7 16 8 15 9 14 10 13 11 6 12
REMARK SMILES IDX 7 13 8 14 9 15 12 16 11 17 10 18 4 20 20 22 17 24
REMARK H PARENT 10 19 4 21 20 23 17 25
REMARK Flexibility Score: inf
ROOT
ATOM      1  C   UNL     1      -2.977  52.121  11.863  1.00  0.00     0.180 A 
ATOM      2  C   UNL     1      -3.261  53.455  11.527  1.00  0.00     0.208 A 
ATOM      3  C   UNL     1      -3.272  53.829  10.173  1.00  0.00     0.238 A 
ATOM      4  O   UNL     1      -3.581  55.013   9.875  1.00  0.00    -0.285 OA
ATOM      5  C   UNL     1      -2.984  52.868   9.175  1.00  0.00     0.111 A 
ATOM      6  C   UNL     1      -2.927  53.145   7.775  1.00  0.00     0.134 A 
ATOM      7  C   UNL     1      -2.761  52.091   6.869  1.00  0.00     0.093 A 
ATOM      8  C   UNL     1      -2.585  50.781   7.312  1.00  0.00     0.123 A 
ATOM      9  C   UNL     1      -2.578  50.507   8.680  1.00  0.00     0.094 A 
ATOM     10  C   UNL     1      -2.777  51.533   9.608  1.00  0.00     0.146 A 
ATOM     11  O   UNL     1      -2.775  51.228  10.900  1.00  0.00    -0.452 OA
ENDROOT
BRANCH   1  12
ATOM     12  C   UNL     1      -2.922  51.657  13.268  1.00  0.00     0.021 A 
ATOM     13  C   UNL     1      -4.095  51.418  14.007  1.00  0.00     0.016 A 
ATOM     14  C   UNL     1      -4.018  51.004  15.341  1.00  0.00     0.047 A 
ATOM     15  C   UNL     1      -2.774  50.838  15.956  1.00  0.00     0.115 A 
ATOM     16  C   UNL     1      -1.675  51.509  13.900  1.00  0.00     0.016 A 
ATOM     17  C   UNL     1      -1.602  51.095  15.234  1.00  0.00     0.047 A 
BRANCH  15  18
ATOM     18  O   UNL     1      -2.714  50.424  17.285  1.00  0.00    -0.508 OA
ATOM     19  H   UNL     1      -2.291  51.004  18.001  1.00  0.00     0.293 HD
ENDBRANCH  15  18
ENDBRANCH   1  12
BRANCH   2  20
ATOM     20  O   UNL     1      -3.565  54.383  12.527  1.00  0.00    -0.502 OA
ATOM     21  H   UNL     1      -4.417  54.932  12.519  1.00  0.00     0.293 HD
ENDBRANCH   2  20
BRANCH   6  22
ATOM     22  O   UNL     1      -3.000  54.431   7.231  1.00  0.00    -0.507 OA
ATOM     23  H   UNL     1      -2.694  54.681   6.303  1.00  0.00     0.293 HD
ENDBRANCH   6  22
BRANCH   8  24
ATOM     24  O   UNL     1      -2.406  49.759   6.382  1.00  0.00    -0.508 OA
ATOM     25  H   UNL     1      -3.189  49.217   6.035  1.00  0.00     0.293 HD
ENDBRANCH   8  24
TORSDOF 5
ENDMDL
MODEL 4
REMARK VINA RESULT:    -5.744      3.032      6.657
REMARK INTER + INTRA:          -7.048
REMARK INTER:                  -6.760
REMARK INTRA:                  -0.288
REMARK UNBOUND:                -0.296
REMARK SMILES O=c1c(O)c(-c2ccc(O)cc2)oc2cc(O)cc(O)c12
REMARK SMILES IDX 5 1 3 2 2 3 1 4 21 5 19 6 18 7 16 8 15 9 14 10 13 11 6 12
REMARK SMILES IDX 7 13 8 14 9 15 12 16 11 17 10 18 4 20 20 22 17 24
REMARK H PARENT 10 19 4 21 20 23 17 25
REMARK Flexibility Score: inf
ROOT
ATOM      1  C   UNL     1      -4.545  51.588  15.121  1.00  0.00     0.180 A 
ATOM      2  C   UNL     1      -3.552  51.374  16.091  1.00  0.00     0.208 A 
ATOM      3  C   UNL     1      -2.210  51.299  15.685  1.00  0.00     0.238 A 
ATOM      4  O   UNL     1      -1.319  51.161  16.566  1.00  0.00    -0.285 OA
ATOM      5  C   UNL     1      -1.879  51.423  14.315  1.00  0.00     0.111 A 
ATOM      6  C   UNL     1      -0.556  51.322  13.788  1.00  0.00     0.134 A 
ATOM      7  C   UNL     1      -0.332  51.590  12.432  1.00  0.00     0.093 A 
ATOM      8  C   UNL     1      -1.387  51.892  11.572  1.00  0.00     0.123 A 
ATOM      9  C   UNL     1      -2.692  51.934  12.066  1.00  0.00     0.094 A 
ATOM     10  C   UNL     1      -2.943  51.706  13.420  1.00  0.00     0.146 A 
ATOM     11  O   UNL     1      -4.197  51.766  13.851  1.00  0.00    -0.452 OA
ENDROOT
BRANCH   1  12
ATOM     12  C   UNL     1      -5.983  51.655  15.467  1.00  0.00     0.021 A 
ATOM     13  C   UNL     1      -6.589  52.864  15.854  1.00  0.00     0.016 A 
ATOM     14  C   UNL     1      -7.944  52.897  16.201  1.00  0.00     0.047 A 
ATOM     15  C   UNL     1      -8.704  51.724  16.180  1.00  0.00     0.115 A 
ATOM     16  C   UNL     1      -6.750  50.476  15.469  1.00  0.00     0.016 A 
ATOM     17  C   UNL     1      -8.104  50.512  15.816  1.00  0.00     0.047 A 
BRANCH  15  18
ATOM     18  O   UNL     1     -10.053  51.773  16.527  1.00  0.00    -0.508 OA
ATOM     19  H   UNL     1     -10.782  51.753  15.823  1.00  0.00     0.293 HD
ENDBRANCH  15  18
ENDBRANCH   1  12
BRANCH   2  20
ATOM     20  O   UNL     1      -3.897  51.277  17.442  1.00  0.00    -0.502 OA
ATOM     21  H   UNL     1      -3.428  50.644  18.080  1.00  0.00     0.293 HD
ENDBRANCH   2  20
BRANCH   6  22
ATOM     22  O   UNL     1       0.557  50.938  14.541  1.00  0.00    -0.507 OA
ATOM     23  H   UNL     1       0.566  50.183  15.210  1.00  0.00     0.293 HD
ENDBRANCH   6  22
BRANCH   8  24
ATOM     24  O   UNL     1      -1.128  52.137  10.226  1.00  0.00    -0.508 OA
ATOM     25  H   UNL     1      -0.225  51.929   9.814  1.00  0.00     0.293 HD
ENDBRANCH   8  24
TORSDOF 5
ENDMDL
MODEL 5
REMARK VINA RESULT:    -5.720      1.694      1.740
REMARK INTER + INTRA:          -7.020
REMARK INTER:                  -6.775
REMARK INTRA:                  -0.245
REMARK UNBOUND:                -0.296
REMARK SMILES O=c1c(O)c(-c2ccc(O)cc2)oc2cc(O)cc(O)c12
REMARK SMILES IDX 5 1 3 2 2 3 1 4 21 5 19 6 18 7 16 8 15 9 14 10 13 11 6 12
REMARK SMILES IDX 7 13 8 14 9 15 12 16 11 17 10 18 4 20 20 22 17 24
REMARK H PARENT 10 19 4 21 20 23 17 25
REMARK Flexibility Score: inf
ROOT
ATOM      1  C   UNL     1      -2.098  51.634  11.212  1.00  0.00     0.180 A 
ATOM      2  C   UNL     1      -0.704  51.746  11.354  1.00  0.00     0.208 A 
ATOM      3  C   UNL     1      -0.147  51.724  12.643  1.00  0.00     0.238 A 
ATOM      4  O   UNL     1       1.106  51.770  12.761  1.00  0.00    -0.285 OA
ATOM      5  C   UNL     1      -0.990  51.607  13.773  1.00  0.00     0.111 A 
ATOM      6  C   UNL     1      -0.538  51.615  15.127  1.00  0.00     0.134 A 
ATOM      7  C   UNL     1      -1.448  51.362  16.161  1.00  0.00     0.093 A 
ATOM      8  C   UNL     1      -2.802  51.166  15.897  1.00  0.00     0.123 A 
ATOM      9  C   UNL     1      -3.265  51.216  14.581  1.00  0.00     0.094 A 
ATOM     10  C   UNL     1      -2.377  51.430  13.526  1.00  0.00     0.146 A 
ATOM     11  O   UNL     1      -2.857  51.460  12.289  1.00  0.00    -0.452 OA
ENDROOT
BRANCH   1  12
ATOM     12  C   UNL     1      -2.760  51.674   9.889  1.00  0.00     0.021 A 
ATOM     13  C   UNL     1      -3.442  52.822   9.444  1.00  0.00     0.016 A 
ATOM     14  C   UNL     1      -4.081  52.827   8.200  1.00  0.00     0.047 A 
ATOM     15  C   UNL     1      -4.061  51.686   7.394  1.00  0.00     0.115 A 
ATOM     16  C   UNL     1      -2.763  50.523   9.081  1.00  0.00     0.016 A 
ATOM     17  C   UNL     1      -3.403  50.532   7.838  1.00  0.00     0.047 A 
BRANCH  15  18
ATOM     18  O   UNL     1      -4.702  51.706   6.156  1.00  0.00    -0.508 OA
ATOM     19  H   UNL     1      -4.981  52.577   5.719  1.00  0.00     0.293 HD
ENDBRANCH  15  18
ENDBRANCH   1  12
BRANCH   2  20
ATOM     20  O   UNL     1       0.112  51.838  10.223  1.00  0.00    -0.502 OA
ATOM     21  H   UNL     1       0.731  52.624  10.062  1.00  0.00     0.293 HD
ENDBRANCH   2  20
BRANCH   6  22
ATOM     22  O   UNL     1       0.779  51.892  15.508  1.00  0.00    -0.507 OA
ATOM     23  H   UNL     1       1.152  52.817  15.657  1.00  0.00     0.293 HD
ENDBRANCH   6  22
BRANCH   8  24
ATOM     24  O   UNL     1      -3.681  50.932  16.952  1.00  0.00    -0.508 OA
ATOM     25  H   UNL     1      -4.484  51.530  17.115  1.00  0.00     0.293 HD
ENDBRANCH   8  24
TORSDOF 5
ENDMDL
MODEL 6
REMARK VINA RESULT:    -5.530      2.356      6.615
REMARK INTER + INTRA:          -6.796
REMARK INTER:                  -6.638
REMARK INTRA:                  -0.158
REMARK UNBOUND:                -0.296
REMARK SMILES O=c1c(O)c(-c2ccc(O)cc2)oc2cc(O)cc(O)c12
REMARK SMILES IDX 5 1 3 2 2 3 1 4 21 5 19 6 18 7 16 8 15 9 14 10 13 11 6 12
REMARK SMILES IDX 7 13 8 14 9 15 12 16 11 17 10 18 4 20 20 22 17 24
REMARK H PARENT 10 19 4 21 20 23 17 25
REMARK Flexibility Score: inf
ROOT
ATOM      1  C   UNL     1      -1.732  52.027  11.971  1.00  0.00     0.180 A 
ATOM      2  C   UNL     1      -2.488  53.209  11.899  1.00  0.00     0.208 A 
ATOM      3  C   UNL     1      -3.161  53.515  10.705  1.00  0.00     0.238 A 
ATOM      4  O   UNL     1      -3.881  54.547  10.664  1.00  0.00    -0.285 OA
ATOM      5  C   UNL     1      -3.056  52.645   9.594  1.00  0.00     0.111 A 
ATOM      6  C   UNL     1      -3.662  52.877   8.322  1.00  0.00     0.134 A 
ATOM      7  C   UNL     1      -3.598  51.885   7.336  1.00  0.00     0.093 A 
ATOM      8  C   UNL     1      -2.898  50.698   7.551  1.00  0.00     0.123 A 
ATOM      9  C   UNL     1      -2.251  50.487   8.769  1.00  0.00     0.094 A 
ATOM     10  C   UNL     1      -2.326  51.443   9.785  1.00  0.00     0.146 A 
ATOM     11  O   UNL     1      -1.706  51.198  10.933  1.00  0.00    -0.452 OA
ENDROOT
BRANCH   1  12
ATOM     12  C   UNL     1      -0.975  51.649  13.186  1.00  0.00     0.021 A 
ATOM     13  C   UNL     1       0.431  51.608  13.192  1.00  0.00     0.016 A 
ATOM     14  C   UNL     1       1.123  51.224  14.345  1.00  0.00     0.047 A 
ATOM     15  C   UNL     1       0.422  50.863  15.499  1.00  0.00     0.115 A 
ATOM     16  C   UNL     1      -1.674  51.263  14.344  1.00  0.00     0.016 A 
ATOM     17  C   UNL     1      -0.979  50.880  15.495  1.00  0.00     0.047 A 
BRANCH  15  18
ATOM     18  O   UNL     1       1.125  50.483  16.641  1.00  0.00    -0.508 OA
ATOM     19  H   UNL     1       0.663  50.381  17.537  1.00  0.00     0.293 HD
ENDBRANCH  15  18
ENDBRANCH   1  12
BRANCH   2  20
ATOM     20  O   UNL     1      -2.597  54.043  13.015  1.00  0.00    -0.502 OA
ATOM     21  H   UNL     1      -1.792  54.481  13.448  1.00  0.00     0.293 HD
ENDBRANCH   2  20
BRANCH   6  22
ATOM     22  O   UNL     1      -4.308  54.066   7.971  1.00  0.00    -0.507 OA
ATOM     23  H   UNL     1      -4.881  54.188   7.151  1.00  0.00     0.293 HD
ENDBRANCH   6  22
BRANCH   8  24
ATOM     24  O   UNL     1      -2.843  49.740   6.541  1.00  0.00    -0.508 OA
ATOM     25  H   UNL     1      -3.259  48.824   6.658  1.00  0.00     0.293 HD
ENDBRANCH   8  24
TORSDOF 5
ENDMDL
MODEL 7
REMARK VINA RESULT:    -5.438      2.510      3.388
REMARK INTER + INTRA:          -6.688
REMARK INTER:                  -6.693
REMARK INTRA:                   0.005
REMARK UNBOUND:                -0.296
REMARK SMILES O=c1c(O)c(-c2ccc(O)cc2)oc2cc(O)cc(O)c12
REMARK SMILES IDX 5 1 3 2 2 3 1 4 21 5 19 6 18 7 16 8 15 9 14 10 13 11 6 12
REMARK SMILES IDX 7 13 8 14 9 15 12 16 11 17 10 18 4 20 20 22 17 24
REMARK H PARENT 10 19 4 21 20 23 17 25
REMARK Flexibility Score: inf
ROOT
ATOM      1  C   UNL     1      -2.746  52.767   9.828  1.00  0.00     0.180 A 
ATOM      2  C   UNL     1      -1.662  52.013   9.350  1.00  0.00     0.208 A 
ATOM      3  C   UNL     1      -0.771  51.442  10.273  1.00  0.00     0.238 A 
ATOM      4  O   UNL     1       0.168  50.721   9.841  1.00  0.00    -0.285 OA
ATOM      5  C   UNL     1      -0.966  51.645  11.660  1.00  0.00     0.111 A 
ATOM      6  C   UNL     1      -0.102  51.147  12.682  1.00  0.00     0.134 A 
ATOM      7  C   UNL     1      -0.464  51.298  14.026  1.00  0.00     0.093 A 
ATOM      8  C   UNL     1      -1.623  51.985  14.387  1.00  0.00     0.123 A 
ATOM      9  C   UNL     1      -2.443  52.528  13.398  1.00  0.00     0.094 A 
ATOM     10  C   UNL     1      -2.127  52.362  12.047  1.00  0.00     0.146 A 
ATOM     11  O   UNL     1      -2.940  52.885  11.137  1.00  0.00    -0.452 OA
ENDROOT
BRANCH   1  12
ATOM     12  C   UNL     1      -3.713  53.421   8.917  1.00  0.00     0.021 A 
ATOM     13  C   UNL     1      -4.381  52.696   7.914  1.00  0.00     0.016 A 
ATOM     14  C   UNL     1      -5.272  53.340   7.049  1.00  0.00     0.047 A 
ATOM     15  C   UNL     1      -5.495  54.714   7.165  1.00  0.00     0.115 A 
ATOM     16  C   UNL     1      -3.927  54.807   9.014  1.00  0.00     0.016 A 
ATOM     17  C   UNL     1      -4.819  55.449   8.148  1.00  0.00     0.047 A 
BRANCH  15  18
ATOM     18  O   UNL     1      -6.386  55.343   6.297  1.00  0.00    -0.508 OA
ATOM     19  H   UNL     1      -6.593  54.958   5.382  1.00  0.00     0.293 HD
ENDBRANCH  15  18
ENDBRANCH   1  12
BRANCH   2  20
ATOM     20  O   UNL     1      -1.500  51.806   7.977  1.00  0.00    -0.502 OA
ATOM     21  H   UNL     1      -0.589  51.686   7.549  1.00  0.00     0.293 HD
ENDBRANCH   2  20
BRANCH   6  22
ATOM     22  O   UNL     1       1.125  50.526  12.432  1.00  0.00    -0.507 OA
ATOM     23  H   UNL     1       2.007  51.007  12.354  1.00  0.00     0.293 HD
ENDBRANCH   6  22
BRANCH   8  24
ATOM     24  O   UNL     1      -1.943  52.130  15.735  1.00  0.00    -0.508 OA
ATOM     25  H   UNL     1      -2.716  51.625  16.153  1.00  0.00     0.293 HD
ENDBRANCH   8  24
TORSDOF 5
ENDMDL
MODEL 8
REMARK VINA RESULT:    -5.409      1.900      2.240
REMARK INTER + INTRA:          -6.654
REMARK INTER:                  -6.445
REMARK INTRA:                  -0.209
REMARK UNBOUND:                -0.296
REMARK SMILES O=c1c(O)c(-c2ccc(O)cc2)oc2cc(O)cc(O)c12
REMARK SMILES IDX 5 1 3 2 2 3 1 4 21 5 19 6 18 7 16 8 15 9 14 10 13 11 6 12
REMARK SMILES IDX 7 13 8 14 9 15 12 16 11 17 10 18 4 20 20 22 17 24
REMARK H PARENT 10 19 4 21 20 23 17 25
REMARK Flexibility Score: inf
ROOT
ATOM      1  C   UNL     1      -2.987  52.095  12.221  1.00  0.00     0.180 A 
ATOM      2  C   UNL     1      -3.379  53.438  12.351  1.00  0.00     0.208 A 
ATOM      3  C   UNL     1      -3.570  53.969  13.637  1.00  0.00     0.238 A 
ATOM      4  O   UNL     1      -3.869  55.188  13.749  1.00  0.00    -0.285 OA
ATOM      5  C   UNL     1      -3.382  53.148  14.774  1.00  0.00     0.111 A 
ATOM      6  C   UNL     1      -3.588  53.570  16.122  1.00  0.00     0.134 A 
ATOM      7  C   UNL     1      -3.246  52.712  17.174  1.00  0.00     0.093 A 
ATOM      8  C   UNL     1      -2.768  51.425  16.928  1.00  0.00     0.123 A 
ATOM      9  C   UNL     1      -2.621  50.981  15.614  1.00  0.00     0.094 A 
ATOM     10  C   UNL     1      -2.919  51.827  14.544  1.00  0.00     0.146 A 
ATOM     11  O   UNL     1      -2.755  51.368  13.309  1.00  0.00    -0.452 OA
ENDROOT
BRANCH   1  12
ATOM     12  C   UNL     1      -2.790  51.457  10.899  1.00  0.00     0.021 A 
ATOM     13  C   UNL     1      -3.876  51.180  10.050  1.00  0.00     0.016 A 
ATOM     14  C   UNL     1      -3.668  50.554   8.816  1.00  0.00     0.047 A 
ATOM     15  C   UNL     1      -2.379  50.185   8.423  1.00  0.00     0.115 A 
ATOM     16  C   UNL     1      -1.499  51.063  10.506  1.00  0.00     0.016 A 
ATOM     17  C   UNL     1      -1.293  50.438   9.272  1.00  0.00     0.047 A 
BRANCH  15  18
ATOM     18  O   UNL     1      -2.186  49.563   7.191  1.00  0.00    -0.508 OA
ATOM     19  H   UNL     1      -2.641  48.686   6.965  1.00  0.00     0.293 HD
ENDBRANCH  15  18
ENDBRANCH   1  12
BRANCH   2  20
ATOM     20  O   UNL     1      -3.537  54.238  11.216  1.00  0.00    -0.502 OA
ATOM     21  H   UNL     1      -4.405  54.718  11.005  1.00  0.00     0.293 HD
ENDBRANCH   2  20
BRANCH   6  22
ATOM     22  O   UNL     1      -4.145  54.802  16.477  1.00  0.00    -0.507 OA
ATOM     23  H   UNL     1      -5.134  55.003  16.492  1.00  0.00     0.293 HD
ENDBRANCH   6  22
BRANCH   8  24
ATOM     24  O   UNL     1      -2.454  50.593  18.000  1.00  0.00    -0.508 OA
ATOM     25  H   UNL     1      -2.063  50.961  18.860  1.00  0.00     0.293 HD
ENDBRANCH   8  24
TORSDOF 5
ENDMDL
MODEL 9
REMARK VINA RESULT:    -3.140      2.503      6.718
REMARK INTER + INTRA:          -3.987
REMARK INTER:                  -4.085
REMARK INTRA:                   0.098
REMARK UNBOUND:                -0.296
REMARK SMILES O=c1c(O)c(-c2ccc(O)cc2)oc2cc(O)cc(O)c12
REMARK SMILES IDX 5 1 3 2 2 3 1 4 21 5 19 6 18 7 16 8 15 9 14 10 13 11 6 12
REMARK SMILES IDX 7 13 8 14 9 15 12 16 11 17 10 18 4 20 20 22 17 24
REMARK H PARENT 10 19 4 21 20 23 17 25
REMARK Flexibility Score: inf
ROOT
ATOM      1  C   UNL     1      -1.993  51.794  10.159  1.00  0.00     0.180 A 
ATOM      2  C   UNL     1      -1.983  50.854   9.116  1.00  0.00     0.208 A 
ATOM      3  C   UNL     1      -2.813  51.062   8.003  1.00  0.00     0.238 A 
ATOM      4  O   UNL     1      -2.760  50.244   7.046  1.00  0.00    -0.285 OA
ATOM      5  C   UNL     1      -3.655  52.199   7.954  1.00  0.00     0.111 A 
ATOM      6  C   UNL     1      -4.566  52.489   6.894  1.00  0.00     0.134 A 
ATOM      7  C   UNL     1      -5.254  53.709   6.890  1.00  0.00     0.093 A 
ATOM      8  C   UNL     1      -5.113  54.620   7.936  1.00  0.00     0.123 A 
ATOM      9  C   UNL     1      -4.270  54.320   9.007  1.00  0.00     0.094 A 
ATOM     10  C   UNL     1      -3.544  53.127   9.022  1.00  0.00     0.146 A 
ATOM     11  O   UNL     1      -2.745  52.885  10.055  1.00  0.00    -0.452 OA
ENDROOT
BRANCH   1  12
ATOM     12  C   UNL     1      -1.165  51.631  11.375  1.00  0.00     0.021 A 
ATOM     13  C   UNL     1       0.194  51.278  11.294  1.00  0.00     0.016 A 
ATOM     14  C   UNL     1       0.951  51.104  12.458  1.00  0.00     0.047 A 
ATOM     15  C   UNL     1       0.358  51.267  13.713  1.00  0.00     0.115 A 
ATOM     16  C   UNL     1      -1.759  51.771  12.642  1.00  0.00     0.016 A 
ATOM     17  C   UNL     1      -1.000  51.598  13.803  1.00  0.00     0.047 A 
BRANCH  15  18
ATOM     18  O   UNL     1       1.125  51.092  14.864  1.00  0.00    -0.508 OA
ATOM     19  H   UNL     1       1.648  51.858  15.273  1.00  0.00     0.293 HD
ENDBRANCH  15  18
ENDBRANCH   1  12
BRANCH   2  20
ATOM     20  O   UNL     1      -1.128  49.749   9.173  1.00  0.00    -0.502 OA
ATOM     21  H   UNL     1      -1.472  48.796   9.194  1.00  0.00     0.293 HD
ENDBRANCH   2  20
BRANCH   6  22
ATOM     22  O   UNL     1      -4.850  51.608   5.847  1.00  0.00    -0.507 OA
ATOM     23  H   UNL     1      -5.182  51.886   4.936  1.00  0.00     0.293 HD
ENDBRANCH   6  22
BRANCH   8  24
ATOM     24  O   UNL     1      -5.825  55.817   7.905  1.00  0.00    -0.508 OA
ATOM     25  H   UNL     1      -5.932  56.348   7.048  1.00  0.00     0.293 HD
ENDBRANCH   8  24
TORSDOF 5
ENDMDL
