MODEL 1
REMARK VINA RESULT:    -4.742      0.000      0.000
REMARK INTER + INTRA:          -5.393
REMARK INTER:                  -5.435
REMARK INTRA:                   0.042
REMARK UNBOUND:                 0.042
REMARK SMILES O=C([O-])C=Cc1ccc(O)cc1
REMARK SMILES IDX 6 1 7 2 12 3 8 4 11 5 9 6 5 7 4 8 2 9 1 10 3 11 10 12
REMARK H PARENT 10 13
REMARK Flexibility Score: inf
ROOT
ATOM      1  C   UNL     1      18.046  28.664  28.478  1.00  0.00    -0.025 A 
ATOM      2  C   UNL     1      18.385  30.021  28.362  1.00  0.00     0.012 A 
ATOM      3  C   UNL     1      17.827  28.118  29.755  1.00  0.00     0.012 A 
ATOM      4  C   UNL     1      18.556  30.807  29.505  1.00  0.00     0.047 A 
ATOM      5  C   UNL     1      17.998  28.906  30.898  1.00  0.00     0.047 A 
ATOM      6  C   UNL     1      18.367  30.253  30.776  1.00  0.00     0.115 A 
ENDROOT
BRANCH   1   7
ATOM      7  C   UNL     1      17.819  27.867  27.255  1.00  0.00     0.010 C 
ATOM      8  C   UNL     1      18.248  26.612  27.057  1.00  0.00     0.025 C 
BRANCH   8   9
ATOM      9  C   UNL     1      19.176  25.875  27.934  1.00  0.00     0.064 C 
ATOM     10  O   UNL     1      18.758  24.875  28.573  1.00  0.00    -0.545 OA
ATOM     11  O   UNL     1      20.521  26.217  28.017  1.00  0.00    -0.545 OA
ENDBRANCH   8   9
ENDBRANCH   1   7
BRANCH   6  12
ATOM     12  O   UNL     1      18.541  31.047  31.906  1.00  0.00    -0.508 OA
ATOM     13  H   UNL     1      18.884  31.998  31.837  1.00  0.00     0.293 HD
ENDBRANCH   6  12
TORSDOF 3
ENDMDL
MODEL 2
REMARK VINA RESULT:    -4.696      1.106      1.568
REMARK INTER + INTRA:          -5.340
REMARK INTER:                  -5.042
REMARK INTRA:                  -0.299
REMARK UNBOUND:                 0.042
REMARK SMILES O=C([O-])C=Cc1ccc(O)cc1
REMARK SMILES IDX 6 1 7 2 12 3 8 4 11 5 9 6 5 7 4 8 2 9 1 10 3 11 10 12
REMARK H PARENT 10 13
REMARK Flexibility Score: inf
ROOT
ATOM      1  C   UNL     1      18.177  28.839  28.518  1.00  0.00    -0.025 A 
ATOM      2  C   UNL     1      18.383  30.227  28.465  1.00  0.00     0.012 A 
ATOM      3  C   UNL     1      18.011  28.216  29.767  1.00  0.00     0.012 A 
ATOM      4  C   UNL     1      18.476  30.971  29.645  1.00  0.00     0.047 A 
ATOM      5  C   UNL     1      18.104  28.963  30.946  1.00  0.00     0.047 A 
ATOM      6  C   UNL     1      18.340  30.343  30.887  1.00  0.00     0.115 A 
ENDROOT
BRANCH   1   7
ATOM      7  C   UNL     1      18.029  28.081  27.258  1.00  0.00     0.010 C 
ATOM      8  C   UNL     1      19.010  27.411  26.636  1.00  0.00     0.025 C 
BRANCH   8   9
ATOM      9  C   UNL     1      20.441  27.466  26.988  1.00  0.00     0.064 C 
ATOM     10  O   UNL     1      21.186  28.300  26.410  1.00  0.00    -0.545 OA
ATOM     11  O   UNL     1      20.972  26.667  27.993  1.00  0.00    -0.545 OA
ENDBRANCH   8   9
ENDBRANCH   1   7
BRANCH   6  12
ATOM     12  O   UNL     1      18.437  31.098  32.054  1.00  0.00    -0.508 OA
ATOM     13  H   UNL     1      18.650  30.668  32.946  1.00  0.00     0.293 HD
ENDBRANCH   6  12
TORSDOF 3
ENDMDL
MODEL 3
REMARK VINA RESULT:    -4.649      4.556      6.725
REMARK INTER + INTRA:          -5.287
REMARK INTER:                  -5.121
REMARK INTRA:                  -0.166
REMARK UNBOUND:                 0.042
REMARK SMILES O=C([O-])C=Cc1ccc(O)cc1
REMARK SMILES IDX 6 1 7 2 12 3 8 4 11 5 9 6 5 7 4 8 2 9 1 10 3 11 10 12
REMARK H PARENT 10 13
REMARK Flexibility Score: inf
ROOT
ATOM      1  C   UNL     1      18.259  29.337  35.159  1.00  0.00    -0.025 A 
ATOM      2  C   UNL     1      19.056  29.913  36.161  1.00  0.00     0.012 A 
ATOM      3  C   UNL     1      18.622  28.089  34.624  1.00  0.00     0.012 A 
ATOM      4  C   UNL     1      20.227  29.277  36.583  1.00  0.00     0.047 A 
ATOM      5  C   UNL     1      19.794  27.454  35.048  1.00  0.00     0.047 A 
ATOM      6  C   UNL     1      20.602  28.049  36.027  1.00  0.00     0.115 A 
ENDROOT
BRANCH   1   7
ATOM      7  C   UNL     1      16.998  30.001  34.766  1.00  0.00     0.010 C 
ATOM      8  C   UNL     1      16.703  30.437  33.533  1.00  0.00     0.025 C 
BRANCH   8   9
ATOM      9  C   UNL     1      17.645  30.506  32.400  1.00  0.00     0.064 C 
ATOM     10  O   UNL     1      18.451  31.470  32.328  1.00  0.00    -0.545 OA
ATOM     11  O   UNL     1      17.711  29.495  31.449  1.00  0.00    -0.545 OA
ENDBRANCH   8   9
ENDBRANCH   1   7
BRANCH   6  12
ATOM     12  O   UNL     1      21.772  27.427  36.457  1.00  0.00    -0.508 OA
ATOM     13  H   UNL     1      21.801  26.434  36.655  1.00  0.00     0.293 HD
ENDBRANCH   6  12
TORSDOF 3
ENDMDL
MODEL 4
REMARK VINA RESULT:    -4.632      2.058      4.515
REMARK INTER + INTRA:          -5.267
REMARK INTER:                  -5.103
REMARK INTRA:                  -0.164
REMARK UNBOUND:                 0.042
REMARK SMILES O=C([O-])C=Cc1ccc(O)cc1
REMARK SMILES IDX 6 1 7 2 12 3 8 4 11 5 9 6 5 7 4 8 2 9 1 10 3 11 10 12
REMARK H PARENT 10 13
REMARK Flexibility Score: inf
ROOT
ATOM      1  C   UNL     1      18.100  28.771  29.915  1.00  0.00    -0.025 A 
ATOM      2  C   UNL     1      18.012  27.407  29.598  1.00  0.00     0.012 A 
ATOM      3  C   UNL     1      18.470  29.687  28.914  1.00  0.00     0.012 A 
ATOM      4  C   UNL     1      18.341  26.958  28.316  1.00  0.00     0.047 A 
ATOM      5  C   UNL     1      18.799  29.235  27.632  1.00  0.00     0.047 A 
ATOM      6  C   UNL     1      18.739  27.868  27.331  1.00  0.00     0.115 A 
ENDROOT
BRANCH   1   7
ATOM      7  C   UNL     1      17.696  29.230  31.260  1.00  0.00     0.010 C 
ATOM      8  C   UNL     1      18.406  29.058  32.384  1.00  0.00     0.025 C 
BRANCH   8   9
ATOM      9  C   UNL     1      19.615  28.222  32.514  1.00  0.00     0.064 C 
ATOM     10  O   UNL     1      20.746  28.743  32.338  1.00  0.00    -0.545 OA
ATOM     11  O   UNL     1      19.536  26.888  32.896  1.00  0.00    -0.545 OA
ENDBRANCH   8   9
ENDBRANCH   1   7
BRANCH   6  12
ATOM     12  O   UNL     1      19.065  27.405  26.058  1.00  0.00    -0.508 OA
ATOM     13  H   UNL     1      18.362  27.301  25.336  1.00  0.00     0.293 HD
ENDBRANCH   6  12
TORSDOF 3
ENDMDL
MODEL 5
REMARK VINA RESULT:    -4.584      2.155      4.566
REMARK INTER + INTRA:          -5.212
REMARK INTER:                  -4.947
REMARK INTRA:                  -0.265
REMARK UNBOUND:                 0.042
REMARK SMILES O=C([O-])C=Cc1ccc(O)cc1
REMARK SMILES IDX 6 1 7 2 12 3 8 4 11 5 9 6 5 7 4 8 2 9 1 10 3 11 10 12
REMARK H PARENT 10 13
REMARK Flexibility Score: inf
ROOT
ATOM      1  C   UNL     1      18.349  28.604  28.347  1.00  0.00    -0.025 A 
ATOM      2  C   UNL     1      17.916  28.069  27.124  1.00  0.00     0.012 A 
ATOM      3  C   UNL     1      18.996  27.766  29.272  1.00  0.00     0.012 A 
ATOM      4  C   UNL     1      18.079  26.708  26.851  1.00  0.00     0.047 A 
ATOM      5  C   UNL     1      19.158  26.404  28.998  1.00  0.00     0.047 A 
ATOM      6  C   UNL     1      18.697  25.871  27.787  1.00  0.00     0.115 A 
ENDROOT
BRANCH   1   7
ATOM      7  C   UNL     1      18.214  30.055  28.592  1.00  0.00     0.010 C 
ATOM      8  C   UNL     1      18.994  31.007  28.060  1.00  0.00     0.025 C 
BRANCH   8   9
ATOM      9  C   UNL     1      20.233  30.771  27.295  1.00  0.00     0.064 C 
ATOM     10  O   UNL     1      21.314  30.587  27.913  1.00  0.00    -0.545 OA
ATOM     11  O   UNL     1      20.222  30.674  25.909  1.00  0.00    -0.545 OA
ENDBRANCH   8   9
ENDBRANCH   1   7
BRANCH   6  12
ATOM     12  O   UNL     1      18.851  24.516  27.502  1.00  0.00    -0.508 OA
ATOM     13  H   UNL     1      19.083  24.194  26.569  1.00  0.00     0.293 HD
ENDBRANCH   6  12
TORSDOF 3
ENDMDL
MODEL 6
REMARK VINA RESULT:    -4.471      4.110      6.703
REMARK INTER + INTRA:          -5.083
REMARK INTER:                  -4.784
REMARK INTRA:                  -0.299
REMARK UNBOUND:                 0.042
REMARK SMILES O=C([O-])C=Cc1ccc(O)cc1
REMARK SMILES IDX 6 1 7 2 12 3 8 4 11 5 9 6 5 7 4 8 2 9 1 10 3 11 10 12
REMARK H PARENT 10 13
REMARK Flexibility Score: inf
ROOT
ATOM      1  C   UNL     1      17.611  29.581  33.558  1.00  0.00    -0.025 A 
ATOM      2  C   UNL     1      18.001  28.950  34.749  1.00  0.00     0.012 A 
ATOM      3  C   UNL     1      18.139  29.128  32.336  1.00  0.00     0.012 A 
ATOM      4  C   UNL     1      18.946  27.919  34.725  1.00  0.00     0.047 A 
ATOM      5  C   UNL     1      19.084  28.097  32.314  1.00  0.00     0.047 A 
ATOM      6  C   UNL     1      19.492  27.492  33.510  1.00  0.00     0.115 A 
ENDROOT
BRANCH   1   7
ATOM      7  C   UNL     1      16.573  30.631  33.601  1.00  0.00     0.010 C 
ATOM      8  C   UNL     1      16.806  31.951  33.657  1.00  0.00     0.025 C 
BRANCH   8   9
ATOM      9  C   UNL     1      18.122  32.579  33.875  1.00  0.00     0.064 C 
ATOM     10  O   UNL     1      18.549  32.721  35.050  1.00  0.00    -0.545 OA
ATOM     11  O   UNL     1      18.932  32.955  32.811  1.00  0.00    -0.545 OA
ENDBRANCH   8   9
ENDBRANCH   1   7
BRANCH   6  12
ATOM     12  O   UNL     1      20.433  26.465  33.502  1.00  0.00    -0.508 OA
ATOM     13  H   UNL     1      21.340  26.581  33.065  1.00  0.00     0.293 HD
ENDBRANCH   6  12
TORSDOF 3
ENDMDL
MODEL 7
REMARK VINA RESULT:    -4.446      4.291      5.963
REMARK INTER + INTRA:          -5.054
REMARK INTER:                  -4.842
REMARK INTRA:                  -0.212
REMARK UNBOUND:                 0.042
REMARK SMILES O=C([O-])C=Cc1ccc(O)cc1
REMARK SMILES IDX 6 1 7 2 12 3 8 4 11 5 9 6 5 7 4 8 2 9 1 10 3 11 10 12
REMARK H PARENT 10 13
REMARK Flexibility Score: inf
ROOT
ATOM      1  C   UNL     1      18.569  28.918  35.114  1.00  0.00    -0.025 A 
ATOM      2  C   UNL     1      17.277  29.302  34.724  1.00  0.00     0.012 A 
ATOM      3  C   UNL     1      19.292  29.737  35.999  1.00  0.00     0.012 A 
ATOM      4  C   UNL     1      16.736  30.512  35.169  1.00  0.00     0.047 A 
ATOM      5  C   UNL     1      18.749  30.947  36.443  1.00  0.00     0.047 A 
ATOM      6  C   UNL     1      17.470  31.339  36.026  1.00  0.00     0.115 A 
ENDROOT
BRANCH   1   7
ATOM      7  C   UNL     1      19.100  27.611  34.674  1.00  0.00     0.010 C 
ATOM      8  C   UNL     1      19.610  27.348  33.462  1.00  0.00     0.025 C 
BRANCH   8   9
ATOM      9  C   UNL     1      19.560  28.252  32.298  1.00  0.00     0.064 C 
ATOM     10  O   UNL     1      18.578  28.192  31.513  1.00  0.00    -0.545 OA
ATOM     11  O   UNL     1      20.536  29.218  32.087  1.00  0.00    -0.545 OA
ENDBRANCH   8   9
ENDBRANCH   1   7
BRANCH   6  12
ATOM     12  O   UNL     1      16.918  32.542  36.460  1.00  0.00    -0.508 OA
ATOM     13  H   UNL     1      17.400  33.136  37.125  1.00  0.00     0.293 HD
ENDBRANCH   6  12
TORSDOF 3
ENDMDL
MODEL 8
REMARK VINA RESULT:    -4.443      2.995      4.143
REMARK INTER + INTRA:          -5.050
REMARK INTER:                  -4.898
REMARK INTRA:                  -0.151
REMARK UNBOUND:                 0.042
REMARK SMILES O=C([O-])C=Cc1ccc(O)cc1
REMARK SMILES IDX 6 1 7 2 12 3 8 4 11 5 9 6 5 7 4 8 2 9 1 10 3 11 10 12
REMARK H PARENT 10 13
REMARK Flexibility Score: inf
ROOT
ATOM      1  C   UNL     1      18.321  28.649  31.303  1.00  0.00    -0.025 A 
ATOM      2  C   UNL     1      17.602  29.569  32.081  1.00  0.00     0.012 A 
ATOM      3  C   UNL     1      19.198  27.751  31.936  1.00  0.00     0.012 A 
ATOM      4  C   UNL     1      17.795  29.627  33.464  1.00  0.00     0.047 A 
ATOM      5  C   UNL     1      19.390  27.810  33.321  1.00  0.00     0.047 A 
ATOM      6  C   UNL     1      18.690  28.752  34.088  1.00  0.00     0.115 A 
ENDROOT
BRANCH   1   7
ATOM      7  C   UNL     1      18.062  28.570  29.850  1.00  0.00     0.010 C 
ATOM      8  C   UNL     1      18.444  29.480  28.943  1.00  0.00     0.025 C 
BRANCH   8   9
ATOM      9  C   UNL     1      19.018  30.805  29.247  1.00  0.00     0.064 C 
ATOM     10  O   UNL     1      18.255  31.802  29.329  1.00  0.00    -0.545 OA
ATOM     11  O   UNL     1      20.372  30.964  29.517  1.00  0.00    -0.545 OA
ENDBRANCH   8   9
ENDBRANCH   1   7
BRANCH   6  12
ATOM     12  O   UNL     1      18.873  28.822  35.466  1.00  0.00    -0.508 OA
ATOM     13  H   UNL     1      18.688  29.674  35.982  1.00  0.00     0.293 HD
ENDBRANCH   6  12
TORSDOF 3
ENDMDL
MODEL 9
REMARK VINA RESULT:    -4.312      3.293      6.069
REMARK INTER + INTRA:          -4.900
REMARK INTER:                  -4.603
REMARK INTRA:                  -0.296
REMARK UNBOUND:                 0.042
REMARK SMILES O=C([O-])C=Cc1ccc(O)cc1
REMARK SMILES IDX 6 1 7 2 12 3 8 4 11 5 9 6 5 7 4 8 2 9 1 10 3 11 10 12
REMARK H PARENT 10 13
REMARK Flexibility Score: inf
ROOT
ATOM      1  C   UNL     1      18.751  28.361  33.288  1.00  0.00    -0.025 A 
ATOM      2  C   UNL     1      19.461  27.439  32.503  1.00  0.00     0.012 A 
ATOM      3  C   UNL     1      17.917  29.301  32.658  1.00  0.00     0.012 A 
ATOM      4  C   UNL     1      19.380  27.490  31.108  1.00  0.00     0.047 A 
ATOM      5  C   UNL     1      17.838  29.351  31.263  1.00  0.00     0.047 A 
ATOM      6  C   UNL     1      18.572  28.447  30.484  1.00  0.00     0.115 A 
ENDROOT
BRANCH   1   7
ATOM      7  C   UNL     1      18.810  28.254  34.761  1.00  0.00     0.010 C 
ATOM      8  C   UNL     1      19.569  29.013  35.564  1.00  0.00     0.025 C 
BRANCH   8   9
ATOM      9  C   UNL     1      20.614  29.953  35.118  1.00  0.00     0.064 C 
ATOM     10  O   UNL     1      21.787  29.531  34.943  1.00  0.00    -0.545 OA
ATOM     11  O   UNL     1      20.319  31.277  34.817  1.00  0.00    -0.545 OA
ENDBRANCH   8   9
ENDBRANCH   1   7
BRANCH   6  12
ATOM     12  O   UNL     1      18.503  28.487  29.093  1.00  0.00    -0.508 OA
ATOM     13  H   UNL     1      17.946  29.183  28.611  1.00  0.00     0.293 HD
ENDBRANCH   6  12
TORSDOF 3
ENDMDL
