MODEL 1
REMARK VINA RESULT:    -3.402      0.000      0.000
REMARK INTER + INTRA:          -6.885
REMARK INTER:                  -5.391
REMARK INTRA:                  -1.494
REMARK UNBOUND:                -1.494
REMARK SMILES CCCCCCCCCCCC(=O)[O-]
REMARK SMILES IDX 7 1 8 2 9 3 10 4 11 5 12 6 13 7 14 8 6 9 5 10 4 11 3 12 2 13
REMARK SMILES IDX 1 14
REMARK H PARENT
REMARK Flexibility Score: inf
ROOT
ATOM      1  C   UNL     1      17.430  13.229  31.974  1.00  0.00     0.000 C 
ENDROOT
BRANCH   1   2
ATOM      2  C   UNL     1      16.555  13.896  30.903  1.00  0.00     0.000 C 
BRANCH   2   3
ATOM      3  C   UNL     1      16.924  15.370  30.658  1.00  0.00     0.000 C 
BRANCH   3   4
ATOM      4  C   UNL     1      16.246  16.022  29.437  1.00  0.00     0.006 C 
BRANCH   4   5
ATOM      5  C   UNL     1      15.384  15.053  28.606  1.00  0.00     0.053 C 
BRANCH   5   6
ATOM      6  C   UNL     1      15.777  15.031  27.160  1.00  0.00     0.041 C 
ATOM      7  O   UNL     1      15.937  13.935  26.562  1.00  0.00    -0.550 OA
ATOM      8  O   UNL     1      16.007  16.222  26.481  1.00  0.00    -0.550 OA
ENDBRANCH   5   6
ENDBRANCH   4   5
ENDBRANCH   3   4
ENDBRANCH   2   3
ENDBRANCH   1   2
BRANCH   1   9
ATOM      9  C   UNL     1      18.580  14.155  32.397  1.00  0.00     0.000 C 
BRANCH   9  10
ATOM     10  C   UNL     1      19.956  13.625  31.963  1.00  0.00    -0.000 C 
BRANCH  10  11
ATOM     11  C   UNL     1      20.387  14.159  30.586  1.00  0.00    -0.000 C 
BRANCH  11  12
ATOM     12  C   UNL     1      20.376  13.071  29.500  1.00  0.00    -0.000 C 
BRANCH  12  13
ATOM     13  C   UNL     1      19.294  13.309  28.438  1.00  0.00    -0.003 C 
ATOM     14  C   UNL     1      19.346  14.739  27.911  1.00  0.00     0.004 C 
ENDBRANCH  12  13
ENDBRANCH  11  12
ENDBRANCH  10  11
ENDBRANCH   9  10
ENDBRANCH   1   9
TORSDOF 10
ENDMDL
MODEL 2
REMARK VINA RESULT:    -3.389      3.349      4.445
REMARK INTER + INTRA:          -6.864
REMARK INTER:                  -5.456
REMARK INTRA:                  -1.408
REMARK UNBOUND:                -1.494
REMARK SMILES CCCCCCCCCCCC(=O)[O-]
REMARK SMILES IDX 7 1 8 2 9 3 10 4 11 5 12 6 13 7 14 8 6 9 5 10 4 11 3 12 2 13
REMARK SMILES IDX 1 14
REMARK H PARENT
REMARK Flexibility Score: inf
ROOT
ATOM      1  C   UNL     1      16.856  12.971  31.075  1.00  0.00     0.000 C 
ENDROOT
BRANCH   1   2
ATOM      2  C   UNL     1      15.499  12.566  31.668  1.00  0.00     0.000 C 
BRANCH   2   3
ATOM      3  C   UNL     1      14.341  12.695  30.664  1.00  0.00     0.000 C 
BRANCH   3   4
ATOM      4  C   UNL     1      13.128  13.505  31.161  1.00  0.00     0.006 C 
BRANCH   4   5
ATOM      5  C   UNL     1      12.544  14.468  30.110  1.00  0.00     0.053 C 
BRANCH   5   6
ATOM      6  C   UNL     1      11.132  14.867  30.420  1.00  0.00     0.041 C 
ATOM      7  O   UNL     1      10.781  15.088  31.609  1.00  0.00    -0.550 OA
ATOM      8  O   UNL     1      10.192  14.954  29.400  1.00  0.00    -0.550 OA
ENDBRANCH   5   6
ENDBRANCH   4   5
ENDBRANCH   3   4
ENDBRANCH   2   3
ENDBRANCH   1   2
BRANCH   1   9
ATOM      9  C   UNL     1      17.182  14.436  31.402  1.00  0.00     0.000 C 
BRANCH   9  10
ATOM     10  C   UNL     1      17.382  15.293  30.142  1.00  0.00    -0.000 C 
BRANCH  10  11
ATOM     11  C   UNL     1      16.055  15.813  29.563  1.00  0.00    -0.000 C 
BRANCH  11  12
ATOM     12  C   UNL     1      15.992  15.696  28.032  1.00  0.00    -0.000 C 
BRANCH  12  13
ATOM     13  C   UNL     1      15.174  14.482  27.567  1.00  0.00    -0.003 C 
ATOM     14  C   UNL     1      16.074  13.276  27.320  1.00  0.00     0.004 C 
ENDBRANCH  12  13
ENDBRANCH  11  12
ENDBRANCH  10  11
ENDBRANCH   9  10
ENDBRANCH   1   9
TORSDOF 10
ENDMDL
MODEL 3
REMARK VINA RESULT:    -3.279      1.285      2.262
REMARK INTER + INTRA:          -6.690
REMARK INTER:                  -5.558
REMARK INTRA:                  -1.132
REMARK UNBOUND:                -1.494
REMARK SMILES CCCCCCCCCCCC(=O)[O-]
REMARK SMILES IDX 7 1 8 2 9 3 10 4 11 5 12 6 13 7 14 8 6 9 5 10 4 11 3 12 2 13
REMARK SMILES IDX 1 14
REMARK H PARENT
REMARK Flexibility Score: inf
ROOT
ATOM      1  C   UNL     1      15.548  14.302  30.376  1.00  0.00     0.000 C 
ENDROOT
BRANCH   1   2
ATOM      2  C   UNL     1      16.131  15.591  29.779  1.00  0.00     0.000 C 
BRANCH   2   3
ATOM      3  C   UNL     1      15.954  15.680  28.253  1.00  0.00     0.000 C 
BRANCH   3   4
ATOM      4  C   UNL     1      16.632  14.555  27.447  1.00  0.00     0.006 C 
BRANCH   4   5
ATOM      5  C   UNL     1      17.013  14.955  26.010  1.00  0.00     0.053 C 
BRANCH   5   6
ATOM      6  C   UNL     1      15.816  15.107  25.120  1.00  0.00     0.041 C 
ATOM      7  O   UNL     1      14.930  14.213  25.091  1.00  0.00    -0.550 OA
ATOM      8  O   UNL     1      15.698  16.216  24.292  1.00  0.00    -0.550 OA
ENDBRANCH   5   6
ENDBRANCH   4   5
ENDBRANCH   3   4
ENDBRANCH   2   3
ENDBRANCH   1   2
BRANCH   1   9
ATOM      9  C   UNL     1      16.579  13.598  31.272  1.00  0.00     0.000 C 
BRANCH   9  10
ATOM     10  C   UNL     1      17.752  14.513  31.655  1.00  0.00    -0.000 C 
BRANCH  10  11
ATOM     11  C   UNL     1      19.004  13.724  32.076  1.00  0.00    -0.000 C 
BRANCH  11  12
ATOM     12  C   UNL     1      20.205  13.984  31.151  1.00  0.00    -0.000 C 
BRANCH  12  13
ATOM     13  C   UNL     1      19.795  14.629  29.819  1.00  0.00    -0.003 C 
ATOM     14  C   UNL     1      20.010  13.668  28.654  1.00  0.00     0.004 C 
ENDBRANCH  12  13
ENDBRANCH  11  12
ENDBRANCH  10  11
ENDBRANCH   9  10
ENDBRANCH   1   9
TORSDOF 10
ENDMDL
MODEL 4
REMARK VINA RESULT:    -3.268      3.261      4.941
REMARK INTER + INTRA:          -6.673
REMARK INTER:                  -5.387
REMARK INTRA:                  -1.286
REMARK UNBOUND:                -1.494
REMARK SMILES CCCCCCCCCCCC(=O)[O-]
REMARK SMILES IDX 7 1 8 2 9 3 10 4 11 5 12 6 13 7 14 8 6 9 5 10 4 11 3 12 2 13
REMARK SMILES IDX 1 14
REMARK H PARENT
REMARK Flexibility Score: inf
ROOT
ATOM      1  C   UNL     1      15.497  14.197  27.415  1.00  0.00     0.000 C 
ENDROOT
BRANCH   1   2
ATOM      2  C   UNL     1      14.098  14.208  28.047  1.00  0.00     0.000 C 
BRANCH   2   3
ATOM      3  C   UNL     1      13.691  12.844  28.632  1.00  0.00     0.000 C 
BRANCH   3   4
ATOM      4  C   UNL     1      12.761  12.907  29.858  1.00  0.00     0.006 C 
BRANCH   4   5
ATOM      5  C   UNL     1      12.673  14.300  30.509  1.00  0.00     0.053 C 
BRANCH   5   6
ATOM      6  C   UNL     1      11.300  14.894  30.408  1.00  0.00     0.041 C 
ATOM      7  O   UNL     1      10.613  15.083  31.445  1.00  0.00    -0.550 OA
ATOM      8  O   UNL     1      10.764  15.204  29.164  1.00  0.00    -0.550 OA
ENDBRANCH   5   6
ENDBRANCH   4   5
ENDBRANCH   3   4
ENDBRANCH   2   3
ENDBRANCH   1   2
BRANCH   1   9
ATOM      9  C   UNL     1      16.367  15.325  27.990  1.00  0.00     0.000 C 
BRANCH   9  10
ATOM     10  C   UNL     1      15.929  15.749  29.401  1.00  0.00    -0.000 C 
BRANCH  10  11
ATOM     11  C   UNL     1      17.118  15.920  30.362  1.00  0.00    -0.000 C 
BRANCH  11  12
ATOM     12  C   UNL     1      17.408  14.648  31.175  1.00  0.00    -0.000 C 
BRANCH  12  13
ATOM     13  C   UNL     1      16.212  13.685  31.210  1.00  0.00    -0.003 C 
ATOM     14  C   UNL     1      16.571  12.391  31.933  1.00  0.00     0.004 C 
ENDBRANCH  12  13
ENDBRANCH  11  12
ENDBRANCH  10  11
ENDBRANCH   9  10
ENDBRANCH   1   9
TORSDOF 10
ENDMDL
MODEL 5
REMARK VINA RESULT:    -3.267      2.110      4.574
REMARK INTER + INTRA:          -6.671
REMARK INTER:                  -5.873
REMARK INTRA:                  -0.798
REMARK UNBOUND:                -1.494
REMARK SMILES CCCCCCCCCCCC(=O)[O-]
REMARK SMILES IDX 7 1 8 2 9 3 10 4 11 5 12 6 13 7 14 8 6 9 5 10 4 11 3 12 2 13
REMARK SMILES IDX 1 14
REMARK H PARENT
REMARK Flexibility Score: inf
ROOT
ATOM      1  C   UNL     1      17.181  14.864  27.495  1.00  0.00     0.000 C 
ENDROOT
BRANCH   1   2
ATOM      2  C   UNL     1      17.476  15.460  26.111  1.00  0.00     0.000 C 
BRANCH   2   3
ATOM      3  C   UNL     1      16.355  16.382  25.601  1.00  0.00     0.000 C 
BRANCH   3   4
ATOM      4  C   UNL     1      15.739  15.979  24.247  1.00  0.00     0.006 C 
BRANCH   4   5
ATOM      5  C   UNL     1      15.714  14.459  23.997  1.00  0.00     0.053 C 
BRANCH   5   6
ATOM      6  C   UNL     1      14.437  13.824  24.460  1.00  0.00     0.041 C 
ATOM      7  O   UNL     1      13.368  14.009  23.820  1.00  0.00    -0.550 OA
ATOM      8  O   UNL     1      14.418  13.059  25.619  1.00  0.00    -0.550 OA
ENDBRANCH   5   6
ENDBRANCH   4   5
ENDBRANCH   3   4
ENDBRANCH   2   3
ENDBRANCH   1   2
BRANCH   1   9
ATOM      9  C   UNL     1      15.805  15.320  28.006  1.00  0.00     0.000 C 
BRANCH   9  10
ATOM     10  C   UNL     1      15.868  15.919  29.419  1.00  0.00    -0.000 C 
BRANCH  10  11
ATOM     11  C   UNL     1      17.161  15.545  30.163  1.00  0.00    -0.000 C 
BRANCH  11  12
ATOM     12  C   UNL     1      16.949  14.417  31.186  1.00  0.00    -0.000 C 
BRANCH  12  13
ATOM     13  C   UNL     1      18.179  14.189  32.076  1.00  0.00    -0.003 C 
ATOM     14  C   UNL     1      18.088  12.853  32.806  1.00  0.00     0.004 C 
ENDBRANCH  12  13
ENDBRANCH  11  12
ENDBRANCH  10  11
ENDBRANCH   9  10
ENDBRANCH   1   9
TORSDOF 10
ENDMDL
MODEL 6
REMARK VINA RESULT:    -3.178      2.600      4.875
REMARK INTER + INTRA:          -6.530
REMARK INTER:                  -5.217
REMARK INTRA:                  -1.313
REMARK UNBOUND:                -1.494
REMARK SMILES CCCCCCCCCCCC(=O)[O-]
REMARK SMILES IDX 7 1 8 2 9 3 10 4 11 5 12 6 13 7 14 8 6 9 5 10 4 11 3 12 2 13
REMARK SMILES IDX 1 14
REMARK H PARENT
REMARK Flexibility Score: inf
ROOT
ATOM      1  C   UNL     1      16.357  12.836  31.615  1.00  0.00     0.000 C 
ENDROOT
BRANCH   1   2
ATOM      2  C   UNL     1      16.789  13.610  30.361  1.00  0.00     0.000 C 
BRANCH   2   3
ATOM      3  C   UNL     1      16.919  15.123  30.602  1.00  0.00     0.000 C 
BRANCH   3   4
ATOM      4  C   UNL     1      16.083  16.012  29.661  1.00  0.00     0.006 C 
BRANCH   4   5
ATOM      5  C   UNL     1      15.617  15.302  28.377  1.00  0.00     0.053 C 
BRANCH   5   6
ATOM      6  C   UNL     1      16.473  15.637  27.192  1.00  0.00     0.041 C 
ATOM      7  O   UNL     1      17.676  15.268  27.155  1.00  0.00    -0.550 OA
ATOM      8  O   UNL     1      15.954  16.392  26.148  1.00  0.00    -0.550 OA
ENDBRANCH   5   6
ENDBRANCH   4   5
ENDBRANCH   3   4
ENDBRANCH   2   3
ENDBRANCH   1   2
BRANCH   1   9
ATOM      9  C   UNL     1      14.832  12.656  31.650  1.00  0.00     0.000 C 
BRANCH   9  10
ATOM     10  C   UNL     1      14.267  12.143  30.316  1.00  0.00    -0.000 C 
BRANCH  10  11
ATOM     11  C   UNL     1      12.988  12.885  29.891  1.00  0.00    -0.000 C 
BRANCH  11  12
ATOM     12  C   UNL     1      12.881  14.285  30.518  1.00  0.00    -0.000 C 
BRANCH  12  13
ATOM     13  C   UNL     1      11.491  14.562  31.109  1.00  0.00    -0.003 C 
ATOM     14  C   UNL     1      11.403  14.082  32.554  1.00  0.00     0.004 C 
ENDBRANCH  12  13
ENDBRANCH  11  12
ENDBRANCH  10  11
ENDBRANCH   9  10
ENDBRANCH   1   9
TORSDOF 10
ENDMDL
MODEL 7
REMARK VINA RESULT:    -3.168      2.391      5.174
REMARK INTER + INTRA:          -6.514
REMARK INTER:                  -5.263
REMARK INTRA:                  -1.251
REMARK UNBOUND:                -1.494
REMARK SMILES CCCCCCCCCCCC(=O)[O-]
REMARK SMILES IDX 7 1 8 2 9 3 10 4 11 5 12 6 13 7 14 8 6 9 5 10 4 11 3 12 2 13
REMARK SMILES IDX 1 14
REMARK H PARENT
REMARK Flexibility Score: inf
ROOT
ATOM      1  C   UNL     1      16.014  15.999  26.466  1.00  0.00     0.000 C 
ENDROOT
BRANCH   1   2
ATOM      2  C   UNL     1      17.345  15.947  25.703  1.00  0.00     0.000 C 
BRANCH   2   3
ATOM      3  C   UNL     1      18.084  14.608  25.874  1.00  0.00     0.000 C 
BRANCH   3   4
ATOM      4  C   UNL     1      19.444  14.697  26.593  1.00  0.00     0.006 C 
BRANCH   4   5
ATOM      5  C   UNL     1      19.351  14.598  28.127  1.00  0.00     0.053 C 
BRANCH   5   6
ATOM      6  C   UNL     1      20.282  13.569  28.693  1.00  0.00     0.041 C 
ATOM      7  O   UNL     1      20.511  13.533  29.931  1.00  0.00    -0.550 OA
ATOM      8  O   UNL     1      20.930  12.674  27.850  1.00  0.00    -0.550 OA
ENDBRANCH   5   6
ENDBRANCH   4   5
ENDBRANCH   3   4
ENDBRANCH   2   3
ENDBRANCH   1   2
BRANCH   1   9
ATOM      9  C   UNL     1      15.703  14.644  27.120  1.00  0.00     0.000 C 
BRANCH   9  10
ATOM     10  C   UNL     1      15.402  14.768  28.621  1.00  0.00    -0.000 C 
BRANCH  10  11
ATOM     11  C   UNL     1      16.104  15.974  29.268  1.00  0.00    -0.000 C 
BRANCH  11  12
ATOM     12  C   UNL     1      16.903  15.589  30.524  1.00  0.00    -0.000 C 
BRANCH  12  13
ATOM     13  C   UNL     1      16.816  14.089  30.841  1.00  0.00    -0.003 C 
ATOM     14  C   UNL     1      17.675  13.733  32.051  1.00  0.00     0.004 C 
ENDBRANCH  12  13
ENDBRANCH  11  12
ENDBRANCH  10  11
ENDBRANCH   9  10
ENDBRANCH   1   9
TORSDOF 10
ENDMDL
MODEL 8
REMARK VINA RESULT:    -3.166      2.923      5.029
REMARK INTER + INTRA:          -6.510
REMARK INTER:                  -5.292
REMARK INTRA:                  -1.218
REMARK UNBOUND:                -1.494
REMARK SMILES CCCCCCCCCCCC(=O)[O-]
REMARK SMILES IDX 7 1 8 2 9 3 10 4 11 5 12 6 13 7 14 8 6 9 5 10 4 11 3 12 2 13
REMARK SMILES IDX 1 14
REMARK H PARENT
REMARK Flexibility Score: inf
ROOT
ATOM      1  C   UNL     1      15.516  14.645  28.701  1.00  0.00     0.000 C 
ENDROOT
BRANCH   1   2
ATOM      2  C   UNL     1      16.076  15.952  29.280  1.00  0.00     0.000 C 
BRANCH   2   3
ATOM      3  C   UNL     1      17.027  15.725  30.468  1.00  0.00     0.000 C 
BRANCH   3   4
ATOM      4  C   UNL     1      17.014  14.301  31.056  1.00  0.00     0.006 C 
BRANCH   4   5
ATOM      5  C   UNL     1      18.144  14.029  32.066  1.00  0.00     0.053 C 
BRANCH   5   6
ATOM      6  C   UNL     1      17.923  12.768  32.847  1.00  0.00     0.041 C 
ATOM      7  O   UNL     1      17.149  11.878  32.408  1.00  0.00    -0.550 OA
ATOM      8  O   UNL     1      18.541  12.593  34.079  1.00  0.00    -0.550 OA
ENDBRANCH   5   6
ENDBRANCH   4   5
ENDBRANCH   3   4
ENDBRANCH   2   3
ENDBRANCH   1   2
BRANCH   1   9
ATOM      9  C   UNL     1      15.487  14.695  27.166  1.00  0.00     0.000 C 
BRANCH   9  10
ATOM     10  C   UNL     1      16.207  15.929  26.600  1.00  0.00    -0.000 C 
BRANCH  10  11
ATOM     11  C   UNL     1      17.340  15.559  25.628  1.00  0.00    -0.000 C 
BRANCH  11  12
ATOM     12  C   UNL     1      18.723  15.574  26.300  1.00  0.00    -0.000 C 
BRANCH  12  13
ATOM     13  C   UNL     1      19.161  14.183  26.779  1.00  0.00    -0.003 C 
ATOM     14  C   UNL     1      19.523  14.201  28.261  1.00  0.00     0.004 C 
ENDBRANCH  12  13
ENDBRANCH  11  12
ENDBRANCH  10  11
ENDBRANCH   9  10
ENDBRANCH   1   9
TORSDOF 10
ENDMDL
MODEL 9
REMARK VINA RESULT:    -3.145      3.854      4.784
REMARK INTER + INTRA:          -6.477
REMARK INTER:                  -5.126
REMARK INTRA:                  -1.351
REMARK UNBOUND:                -1.494
REMARK SMILES CCCCCCCCCCCC(=O)[O-]
REMARK SMILES IDX 7 1 8 2 9 3 10 4 11 5 12 6 13 7 14 8 6 9 5 10 4 11 3 12 2 13
REMARK SMILES IDX 1 14
REMARK H PARENT
REMARK Flexibility Score: inf
ROOT
ATOM      1  C   UNL     1      15.076  13.313  31.221  1.00  0.00     0.000 C 
ENDROOT
BRANCH   1   2
ATOM      2  C   UNL     1      14.358  12.441  30.182  1.00  0.00     0.000 C 
BRANCH   2   3
ATOM      3  C   UNL     1      13.005  13.023  29.740  1.00  0.00     0.000 C 
BRANCH   3   4
ATOM      4  C   UNL     1      12.787  14.510  30.081  1.00  0.00     0.006 C 
BRANCH   4   5
ATOM      5  C   UNL     1      11.337  14.862  30.459  1.00  0.00     0.053 C 
BRANCH   5   6
ATOM      6  C   UNL     1      10.858  14.107  31.662  1.00  0.00     0.041 C 
ATOM      7  O   UNL     1       9.888  13.310  31.566  1.00  0.00    -0.550 OA
ATOM      8  O   UNL     1      11.456  14.312  32.899  1.00  0.00    -0.550 OA
ENDBRANCH   5   6
ENDBRANCH   4   5
ENDBRANCH   3   4
ENDBRANCH   2   3
ENDBRANCH   1   2
BRANCH   1   9
ATOM      9  C   UNL     1      16.600  13.146  31.117  1.00  0.00     0.000 C 
BRANCH   9  10
ATOM     10  C   UNL     1      17.356  14.463  31.352  1.00  0.00    -0.000 C 
BRANCH  10  11
ATOM     11  C   UNL     1      16.892  15.588  30.411  1.00  0.00    -0.000 C 
BRANCH  11  12
ATOM     12  C   UNL     1      17.057  15.221  28.927  1.00  0.00    -0.000 C 
BRANCH  12  13
ATOM     13  C   UNL     1      15.811  15.556  28.095  1.00  0.00    -0.003 C 
ATOM     14  C   UNL     1      15.471  14.422  27.133  1.00  0.00     0.004 C 
ENDBRANCH  12  13
ENDBRANCH  11  12
ENDBRANCH  10  11
ENDBRANCH   9  10
ENDBRANCH   1   9
TORSDOF 10
ENDMDL
