MODEL 1
REMARK VINA RESULT:    -2.909      0.000      0.000
REMARK INTER + INTRA:          -5.398
REMARK INTER:                  -4.269
REMARK INTRA:                  -1.129
REMARK UNBOUND:                -1.129
REMARK SMILES O=c1c(O[C@@H]2O[C@@H](CO)[C@H](O)[C@@H](O)[C@H]2O)c(-c2ccc(O)c(O)c2)oc2cc(O)cc(O)c12
REMARK SMILES IDX 4 1 3 2 16 3 25 4 2 5 26 6 1 7 33 8 27 9 31 10 28 11 30 12
REMARK SMILES IDX 17 13 18 14 19 15 20 16 24 17 22 18 21 19 23 21 32 23 29 25
REMARK SMILES IDX 5 27 14 28 6 29 12 30 7 31 10 32 15 33 13 35 8 37 9 38 11 40
REMARK H PARENT 21 20 23 22 32 24 29 26 15 34 13 36 9 39 11 41
REMARK Flexibility Score: inf
ROOT
ATOM      1  O   UNL     1     -11.136   8.085   5.383  1.00  0.00    -0.454 OA
ENDROOT
BRANCH   1   2
ATOM      2  C   UNL     1      -9.836   8.498   5.743  1.00  0.00     0.214 A 
ATOM      3  C   UNL     1      -9.081   7.652   6.581  1.00  0.00     0.180 A 
ATOM      4  O   UNL     1      -7.834   7.969   6.908  1.00  0.00    -0.452 OA
ATOM      5  C   UNL     1      -9.235   9.695   5.288  1.00  0.00     0.239 A 
ATOM      6  C   UNL     1      -7.234   9.081   6.503  1.00  0.00     0.146 A 
ATOM      7  O   UNL     1      -9.868  10.480   4.534  1.00  0.00    -0.285 OA
ATOM      8  C   UNL     1      -7.913  10.003   5.675  1.00  0.00     0.111 A 
ATOM      9  C   UNL     1      -5.919   9.329   6.908  1.00  0.00     0.094 A 
ATOM     10  C   UNL     1      -7.241  11.183   5.267  1.00  0.00     0.134 A 
ATOM     11  C   UNL     1      -5.262  10.494   6.501  1.00  0.00     0.123 A 
ATOM     12  C   UNL     1      -5.923  11.414   5.685  1.00  0.00     0.093 A 
BRANCH   3  13
ATOM     13  C   UNL     1      -9.632   6.382   7.105  1.00  0.00     0.025 A 
ATOM     14  C   UNL     1      -9.797   6.219   8.489  1.00  0.00     0.016 A 
ATOM     15  C   UNL     1     -10.321   5.030   9.003  1.00  0.00     0.051 A 
ATOM     16  C   UNL     1     -10.699   3.994   8.143  1.00  0.00     0.157 A 
ATOM     17  C   UNL     1     -10.038   5.352   6.242  1.00  0.00     0.062 A 
ATOM     18  C   UNL     1     -10.561   4.156   6.754  1.00  0.00     0.158 A 
BRANCH  16  19
ATOM     19  O   UNL     1     -11.212   2.816   8.686  1.00  0.00    -0.504 OA
ATOM     20  H   UNL     1     -10.764   2.341   9.460  1.00  0.00     0.293 HD
ENDBRANCH  16  19
BRANCH  18  21
ATOM     21  O   UNL     1     -10.945   3.132   5.890  1.00  0.00    -0.504 OA
ATOM     22  H   UNL     1     -11.817   3.172   5.374  1.00  0.00     0.293 HD
ENDBRANCH  18  21
ENDBRANCH   3  13
BRANCH  10  23
ATOM     23  O   UNL     1      -7.871  12.124   4.451  1.00  0.00    -0.507 OA
ATOM     24  H   UNL     1      -8.695  11.893   3.909  1.00  0.00     0.293 HD
ENDBRANCH  10  23
BRANCH  11  25
ATOM     25  O   UNL     1      -3.953  10.747   6.903  1.00  0.00    -0.508 OA
ATOM     26  H   UNL     1      -3.206  10.870   6.230  1.00  0.00     0.293 HD
ENDBRANCH  11  25
ENDBRANCH   1   2
BRANCH   1  27
ATOM     27  C   UNL     1     -12.360   8.351   6.076  1.00  0.00     0.339 C 
ATOM     28  C   UNL     1     -12.897   9.741   5.678  1.00  0.00     0.214 C 
ATOM     29  O   UNL     1     -13.329   7.339   5.839  1.00  0.00    -0.332 OA
ATOM     30  C   UNL     1     -13.385   9.732   4.214  1.00  0.00     0.180 C 
ATOM     31  C   UNL     1     -13.647   7.218   4.461  1.00  0.00     0.179 C 
ATOM     32  C   UNL     1     -14.303   8.522   3.933  1.00  0.00     0.177 C 
BRANCH  28  33
ATOM     33  O   UNL     1     -13.906  10.164   6.565  1.00  0.00    -0.384 OA
ATOM     34  H   UNL     1     -13.950  11.155   6.532  1.00  0.00     0.211 HD
ENDBRANCH  28  33
BRANCH  30  35
ATOM     35  O   UNL     1     -14.013  10.945   3.879  1.00  0.00    -0.387 OA
ATOM     36  H   UNL     1     -14.211  10.930   2.907  1.00  0.00     0.211 HD
ENDBRANCH  30  35
BRANCH  31  37
ATOM     37  C   UNL     1     -14.592   6.014   4.303  1.00  0.00     0.191 C 
BRANCH  37  38
ATOM     38  O   UNL     1     -14.368   5.345   3.091  1.00  0.00    -0.394 OA
ATOM     39  H   UNL     1     -13.673   4.661   3.268  1.00  0.00     0.210 HD
ENDBRANCH  37  38
ENDBRANCH  31  37
BRANCH  32  40
ATOM     40  O   UNL     1     -14.583   8.436   2.557  1.00  0.00    -0.387 OA
ATOM     41  H   UNL     1     -14.799   7.490   2.349  1.00  0.00     0.211 HD
ENDBRANCH  32  40
ENDBRANCH   1  27
TORSDOF 12
ENDMDL
MODEL 2
REMARK VINA RESULT:    -1.621      2.021      6.137
REMARK INTER + INTRA:          -3.508
REMARK INTER:                  -4.054
REMARK INTRA:                   0.546
REMARK UNBOUND:                -1.129
REMARK SMILES O=c1c(O[C@@H]2O[C@@H](CO)[C@H](O)[C@@H](O)[C@H]2O)c(-c2ccc(O)c(O)c2)oc2cc(O)cc(O)c12
REMARK SMILES IDX 4 1 3 2 16 3 25 4 2 5 26 6 1 7 33 8 27 9 31 10 28 11 30 12
REMARK SMILES IDX 17 13 18 14 19 15 20 16 24 17 22 18 21 19 23 21 32 23 29 25
REMARK SMILES IDX 5 27 14 28 6 29 12 30 7 31 10 32 15 33 13 35 8 37 9 38 11 40
REMARK H PARENT 21 20 23 22 32 24 29 26 15 34 13 36 9 39 11 41
REMARK Flexibility Score: inf
ROOT
ATOM      1  O   UNL     1     -10.728  10.174   6.595  1.00  0.00    -0.454 OA
ENDROOT
BRANCH   1   2
ATOM      2  C   UNL     1     -10.535   8.835   6.197  1.00  0.00     0.214 A 
ATOM      3  C   UNL     1      -9.235   8.436   5.824  1.00  0.00     0.180 A 
ATOM      4  O   UNL     1      -8.989   7.174   5.490  1.00  0.00    -0.452 OA
ATOM      5  C   UNL     1     -11.562   7.861   6.179  1.00  0.00     0.239 A 
ATOM      6  C   UNL     1      -9.922   6.233   5.461  1.00  0.00     0.146 A 
ATOM      7  O   UNL     1     -12.737   8.169   6.509  1.00  0.00    -0.285 OA
ATOM      8  C   UNL     1     -11.260   6.536   5.800  1.00  0.00     0.111 A 
ATOM      9  C   UNL     1      -9.563   4.934   5.088  1.00  0.00     0.094 A 
ATOM     10  C   UNL     1     -12.231   5.503   5.751  1.00  0.00     0.134 A 
ATOM     11  C   UNL     1     -10.526   3.920   5.043  1.00  0.00     0.123 A 
ATOM     12  C   UNL     1     -11.851   4.208   5.374  1.00  0.00     0.093 A 
BRANCH   3  13
ATOM     13  C   UNL     1      -8.102   9.389   5.811  1.00  0.00     0.025 A 
ATOM     14  C   UNL     1      -7.685   9.950   4.595  1.00  0.00     0.016 A 
ATOM     15  C   UNL     1      -6.621  10.856   4.562  1.00  0.00     0.051 A 
ATOM     16  C   UNL     1      -5.969  11.223   5.744  1.00  0.00     0.157 A 
ATOM     17  C   UNL     1      -7.464   9.780   6.999  1.00  0.00     0.062 A 
ATOM     18  C   UNL     1      -6.394  10.685   6.970  1.00  0.00     0.158 A 
BRANCH  16  19
ATOM     19  O   UNL     1      -4.906  12.124   5.680  1.00  0.00    -0.504 OA
ATOM     20  H   UNL     1      -4.655  12.598   4.821  1.00  0.00     0.293 HD
ENDBRANCH  16  19
BRANCH  18  21
ATOM     21  O   UNL     1      -5.757  11.055   8.153  1.00  0.00    -0.504 OA
ATOM     22  H   UNL     1      -5.513  12.020   8.347  1.00  0.00     0.293 HD
ENDBRANCH  18  21
ENDBRANCH   3  13
BRANCH  10  23
ATOM     23  O   UNL     1     -13.565   5.755   6.075  1.00  0.00    -0.507 OA
ATOM     24  H   UNL     1     -14.230   5.004   6.218  1.00  0.00     0.293 HD
ENDBRANCH  10  23
BRANCH  11  25
ATOM     25  O   UNL     1     -10.175   2.625   4.672  1.00  0.00    -0.508 OA
ATOM     26  H   UNL     1      -9.900   2.401   3.723  1.00  0.00     0.293 HD
ENDBRANCH  11  25
ENDBRANCH   1   2
BRANCH   1  27
ATOM     27  C   UNL     1     -11.187  11.266   5.792  1.00  0.00     0.339 C 
ATOM     28  C   UNL     1     -11.701  10.741   4.436  1.00  0.00     0.214 C 
ATOM     29  O   UNL     1     -12.184  12.027   6.459  1.00  0.00    -0.332 OA
ATOM     30  C   UNL     1     -13.010   9.947   4.626  1.00  0.00     0.180 C 
ATOM     31  C   UNL     1     -13.322  11.243   6.788  1.00  0.00     0.179 C 
ATOM     32  C   UNL     1     -14.019  10.723   5.502  1.00  0.00     0.177 C 
BRANCH  28  33
ATOM     33  O   UNL     1     -11.855  11.793   3.513  1.00  0.00    -0.384 OA
ATOM     34  H   UNL     1     -11.111  12.436   3.650  1.00  0.00     0.211 HD
ENDBRANCH  28  33
BRANCH  30  35
ATOM     35  O   UNL     1     -13.572   9.587   3.388  1.00  0.00    -0.387 OA
ATOM     36  H   UNL     1     -14.490   9.961   3.347  1.00  0.00     0.211 HD
ENDBRANCH  30  35
BRANCH  31  37
ATOM     37  C   UNL     1     -14.271  12.123   7.620  1.00  0.00     0.191 C 
BRANCH  37  38
ATOM     38  O   UNL     1     -14.935  11.371   8.600  1.00  0.00    -0.394 OA
ATOM     39  H   UNL     1     -15.906  11.506   8.452  1.00  0.00     0.210 HD
ENDBRANCH  37  38
ENDBRANCH  31  37
BRANCH  32  40
ATOM     40  O   UNL     1     -15.122   9.906   5.809  1.00  0.00    -0.387 OA
ATOM     41  H   UNL     1     -15.889  10.212   5.257  1.00  0.00     0.211 HD
ENDBRANCH  32  40
ENDBRANCH   1  27
TORSDOF 12
ENDMDL
MODEL 3
REMARK VINA RESULT:    -0.685      1.511      5.714
REMARK INTER + INTRA:          -2.134
REMARK INTER:                  -4.127
REMARK INTRA:                   1.993
REMARK UNBOUND:                -1.129
REMARK SMILES O=c1c(O[C@@H]2O[C@@H](CO)[C@H](O)[C@@H](O)[C@H]2O)c(-c2ccc(O)c(O)c2)oc2cc(O)cc(O)c12
REMARK SMILES IDX 4 1 3 2 16 3 25 4 2 5 26 6 1 7 33 8 27 9 31 10 28 11 30 12
REMARK SMILES IDX 17 13 18 14 19 15 20 16 24 17 22 18 21 19 23 21 32 23 29 25
REMARK SMILES IDX 5 27 14 28 6 29 12 30 7 31 10 32 15 33 13 35 8 37 9 38 11 40
REMARK H PARENT 21 20 23 22 32 24 29 26 15 34 13 36 9 39 11 41
REMARK Flexibility Score: inf
ROOT
ATOM      1  O   UNL     1     -11.467   9.355   5.057  1.00  0.00    -0.454 OA
ENDROOT
BRANCH   1   2
ATOM      2  C   UNL     1     -11.124   8.184   5.764  1.00  0.00     0.214 A 
ATOM      3  C   UNL     1      -9.801   8.061   6.239  1.00  0.00     0.180 A 
ATOM      4  O   UNL     1      -9.440   7.003   6.955  1.00  0.00    -0.452 OA
ATOM      5  C   UNL     1     -12.035   7.141   6.053  1.00  0.00     0.239 A 
ATOM      6  C   UNL     1     -10.263   6.005   7.247  1.00  0.00     0.146 A 
ATOM      7  O   UNL     1     -13.227   7.208   5.655  1.00  0.00    -0.285 OA
ATOM      8  C   UNL     1     -11.603   6.025   6.801  1.00  0.00     0.111 A 
ATOM      9  C   UNL     1      -9.784   4.930   8.002  1.00  0.00     0.094 A 
ATOM     10  C   UNL     1     -12.451   4.937   7.129  1.00  0.00     0.134 A 
ATOM     11  C   UNL     1     -10.626   3.860   8.322  1.00  0.00     0.123 A 
ATOM     12  C   UNL     1     -11.952   3.867   7.886  1.00  0.00     0.093 A 
BRANCH   3  13
ATOM     13  C   UNL     1      -8.782   9.103   5.981  1.00  0.00     0.025 A 
ATOM     14  C   UNL     1      -9.092  10.180   5.136  1.00  0.00     0.016 A 
ATOM     15  C   UNL     1      -8.145  11.177   4.885  1.00  0.00     0.051 A 
ATOM     16  C   UNL     1      -6.882  11.119   5.483  1.00  0.00     0.157 A 
ATOM     17  C   UNL     1      -7.523   9.063   6.603  1.00  0.00     0.062 A 
ATOM     18  C   UNL     1      -6.570  10.059   6.350  1.00  0.00     0.158 A 
BRANCH  16  19
ATOM     19  O   UNL     1      -5.956  12.125   5.208  1.00  0.00    -0.504 OA
ATOM     20  H   UNL     1      -4.997  11.918   4.956  1.00  0.00     0.293 HD
ENDBRANCH  16  19
BRANCH  18  21
ATOM     21  O   UNL     1      -5.317  10.001   6.959  1.00  0.00    -0.504 OA
ATOM     22  H   UNL     1      -4.480   9.782   6.431  1.00  0.00     0.293 HD
ENDBRANCH  18  21
ENDBRANCH   3  13
BRANCH  10  23
ATOM     23  O   UNL     1     -13.783   4.911   6.709  1.00  0.00    -0.507 OA
ATOM     24  H   UNL     1     -14.528   5.292   7.279  1.00  0.00     0.293 HD
ENDBRANCH  10  23
BRANCH  11  25
ATOM     25  O   UNL     1     -10.154   2.787   9.073  1.00  0.00    -0.508 OA
ATOM     26  H   UNL     1      -9.678   2.005   8.639  1.00  0.00     0.293 HD
ENDBRANCH  11  25
ENDBRANCH   1   2
BRANCH   1  27
ATOM     27  C   UNL     1     -12.738  10.012   5.020  1.00  0.00     0.339 C 
ATOM     28  C   UNL     1     -12.639  11.300   4.177  1.00  0.00     0.214 C 
ATOM     29  O   UNL     1     -13.760   9.155   4.529  1.00  0.00    -0.332 OA
ATOM     30  C   UNL     1     -12.444  10.955   2.685  1.00  0.00     0.180 C 
ATOM     31  C   UNL     1     -13.486   8.699   3.212  1.00  0.00     0.179 C 
ATOM     32  C   UNL     1     -13.459   9.889   2.215  1.00  0.00     0.177 C 
BRANCH  28  33
ATOM     33  O   UNL     1     -13.762  12.125   4.382  1.00  0.00    -0.384 OA
ATOM     34  H   UNL     1     -14.420  11.935   3.664  1.00  0.00     0.211 HD
ENDBRANCH  28  33
BRANCH  30  35
ATOM     35  O   UNL     1     -12.500  12.110   1.884  1.00  0.00    -0.387 OA
ATOM     36  H   UNL     1     -11.634  12.587   1.972  1.00  0.00     0.211 HD
ENDBRANCH  30  35
BRANCH  31  37
ATOM     37  C   UNL     1     -14.574   7.680   2.834  1.00  0.00     0.191 C 
BRANCH  37  38
ATOM     38  O   UNL     1     -14.018   6.531   2.253  1.00  0.00    -0.394 OA
ATOM     39  H   UNL     1     -14.084   6.650   1.270  1.00  0.00     0.210 HD
ENDBRANCH  37  38
ENDBRANCH  31  37
BRANCH  32  40
ATOM     40  O   UNL     1     -13.143   9.462   0.913  1.00  0.00    -0.387 OA
ATOM     41  H   UNL     1     -12.268   9.862   0.666  1.00  0.00     0.211 HD
ENDBRANCH  32  40
ENDBRANCH   1  27
TORSDOF 12
ENDMDL
