MODEL 1
REMARK VINA RESULT:    -3.410      0.000      0.000
REMARK INTER + INTRA:          -8.188
REMARK INTER:                  -6.201
REMARK INTRA:                  -1.987
REMARK UNBOUND:                -1.987
REMARK SMILES CCCCCCCCCCCCCCCC(=O)[O-]
REMARK SMILES IDX 9 1 10 2 11 3 12 4 13 5 14 6 15 7 16 8 17 9 18 10 8 11 7 12
REMARK SMILES IDX 6 13 5 14 4 15 3 16 2 17 1 18
REMARK H PARENT
REMARK Flexibility Score: inf
ROOT
ATOM      1  C   UNL     1       4.341 105.638 180.014  1.00  0.00     0.000 C 
ENDROOT
BRANCH   1   2
ATOM      2  C   UNL     1       5.468 106.298 180.817  1.00  0.00     0.000 C 
BRANCH   2   3
ATOM      3  C   UNL     1       4.989 106.687 182.221  1.00  0.00     0.000 C 
BRANCH   3   4
ATOM      4  C   UNL     1       3.517 107.114 182.202  1.00  0.00     0.000 C 
BRANCH   4   5
ATOM      5  C   UNL     1       3.288 108.341 183.096  1.00  0.00     0.000 C 
BRANCH   5   6
ATOM      6  C   UNL     1       3.051 109.635 182.296  1.00  0.00     0.006 C 
BRANCH   6   7
ATOM      7  C   UNL     1       4.195 110.658 182.409  1.00  0.00     0.053 C 
BRANCH   7   8
ATOM      8  C   UNL     1       3.968 111.663 183.497  1.00  0.00     0.041 C 
ATOM      9  O   UNL     1       2.820 111.816 183.992  1.00  0.00    -0.550 OA
ATOM     10  O   UNL     1       5.032 112.411 183.988  1.00  0.00    -0.550 OA
ENDBRANCH   7   8
ENDBRANCH   6   7
ENDBRANCH   5   6
ENDBRANCH   4   5
ENDBRANCH   3   4
ENDBRANCH   2   3
ENDBRANCH   1   2
BRANCH   1  11
ATOM     11  C   UNL     1       4.740 105.467 178.543  1.00  0.00     0.000 C 
BRANCH  11  12
ATOM     12  C   UNL     1       3.845 104.431 177.848  1.00  0.00    -0.000 C 
BRANCH  12  13
ATOM     13  C   UNL     1       2.371 104.526 178.283  1.00  0.00    -0.000 C 
BRANCH  13  14
ATOM     14  C   UNL     1       1.413 105.097 177.219  1.00  0.00    -0.000 C 
BRANCH  14  15
ATOM     15  C   UNL     1       0.634 106.356 177.648  1.00  0.00    -0.000 C 
BRANCH  15  16
ATOM     16  C   UNL     1       0.660 106.654 179.160  1.00  0.00    -0.000 C 
BRANCH  16  17
ATOM     17  C   UNL     1       1.186 108.051 179.535  1.00  0.00    -0.003 C 
ATOM     18  C   UNL     1       2.438 108.445 178.751  1.00  0.00     0.004 C 
ENDBRANCH  16  17
ENDBRANCH  15  16
ENDBRANCH  14  15
ENDBRANCH  13  14
ENDBRANCH  12  13
ENDBRANCH  11  12
ENDBRANCH   1  11
TORSDOF 14
ENDMDL
MODEL 2
REMARK VINA RESULT:    -3.324      2.824      5.262
REMARK INTER + INTRA:          -8.032
REMARK INTER:                  -6.063
REMARK INTRA:                  -1.969
REMARK UNBOUND:                -1.987
REMARK SMILES CCCCCCCCCCCCCCCC(=O)[O-]
REMARK SMILES IDX 9 1 10 2 11 3 12 4 13 5 14 6 15 7 16 8 17 9 18 10 8 11 7 12
REMARK SMILES IDX 6 13 5 14 4 15 3 16 2 17 1 18
REMARK H PARENT
REMARK Flexibility Score: inf
ROOT
ATOM      1  C   UNL     1       2.527 108.501 181.198  1.00  0.00     0.000 C 
ENDROOT
BRANCH   1   2
ATOM      2  C   UNL     1       1.950 108.700 182.604  1.00  0.00     0.000 C 
BRANCH   2   3
ATOM      3  C   UNL     1       2.475 109.995 183.237  1.00  0.00     0.000 C 
BRANCH   3   4
ATOM      4  C   UNL     1       3.602 110.603 182.393  1.00  0.00     0.000 C 
BRANCH   4   5
ATOM      5  C   UNL     1       4.065 111.945 182.978  1.00  0.00     0.000 C 
BRANCH   5   6
ATOM      6  C   UNL     1       3.344 112.313 184.288  1.00  0.00     0.006 C 
BRANCH   6   7
ATOM      7  C   UNL     1       3.944 113.532 185.010  1.00  0.00     0.053 C 
BRANCH   7   8
ATOM      8  C   UNL     1       4.121 114.713 184.105  1.00  0.00     0.041 C 
ATOM      9  O   UNL     1       3.116 115.299 183.621  1.00  0.00    -0.550 OA
ATOM     10  O   UNL     1       5.395 115.186 183.818  1.00  0.00    -0.550 OA
ENDBRANCH   7   8
ENDBRANCH   6   7
ENDBRANCH   5   6
ENDBRANCH   4   5
ENDBRANCH   3   4
ENDBRANCH   2   3
ENDBRANCH   1   2
BRANCH   1  11
ATOM     11  C   UNL     1       3.353 107.211 181.118  1.00  0.00     0.000 C 
BRANCH  11  12
ATOM     12  C   UNL     1       4.856 107.517 181.184  1.00  0.00    -0.000 C 
BRANCH  12  13
ATOM     13  C   UNL     1       5.670 106.384 181.837  1.00  0.00    -0.000 C 
BRANCH  13  14
ATOM     14  C   UNL     1       6.146 106.671 183.275  1.00  0.00    -0.000 C 
BRANCH  14  15
ATOM     15  C   UNL     1       5.502 107.902 183.943  1.00  0.00    -0.000 C 
BRANCH  15  16
ATOM     16  C   UNL     1       6.491 109.009 184.360  1.00  0.00    -0.000 C 
BRANCH  16  17
ATOM     17  C   UNL     1       7.227 109.691 183.193  1.00  0.00    -0.003 C 
ATOM     18  C   UNL     1       7.670 111.117 183.520  1.00  0.00     0.004 C 
ENDBRANCH  16  17
ENDBRANCH  15  16
ENDBRANCH  14  15
ENDBRANCH  13  14
ENDBRANCH  12  13
ENDBRANCH  11  12
ENDBRANCH   1  11
TORSDOF 14
ENDMDL
MODEL 3
REMARK VINA RESULT:    -3.273      3.159      6.060
REMARK INTER + INTRA:          -7.939
REMARK INTER:                  -6.566
REMARK INTRA:                  -1.373
REMARK UNBOUND:                -1.987
REMARK SMILES CCCCCCCCCCCCCCCC(=O)[O-]
REMARK SMILES IDX 9 1 10 2 11 3 12 4 13 5 14 6 15 7 16 8 17 9 18 10 8 11 7 12
REMARK SMILES IDX 6 13 5 14 4 15 3 16 2 17 1 18
REMARK H PARENT
REMARK Flexibility Score: inf
ROOT
ATOM      1  C   UNL     1       3.650 110.842 182.757  1.00  0.00     0.000 C 
ENDROOT
BRANCH   1   2
ATOM      2  C   UNL     1       4.221 111.849 183.764  1.00  0.00     0.000 C 
BRANCH   2   3
ATOM      3  C   UNL     1       3.100 112.651 184.436  1.00  0.00     0.000 C 
BRANCH   3   4
ATOM      4  C   UNL     1       3.558 114.081 184.750  1.00  0.00     0.000 C 
BRANCH   4   5
ATOM      5  C   UNL     1       4.478 114.619 183.645  1.00  0.00     0.000 C 
BRANCH   5   6
ATOM      6  C   UNL     1       3.731 115.457 182.592  1.00  0.00     0.006 C 
BRANCH   6   7
ATOM      7  C   UNL     1       2.776 116.505 183.189  1.00  0.00     0.053 C 
BRANCH   7   8
ATOM      8  C   UNL     1       1.521 116.670 182.387  1.00  0.00     0.041 C 
ATOM      9  O   UNL     1       0.428 116.922 182.961  1.00  0.00    -0.550 OA
ATOM     10  O   UNL     1       1.562 116.575 181.001  1.00  0.00    -0.550 OA
ENDBRANCH   7   8
ENDBRANCH   6   7
ENDBRANCH   5   6
ENDBRANCH   4   5
ENDBRANCH   3   4
ENDBRANCH   2   3
ENDBRANCH   1   2
BRANCH   1  11
ATOM     11  C   UNL     1       2.428 110.118 183.335  1.00  0.00     0.000 C 
BRANCH  11  12
ATOM     12  C   UNL     1       2.077 108.880 182.498  1.00  0.00    -0.000 C 
BRANCH  12  13
ATOM     13  C   UNL     1       2.879 108.797 181.186  1.00  0.00    -0.000 C 
BRANCH  13  14
ATOM     14  C   UNL     1       3.137 107.368 180.670  1.00  0.00    -0.000 C 
BRANCH  14  15
ATOM     15  C   UNL     1       3.846 106.431 181.668  1.00  0.00    -0.000 C 
BRANCH  15  16
ATOM     16  C   UNL     1       5.384 106.527 181.673  1.00  0.00    -0.000 C 
BRANCH  16  17
ATOM     17  C   UNL     1       6.018 106.661 183.069  1.00  0.00    -0.003 C 
ATOM     18  C   UNL     1       5.518 107.886 183.835  1.00  0.00     0.004 C 
ENDBRANCH  16  17
ENDBRANCH  15  16
ENDBRANCH  14  15
ENDBRANCH  13  14
ENDBRANCH  12  13
ENDBRANCH  11  12
ENDBRANCH   1  11
TORSDOF 14
ENDMDL
MODEL 4
REMARK VINA RESULT:    -3.270      3.271      3.813
REMARK INTER + INTRA:          -7.934
REMARK INTER:                  -5.726
REMARK INTRA:                  -2.208
REMARK UNBOUND:                -1.987
REMARK SMILES CCCCCCCCCCCCCCCC(=O)[O-]
REMARK SMILES IDX 9 1 10 2 11 3 12 4 13 5 14 6 15 7 16 8 17 9 18 10 8 11 7 12
REMARK SMILES IDX 6 13 5 14 4 15 3 16 2 17 1 18
REMARK H PARENT
REMARK Flexibility Score: inf
ROOT
ATOM      1  C   UNL     1       4.938 105.489 178.507  1.00  0.00     0.000 C 
ENDROOT
BRANCH   1   2
ATOM      2  C   UNL     1       5.116 105.843 179.989  1.00  0.00     0.000 C 
BRANCH   2   3
ATOM      3  C   UNL     1       3.774 105.803 180.730  1.00  0.00     0.000 C 
BRANCH   3   4
ATOM      4  C   UNL     1       3.819 106.665 181.997  1.00  0.00     0.000 C 
BRANCH   4   5
ATOM      5  C   UNL     1       5.182 107.355 182.146  1.00  0.00     0.000 C 
BRANCH   5   6
ATOM      6  C   UNL     1       5.788 107.195 183.553  1.00  0.00     0.006 C 
BRANCH   6   7
ATOM      7  C   UNL     1       7.312 106.978 183.557  1.00  0.00     0.053 C 
BRANCH   7   8
ATOM      8  C   UNL     1       7.694 105.550 183.315  1.00  0.00     0.041 C 
ATOM      9  O   UNL     1       7.738 104.732 184.272  1.00  0.00    -0.550 OA
ATOM     10  O   UNL     1       7.973 105.112 182.026  1.00  0.00    -0.550 OA
ENDBRANCH   7   8
ENDBRANCH   6   7
ENDBRANCH   5   6
ENDBRANCH   4   5
ENDBRANCH   3   4
ENDBRANCH   2   3
ENDBRANCH   1   2
BRANCH   1  11
ATOM     11  C   UNL     1       3.851 104.423 178.322  1.00  0.00     0.000 C 
BRANCH  11  12
ATOM     12  C   UNL     1       2.876 104.822 177.205  1.00  0.00    -0.000 C 
BRANCH  12  13
ATOM     13  C   UNL     1       1.413 104.876 177.680  1.00  0.00    -0.000 C 
BRANCH  13  14
ATOM     14  C   UNL     1       0.757 106.270 177.611  1.00  0.00    -0.000 C 
BRANCH  14  15
ATOM     15  C   UNL     1       0.439 106.910 178.977  1.00  0.00    -0.000 C 
BRANCH  15  16
ATOM     16  C   UNL     1       1.403 108.031 179.412  1.00  0.00    -0.000 C 
BRANCH  16  17
ATOM     17  C   UNL     1       2.486 108.389 178.379  1.00  0.00    -0.003 C 
ATOM     18  C   UNL     1       3.684 109.110 178.997  1.00  0.00     0.004 C 
ENDBRANCH  16  17
ENDBRANCH  15  16
ENDBRANCH  14  15
ENDBRANCH  13  14
ENDBRANCH  12  13
ENDBRANCH  11  12
ENDBRANCH   1  11
TORSDOF 14
ENDMDL
MODEL 5
REMARK VINA RESULT:    -3.213      1.511      3.516
REMARK INTER + INTRA:          -7.830
REMARK INTER:                  -5.517
REMARK INTRA:                  -2.312
REMARK UNBOUND:                -1.987
REMARK SMILES CCCCCCCCCCCCCCCC(=O)[O-]
REMARK SMILES IDX 9 1 10 2 11 3 12 4 13 5 14 6 15 7 16 8 17 9 18 10 8 11 7 12
REMARK SMILES IDX 6 13 5 14 4 15 3 16 2 17 1 18
REMARK H PARENT
REMARK Flexibility Score: inf
ROOT
ATOM      1  C   UNL     1       1.490 107.974 179.638  1.00  0.00     0.000 C 
ENDROOT
BRANCH   1   2
ATOM      2  C   UNL     1       2.968 107.569 179.604  1.00  0.00     0.000 C 
BRANCH   2   3
ATOM      3  C   UNL     1       3.194 106.243 180.339  1.00  0.00     0.000 C 
BRANCH   3   4
ATOM      4  C   UNL     1       4.685 106.010 180.611  1.00  0.00     0.000 C 
BRANCH   4   5
ATOM      5  C   UNL     1       5.330 107.253 181.241  1.00  0.00     0.000 C 
BRANCH   5   6
ATOM      6  C   UNL     1       5.251 107.260 182.779  1.00  0.00     0.006 C 
BRANCH   6   7
ATOM      7  C   UNL     1       4.882 108.628 183.380  1.00  0.00     0.053 C 
BRANCH   7   8
ATOM      8  C   UNL     1       3.552 109.128 182.907  1.00  0.00     0.041 C 
ATOM      9  O   UNL     1       3.474 110.189 182.234  1.00  0.00    -0.550 OA
ATOM     10  O   UNL     1       2.397 108.405 183.184  1.00  0.00    -0.550 OA
ENDBRANCH   7   8
ENDBRANCH   6   7
ENDBRANCH   5   6
ENDBRANCH   4   5
ENDBRANCH   3   4
ENDBRANCH   2   3
ENDBRANCH   1   2
BRANCH   1  11
ATOM     11  C   UNL     1       0.587 106.797 179.249  1.00  0.00     0.000 C 
BRANCH  11  12
ATOM     12  C   UNL     1       0.005 106.994 177.842  1.00  0.00    -0.000 C 
BRANCH  12  13
ATOM     13  C   UNL     1       0.329 105.826 176.892  1.00  0.00    -0.000 C 
BRANCH  13  14
ATOM     14  C   UNL     1       1.459 104.893 177.369  1.00  0.00    -0.000 C 
BRANCH  14  15
ATOM     15  C   UNL     1       2.840 105.164 176.739  1.00  0.00    -0.000 C 
BRANCH  15  16
ATOM     16  C   UNL     1       3.981 104.269 177.259  1.00  0.00    -0.000 C 
BRANCH  16  17
ATOM     17  C   UNL     1       5.378 104.914 177.217  1.00  0.00    -0.003 C 
ATOM     18  C   UNL     1       5.345 106.378 176.777  1.00  0.00     0.004 C 
ENDBRANCH  16  17
ENDBRANCH  15  16
ENDBRANCH  14  15
ENDBRANCH  13  14
ENDBRANCH  12  13
ENDBRANCH  11  12
ENDBRANCH   1  11
TORSDOF 14
ENDMDL
MODEL 6
REMARK VINA RESULT:    -3.205      5.424      8.201
REMARK INTER + INTRA:          -7.815
REMARK INTER:                  -5.981
REMARK INTRA:                  -1.833
REMARK UNBOUND:                -1.987
REMARK SMILES CCCCCCCCCCCCCCCC(=O)[O-]
REMARK SMILES IDX 9 1 10 2 11 3 12 4 13 5 14 6 15 7 16 8 17 9 18 10 8 11 7 12
REMARK SMILES IDX 6 13 5 14 4 15 3 16 2 17 1 18
REMARK H PARENT
REMARK Flexibility Score: inf
ROOT
ATOM      1  C   UNL     1       3.928 104.893 176.046  1.00  0.00     0.000 C 
ENDROOT
BRANCH   1   2
ATOM      2  C   UNL     1       5.355 105.306 176.426  1.00  0.00     0.000 C 
BRANCH   2   3
ATOM      3  C   UNL     1       6.089 104.160 177.135  1.00  0.00     0.000 C 
BRANCH   3   4
ATOM      4  C   UNL     1       5.383 102.821 176.894  1.00  0.00     0.000 C 
BRANCH   4   5
ATOM      5  C   UNL     1       6.390 101.730 176.503  1.00  0.00     0.000 C 
BRANCH   5   6
ATOM      6  C   UNL     1       6.237 101.262 175.043  1.00  0.00     0.006 C 
BRANCH   6   7
ATOM      7  C   UNL     1       4.920 101.705 174.380  1.00  0.00     0.053 C 
BRANCH   7   8
ATOM      8  C   UNL     1       5.135 102.670 173.254  1.00  0.00     0.041 C 
ATOM      9  O   UNL     1       4.249 102.825 172.372  1.00  0.00    -0.550 OA
ATOM     10  O   UNL     1       6.302 103.422 173.194  1.00  0.00    -0.550 OA
ENDBRANCH   7   8
ENDBRANCH   6   7
ENDBRANCH   5   6
ENDBRANCH   4   5
ENDBRANCH   3   4
ENDBRANCH   2   3
ENDBRANCH   1   2
BRANCH   1  11
ATOM     11  C   UNL     1       2.891 105.683 176.855  1.00  0.00     0.000 C 
BRANCH  11  12
ATOM     12  C   UNL     1       2.145 104.766 177.834  1.00  0.00    -0.000 C 
BRANCH  12  13
ATOM     13  C   UNL     1       2.731 104.807 179.258  1.00  0.00    -0.000 C 
BRANCH  13  14
ATOM     14  C   UNL     1       3.503 106.094 179.607  1.00  0.00    -0.000 C 
BRANCH  14  15
ATOM     15  C   UNL     1       4.929 105.874 180.149  1.00  0.00    -0.000 C 
BRANCH  15  16
ATOM     16  C   UNL     1       5.195 106.472 181.545  1.00  0.00    -0.000 C 
BRANCH  16  17
ATOM     17  C   UNL     1       3.951 107.031 182.257  1.00  0.00    -0.003 C 
ATOM     18  C   UNL     1       4.266 108.223 183.161  1.00  0.00     0.004 C 
ENDBRANCH  16  17
ENDBRANCH  15  16
ENDBRANCH  14  15
ENDBRANCH  13  14
ENDBRANCH  12  13
ENDBRANCH  11  12
ENDBRANCH   1  11
TORSDOF 14
ENDMDL
MODEL 7
REMARK VINA RESULT:    -3.188      2.163      3.144
REMARK INTER + INTRA:          -7.784
REMARK INTER:                  -5.767
REMARK INTRA:                  -2.017
REMARK UNBOUND:                -1.987
REMARK SMILES CCCCCCCCCCCCCCCC(=O)[O-]
REMARK SMILES IDX 9 1 10 2 11 3 12 4 13 5 14 6 15 7 16 8 17 9 18 10 8 11 7 12
REMARK SMILES IDX 6 13 5 14 4 15 3 16 2 17 1 18
REMARK H PARENT
REMARK Flexibility Score: inf
ROOT
ATOM      1  C   UNL     1       6.620 105.792 180.733  1.00  0.00     0.000 C 
ENDROOT
BRANCH   1   2
ATOM      2  C   UNL     1       7.602 106.209 181.834  1.00  0.00     0.000 C 
BRANCH   2   3
ATOM      3  C   UNL     1       6.870 106.474 183.155  1.00  0.00     0.000 C 
BRANCH   3   4
ATOM      4  C   UNL     1       7.172 107.882 183.681  1.00  0.00     0.000 C 
BRANCH   4   5
ATOM      5  C   UNL     1       5.880 108.613 184.071  1.00  0.00     0.000 C 
BRANCH   5   6
ATOM      6  C   UNL     1       4.647 108.115 183.295  1.00  0.00     0.006 C 
BRANCH   6   7
ATOM      7  C   UNL     1       3.815 109.240 182.655  1.00  0.00     0.053 C 
BRANCH   7   8
ATOM      8  C   UNL     1       2.361 108.894 182.543  1.00  0.00     0.041 C 
ATOM      9  O   UNL     1       1.604 108.995 183.545  1.00  0.00    -0.550 OA
ATOM     10  O   UNL     1       1.834 108.488 181.323  1.00  0.00    -0.550 OA
ENDBRANCH   7   8
ENDBRANCH   6   7
ENDBRANCH   5   6
ENDBRANCH   4   5
ENDBRANCH   3   4
ENDBRANCH   2   3
ENDBRANCH   1   2
BRANCH   1  11
ATOM     11  C   UNL     1       6.137 107.009 179.935  1.00  0.00     0.000 C 
BRANCH  11  12
ATOM     12  C   UNL     1       4.611 106.988 179.771  1.00  0.00    -0.000 C 
BRANCH  12  13
ATOM     13  C   UNL     1       3.942 105.833 180.540  1.00  0.00    -0.000 C 
BRANCH  13  14
ATOM     14  C   UNL     1       2.803 105.122 179.784  1.00  0.00    -0.000 C 
BRANCH  14  15
ATOM     15  C   UNL     1       3.219 104.441 178.465  1.00  0.00    -0.000 C 
BRANCH  15  16
ATOM     16  C   UNL     1       2.439 104.900 177.218  1.00  0.00    -0.000 C 
BRANCH  16  17
ATOM     17  C   UNL     1       3.012 106.146 176.521  1.00  0.00    -0.003 C 
ATOM     18  C   UNL     1       2.226 107.419 176.834  1.00  0.00     0.004 C 
ENDBRANCH  16  17
ENDBRANCH  15  16
ENDBRANCH  14  15
ENDBRANCH  13  14
ENDBRANCH  12  13
ENDBRANCH  11  12
ENDBRANCH   1  11
TORSDOF 14
ENDMDL
MODEL 8
REMARK VINA RESULT:    -3.149      3.218      6.488
REMARK INTER + INTRA:          -7.713
REMARK INTER:                  -5.598
REMARK INTRA:                  -2.115
REMARK UNBOUND:                -1.987
REMARK SMILES CCCCCCCCCCCCCCCC(=O)[O-]
REMARK SMILES IDX 9 1 10 2 11 3 12 4 13 5 14 6 15 7 16 8 17 9 18 10 8 11 7 12
REMARK SMILES IDX 6 13 5 14 4 15 3 16 2 17 1 18
REMARK H PARENT
REMARK Flexibility Score: inf
ROOT
ATOM      1  C   UNL     1       5.242 107.820 180.801  1.00  0.00     0.000 C 
ENDROOT
BRANCH   1   2
ATOM      2  C   UNL     1       3.977 108.584 180.393  1.00  0.00     0.000 C 
BRANCH   2   3
ATOM      3  C   UNL     1       2.783 108.178 181.265  1.00  0.00     0.000 C 
BRANCH   3   4
ATOM      4  C   UNL     1       1.476 108.220 180.464  1.00  0.00     0.000 C 
BRANCH   4   5
ATOM      5  C   UNL     1       1.745 108.048 178.962  1.00  0.00     0.000 C 
BRANCH   5   6
ATOM      6  C   UNL     1       1.273 106.688 178.416  1.00  0.00     0.006 C 
BRANCH   6   7
ATOM      7  C   UNL     1       2.404 105.820 177.837  1.00  0.00     0.053 C 
BRANCH   7   8
ATOM      8  C   UNL     1       3.209 105.135 178.899  1.00  0.00     0.041 C 
ATOM      9  O   UNL     1       4.433 104.901 178.717  1.00  0.00    -0.550 OA
ATOM     10  O   UNL     1       2.614 104.780 180.104  1.00  0.00    -0.550 OA
ENDBRANCH   7   8
ENDBRANCH   6   7
ENDBRANCH   5   6
ENDBRANCH   4   5
ENDBRANCH   3   4
ENDBRANCH   2   3
ENDBRANCH   1   2
BRANCH   1  11
ATOM     11  C   UNL     1       4.910 106.687 181.779  1.00  0.00     0.000 C 
BRANCH  11  12
ATOM     12  C   UNL     1       5.815 106.748 183.018  1.00  0.00    -0.000 C 
BRANCH  12  13
ATOM     13  C   UNL     1       5.460 107.911 183.962  1.00  0.00    -0.000 C 
BRANCH  13  14
ATOM     14  C   UNL     1       6.576 108.956 184.155  1.00  0.00    -0.000 C 
BRANCH  14  15
ATOM     15  C   UNL     1       6.091 110.414 184.278  1.00  0.00    -0.000 C 
BRANCH  15  16
ATOM     16  C   UNL     1       5.315 110.948 183.058  1.00  0.00    -0.000 C 
BRANCH  16  17
ATOM     17  C   UNL     1       3.802 111.118 183.278  1.00  0.00    -0.003 C 
ATOM     18  C   UNL     1       3.457 112.346 184.121  1.00  0.00     0.004 C 
ENDBRANCH  16  17
ENDBRANCH  15  16
ENDBRANCH  14  15
ENDBRANCH  13  14
ENDBRANCH  12  13
ENDBRANCH  11  12
ENDBRANCH   1  11
TORSDOF 14
ENDMDL
MODEL 9
REMARK VINA RESULT:    -3.123      1.675      3.115
REMARK INTER + INTRA:          -7.667
REMARK INTER:                  -5.874
REMARK INTRA:                  -1.792
REMARK UNBOUND:                -1.987
REMARK SMILES CCCCCCCCCCCCCCCC(=O)[O-]
REMARK SMILES IDX 9 1 10 2 11 3 12 4 13 5 14 6 15 7 16 8 17 9 18 10 8 11 7 12
REMARK SMILES IDX 6 13 5 14 4 15 3 16 2 17 1 18
REMARK H PARENT
REMARK Flexibility Score: inf
ROOT
ATOM      1  C   UNL     1       5.983 106.427 181.726  1.00  0.00     0.000 C 
ENDROOT
BRANCH   1   2
ATOM      2  C   UNL     1       5.913 106.601 183.248  1.00  0.00     0.000 C 
BRANCH   2   3
ATOM      3  C   UNL     1       7.223 107.180 183.797  1.00  0.00     0.000 C 
BRANCH   3   4
ATOM      4  C   UNL     1       7.345 108.673 183.471  1.00  0.00     0.000 C 
BRANCH   4   5
ATOM      5  C   UNL     1       6.598 109.526 184.506  1.00  0.00     0.000 C 
BRANCH   5   6
ATOM      6  C   UNL     1       6.018 110.824 183.914  1.00  0.00     0.006 C 
BRANCH   6   7
ATOM      7  C   UNL     1       4.755 110.611 183.060  1.00  0.00     0.053 C 
BRANCH   7   8
ATOM      8  C   UNL     1       3.571 111.368 183.579  1.00  0.00     0.041 C 
ATOM      9  O   UNL     1       2.423 110.850 183.552  1.00  0.00    -0.550 OA
ATOM     10  O   UNL     1       3.738 112.636 184.122  1.00  0.00    -0.550 OA
ENDBRANCH   7   8
ENDBRANCH   6   7
ENDBRANCH   5   6
ENDBRANCH   4   5
ENDBRANCH   3   4
ENDBRANCH   2   3
ENDBRANCH   1   2
BRANCH   1  11
ATOM     11  C   UNL     1       4.811 107.136 181.036  1.00  0.00     0.000 C 
BRANCH  11  12
ATOM     12  C   UNL     1       3.591 107.212 181.965  1.00  0.00    -0.000 C 
BRANCH  12  13
ATOM     13  C   UNL     1       2.534 108.222 181.484  1.00  0.00    -0.000 C 
BRANCH  13  14
ATOM     14  C   UNL     1       2.532 108.488 179.966  1.00  0.00    -0.000 C 
BRANCH  14  15
ATOM     15  C   UNL     1       1.222 108.120 179.240  1.00  0.00    -0.000 C 
BRANCH  15  16
ATOM     16  C   UNL     1       0.886 106.616 179.225  1.00  0.00    -0.000 C 
BRANCH  16  17
ATOM     17  C   UNL     1       1.816 105.755 178.352  1.00  0.00    -0.003 C 
ATOM     18  C   UNL     1       2.686 104.801 179.171  1.00  0.00     0.004 C 
ENDBRANCH  16  17
ENDBRANCH  15  16
ENDBRANCH  14  15
ENDBRANCH  13  14
ENDBRANCH  12  13
ENDBRANCH  11  12
ENDBRANCH   1  11
TORSDOF 14
ENDMDL
