MODEL 1
REMARK VINA RESULT:    -3.899      0.000      0.000
REMARK INTER + INTRA:         -14.786
REMARK INTER:                  -9.825
REMARK INTRA:                  -4.961
REMARK UNBOUND:                -4.961
REMARK SMILES CCCCCCCCCCCCCCCCCCCCCCCCCCCC(=O)[O-]
REMARK SMILES IDX 15 1 16 2 17 3 18 4 19 5 20 6 21 7 22 8 23 9 24 10 25 11
REMARK SMILES IDX 26 12 27 13 28 14 29 15 30 16 14 17 13 18 12 19 11 20 10 21
REMARK SMILES IDX 9 22 8 23 7 24 6 25 5 26 4 27 3 28 2 29 1 30
REMARK H PARENT
REMARK Flexibility Score: inf
ROOT
ATOM      1  C   UNL     1      30.086   9.252  46.145  1.00  0.00     0.000 C 
ENDROOT
BRANCH   1   2
ATOM      2  C   UNL     1      28.859   8.952  45.268  1.00  0.00     0.000 C 
BRANCH   2   3
ATOM      3  C   UNL     1      29.238   8.370  43.894  1.00  0.00     0.000 C 
BRANCH   3   4
ATOM      4  C   UNL     1      28.257   7.283  43.427  1.00  0.00     0.000 C 
BRANCH   4   5
ATOM      5  C   UNL     1      28.529   6.818  41.986  1.00  0.00     0.000 C 
BRANCH   5   6
ATOM      6  C   UNL     1      27.841   5.483  41.659  1.00  0.00     0.000 C 
BRANCH   6   7
ATOM      7  C   UNL     1      28.839   4.400  41.213  1.00  0.00     0.000 C 
BRANCH   7   8
ATOM      8  C   UNL     1      28.890   4.227  39.683  1.00  0.00     0.000 C 
BRANCH   8   9
ATOM      9  C   UNL     1      30.143   4.807  39.004  1.00  0.00     0.000 C 
BRANCH   9  10
ATOM     10  C   UNL     1      31.280   5.099  39.997  1.00  0.00     0.000 C 
BRANCH  10  11
ATOM     11  C   UNL     1      31.840   6.527  39.870  1.00  0.00     0.000 C 
BRANCH  11  12
ATOM     12  C   UNL     1      33.205   6.766  40.546  1.00  0.00     0.006 C 
BRANCH  12  13
ATOM     13  C   UNL     1      34.396   6.781  39.569  1.00  0.00     0.053 C 
BRANCH  13  14
ATOM     14  C   UNL     1      35.269   5.569  39.705  1.00  0.00     0.041 C 
ATOM     15  O   UNL     1      36.321   5.466  39.020  1.00  0.00    -0.550 OA
ATOM     16  O   UNL     1      34.944   4.574  40.618  1.00  0.00    -0.550 OA
ENDBRANCH  13  14
ENDBRANCH  12  13
ENDBRANCH  11  12
ENDBRANCH  10  11
ENDBRANCH   9  10
ENDBRANCH   8   9
ENDBRANCH   7   8
ENDBRANCH   6   7
ENDBRANCH   5   6
ENDBRANCH   4   5
ENDBRANCH   3   4
ENDBRANCH   2   3
ENDBRANCH   1   2
BRANCH   1  17
ATOM     17  C   UNL     1      31.357   9.504  45.317  1.00  0.00     0.000 C 
BRANCH  17  18
ATOM     18  C   UNL     1      32.651   9.277  46.120  1.00  0.00     0.000 C 
BRANCH  18  19
ATOM     19  C   UNL     1      33.632   8.253  45.511  1.00  0.00     0.000 C 
BRANCH  19  20
ATOM     20  C   UNL     1      33.197   7.658  44.156  1.00  0.00     0.000 C 
BRANCH  20  21
ATOM     21  C   UNL     1      33.002   6.129  44.154  1.00  0.00     0.000 C 
BRANCH  21  22
ATOM     22  C   UNL     1      31.568   5.656  43.841  1.00  0.00    -0.000 C 
BRANCH  22  23
ATOM     23  C   UNL     1      30.787   5.100  45.047  1.00  0.00    -0.000 C 
BRANCH  23  24
ATOM     24  C   UNL     1      31.491   5.259  46.409  1.00  0.00    -0.000 C 
BRANCH  24  25
ATOM     25  C   UNL     1      30.719   6.143  47.411  1.00  0.00    -0.000 C 
BRANCH  25  26
ATOM     26  C   UNL     1      30.436   5.424  48.738  1.00  0.00    -0.000 C 
BRANCH  26  27
ATOM     27  C   UNL     1      28.948   5.082  48.875  1.00  0.00    -0.000 C 
BRANCH  27  28
ATOM     28  C   UNL     1      28.071   6.231  48.354  1.00  0.00    -0.000 C 
BRANCH  28  29
ATOM     29  C   UNL     1      26.957   5.747  47.415  1.00  0.00    -0.003 C 
ATOM     30  C   UNL     1      27.418   4.643  46.465  1.00  0.00     0.004 C 
ENDBRANCH  28  29
ENDBRANCH  27  28
ENDBRANCH  26  27
ENDBRANCH  25  26
ENDBRANCH  24  25
ENDBRANCH  23  24
ENDBRANCH  22  23
ENDBRANCH  21  22
ENDBRANCH  20  21
ENDBRANCH  19  20
ENDBRANCH  18  19
ENDBRANCH  17  18
ENDBRANCH   1  17
TORSDOF 26
ENDMDL
MODEL 2
REMARK VINA RESULT:    -3.797      3.052      6.957
REMARK INTER + INTRA:         -14.529
REMARK INTER:                  -9.024
REMARK INTRA:                  -5.505
REMARK UNBOUND:                -4.961
REMARK SMILES CCCCCCCCCCCCCCCCCCCCCCCCCCCC(=O)[O-]
REMARK SMILES IDX 15 1 16 2 17 3 18 4 19 5 20 6 21 7 22 8 23 9 24 10 25 11
REMARK SMILES IDX 26 12 27 13 28 14 29 15 30 16 14 17 13 18 12 19 11 20 10 21
REMARK SMILES IDX 9 22 8 23 7 24 6 25 5 26 4 27 3 28 2 29 1 30
REMARK H PARENT
REMARK Flexibility Score: inf
ROOT
ATOM      1  C   UNL     1      28.817   5.623  48.824  1.00  0.00     0.000 C 
ENDROOT
BRANCH   1   2
ATOM      2  C   UNL     1      30.189   5.020  49.166  1.00  0.00     0.000 C 
BRANCH   2   3
ATOM      3  C   UNL     1      31.353   5.771  48.496  1.00  0.00     0.000 C 
BRANCH   3   4
ATOM      4  C   UNL     1      31.383   5.570  46.973  1.00  0.00     0.000 C 
BRANCH   4   5
ATOM      5  C   UNL     1      31.879   6.816  46.219  1.00  0.00     0.000 C 
BRANCH   5   6
ATOM      6  C   UNL     1      30.765   7.851  45.997  1.00  0.00     0.000 C 
BRANCH   6   7
ATOM      7  C   UNL     1      30.867   8.541  44.625  1.00  0.00     0.000 C 
BRANCH   7   8
ATOM      8  C   UNL     1      29.498   8.982  44.074  1.00  0.00     0.000 C 
BRANCH   8   9
ATOM      9  C   UNL     1      29.025   8.223  42.822  1.00  0.00     0.000 C 
BRANCH   9  10
ATOM     10  C   UNL     1      27.495   8.223  42.665  1.00  0.00     0.000 C 
BRANCH  10  11
ATOM     11  C   UNL     1      27.012   7.385  41.469  1.00  0.00     0.000 C 
BRANCH  11  12
ATOM     12  C   UNL     1      26.201   6.123  41.828  1.00  0.00     0.006 C 
BRANCH  12  13
ATOM     13  C   UNL     1      26.846   4.806  41.356  1.00  0.00     0.053 C 
BRANCH  13  14
ATOM     14  C   UNL     1      25.866   3.893  40.681  1.00  0.00     0.041 C 
ATOM     15  O   UNL     1      26.057   3.525  39.492  1.00  0.00    -0.550 OA
ATOM     16  O   UNL     1      24.762   3.417  41.378  1.00  0.00    -0.550 OA
ENDBRANCH  13  14
ENDBRANCH  12  13
ENDBRANCH  11  12
ENDBRANCH  10  11
ENDBRANCH   9  10
ENDBRANCH   8   9
ENDBRANCH   7   8
ENDBRANCH   6   7
ENDBRANCH   5   6
ENDBRANCH   4   5
ENDBRANCH   3   4
ENDBRANCH   2   3
ENDBRANCH   1   2
BRANCH   1  17
ATOM     17  C   UNL     1      27.739   4.550  48.600  1.00  0.00     0.000 C 
BRANCH  17  18
ATOM     18  C   UNL     1      27.247   4.488  47.141  1.00  0.00     0.000 C 
BRANCH  18  19
ATOM     19  C   UNL     1      27.515   5.755  46.303  1.00  0.00     0.000 C 
BRANCH  19  20
ATOM     20  C   UNL     1      28.267   5.517  44.978  1.00  0.00     0.000 C 
BRANCH  20  21
ATOM     21  C   UNL     1      28.556   4.037  44.656  1.00  0.00     0.000 C 
BRANCH  21  22
ATOM     22  C   UNL     1      29.715   3.800  43.666  1.00  0.00    -0.000 C 
BRANCH  22  23
ATOM     23  C   UNL     1      30.604   5.028  43.396  1.00  0.00    -0.000 C 
BRANCH  23  24
ATOM     24  C   UNL     1      31.208   5.097  41.980  1.00  0.00    -0.000 C 
BRANCH  24  25
ATOM     25  C   UNL     1      30.174   4.913  40.850  1.00  0.00    -0.000 C 
BRANCH  25  26
ATOM     26  C   UNL     1      30.119   6.117  39.897  1.00  0.00    -0.000 C 
BRANCH  26  27
ATOM     27  C   UNL     1      31.303   7.061  40.130  1.00  0.00    -0.000 C 
BRANCH  27  28
ATOM     28  C   UNL     1      30.959   8.493  39.691  1.00  0.00    -0.000 C 
BRANCH  28  29
ATOM     29  C   UNL     1      29.667   8.564  38.865  1.00  0.00    -0.003 C 
ATOM     30  C   UNL     1      28.760   9.722  39.279  1.00  0.00     0.004 C 
ENDBRANCH  28  29
ENDBRANCH  27  28
ENDBRANCH  26  27
ENDBRANCH  25  26
ENDBRANCH  24  25
ENDBRANCH  23  24
ENDBRANCH  22  23
ENDBRANCH  21  22
ENDBRANCH  20  21
ENDBRANCH  19  20
ENDBRANCH  18  19
ENDBRANCH  17  18
ENDBRANCH   1  17
TORSDOF 26
ENDMDL
MODEL 3
REMARK VINA RESULT:    -3.776      3.235      7.041
REMARK INTER + INTRA:         -14.477
REMARK INTER:                  -9.302
REMARK INTRA:                  -5.174
REMARK UNBOUND:                -4.961
REMARK SMILES CCCCCCCCCCCCCCCCCCCCCCCCCCCC(=O)[O-]
REMARK SMILES IDX 15 1 16 2 17 3 18 4 19 5 20 6 21 7 22 8 23 9 24 10 25 11
REMARK SMILES IDX 26 12 27 13 28 14 29 15 30 16 14 17 13 18 12 19 11 20 10 21
REMARK SMILES IDX 9 22 8 23 7 24 6 25 5 26 4 27 3 28 2 29 1 30
REMARK H PARENT
REMARK Flexibility Score: inf
ROOT
ATOM      1  C   UNL     1      32.937   6.585  44.809  1.00  0.00     0.000 C 
ENDROOT
BRANCH   1   2
ATOM      2  C   UNL     1      33.774   7.864  44.975  1.00  0.00     0.000 C 
BRANCH   2   3
ATOM      3  C   UNL     1      33.394   8.665  46.232  1.00  0.00     0.000 C 
BRANCH   3   4
ATOM      4  C   UNL     1      32.856  10.065  45.895  1.00  0.00     0.000 C 
BRANCH   4   5
ATOM      5  C   UNL     1      32.475  10.214  44.413  1.00  0.00     0.000 C 
BRANCH   5   6
ATOM      6  C   UNL     1      30.954  10.286  44.200  1.00  0.00     0.000 C 
BRANCH   6   7
ATOM      7  C   UNL     1      30.404   9.054  43.459  1.00  0.00     0.000 C 
BRANCH   7   8
ATOM      8  C   UNL     1      29.441   8.218  44.321  1.00  0.00     0.000 C 
BRANCH   8   9
ATOM      9  C   UNL     1      29.380   8.620  45.806  1.00  0.00     0.000 C 
BRANCH   9  10
ATOM     10  C   UNL     1      29.863   7.505  46.747  1.00  0.00     0.000 C 
BRANCH  10  11
ATOM     11  C   UNL     1      28.711   6.788  47.474  1.00  0.00     0.000 C 
BRANCH  11  12
ATOM     12  C   UNL     1      28.948   5.295  47.780  1.00  0.00     0.006 C 
BRANCH  12  13
ATOM     13  C   UNL     1      29.463   5.020  49.205  1.00  0.00     0.053 C 
BRANCH  13  14
ATOM     14  C   UNL     1      30.922   4.676  49.235  1.00  0.00     0.041 C 
ATOM     15  O   UNL     1      31.698   5.125  48.349  1.00  0.00    -0.550 OA
ATOM     16  O   UNL     1      31.434   3.893  50.262  1.00  0.00    -0.550 OA
ENDBRANCH  13  14
ENDBRANCH  12  13
ENDBRANCH  11  12
ENDBRANCH  10  11
ENDBRANCH   9  10
ENDBRANCH   8   9
ENDBRANCH   7   8
ENDBRANCH   6   7
ENDBRANCH   5   6
ENDBRANCH   4   5
ENDBRANCH   3   4
ENDBRANCH   2   3
ENDBRANCH   1   2
BRANCH   1  17
ATOM     17  C   UNL     1      32.704   6.219  43.334  1.00  0.00     0.000 C 
BRANCH  17  18
ATOM     18  C   UNL     1      31.438   5.366  43.120  1.00  0.00     0.000 C 
BRANCH  18  19
ATOM     19  C   UNL     1      30.851   4.730  44.397  1.00  0.00     0.000 C 
BRANCH  19  20
ATOM     20  C   UNL     1      29.598   3.859  44.177  1.00  0.00     0.000 C 
BRANCH  20  21
ATOM     21  C   UNL     1      28.966   3.977  42.776  1.00  0.00     0.000 C 
BRANCH  21  22
ATOM     22  C   UNL     1      27.568   4.626  42.743  1.00  0.00    -0.000 C 
BRANCH  22  23
ATOM     23  C   UNL     1      27.015   5.052  44.116  1.00  0.00    -0.000 C 
BRANCH  23  24
ATOM     24  C   UNL     1      26.221   6.373  44.118  1.00  0.00    -0.000 C 
BRANCH  24  25
ATOM     25  C   UNL     1      26.182   7.080  42.747  1.00  0.00    -0.000 C 
BRANCH  25  26
ATOM     26  C   UNL     1      24.767   7.143  42.153  1.00  0.00    -0.000 C 
BRANCH  26  27
ATOM     27  C   UNL     1      24.576   6.080  41.066  1.00  0.00    -0.000 C 
BRANCH  27  28
ATOM     28  C   UNL     1      23.867   4.840  41.630  1.00  0.00    -0.000 C 
BRANCH  28  29
ATOM     29  C   UNL     1      24.541   3.527  41.205  1.00  0.00    -0.003 C 
ATOM     30  C   UNL     1      25.268   3.638  39.865  1.00  0.00     0.004 C 
ENDBRANCH  28  29
ENDBRANCH  27  28
ENDBRANCH  26  27
ENDBRANCH  25  26
ENDBRANCH  24  25
ENDBRANCH  23  24
ENDBRANCH  22  23
ENDBRANCH  21  22
ENDBRANCH  20  21
ENDBRANCH  19  20
ENDBRANCH  18  19
ENDBRANCH  17  18
ENDBRANCH   1  17
TORSDOF 26
ENDMDL
MODEL 4
REMARK VINA RESULT:    -3.723      3.841      6.992
REMARK INTER + INTRA:         -14.344
REMARK INTER:                 -10.114
REMARK INTRA:                  -4.230
REMARK UNBOUND:                -4.961
REMARK SMILES CCCCCCCCCCCCCCCCCCCCCCCCCCCC(=O)[O-]
REMARK SMILES IDX 15 1 16 2 17 3 18 4 19 5 20 6 21 7 22 8 23 9 24 10 25 11
REMARK SMILES IDX 26 12 27 13 28 14 29 15 30 16 14 17 13 18 12 19 11 20 10 21
REMARK SMILES IDX 9 22 8 23 7 24 6 25 5 26 4 27 3 28 2 29 1 30
REMARK H PARENT
REMARK Flexibility Score: inf
ROOT
ATOM      1  C   UNL     1      31.134   5.002  48.695  1.00  0.00     0.000 C 
ENDROOT
BRANCH   1   2
ATOM      2  C   UNL     1      29.769   4.761  49.359  1.00  0.00     0.000 C 
BRANCH   2   3
ATOM      3  C   UNL     1      28.632   5.549  48.684  1.00  0.00     0.000 C 
BRANCH   3   4
ATOM      4  C   UNL     1      27.569   4.629  48.063  1.00  0.00     0.000 C 
BRANCH   4   5
ATOM      5  C   UNL     1      26.236   5.353  47.804  1.00  0.00     0.000 C 
BRANCH   5   6
ATOM      6  C   UNL     1      25.909   5.466  46.307  1.00  0.00     0.000 C 
BRANCH   6   7
ATOM      7  C   UNL     1      26.755   6.540  45.599  1.00  0.00     0.000 C 
BRANCH   7   8
ATOM      8  C   UNL     1      26.419   6.677  44.103  1.00  0.00     0.000 C 
BRANCH   8   9
ATOM      9  C   UNL     1      25.886   5.397  43.436  1.00  0.00     0.000 C 
BRANCH   9  10
ATOM     10  C   UNL     1      24.749   5.672  42.438  1.00  0.00     0.000 C 
BRANCH  10  11
ATOM     11  C   UNL     1      25.073   5.198  41.010  1.00  0.00     0.000 C 
BRANCH  11  12
ATOM     12  C   UNL     1      25.323   3.684  40.854  1.00  0.00     0.006 C 
BRANCH  12  13
ATOM     13  C   UNL     1      24.976   3.130  39.459  1.00  0.00     0.053 C 
BRANCH  13  14
ATOM     14  C   UNL     1      23.747   2.271  39.469  1.00  0.00     0.041 C 
ATOM     15  O   UNL     1      22.882   2.390  38.560  1.00  0.00    -0.550 OA
ATOM     16  O   UNL     1      23.575   1.310  40.458  1.00  0.00    -0.550 OA
ENDBRANCH  13  14
ENDBRANCH  12  13
ENDBRANCH  11  12
ENDBRANCH  10  11
ENDBRANCH   9  10
ENDBRANCH   8   9
ENDBRANCH   7   8
ENDBRANCH   6   7
ENDBRANCH   5   6
ENDBRANCH   4   5
ENDBRANCH   3   4
ENDBRANCH   2   3
ENDBRANCH   1   2
BRANCH   1  17
ATOM     17  C   UNL     1      31.081   6.092  47.612  1.00  0.00     0.000 C 
BRANCH  17  18
ATOM     18  C   UNL     1      31.367   5.548  46.199  1.00  0.00     0.000 C 
BRANCH  18  19
ATOM     19  C   UNL     1      30.119   5.274  45.335  1.00  0.00     0.000 C 
BRANCH  19  20
ATOM     20  C   UNL     1      30.309   4.217  44.228  1.00  0.00     0.000 C 
BRANCH  20  21
ATOM     21  C   UNL     1      29.091   4.020  43.305  1.00  0.00     0.000 C 
BRANCH  21  22
ATOM     22  C   UNL     1      29.336   4.359  41.820  1.00  0.00    -0.000 C 
BRANCH  22  23
ATOM     23  C   UNL     1      28.767   5.714  41.358  1.00  0.00    -0.000 C 
BRANCH  23  24
ATOM     24  C   UNL     1      29.537   6.950  41.859  1.00  0.00    -0.000 C 
BRANCH  24  25
ATOM     25  C   UNL     1      31.054   6.895  41.582  1.00  0.00    -0.000 C 
BRANCH  25  26
ATOM     26  C   UNL     1      31.894   7.309  42.800  1.00  0.00    -0.000 C 
BRANCH  26  27
ATOM     27  C   UNL     1      31.550   8.733  43.250  1.00  0.00    -0.000 C 
BRANCH  27  28
ATOM     28  C   UNL     1      32.686   9.331  44.094  1.00  0.00    -0.000 C 
BRANCH  28  29
ATOM     29  C   UNL     1      33.464   8.266  44.880  1.00  0.00    -0.003 C 
ATOM     30  C   UNL     1      33.565   8.583  46.372  1.00  0.00     0.004 C 
ENDBRANCH  28  29
ENDBRANCH  27  28
ENDBRANCH  26  27
ENDBRANCH  25  26
ENDBRANCH  24  25
ENDBRANCH  23  24
ENDBRANCH  22  23
ENDBRANCH  21  22
ENDBRANCH  20  21
ENDBRANCH  19  20
ENDBRANCH  18  19
ENDBRANCH  17  18
ENDBRANCH   1  17
TORSDOF 26
ENDMDL
MODEL 5
REMARK VINA RESULT:    -3.676      3.789      7.261
REMARK INTER + INTRA:         -14.225
REMARK INTER:                  -9.985
REMARK INTRA:                  -4.240
REMARK UNBOUND:                -4.961
REMARK SMILES CCCCCCCCCCCCCCCCCCCCCCCCCCCC(=O)[O-]
REMARK SMILES IDX 15 1 16 2 17 3 18 4 19 5 20 6 21 7 22 8 23 9 24 10 25 11
REMARK SMILES IDX 26 12 27 13 28 14 29 15 30 16 14 17 13 18 12 19 11 20 10 21
REMARK SMILES IDX 9 22 8 23 7 24 6 25 5 26 4 27 3 28 2 29 1 30
REMARK H PARENT
REMARK Flexibility Score: inf
ROOT
ATOM      1  C   UNL     1      31.429   6.178  45.550  1.00  0.00     0.000 C 
ENDROOT
BRANCH   1   2
ATOM      2  C   UNL     1      30.871   6.455  46.955  1.00  0.00     0.000 C 
BRANCH   2   3
ATOM      3  C   UNL     1      31.270   5.376  47.977  1.00  0.00     0.000 C 
BRANCH   3   4
ATOM      4  C   UNL     1      30.184   5.144  49.040  1.00  0.00     0.000 C 
BRANCH   4   5
ATOM      5  C   UNL     1      28.796   5.630  48.587  1.00  0.00     0.000 C 
BRANCH   5   6
ATOM      6  C   UNL     1      27.727   4.530  48.681  1.00  0.00     0.000 C 
BRANCH   6   7
ATOM      7  C   UNL     1      26.855   4.445  47.416  1.00  0.00     0.000 C 
BRANCH   7   8
ATOM      8  C   UNL     1      27.666   4.615  46.118  1.00  0.00     0.000 C 
BRANCH   8   9
ATOM      9  C   UNL     1      26.843   4.527  44.820  1.00  0.00     0.000 C 
BRANCH   9  10
ATOM     10  C   UNL     1      26.571   5.903  44.190  1.00  0.00     0.000 C 
BRANCH  10  11
ATOM     11  C   UNL     1      27.830   6.784  44.100  1.00  0.00     0.000 C 
BRANCH  11  12
ATOM     12  C   UNL     1      27.935   7.663  42.837  1.00  0.00     0.006 C 
BRANCH  12  13
ATOM     13  C   UNL     1      26.698   7.598  41.922  1.00  0.00     0.053 C 
BRANCH  13  14
ATOM     14  C   UNL     1      25.868   8.846  41.984  1.00  0.00     0.041 C 
ATOM     15  O   UNL     1      24.819   8.946  41.293  1.00  0.00    -0.550 OA
ATOM     16  O   UNL     1      26.230   9.883  42.834  1.00  0.00    -0.550 OA
ENDBRANCH  13  14
ENDBRANCH  12  13
ENDBRANCH  11  12
ENDBRANCH  10  11
ENDBRANCH   9  10
ENDBRANCH   8   9
ENDBRANCH   7   8
ENDBRANCH   6   7
ENDBRANCH   5   6
ENDBRANCH   4   5
ENDBRANCH   3   4
ENDBRANCH   2   3
ENDBRANCH   1   2
BRANCH   1  17
ATOM     17  C   UNL     1      30.948   4.834  44.977  1.00  0.00     0.000 C 
BRANCH  17  18
ATOM     18  C   UNL     1      30.915   4.815  43.437  1.00  0.00     0.000 C 
BRANCH  18  19
ATOM     19  C   UNL     1      31.301   6.145  42.755  1.00  0.00     0.000 C 
BRANCH  19  20
ATOM     20  C   UNL     1      31.652   6.034  41.258  1.00  0.00     0.000 C 
BRANCH  20  21
ATOM     21  C   UNL     1      30.817   5.004  40.472  1.00  0.00     0.000 C 
BRANCH  21  22
ATOM     22  C   UNL     1      29.341   5.395  40.250  1.00  0.00    -0.000 C 
BRANCH  22  23
ATOM     23  C   UNL     1      28.375   4.210  40.058  1.00  0.00    -0.000 C 
BRANCH  23  24
ATOM     24  C   UNL     1      27.319   4.044  41.168  1.00  0.00    -0.000 C 
BRANCH  24  25
ATOM     25  C   UNL     1      25.868   4.249  40.685  1.00  0.00    -0.000 C 
BRANCH  25  26
ATOM     26  C   UNL     1      24.835   3.620  41.631  1.00  0.00    -0.000 C 
BRANCH  26  27
ATOM     27  C   UNL     1      23.447   3.571  40.981  1.00  0.00    -0.000 C 
BRANCH  27  28
ATOM     28  C   UNL     1      23.383   2.474  39.907  1.00  0.00    -0.000 C 
BRANCH  28  29
ATOM     29  C   UNL     1      23.617   1.069  40.481  1.00  0.00    -0.003 C 
ATOM     30  C   UNL     1      23.653  -0.014  39.404  1.00  0.00     0.004 C 
ENDBRANCH  28  29
ENDBRANCH  27  28
ENDBRANCH  26  27
ENDBRANCH  25  26
ENDBRANCH  24  25
ENDBRANCH  23  24
ENDBRANCH  22  23
ENDBRANCH  21  22
ENDBRANCH  20  21
ENDBRANCH  19  20
ENDBRANCH  18  19
ENDBRANCH  17  18
ENDBRANCH   1  17
TORSDOF 26
ENDMDL
MODEL 6
REMARK VINA RESULT:    -3.669      3.474      7.453
REMARK INTER + INTRA:         -14.206
REMARK INTER:                 -10.365
REMARK INTRA:                  -3.841
REMARK UNBOUND:                -4.961
REMARK SMILES CCCCCCCCCCCCCCCCCCCCCCCCCCCC(=O)[O-]
REMARK SMILES IDX 15 1 16 2 17 3 18 4 19 5 20 6 21 7 22 8 23 9 24 10 25 11
REMARK SMILES IDX 26 12 27 13 28 14 29 15 30 16 14 17 13 18 12 19 11 20 10 21
REMARK SMILES IDX 9 22 8 23 7 24 6 25 5 26 4 27 3 28 2 29 1 30
REMARK H PARENT
REMARK Flexibility Score: inf
ROOT
ATOM      1  C   UNL     1      29.489   3.906  43.927  1.00  0.00     0.000 C 
ENDROOT
BRANCH   1   2
ATOM      2  C   UNL     1      28.613   4.663  44.938  1.00  0.00     0.000 C 
BRANCH   2   3
ATOM      3  C   UNL     1      27.363   3.868  45.356  1.00  0.00     0.000 C 
BRANCH   3   4
ATOM      4  C   UNL     1      26.508   4.619  46.388  1.00  0.00     0.000 C 
BRANCH   4   5
ATOM      5  C   UNL     1      26.876   4.261  47.838  1.00  0.00     0.000 C 
BRANCH   5   6
ATOM      6  C   UNL     1      27.878   5.251  48.453  1.00  0.00     0.000 C 
BRANCH   6   7
ATOM      7  C   UNL     1      28.886   4.563  49.390  1.00  0.00     0.000 C 
BRANCH   7   8
ATOM      8  C   UNL     1      30.342   4.982  49.115  1.00  0.00     0.000 C 
BRANCH   8   9
ATOM      9  C   UNL     1      30.516   6.049  48.020  1.00  0.00     0.000 C 
BRANCH   9  10
ATOM     10  C   UNL     1      31.452   5.596  46.887  1.00  0.00     0.000 C 
BRANCH  10  11
ATOM     11  C   UNL     1      31.565   6.627  45.750  1.00  0.00     0.000 C 
BRANCH  11  12
ATOM     12  C   UNL     1      32.411   6.186  44.538  1.00  0.00     0.006 C 
BRANCH  12  13
ATOM     13  C   UNL     1      32.206   7.052  43.281  1.00  0.00     0.053 C 
BRANCH  13  14
ATOM     14  C   UNL     1      33.352   7.988  43.032  1.00  0.00     0.041 C 
ATOM     15  O   UNL     1      33.893   8.041  41.896  1.00  0.00    -0.550 OA
ATOM     16  O   UNL     1      33.796   8.831  44.043  1.00  0.00    -0.550 OA
ENDBRANCH  13  14
ENDBRANCH  12  13
ENDBRANCH  11  12
ENDBRANCH  10  11
ENDBRANCH   9  10
ENDBRANCH   8   9
ENDBRANCH   7   8
ENDBRANCH   6   7
ENDBRANCH   5   6
ENDBRANCH   4   5
ENDBRANCH   3   4
ENDBRANCH   2   3
ENDBRANCH   1   2
BRANCH   1  17
ATOM     17  C   UNL     1      29.108   4.211  42.469  1.00  0.00     0.000 C 
BRANCH  17  18
ATOM     18  C   UNL     1      28.947   5.718  42.194  1.00  0.00     0.000 C 
BRANCH  18  19
ATOM     19  C   UNL     1      27.653   6.117  41.455  1.00  0.00     0.000 C 
BRANCH  19  20
ATOM     20  C   UNL     1      26.374   6.095  42.316  1.00  0.00     0.000 C 
BRANCH  20  21
ATOM     21  C   UNL     1      25.438   4.898  42.055  1.00  0.00     0.000 C 
BRANCH  21  22
ATOM     22  C   UNL     1      25.877   3.965  40.908  1.00  0.00    -0.000 C 
BRANCH  22  23
ATOM     23  C   UNL     1      24.900   3.886  39.721  1.00  0.00    -0.000 C 
BRANCH  23  24
ATOM     24  C   UNL     1      24.739   2.484  39.100  1.00  0.00    -0.000 C 
BRANCH  24  25
ATOM     25  C   UNL     1      23.567   1.671  39.690  1.00  0.00    -0.000 C 
BRANCH  25  26
ATOM     26  C   UNL     1      22.499   2.562  40.343  1.00  0.00    -0.000 C 
BRANCH  26  27
ATOM     27  C   UNL     1      22.494   2.391  41.866  1.00  0.00    -0.000 C 
BRANCH  27  28
ATOM     28  C   UNL     1      21.503   3.365  42.524  1.00  0.00    -0.000 C 
BRANCH  28  29
ATOM     29  C   UNL     1      21.140   4.546  41.613  1.00  0.00    -0.003 C 
ATOM     30  C   UNL     1      21.872   5.834  41.989  1.00  0.00     0.004 C 
ENDBRANCH  28  29
ENDBRANCH  27  28
ENDBRANCH  26  27
ENDBRANCH  25  26
ENDBRANCH  24  25
ENDBRANCH  23  24
ENDBRANCH  22  23
ENDBRANCH  21  22
ENDBRANCH  20  21
ENDBRANCH  19  20
ENDBRANCH  18  19
ENDBRANCH  17  18
ENDBRANCH   1  17
TORSDOF 26
ENDMDL
MODEL 7
REMARK VINA RESULT:    -3.653      2.816      5.494
REMARK INTER + INTRA:         -14.167
REMARK INTER:                  -9.673
REMARK INTRA:                  -4.495
REMARK UNBOUND:                -4.961
REMARK SMILES CCCCCCCCCCCCCCCCCCCCCCCCCCCC(=O)[O-]
REMARK SMILES IDX 15 1 16 2 17 3 18 4 19 5 20 6 21 7 22 8 23 9 24 10 25 11
REMARK SMILES IDX 26 12 27 13 28 14 29 15 30 16 14 17 13 18 12 19 11 20 10 21
REMARK SMILES IDX 9 22 8 23 7 24 6 25 5 26 4 27 3 28 2 29 1 30
REMARK H PARENT
REMARK Flexibility Score: inf
ROOT
ATOM      1  C   UNL     1      27.742   6.971  41.673  1.00  0.00     0.000 C 
ENDROOT
BRANCH   1   2
ATOM      2  C   UNL     1      26.645   5.895  41.609  1.00  0.00     0.000 C 
BRANCH   2   3
ATOM      3  C   UNL     1      27.149   4.565  41.022  1.00  0.00     0.000 C 
BRANCH   3   4
ATOM      4  C   UNL     1      28.661   4.374  41.214  1.00  0.00     0.000 C 
BRANCH   4   5
ATOM      5  C   UNL     1      29.463   4.646  39.930  1.00  0.00     0.000 C 
BRANCH   5   6
ATOM      6  C   UNL     1      30.923   5.028  40.216  1.00  0.00     0.000 C 
BRANCH   6   7
ATOM      7  C   UNL     1      31.057   6.442  40.810  1.00  0.00     0.000 C 
BRANCH   7   8
ATOM      8  C   UNL     1      31.764   6.453  42.178  1.00  0.00     0.000 C 
BRANCH   8   9
ATOM      9  C   UNL     1      31.470   5.235  43.072  1.00  0.00     0.000 C 
BRANCH   9  10
ATOM     10  C   UNL     1      31.775   5.496  44.556  1.00  0.00     0.000 C 
BRANCH  10  11
ATOM     11  C   UNL     1      32.728   6.685  44.775  1.00  0.00     0.000 C 
BRANCH  11  12
ATOM     12  C   UNL     1      32.390   7.592  45.976  1.00  0.00     0.006 C 
BRANCH  12  13
ATOM     13  C   UNL     1      33.293   8.834  46.099  1.00  0.00     0.053 C 
BRANCH  13  14
ATOM     14  C   UNL     1      32.543  10.116  45.890  1.00  0.00     0.041 C 
ATOM     15  O   UNL     1      31.297  10.158  46.068  1.00  0.00    -0.550 OA
ATOM     16  O   UNL     1      33.226  11.274  45.538  1.00  0.00    -0.550 OA
ENDBRANCH  13  14
ENDBRANCH  12  13
ENDBRANCH  11  12
ENDBRANCH  10  11
ENDBRANCH   9  10
ENDBRANCH   8   9
ENDBRANCH   7   8
ENDBRANCH   6   7
ENDBRANCH   5   6
ENDBRANCH   4   5
ENDBRANCH   3   4
ENDBRANCH   2   3
ENDBRANCH   1   2
BRANCH   1  17
ATOM     17  C   UNL     1      27.899   7.571  43.080  1.00  0.00     0.000 C 
BRANCH  17  18
ATOM     18  C   UNL     1      27.319   6.668  44.186  1.00  0.00     0.000 C 
BRANCH  18  19
ATOM     19  C   UNL     1      28.342   5.754  44.892  1.00  0.00     0.000 C 
BRANCH  19  20
ATOM     20  C   UNL     1      28.025   4.246  44.828  1.00  0.00     0.000 C 
BRANCH  20  21
ATOM     21  C   UNL     1      26.523   3.903  44.773  1.00  0.00     0.000 C 
BRANCH  21  22
ATOM     22  C   UNL     1      26.049   2.876  45.821  1.00  0.00    -0.000 C 
BRANCH  22  23
ATOM     23  C   UNL     1      25.445   3.483  47.101  1.00  0.00    -0.000 C 
BRANCH  23  24
ATOM     24  C   UNL     1      25.538   5.018  47.202  1.00  0.00    -0.000 C 
BRANCH  24  25
ATOM     25  C   UNL     1      26.406   5.515  48.378  1.00  0.00    -0.000 C 
BRANCH  25  26
ATOM     26  C   UNL     1      27.740   4.760  48.489  1.00  0.00    -0.000 C 
BRANCH  26  27
ATOM     27  C   UNL     1      28.892   5.720  48.809  1.00  0.00    -0.000 C 
BRANCH  27  28
ATOM     28  C   UNL     1      30.147   5.358  48.001  1.00  0.00    -0.000 C 
BRANCH  28  29
ATOM     29  C   UNL     1      31.420   5.340  48.860  1.00  0.00    -0.003 C 
ATOM     30  C   UNL     1      31.620   4.018  49.598  1.00  0.00     0.004 C 
ENDBRANCH  28  29
ENDBRANCH  27  28
ENDBRANCH  26  27
ENDBRANCH  25  26
ENDBRANCH  24  25
ENDBRANCH  23  24
ENDBRANCH  22  23
ENDBRANCH  21  22
ENDBRANCH  20  21
ENDBRANCH  19  20
ENDBRANCH  18  19
ENDBRANCH  17  18
ENDBRANCH   1  17
TORSDOF 26
ENDMDL
MODEL 8
REMARK VINA RESULT:    -3.637      6.917     11.141
REMARK INTER + INTRA:         -14.126
REMARK INTER:                  -9.370
REMARK INTRA:                  -4.755
REMARK UNBOUND:                -4.961
REMARK SMILES CCCCCCCCCCCCCCCCCCCCCCCCCCCC(=O)[O-]
REMARK SMILES IDX 15 1 16 2 17 3 18 4 19 5 20 6 21 7 22 8 23 9 24 10 25 11
REMARK SMILES IDX 26 12 27 13 28 14 29 15 30 16 14 17 13 18 12 19 11 20 10 21
REMARK SMILES IDX 9 22 8 23 7 24 6 25 5 26 4 27 3 28 2 29 1 30
REMARK H PARENT
REMARK Flexibility Score: inf
ROOT
ATOM      1  C   UNL     1      23.487   2.847  44.397  1.00  0.00     0.000 C 
ENDROOT
BRANCH   1   2
ATOM      2  C   UNL     1      24.356   3.884  45.127  1.00  0.00     0.000 C 
BRANCH   2   3
ATOM      3  C   UNL     1      25.805   3.410  45.329  1.00  0.00     0.000 C 
BRANCH   3   4
ATOM      4  C   UNL     1      26.691   4.487  45.975  1.00  0.00     0.000 C 
BRANCH   4   5
ATOM      5  C   UNL     1      26.866   4.282  47.490  1.00  0.00     0.000 C 
BRANCH   5   6
ATOM      6  C   UNL     1      26.211   5.400  48.315  1.00  0.00     0.000 C 
BRANCH   6   7
ATOM      7  C   UNL     1      24.708   5.158  48.547  1.00  0.00     0.000 C 
BRANCH   7   8
ATOM      8  C   UNL     1      24.430   3.932  49.435  1.00  0.00     0.000 C 
BRANCH   8   9
ATOM      9  C   UNL     1      23.655   2.793  48.748  1.00  0.00     0.000 C 
BRANCH   9  10
ATOM     10  C   UNL     1      24.519   1.544  48.505  1.00  0.00     0.000 C 
BRANCH  10  11
ATOM     11  C   UNL     1      24.026   0.692  47.322  1.00  0.00     0.000 C 
BRANCH  11  12
ATOM     12  C   UNL     1      24.947  -0.479  46.920  1.00  0.00     0.006 C 
BRANCH  12  13
ATOM     13  C   UNL     1      24.301  -1.868  47.073  1.00  0.00     0.053 C 
BRANCH  13  14
ATOM     14  C   UNL     1      23.285  -1.914  48.175  1.00  0.00     0.041 C 
ATOM     15  O   UNL     1      23.654  -1.897  49.379  1.00  0.00    -0.550 OA
ATOM     16  O   UNL     1      21.928  -1.933  47.874  1.00  0.00    -0.550 OA
ENDBRANCH  13  14
ENDBRANCH  12  13
ENDBRANCH  11  12
ENDBRANCH  10  11
ENDBRANCH   9  10
ENDBRANCH   8   9
ENDBRANCH   7   8
ENDBRANCH   6   7
ENDBRANCH   5   6
ENDBRANCH   4   5
ENDBRANCH   3   4
ENDBRANCH   2   3
ENDBRANCH   1   2
BRANCH   1  17
ATOM     17  C   UNL     1      22.033   2.836  44.900  1.00  0.00     0.000 C 
BRANCH  17  18
ATOM     18  C   UNL     1      21.011   3.123  43.783  1.00  0.00     0.000 C 
BRANCH  18  19
ATOM     19  C   UNL     1      21.539   2.940  42.345  1.00  0.00     0.000 C 
BRANCH  19  20
ATOM     20  C   UNL     1      21.369   4.166  41.426  1.00  0.00     0.000 C 
BRANCH  20  21
ATOM     21  C   UNL     1      21.365   5.525  42.153  1.00  0.00     0.000 C 
BRANCH  21  22
ATOM     22  C   UNL     1      22.758   6.067  42.531  1.00  0.00    -0.000 C 
BRANCH  22  23
ATOM     23  C   UNL     1      23.837   5.907  41.443  1.00  0.00    -0.000 C 
BRANCH  23  24
ATOM     24  C   UNL     1      25.199   5.389  41.946  1.00  0.00    -0.000 C 
BRANCH  24  25
ATOM     25  C   UNL     1      25.781   4.239  41.098  1.00  0.00    -0.000 C 
BRANCH  25  26
ATOM     26  C   UNL     1      24.761   3.119  40.840  1.00  0.00    -0.000 C 
BRANCH  26  27
ATOM     27  C   UNL     1      24.530   2.917  39.339  1.00  0.00    -0.000 C 
BRANCH  27  28
ATOM     28  C   UNL     1      23.428   1.876  39.088  1.00  0.00    -0.000 C 
BRANCH  28  29
ATOM     29  C   UNL     1      23.509   0.684  40.053  1.00  0.00    -0.003 C 
ATOM     30  C   UNL     1      23.846  -0.629  39.348  1.00  0.00     0.004 C 
ENDBRANCH  28  29
ENDBRANCH  27  28
ENDBRANCH  26  27
ENDBRANCH  25  26
ENDBRANCH  24  25
ENDBRANCH  23  24
ENDBRANCH  22  23
ENDBRANCH  21  22
ENDBRANCH  20  21
ENDBRANCH  19  20
ENDBRANCH  18  19
ENDBRANCH  17  18
ENDBRANCH   1  17
TORSDOF 26
ENDMDL
MODEL 9
REMARK VINA RESULT:    -3.598      2.689      7.061
REMARK INTER + INTRA:         -14.029
REMARK INTER:                  -9.157
REMARK INTRA:                  -4.872
REMARK UNBOUND:                -4.961
REMARK SMILES CCCCCCCCCCCCCCCCCCCCCCCCCCCC(=O)[O-]
REMARK SMILES IDX 15 1 16 2 17 3 18 4 19 5 20 6 21 7 22 8 23 9 24 10 25 11
REMARK SMILES IDX 26 12 27 13 28 14 29 15 30 16 14 17 13 18 12 19 11 20 10 21
REMARK SMILES IDX 9 22 8 23 7 24 6 25 5 26 4 27 3 28 2 29 1 30
REMARK H PARENT
REMARK Flexibility Score: inf
ROOT
ATOM      1  C   UNL     1      29.460   4.612  41.570  1.00  0.00     0.000 C 
ENDROOT
BRANCH   1   2
ATOM      2  C   UNL     1      30.933   4.956  41.847  1.00  0.00     0.000 C 
BRANCH   2   3
ATOM      3  C   UNL     1      31.096   6.124  42.836  1.00  0.00     0.000 C 
BRANCH   3   4
ATOM      4  C   UNL     1      32.528   6.680  42.857  1.00  0.00     0.000 C 
BRANCH   4   5
ATOM      5  C   UNL     1      33.145   6.677  44.267  1.00  0.00     0.000 C 
BRANCH   5   6
ATOM      6  C   UNL     1      33.855   7.999  44.601  1.00  0.00     0.000 C 
BRANCH   6   7
ATOM      7  C   UNL     1      33.555   8.484  46.030  1.00  0.00     0.000 C 
BRANCH   7   8
ATOM      8  C   UNL     1      32.492   9.597  46.074  1.00  0.00     0.000 C 
BRANCH   8   9
ATOM      9  C   UNL     1      31.751   9.842  44.747  1.00  0.00     0.000 C 
BRANCH   9  10
ATOM     10  C   UNL     1      30.265   9.454  44.812  1.00  0.00     0.000 C 
BRANCH  10  11
ATOM     11  C   UNL     1      29.888   8.724  46.113  1.00  0.00     0.000 C 
BRANCH  11  12
ATOM     12  C   UNL     1      29.612   7.213  45.969  1.00  0.00     0.006 C 
BRANCH  12  13
ATOM     13  C   UNL     1      29.635   6.440  47.301  1.00  0.00     0.053 C 
BRANCH  13  14
ATOM     14  C   UNL     1      30.904   5.666  47.497  1.00  0.00     0.041 C 
ATOM     15  O   UNL     1      31.389   4.991  46.549  1.00  0.00    -0.550 OA
ATOM     16  O   UNL     1      31.575   5.721  48.712  1.00  0.00    -0.550 OA
ENDBRANCH  13  14
ENDBRANCH  12  13
ENDBRANCH  11  12
ENDBRANCH  10  11
ENDBRANCH   9  10
ENDBRANCH   8   9
ENDBRANCH   7   8
ENDBRANCH   6   7
ENDBRANCH   5   6
ENDBRANCH   4   5
ENDBRANCH   3   4
ENDBRANCH   2   3
ENDBRANCH   1   2
BRANCH   1  17
ATOM     17  C   UNL     1      29.144   4.535  40.067  1.00  0.00     0.000 C 
BRANCH  17  18
ATOM     18  C   UNL     1      30.394   4.703  39.182  1.00  0.00     0.000 C 
BRANCH  18  19
ATOM     19  C   UNL     1      30.459   6.020  38.381  1.00  0.00     0.000 C 
BRANCH  19  20
ATOM     20  C   UNL     1      31.656   6.931  38.718  1.00  0.00     0.000 C 
BRANCH  20  21
ATOM     21  C   UNL     1      31.326   8.117  39.646  1.00  0.00     0.000 C 
BRANCH  21  22
ATOM     22  C   UNL     1      29.866   8.610  39.579  1.00  0.00    -0.000 C 
BRANCH  22  23
ATOM     23  C   UNL     1      29.170   8.774  40.944  1.00  0.00    -0.000 C 
BRANCH  23  24
ATOM     24  C   UNL     1      28.026   7.777  41.216  1.00  0.00    -0.000 C 
BRANCH  24  25
ATOM     25  C   UNL     1      27.585   7.721  42.693  1.00  0.00    -0.000 C 
BRANCH  25  26
ATOM     26  C   UNL     1      26.537   6.629  42.957  1.00  0.00    -0.000 C 
BRANCH  26  27
ATOM     27  C   UNL     1      26.143   5.917  41.658  1.00  0.00    -0.000 C 
BRANCH  27  28
ATOM     28  C   UNL     1      24.766   5.249  41.795  1.00  0.00    -0.000 C 
BRANCH  28  29
ATOM     29  C   UNL     1      24.844   3.716  41.745  1.00  0.00    -0.003 C 
ATOM     30  C   UNL     1      23.934   3.109  40.677  1.00  0.00     0.004 C 
ENDBRANCH  28  29
ENDBRANCH  27  28
ENDBRANCH  26  27
ENDBRANCH  25  26
ENDBRANCH  24  25
ENDBRANCH  23  24
ENDBRANCH  22  23
ENDBRANCH  21  22
ENDBRANCH  20  21
ENDBRANCH  19  20
ENDBRANCH  18  19
ENDBRANCH  17  18
ENDBRANCH   1  17
TORSDOF 26
ENDMDL
