MODEL 1
REMARK VINA RESULT:    -6.489      0.000      0.000
REMARK INTER + INTRA:          -8.149
REMARK INTER:                  -7.817
REMARK INTRA:                  -0.332
REMARK UNBOUND:                -0.332
REMARK SMILES O=c1c(O)c(-c2ccc(O)c(O)c2)oc2cc(O)cc(O)c12
REMARK SMILES IDX 5 1 3 2 2 3 1 4 22 5 20 6 19 7 17 8 16 9 15 10 14 11 6 12
REMARK SMILES IDX 7 13 8 14 9 15 13 16 11 17 10 18 12 20 4 22 21 24 18 26
REMARK H PARENT 10 19 12 21 4 23 21 25 18 27
REMARK Flexibility Score: inf
ROOT
ATOM      1  C   UNL     1       1.838  -3.508   8.978  1.00  0.00     0.180 A 
ATOM      2  C   UNL     1       3.222  -3.250   9.010  1.00  0.00     0.208 A 
ATOM      3  C   UNL     1       3.663  -1.918   9.032  1.00  0.00     0.238 A 
ATOM      4  O   UNL     1       4.901  -1.674   9.051  1.00  0.00    -0.285 OA
ATOM      5  C   UNL     1       2.719  -0.871   9.043  1.00  0.00     0.111 A 
ATOM      6  C   UNL     1       3.081   0.498   9.070  1.00  0.00     0.134 A 
ATOM      7  C   UNL     1       2.081   1.482   9.088  1.00  0.00     0.093 A 
ATOM      8  C   UNL     1       0.731   1.125   9.081  1.00  0.00     0.123 A 
ATOM      9  C   UNL     1       0.367  -0.225   9.055  1.00  0.00     0.094 A 
ATOM     10  C   UNL     1       1.348  -1.220   9.034  1.00  0.00     0.146 A 
ATOM     11  O   UNL     1       0.976  -2.494   9.003  1.00  0.00    -0.452 OA
ENDROOT
BRANCH   1  12
ATOM     12  C   UNL     1       1.295  -4.884   8.933  1.00  0.00     0.025 A 
ATOM     13  C   UNL     1       0.888  -5.505  10.124  1.00  0.00     0.016 A 
ATOM     14  C   UNL     1       0.354  -6.796  10.104  1.00  0.00     0.051 A 
ATOM     15  C   UNL     1       0.203  -7.480   8.894  1.00  0.00     0.157 A 
ATOM     16  C   UNL     1       1.122  -5.565   7.714  1.00  0.00     0.062 A 
ATOM     17  C   UNL     1       0.585  -6.860   7.692  1.00  0.00     0.158 A 
BRANCH  15  18
ATOM     18  O   UNL     1      -0.331  -8.767   8.905  1.00  0.00    -0.504 OA
ATOM     19  H   UNL     1      -1.283  -8.953   9.196  1.00  0.00     0.293 HD
ENDBRANCH  15  18
BRANCH  17  20
ATOM     20  O   UNL     1       0.423  -7.530   6.480  1.00  0.00    -0.504 OA
ATOM     21  H   UNL     1      -0.375  -8.130   6.307  1.00  0.00     0.293 HD
ENDBRANCH  17  20
ENDBRANCH   1  12
BRANCH   2  22
ATOM     22  O   UNL     1       4.136  -4.306   9.049  1.00  0.00    -0.502 OA
ATOM     23  H   UNL     1       5.094  -4.207   8.735  1.00  0.00     0.293 HD
ENDBRANCH   2  22
BRANCH   6  24
ATOM     24  O   UNL     1       4.421   0.886   9.079  1.00  0.00    -0.507 OA
ATOM     25  H   UNL     1       5.165   0.244   8.830  1.00  0.00     0.293 HD
ENDBRANCH   6  24
BRANCH   8  26
ATOM     26  O   UNL     1      -0.242   2.122   9.101  1.00  0.00    -0.508 OA
ATOM     27  H   UNL     1      -1.164   1.955   9.489  1.00  0.00     0.293 HD
ENDBRANCH   8  26
TORSDOF 6
ENDMDL
MODEL 2
REMARK VINA RESULT:    -5.979     17.048     19.664
REMARK INTER + INTRA:          -7.534
REMARK INTER:                  -7.216
REMARK INTRA:                  -0.318
REMARK UNBOUND:                -0.332
REMARK SMILES O=c1c(O)c(-c2ccc(O)c(O)c2)oc2cc(O)cc(O)c12
REMARK SMILES IDX 5 1 3 2 2 3 1 4 22 5 20 6 19 7 17 8 16 9 15 10 14 11 6 12
REMARK SMILES IDX 7 13 8 14 9 15 13 16 11 17 10 18 12 20 4 22 21 24 18 26
REMARK H PARENT 10 19 12 21 4 23 21 25 18 27
REMARK Flexibility Score: inf
ROOT
ATOM      1  C   UNL     1      -4.906  -6.154  -8.126  1.00  0.00     0.180 A 
ATOM      2  C   UNL     1      -5.124  -7.528  -8.350  1.00  0.00     0.208 A 
ATOM      3  C   UNL     1      -6.354  -7.940  -8.885  1.00  0.00     0.238 A 
ATOM      4  O   UNL     1      -6.565  -9.168  -9.079  1.00  0.00    -0.285 OA
ATOM      5  C   UNL     1      -7.334  -6.978  -9.204  1.00  0.00     0.111 A 
ATOM      6  C   UNL     1      -8.597  -7.311  -9.750  1.00  0.00     0.134 A 
ATOM      7  C   UNL     1      -9.515  -6.293 -10.050  1.00  0.00     0.093 A 
ATOM      8  C   UNL     1      -9.195  -4.953  -9.817  1.00  0.00     0.123 A 
ATOM      9  C   UNL     1      -7.949  -4.619  -9.277  1.00  0.00     0.094 A 
ATOM     10  C   UNL     1      -7.022  -5.618  -8.970  1.00  0.00     0.146 A 
ATOM     11  O   UNL     1      -5.848  -5.273  -8.454  1.00  0.00    -0.452 OA
ENDROOT
BRANCH   1  12
ATOM     12  C   UNL     1      -3.643  -5.642  -7.547  1.00  0.00     0.025 A 
ATOM     13  C   UNL     1      -2.557  -5.368  -8.393  1.00  0.00     0.016 A 
ATOM     14  C   UNL     1      -1.363  -4.865  -7.871  1.00  0.00     0.051 A 
ATOM     15  C   UNL     1      -1.239  -4.614  -6.502  1.00  0.00     0.157 A 
ATOM     16  C   UNL     1      -3.525  -5.368  -6.172  1.00  0.00     0.062 A 
ATOM     17  C   UNL     1      -2.327  -4.862  -5.648  1.00  0.00     0.158 A 
BRANCH  15  18
ATOM     18  O   UNL     1      -0.034  -4.114  -6.010  1.00  0.00    -0.504 OA
ATOM     19  H   UNL     1       0.626  -3.622  -6.601  1.00  0.00     0.293 HD
ENDBRANCH  15  18
BRANCH  17  20
ATOM     20  O   UNL     1      -2.216  -4.599  -4.283  1.00  0.00    -0.504 OA
ATOM     21  H   UNL     1      -2.873  -4.982  -3.613  1.00  0.00     0.293 HD
ENDBRANCH  17  20
ENDBRANCH   1  12
BRANCH   2  22
ATOM     22  O   UNL     1      -4.118  -8.457  -8.070  1.00  0.00    -0.502 OA
ATOM     23  H   UNL     1      -3.356  -8.639  -8.710  1.00  0.00     0.293 HD
ENDBRANCH   2  22
BRANCH   6  24
ATOM     24  O   UNL     1      -8.945  -8.639  -9.997  1.00  0.00    -0.507 OA
ATOM     25  H   UNL     1      -9.843  -8.890 -10.397  1.00  0.00     0.293 HD
ENDBRANCH   6  24
BRANCH   8  26
ATOM     26  O   UNL     1     -10.125  -3.963 -10.125  1.00  0.00    -0.508 OA
ATOM     27  H   UNL     1      -9.892  -2.978 -10.055  1.00  0.00     0.293 HD
ENDBRANCH   8  26
TORSDOF 6
ENDMDL
MODEL 3
REMARK VINA RESULT:    -5.779      2.219      2.908
REMARK INTER + INTRA:          -7.294
REMARK INTER:                  -7.478
REMARK INTRA:                   0.184
REMARK UNBOUND:                -0.332
REMARK SMILES O=c1c(O)c(-c2ccc(O)c(O)c2)oc2cc(O)cc(O)c12
REMARK SMILES IDX 5 1 3 2 2 3 1 4 22 5 20 6 19 7 17 8 16 9 15 10 14 11 6 12
REMARK SMILES IDX 7 13 8 14 9 15 13 16 11 17 10 18 12 20 4 22 21 24 18 26
REMARK H PARENT 10 19 12 21 4 23 21 25 18 27
REMARK Flexibility Score: inf
ROOT
ATOM      1  C   UNL     1       3.688  -3.795   8.376  1.00  0.00     0.180 A 
ATOM      2  C   UNL     1       4.779  -4.033   7.518  1.00  0.00     0.208 A 
ATOM      3  C   UNL     1       5.722  -3.012   7.321  1.00  0.00     0.238 A 
ATOM      4  O   UNL     1       6.698  -3.209   6.547  1.00  0.00    -0.285 OA
ATOM      5  C   UNL     1       5.571  -1.784   7.997  1.00  0.00     0.111 A 
ATOM      6  C   UNL     1       6.479  -0.707   7.858  1.00  0.00     0.134 A 
ATOM      7  C   UNL     1       6.265   0.481   8.573  1.00  0.00     0.093 A 
ATOM      8  C   UNL     1       5.164   0.612   9.423  1.00  0.00     0.123 A 
ATOM      9  C   UNL     1       4.264  -0.449   9.565  1.00  0.00     0.094 A 
ATOM     10  C   UNL     1       4.459  -1.640   8.860  1.00  0.00     0.146 A 
ATOM     11  O   UNL     1       3.586  -2.629   9.008  1.00  0.00    -0.452 OA
ENDROOT
BRANCH   1  12
ATOM     12  C   UNL     1       2.642  -4.814   8.619  1.00  0.00     0.025 A 
ATOM     13  C   UNL     1       2.002  -4.863   9.867  1.00  0.00     0.016 A 
ATOM     14  C   UNL     1       0.998  -5.802  10.112  1.00  0.00     0.051 A 
ATOM     15  C   UNL     1       0.606  -6.697   9.111  1.00  0.00     0.157 A 
ATOM     16  C   UNL     1       2.233  -5.701   7.606  1.00  0.00     0.062 A 
ATOM     17  C   UNL     1       1.224  -6.643   7.850  1.00  0.00     0.158 A 
BRANCH  15  18
ATOM     18  O   UNL     1      -0.397  -7.625   9.386  1.00  0.00    -0.504 OA
ATOM     19  H   UNL     1      -1.154  -7.425  10.028  1.00  0.00     0.293 HD
ENDBRANCH  15  18
BRANCH  17  20
ATOM     20  O   UNL     1       0.828  -7.522   6.843  1.00  0.00    -0.504 OA
ATOM     21  H   UNL     1       0.246  -8.328   7.038  1.00  0.00     0.293 HD
ENDBRANCH  17  20
ENDBRANCH   1  12
BRANCH   2  22
ATOM     22  O   UNL     1       4.932  -5.276   6.898  1.00  0.00    -0.502 OA
ATOM     23  H   UNL     1       5.566  -5.983   7.248  1.00  0.00     0.293 HD
ENDBRANCH   2  22
BRANCH   6  24
ATOM     24  O   UNL     1       7.589  -0.807   7.018  1.00  0.00    -0.507 OA
ATOM     25  H   UNL     1       7.796  -0.100   6.321  1.00  0.00     0.293 HD
ENDBRANCH   6  24
BRANCH   8  26
ATOM     26  O   UNL     1       4.975   1.802  10.122  1.00  0.00    -0.508 OA
ATOM     27  H   UNL     1       5.580   2.065  10.892  1.00  0.00     0.293 HD
ENDBRANCH   8  26
TORSDOF 6
ENDMDL
MODEL 4
REMARK VINA RESULT:    -5.718      5.288      8.044
REMARK INTER + INTRA:          -7.220
REMARK INTER:                  -7.111
REMARK INTRA:                  -0.109
REMARK UNBOUND:                -0.332
REMARK SMILES O=c1c(O)c(-c2ccc(O)c(O)c2)oc2cc(O)cc(O)c12
REMARK SMILES IDX 5 1 3 2 2 3 1 4 22 5 20 6 19 7 17 8 16 9 15 10 14 11 6 12
REMARK SMILES IDX 7 13 8 14 9 15 13 16 11 17 10 18 12 20 4 22 21 24 18 26
REMARK H PARENT 10 19 12 21 4 23 21 25 18 27
REMARK Flexibility Score: inf
ROOT
ATOM      1  C   UNL     1       3.201   2.345   8.673  1.00  0.00     0.180 A 
ATOM      2  C   UNL     1       3.241   0.966   8.384  1.00  0.00     0.208 A 
ATOM      3  C   UNL     1       4.487   0.349   8.197  1.00  0.00     0.238 A 
ATOM      4  O   UNL     1       4.535  -0.882   7.927  1.00  0.00    -0.285 OA
ATOM      5  C   UNL     1       5.667   1.109   8.320  1.00  0.00     0.111 A 
ATOM      6  C   UNL     1       6.962   0.562   8.151  1.00  0.00     0.134 A 
ATOM      7  C   UNL     1       8.090   1.384   8.300  1.00  0.00     0.093 A 
ATOM      8  C   UNL     1       7.948   2.737   8.614  1.00  0.00     0.123 A 
ATOM      9  C   UNL     1       6.672   3.283   8.783  1.00  0.00     0.094 A 
ATOM     10  C   UNL     1       5.536   2.482   8.637  1.00  0.00     0.146 A 
ATOM     11  O   UNL     1       4.336   3.027   8.796  1.00  0.00    -0.452 OA
ENDROOT
BRANCH   1  12
ATOM     12  C   UNL     1       1.926   3.072   8.864  1.00  0.00     0.025 A 
ATOM     13  C   UNL     1       1.070   2.701   9.913  1.00  0.00     0.016 A 
ATOM     14  C   UNL     1      -0.129   3.386  10.125  1.00  0.00     0.051 A 
ATOM     15  C   UNL     1      -0.485   4.460   9.305  1.00  0.00     0.157 A 
ATOM     16  C   UNL     1       1.576   4.166   8.053  1.00  0.00     0.062 A 
ATOM     17  C   UNL     1       0.374   4.856   8.265  1.00  0.00     0.158 A 
BRANCH  15  18
ATOM     18  O   UNL     1      -1.688   5.123   9.539  1.00  0.00    -0.504 OA
ATOM     19  H   UNL     1      -1.730   6.123   9.696  1.00  0.00     0.293 HD
ENDBRANCH  15  18
BRANCH  17  20
ATOM     20  O   UNL     1       0.033   5.936   7.452  1.00  0.00    -0.504 OA
ATOM     21  H   UNL     1      -0.148   5.819   6.462  1.00  0.00     0.293 HD
ENDBRANCH  17  20
ENDBRANCH   1  12
BRANCH   2  22
ATOM     22  O   UNL     1       2.058   0.225   8.316  1.00  0.00    -0.502 OA
ATOM     23  H   UNL     1       1.315   0.325   8.996  1.00  0.00     0.293 HD
ENDBRANCH   2  22
BRANCH   6  24
ATOM     24  O   UNL     1       7.137  -0.786   7.838  1.00  0.00    -0.507 OA
ATOM     25  H   UNL     1       6.788  -1.183   6.972  1.00  0.00     0.293 HD
ENDBRANCH   6  24
BRANCH   8  26
ATOM     26  O   UNL     1       9.085   3.531   8.757  1.00  0.00    -0.508 OA
ATOM     27  H   UNL     1       9.059   4.529   8.581  1.00  0.00     0.293 HD
ENDBRANCH   8  26
TORSDOF 6
ENDMDL
MODEL 5
REMARK VINA RESULT:    -5.648      3.583      8.282
REMARK INTER + INTRA:          -7.136
REMARK INTER:                  -6.914
REMARK INTRA:                  -0.222
REMARK UNBOUND:                -0.332
REMARK SMILES O=c1c(O)c(-c2ccc(O)c(O)c2)oc2cc(O)cc(O)c12
REMARK SMILES IDX 5 1 3 2 2 3 1 4 22 5 20 6 19 7 17 8 16 9 15 10 14 11 6 12
REMARK SMILES IDX 7 13 8 14 9 15 13 16 11 17 10 18 12 20 4 22 21 24 18 26
REMARK H PARENT 10 19 12 21 4 23 21 25 18 27
REMARK Flexibility Score: inf
ROOT
ATOM      1  C   UNL     1       6.209  -0.377   8.292  1.00  0.00     0.180 A 
ATOM      2  C   UNL     1       6.781  -1.232   7.328  1.00  0.00     0.208 A 
ATOM      3  C   UNL     1       6.207  -2.495   7.116  1.00  0.00     0.238 A 
ATOM      4  O   UNL     1       6.716  -3.272   6.264  1.00  0.00    -0.285 OA
ATOM      5  C   UNL     1       5.065  -2.873   7.851  1.00  0.00     0.111 A 
ATOM      6  C   UNL     1       4.423  -4.126   7.694  1.00  0.00     0.134 A 
ATOM      7  C   UNL     1       3.284  -4.424   8.456  1.00  0.00     0.093 A 
ATOM      8  C   UNL     1       2.775  -3.498   9.369  1.00  0.00     0.123 A 
ATOM      9  C   UNL     1       3.404  -2.259   9.529  1.00  0.00     0.094 A 
ATOM     10  C   UNL     1       4.541  -1.944   8.780  1.00  0.00     0.146 A 
ATOM     11  O   UNL     1       5.123  -0.763   8.955  1.00  0.00    -0.452 OA
ENDROOT
BRANCH   1  12
ATOM     12  C   UNL     1       6.769   0.961   8.586  1.00  0.00     0.025 A 
ATOM     13  C   UNL     1       6.010   2.106   8.298  1.00  0.00     0.016 A 
ATOM     14  C   UNL     1       6.509   3.378   8.587  1.00  0.00     0.051 A 
ATOM     15  C   UNL     1       7.765   3.527   9.181  1.00  0.00     0.157 A 
ATOM     16  C   UNL     1       8.024   1.112   9.204  1.00  0.00     0.062 A 
ATOM     17  C   UNL     1       8.526   2.388   9.496  1.00  0.00     0.158 A 
BRANCH  15  18
ATOM     18  O   UNL     1       8.238   4.809   9.455  1.00  0.00    -0.504 OA
ATOM     19  H   UNL     1       8.414   5.487   8.723  1.00  0.00     0.293 HD
ENDBRANCH  15  18
BRANCH  17  20
ATOM     20  O   UNL     1       9.773   2.528  10.102  1.00  0.00    -0.504 OA
ATOM     21  H   UNL     1      10.232   1.749  10.560  1.00  0.00     0.293 HD
ENDBRANCH  17  20
ENDBRANCH   1  12
BRANCH   2  22
ATOM     22  O   UNL     1       7.884  -0.813   6.579  1.00  0.00    -0.502 OA
ATOM     23  H   UNL     1       7.807  -0.127   5.839  1.00  0.00     0.293 HD
ENDBRANCH   2  22
BRANCH   6  24
ATOM     24  O   UNL     1       4.906  -5.072   6.789  1.00  0.00    -0.507 OA
ATOM     25  H   UNL     1       4.417  -5.285   5.927  1.00  0.00     0.293 HD
ENDBRANCH   6  24
BRANCH   8  26
ATOM     26  O   UNL     1       1.641  -3.820  10.113  1.00  0.00    -0.508 OA
ATOM     27  H   UNL     1       0.869  -3.170  10.209  1.00  0.00     0.293 HD
ENDBRANCH   8  26
TORSDOF 6
ENDMDL
MODEL 6
REMARK VINA RESULT:    -5.491      1.899      3.535
REMARK INTER + INTRA:          -6.947
REMARK INTER:                  -6.692
REMARK INTRA:                  -0.255
REMARK UNBOUND:                -0.332
REMARK SMILES O=c1c(O)c(-c2ccc(O)c(O)c2)oc2cc(O)cc(O)c12
REMARK SMILES IDX 5 1 3 2 2 3 1 4 22 5 20 6 19 7 17 8 16 9 15 10 14 11 6 12
REMARK SMILES IDX 7 13 8 14 9 15 13 16 11 17 10 18 12 20 4 22 21 24 18 26
REMARK H PARENT 10 19 12 21 4 23 21 25 18 27
REMARK Flexibility Score: inf
ROOT
ATOM      1  C   UNL     1       3.044  -3.180   9.250  1.00  0.00     0.180 A 
ATOM      2  C   UNL     1       2.297  -1.986   9.232  1.00  0.00     0.208 A 
ATOM      3  C   UNL     1       2.964  -0.766   9.424  1.00  0.00     0.238 A 
ATOM      4  O   UNL     1       2.304   0.309   9.421  1.00  0.00    -0.285 OA
ATOM      5  C   UNL     1       4.362  -0.757   9.609  1.00  0.00     0.111 A 
ATOM      6  C   UNL     1       5.109   0.429   9.804  1.00  0.00     0.134 A 
ATOM      7  C   UNL     1       6.500   0.355   9.971  1.00  0.00     0.093 A 
ATOM      8  C   UNL     1       7.157  -0.878   9.946  1.00  0.00     0.123 A 
ATOM      9  C   UNL     1       6.423  -2.053   9.754  1.00  0.00     0.094 A 
ATOM     10  C   UNL     1       5.036  -2.000   9.587  1.00  0.00     0.146 A 
ATOM     11  O   UNL     1       4.364  -3.132   9.412  1.00  0.00    -0.452 OA
ENDROOT
BRANCH   1  12
ATOM     12  C   UNL     1       2.411  -4.507   9.074  1.00  0.00     0.025 A 
ATOM     13  C   UNL     1       1.661  -5.058  10.125  1.00  0.00     0.016 A 
ATOM     14  C   UNL     1       1.038  -6.300   9.974  1.00  0.00     0.051 A 
ATOM     15  C   UNL     1       1.140  -7.001   8.770  1.00  0.00     0.157 A 
ATOM     16  C   UNL     1       2.495  -5.204   7.856  1.00  0.00     0.062 A 
ATOM     17  C   UNL     1       1.869  -6.449   7.703  1.00  0.00     0.158 A 
BRANCH  15  18
ATOM     18  O   UNL     1       0.509  -8.238   8.650  1.00  0.00    -0.504 OA
ATOM     19  H   UNL     1       1.030  -9.101   8.548  1.00  0.00     0.293 HD
ENDBRANCH  15  18
BRANCH  17  20
ATOM     20  O   UNL     1       1.963  -7.136   6.493  1.00  0.00    -0.504 OA
ATOM     21  H   UNL     1       1.493  -6.808   5.658  1.00  0.00     0.293 HD
ENDBRANCH  17  20
ENDBRANCH   1  12
BRANCH   2  22
ATOM     22  O   UNL     1       0.920  -2.018   8.998  1.00  0.00    -0.502 OA
ATOM     23  H   UNL     1       0.310  -2.694   9.441  1.00  0.00     0.293 HD
ENDBRANCH   2  22
BRANCH   6  24
ATOM     24  O   UNL     1       4.484   1.676   9.832  1.00  0.00    -0.507 OA
ATOM     25  H   UNL     1       4.783   2.437   9.233  1.00  0.00     0.293 HD
ENDBRANCH   6  24
BRANCH   8  26
ATOM     26  O   UNL     1       8.539  -0.923  10.114  1.00  0.00    -0.508 OA
ATOM     27  H   UNL     1       8.969  -0.738  11.013  1.00  0.00     0.293 HD
ENDBRANCH   8  26
TORSDOF 6
ENDMDL
MODEL 7
REMARK VINA RESULT:    -5.489      2.750      7.162
REMARK INTER + INTRA:          -6.945
REMARK INTER:                  -6.632
REMARK INTRA:                  -0.312
REMARK UNBOUND:                -0.332
REMARK SMILES O=c1c(O)c(-c2ccc(O)c(O)c2)oc2cc(O)cc(O)c12
REMARK SMILES IDX 5 1 3 2 2 3 1 4 22 5 20 6 19 7 17 8 16 9 15 10 14 11 6 12
REMARK SMILES IDX 7 13 8 14 9 15 13 16 11 17 10 18 12 20 4 22 21 24 18 26
REMARK H PARENT 10 19 12 21 4 23 21 25 18 27
REMARK Flexibility Score: inf
ROOT
ATOM      1  C   UNL     1       4.849  -2.931   8.351  1.00  0.00     0.180 A 
ATOM      2  C   UNL     1       5.315  -3.744   7.299  1.00  0.00     0.208 A 
ATOM      3  C   UNL     1       4.571  -4.877   6.938  1.00  0.00     0.238 A 
ATOM      4  O   UNL     1       4.984  -5.618   6.005  1.00  0.00    -0.285 OA
ATOM      5  C   UNL     1       3.369  -5.167   7.615  1.00  0.00     0.111 A 
ATOM      6  C   UNL     1       2.559  -6.288   7.309  1.00  0.00     0.134 A 
ATOM      7  C   UNL     1       1.371  -6.503   8.023  1.00  0.00     0.093 A 
ATOM      8  C   UNL     1       0.978  -5.623   9.034  1.00  0.00     0.123 A 
ATOM      9  C   UNL     1       1.775  -4.515   9.341  1.00  0.00     0.094 A 
ATOM     10  C   UNL     1       2.962  -4.284   8.642  1.00  0.00     0.146 A 
ATOM     11  O   UNL     1       3.703  -3.228   8.957  1.00  0.00    -0.452 OA
ENDROOT
BRANCH   1  12
ATOM     12  C   UNL     1       5.587  -1.730   8.804  1.00  0.00     0.025 A 
ATOM     13  C   UNL     1       6.657  -1.874   9.700  1.00  0.00     0.016 A 
ATOM     14  C   UNL     1       7.381  -0.757  10.125  1.00  0.00     0.051 A 
ATOM     15  C   UNL     1       7.058   0.517   9.651  1.00  0.00     0.157 A 
ATOM     16  C   UNL     1       5.277  -0.449   8.311  1.00  0.00     0.062 A 
ATOM     17  C   UNL     1       6.003   0.672   8.735  1.00  0.00     0.158 A 
BRANCH  15  18
ATOM     18  O   UNL     1       7.796   1.613  10.094  1.00  0.00    -0.504 OA
ATOM     19  H   UNL     1       7.359   2.419  10.525  1.00  0.00     0.293 HD
ENDBRANCH  15  18
BRANCH  17  20
ATOM     20  O   UNL     1       5.685   1.939   8.246  1.00  0.00    -0.504 OA
ATOM     21  H   UNL     1       6.264   2.403   7.557  1.00  0.00     0.293 HD
ENDBRANCH  17  20
ENDBRANCH   1  12
BRANCH   2  22
ATOM     22  O   UNL     1       6.484  -3.406   6.611  1.00  0.00    -0.502 OA
ATOM     23  H   UNL     1       6.908  -4.022   5.929  1.00  0.00     0.293 HD
ENDBRANCH   2  22
BRANCH   6  24
ATOM     24  O   UNL     1       2.923  -7.184   6.303  1.00  0.00    -0.507 OA
ATOM     25  H   UNL     1       3.808  -7.107   5.815  1.00  0.00     0.293 HD
ENDBRANCH   6  24
BRANCH   8  26
ATOM     26  O   UNL     1      -0.207  -5.859   9.727  1.00  0.00    -0.508 OA
ATOM     27  H   UNL     1      -0.555  -5.206  10.420  1.00  0.00     0.293 HD
ENDBRANCH   8  26
TORSDOF 6
ENDMDL
MODEL 8
REMARK VINA RESULT:    -5.476      5.611      9.448
REMARK INTER + INTRA:          -6.928
REMARK INTER:                  -6.673
REMARK INTRA:                  -0.255
REMARK UNBOUND:                -0.332
REMARK SMILES O=c1c(O)c(-c2ccc(O)c(O)c2)oc2cc(O)cc(O)c12
REMARK SMILES IDX 5 1 3 2 2 3 1 4 22 5 20 6 19 7 17 8 16 9 15 10 14 11 6 12
REMARK SMILES IDX 7 13 8 14 9 15 13 16 11 17 10 18 12 20 4 22 21 24 18 26
REMARK H PARENT 10 19 12 21 4 23 21 25 18 27
REMARK Flexibility Score: inf
ROOT
ATOM      1  C   UNL     1      -0.406   5.288   9.044  1.00  0.00     0.180 A 
ATOM      2  C   UNL     1       0.204   6.471   9.505  1.00  0.00     0.208 A 
ATOM      3  C   UNL     1      -0.480   7.688   9.359  1.00  0.00     0.238 A 
ATOM      4  O   UNL     1       0.060   8.755   9.758  1.00  0.00    -0.285 OA
ATOM      5  C   UNL     1      -1.763   7.701   8.775  1.00  0.00     0.111 A 
ATOM      6  C   UNL     1      -2.520   8.884   8.595  1.00  0.00     0.134 A 
ATOM      7  C   UNL     1      -3.795   8.812   8.014  1.00  0.00     0.093 A 
ATOM      8  C   UNL     1      -4.327   7.585   7.612  1.00  0.00     0.123 A 
ATOM      9  C   UNL     1      -3.584   6.413   7.787  1.00  0.00     0.094 A 
ATOM     10  C   UNL     1      -2.311   6.464   8.362  1.00  0.00     0.146 A 
ATOM     11  O   UNL     1      -1.624   5.337   8.512  1.00  0.00    -0.452 OA
ENDROOT
BRANCH   1  12
ATOM     12  C   UNL     1       0.259   3.969   9.145  1.00  0.00     0.025 A 
ATOM     13  C   UNL     1      -0.251   3.005  10.028  1.00  0.00     0.016 A 
ATOM     14  C   UNL     1       0.348   1.746  10.125  1.00  0.00     0.051 A 
ATOM     15  C   UNL     1       1.454   1.426   9.332  1.00  0.00     0.157 A 
ATOM     16  C   UNL     1       1.358   3.638   8.332  1.00  0.00     0.062 A 
ATOM     17  C   UNL     1       1.960   2.375   8.427  1.00  0.00     0.158 A 
BRANCH  15  18
ATOM     18  O   UNL     1       2.032   0.164   9.452  1.00  0.00    -0.504 OA
ATOM     19  H   UNL     1       1.474  -0.676   9.553  1.00  0.00     0.293 HD
ENDBRANCH  15  18
BRANCH  17  20
ATOM     20  O   UNL     1       3.053   2.058   7.622  1.00  0.00    -0.504 OA
ATOM     21  H   UNL     1       2.976   1.397   6.858  1.00  0.00     0.293 HD
ENDBRANCH  17  20
ENDBRANCH   1  12
BRANCH   2  22
ATOM     22  O   UNL     1       1.456   6.425  10.125  1.00  0.00    -0.502 OA
ATOM     23  H   UNL     1       1.635   5.858  10.944  1.00  0.00     0.293 HD
ENDBRANCH   2  22
BRANCH   6  24
ATOM     24  O   UNL     1      -2.018  10.125   8.988  1.00  0.00    -0.507 OA
ATOM     25  H   UNL     1      -2.197  10.505   9.911  1.00  0.00     0.293 HD
ENDBRANCH   6  24
BRANCH   8  26
ATOM     26  O   UNL     1      -5.596   7.542   7.038  1.00  0.00    -0.508 OA
ATOM     27  H   UNL     1      -6.159   6.698   7.060  1.00  0.00     0.293 HD
ENDBRANCH   8  26
TORSDOF 6
ENDMDL
MODEL 9
REMARK VINA RESULT:    -5.301      2.707      7.461
REMARK INTER + INTRA:          -6.718
REMARK INTER:                  -6.955
REMARK INTRA:                   0.237
REMARK UNBOUND:                -0.332
REMARK SMILES O=c1c(O)c(-c2ccc(O)c(O)c2)oc2cc(O)cc(O)c12
REMARK SMILES IDX 5 1 3 2 2 3 1 4 22 5 20 6 19 7 17 8 16 9 15 10 14 11 6 12
REMARK SMILES IDX 7 13 8 14 9 15 13 16 11 17 10 18 12 20 4 22 21 24 18 26
REMARK H PARENT 10 19 12 21 4 23 21 25 18 27
REMARK Flexibility Score: inf
ROOT
ATOM      1  C   UNL     1       2.327   1.276   8.942  1.00  0.00     0.180 A 
ATOM      2  C   UNL     1       3.691   1.450   8.634  1.00  0.00     0.208 A 
ATOM      3  C   UNL     1       4.521   0.320   8.574  1.00  0.00     0.238 A 
ATOM      4  O   UNL     1       5.746   0.464   8.310  1.00  0.00    -0.285 OA
ATOM      5  C   UNL     1       3.975  -0.959   8.799  1.00  0.00     0.111 A 
ATOM      6  C   UNL     1       4.742  -2.148   8.752  1.00  0.00     0.134 A 
ATOM      7  C   UNL     1       4.122  -3.386   8.979  1.00  0.00     0.093 A 
ATOM      8  C   UNL     1       2.754  -3.459   9.251  1.00  0.00     0.123 A 
ATOM      9  C   UNL     1       1.991  -2.287   9.299  1.00  0.00     0.094 A 
ATOM     10  C   UNL     1       2.590  -1.045   9.077  1.00  0.00     0.146 A 
ATOM     11  O   UNL     1       1.844   0.052   9.134  1.00  0.00    -0.452 OA
ENDROOT
BRANCH   1  12
ATOM     12  C   UNL     1       1.392   2.419   9.043  1.00  0.00     0.025 A 
ATOM     13  C   UNL     1       0.362   2.387   9.997  1.00  0.00     0.016 A 
ATOM     14  C   UNL     1      -0.519   3.463  10.125  1.00  0.00     0.051 A 
ATOM     15  C   UNL     1      -0.378   4.593   9.314  1.00  0.00     0.157 A 
ATOM     16  C   UNL     1       1.545   3.566   8.243  1.00  0.00     0.062 A 
ATOM     17  C   UNL     1       0.662   4.648   8.371  1.00  0.00     0.158 A 
BRANCH  15  18
ATOM     18  O   UNL     1      -1.274   5.651   9.463  1.00  0.00    -0.504 OA
ATOM     19  H   UNL     1      -1.404   6.126  10.348  1.00  0.00     0.293 HD
ENDBRANCH  15  18
BRANCH  17  20
ATOM     20  O   UNL     1       0.818   5.778   7.569  1.00  0.00    -0.504 OA
ATOM     21  H   UNL     1       1.144   6.658   7.950  1.00  0.00     0.293 HD
ENDBRANCH  17  20
ENDBRANCH   1  12
BRANCH   2  22
ATOM     22  O   UNL     1       4.197   2.725   8.366  1.00  0.00    -0.502 OA
ATOM     23  H   UNL     1       4.656   2.954   7.494  1.00  0.00     0.293 HD
ENDBRANCH   2  22
BRANCH   6  24
ATOM     24  O   UNL     1       6.111  -2.110   8.482  1.00  0.00    -0.507 OA
ATOM     25  H   UNL     1       6.537  -1.326   8.000  1.00  0.00     0.293 HD
ENDBRANCH   6  24
BRANCH   8  26
ATOM     26  O   UNL     1       2.163  -4.701   9.471  1.00  0.00    -0.508 OA
ATOM     27  H   UNL     1       1.454  -5.068   8.847  1.00  0.00     0.293 HD
ENDBRANCH   8  26
TORSDOF 6
ENDMDL
