MODEL 1
REMARK VINA RESULT:    -4.070      0.000      0.000
REMARK INTER + INTRA:          -5.173
REMARK INTER:                  -4.903
REMARK INTRA:                  -0.270
REMARK UNBOUND:                -0.270
REMARK SMILES O=c1c(O)c(-c2ccc(O)cc2O)oc2cc(O)cc(O)c12
REMARK SMILES IDX 5 1 3 2 2 3 1 4 22 5 20 6 19 7 17 8 16 9 15 10 14 11 6 12
REMARK SMILES IDX 8 13 7 14 9 15 11 16 12 17 10 18 13 20 4 22 21 24 18 26
REMARK H PARENT 10 19 13 21 4 23 21 25 18 27
REMARK Flexibility Score: inf
ROOT
ATOM      1  C   UNL     1      -5.263  -5.868   4.462  1.00  0.00     0.184 A 
ATOM      2  C   UNL     1      -3.921  -6.279   4.571  1.00  0.00     0.208 A 
ATOM      3  C   UNL     1      -3.116  -6.278   3.422  1.00  0.00     0.238 A 
ATOM      4  O   UNL     1      -1.910  -6.636   3.509  1.00  0.00    -0.285 OA
ATOM      5  C   UNL     1      -3.668  -5.885   2.186  1.00  0.00     0.111 A 
ATOM      6  C   UNL     1      -2.926  -5.861   0.980  1.00  0.00     0.134 A 
ATOM      7  C   UNL     1      -3.549  -5.464  -0.213  1.00  0.00     0.093 A 
ATOM      8  C   UNL     1      -4.896  -5.093  -0.224  1.00  0.00     0.123 A 
ATOM      9  C   UNL     1      -5.633  -5.115   0.964  1.00  0.00     0.094 A 
ATOM     10  C   UNL     1      -5.030  -5.506   2.163  1.00  0.00     0.146 A 
ATOM     11  O   UNL     1      -5.752  -5.514   3.277  1.00  0.00    -0.451 OA
ENDROOT
BRANCH   1  12
ATOM     12  C   UNL     1      -6.165  -5.827   5.637  1.00  0.00     0.063 A 
ATOM     13  C   UNL     1      -8.070  -6.710   6.866  1.00  0.00     0.047 A 
ATOM     14  C   UNL     1      -7.236  -6.731   5.745  1.00  0.00     0.020 A 
ATOM     15  C   UNL     1      -7.841  -5.797   7.897  1.00  0.00     0.119 A 
ATOM     16  C   UNL     1      -6.769  -4.902   7.807  1.00  0.00     0.093 A 
ATOM     17  C   UNL     1      -5.928  -4.913   6.684  1.00  0.00     0.130 A 
BRANCH  15  18
ATOM     18  O   UNL     1      -8.681  -5.789   9.009  1.00  0.00    -0.508 OA
ATOM     19  H   UNL     1      -9.612  -6.187   8.972  1.00  0.00     0.293 HD
ENDBRANCH  15  18
BRANCH  17  20
ATOM     20  O   UNL     1      -4.865  -4.012   6.602  1.00  0.00    -0.507 OA
ATOM     21  H   UNL     1      -4.835  -3.173   7.171  1.00  0.00     0.293 HD
ENDBRANCH  17  20
ENDBRANCH   1  12
BRANCH   2  22
ATOM     22  O   UNL     1      -3.413  -6.702   5.803  1.00  0.00    -0.502 OA
ATOM     23  H   UNL     1      -3.750  -7.534   6.270  1.00  0.00     0.293 HD
ENDBRANCH   2  22
BRANCH   6  24
ATOM     24  O   UNL     1      -1.579  -6.226   0.957  1.00  0.00    -0.507 OA
ATOM     25  H   UNL     1      -1.258  -7.053   0.467  1.00  0.00     0.293 HD
ENDBRANCH   6  24
BRANCH   8  26
ATOM     26  O   UNL     1      -5.491  -4.704  -1.422  1.00  0.00    -0.508 OA
ATOM     27  H   UNL     1      -4.965  -4.670  -2.288  1.00  0.00     0.293 HD
ENDBRANCH   8  26
TORSDOF 6
ENDMDL
MODEL 2
REMARK VINA RESULT:    -4.055      1.575      3.086
REMARK INTER + INTRA:          -5.154
REMARK INTER:                  -4.698
REMARK INTRA:                  -0.456
REMARK UNBOUND:                -0.270
REMARK SMILES O=c1c(O)c(-c2ccc(O)cc2O)oc2cc(O)cc(O)c12
REMARK SMILES IDX 5 1 3 2 2 3 1 4 22 5 20 6 19 7 17 8 16 9 15 10 14 11 6 12
REMARK SMILES IDX 8 13 7 14 9 15 11 16 12 17 10 18 13 20 4 22 21 24 18 26
REMARK H PARENT 10 19 13 21 4 23 21 25 18 27
REMARK Flexibility Score: inf
ROOT
ATOM      1  C   UNL     1      -6.658  -5.122   4.599  1.00  0.00     0.184 A 
ATOM      2  C   UNL     1      -7.400  -4.257   3.771  1.00  0.00     0.208 A 
ATOM      3  C   UNL     1      -7.086  -4.192   2.405  1.00  0.00     0.238 A 
ATOM      4  O   UNL     1      -7.749  -3.427   1.653  1.00  0.00    -0.285 OA
ATOM      5  C   UNL     1      -6.032  -4.975   1.894  1.00  0.00     0.111 A 
ATOM      6  C   UNL     1      -5.649  -4.964   0.531  1.00  0.00     0.134 A 
ATOM      7  C   UNL     1      -4.584  -5.768   0.100  1.00  0.00     0.093 A 
ATOM      8  C   UNL     1      -3.893  -6.580   1.004  1.00  0.00     0.123 A 
ATOM      9  C   UNL     1      -4.266  -6.595   2.352  1.00  0.00     0.094 A 
ATOM     10  C   UNL     1      -5.327  -5.802   2.800  1.00  0.00     0.146 A 
ATOM     11  O   UNL     1      -5.663  -5.838   4.084  1.00  0.00    -0.451 OA
ENDROOT
BRANCH   1  12
ATOM     12  C   UNL     1      -6.946  -5.255   6.046  1.00  0.00     0.063 A 
ATOM     13  C   UNL     1      -8.393  -6.020   7.847  1.00  0.00     0.047 A 
ATOM     14  C   UNL     1      -8.133  -5.869   6.483  1.00  0.00     0.020 A 
ATOM     15  C   UNL     1      -7.469  -5.572   8.793  1.00  0.00     0.119 A 
ATOM     16  C   UNL     1      -6.277  -4.972   8.370  1.00  0.00     0.093 A 
ATOM     17  C   UNL     1      -6.009  -4.814   7.002  1.00  0.00     0.130 A 
BRANCH  15  18
ATOM     18  O   UNL     1      -7.742  -5.730  10.150  1.00  0.00    -0.508 OA
ATOM     19  H   UNL     1      -8.692  -5.740  10.502  1.00  0.00     0.293 HD
ENDBRANCH  15  18
BRANCH  17  20
ATOM     20  O   UNL     1      -4.820  -4.208   6.592  1.00  0.00    -0.507 OA
ATOM     21  H   UNL     1      -4.819  -3.364   6.032  1.00  0.00     0.293 HD
ENDBRANCH  17  20
ENDBRANCH   1  12
BRANCH   2  22
ATOM     22  O   UNL     1      -8.413  -3.461   4.314  1.00  0.00    -0.502 OA
ATOM     23  H   UNL     1      -8.479  -2.468   4.128  1.00  0.00     0.293 HD
ENDBRANCH   2  22
BRANCH   6  24
ATOM     24  O   UNL     1      -6.318  -4.164  -0.397  1.00  0.00    -0.507 OA
ATOM     25  H   UNL     1      -6.994  -3.465  -0.110  1.00  0.00     0.293 HD
ENDBRANCH   6  24
BRANCH   8  26
ATOM     26  O   UNL     1      -2.838  -7.368   0.551  1.00  0.00    -0.508 OA
ATOM     27  H   UNL     1      -2.907  -7.905  -0.306  1.00  0.00     0.293 HD
ENDBRANCH   8  26
TORSDOF 6
ENDMDL
MODEL 3
REMARK VINA RESULT:    -3.921      2.677      4.346
REMARK INTER + INTRA:          -4.994
REMARK INTER:                  -4.973
REMARK INTRA:                  -0.021
REMARK UNBOUND:                -0.270
REMARK SMILES O=c1c(O)c(-c2ccc(O)cc2O)oc2cc(O)cc(O)c12
REMARK SMILES IDX 5 1 3 2 2 3 1 4 22 5 20 6 19 7 17 8 16 9 15 10 14 11 6 12
REMARK SMILES IDX 8 13 7 14 9 15 11 16 12 17 10 18 13 20 4 22 21 24 18 26
REMARK H PARENT 10 19 13 21 4 23 21 25 18 27
REMARK Flexibility Score: inf
ROOT
ATOM      1  C   UNL     1      -4.774  -5.471   7.499  1.00  0.00     0.184 A 
ATOM      2  C   UNL     1      -5.862  -4.799   6.908  1.00  0.00     0.208 A 
ATOM      3  C   UNL     1      -5.897  -4.662   5.513  1.00  0.00     0.238 A 
ATOM      4  O   UNL     1      -6.870  -4.070   4.972  1.00  0.00    -0.285 OA
ATOM      5  C   UNL     1      -4.842  -5.182   4.735  1.00  0.00     0.111 A 
ATOM      6  C   UNL     1      -4.800  -5.082   3.323  1.00  0.00     0.134 A 
ATOM      7  C   UNL     1      -3.712  -5.619   2.620  1.00  0.00     0.093 A 
ATOM      8  C   UNL     1      -2.666  -6.251   3.298  1.00  0.00     0.123 A 
ATOM      9  C   UNL     1      -2.703  -6.352   4.693  1.00  0.00     0.094 A 
ATOM     10  C   UNL     1      -3.780  -5.825   5.411  1.00  0.00     0.146 A 
ATOM     11  O   UNL     1      -3.792  -5.939   6.734  1.00  0.00    -0.451 OA
ENDROOT
BRANCH   1  12
ATOM     12  C   UNL     1      -4.681  -5.668   8.965  1.00  0.00     0.063 A 
ATOM     13  C   UNL     1      -5.742  -6.157  11.099  1.00  0.00     0.047 A 
ATOM     14  C   UNL     1      -5.833  -5.944   9.721  1.00  0.00     0.020 A 
ATOM     15  C   UNL     1      -4.501  -6.110  11.738  1.00  0.00     0.119 A 
ATOM     16  C   UNL     1      -3.345  -5.850  10.992  1.00  0.00     0.093 A 
ATOM     17  C   UNL     1      -3.428  -5.632   9.609  1.00  0.00     0.130 A 
BRANCH  15  18
ATOM     18  O   UNL     1      -4.427  -6.325  13.112  1.00  0.00    -0.508 OA
ATOM     19  H   UNL     1      -5.027  -6.996  13.577  1.00  0.00     0.293 HD
ENDBRANCH  15  18
BRANCH  17  20
ATOM     20  O   UNL     1      -2.269  -5.367   8.877  1.00  0.00    -0.507 OA
ATOM     21  H   UNL     1      -1.783  -4.481   8.952  1.00  0.00     0.293 HD
ENDBRANCH  17  20
ENDBRANCH   1  12
BRANCH   2  22
ATOM     22  O   UNL     1      -6.872  -4.258   7.708  1.00  0.00    -0.502 OA
ATOM     23  H   UNL     1      -6.683  -3.577   8.433  1.00  0.00     0.293 HD
ENDBRANCH   2  22
BRANCH   6  24
ATOM     24  O   UNL     1      -5.828  -4.456   2.615  1.00  0.00    -0.507 OA
ATOM     25  H   UNL     1      -5.641  -3.871   1.809  1.00  0.00     0.293 HD
ENDBRANCH   6  24
BRANCH   8  26
ATOM     26  O   UNL     1      -1.596  -6.775   2.576  1.00  0.00    -0.508 OA
ATOM     27  H   UNL     1      -0.637  -6.555   2.818  1.00  0.00     0.293 HD
ENDBRANCH   8  26
TORSDOF 6
ENDMDL
MODEL 4
REMARK VINA RESULT:    -3.919      2.166      6.978
REMARK INTER + INTRA:          -4.991
REMARK INTER:                  -4.746
REMARK INTRA:                  -0.245
REMARK UNBOUND:                -0.270
REMARK SMILES O=c1c(O)c(-c2ccc(O)cc2O)oc2cc(O)cc(O)c12
REMARK SMILES IDX 5 1 3 2 2 3 1 4 22 5 20 6 19 7 17 8 16 9 15 10 14 11 6 12
REMARK SMILES IDX 8 13 7 14 9 15 11 16 12 17 10 18 13 20 4 22 21 24 18 26
REMARK H PARENT 10 19 13 21 4 23 21 25 18 27
REMARK Flexibility Score: inf
ROOT
ATOM      1  C   UNL     1      -6.144  -5.176   5.834  1.00  0.00     0.184 A 
ATOM      2  C   UNL     1      -4.949  -5.121   6.576  1.00  0.00     0.208 A 
ATOM      3  C   UNL     1      -5.005  -5.309   7.965  1.00  0.00     0.238 A 
ATOM      4  O   UNL     1      -3.940  -5.270   8.640  1.00  0.00    -0.285 OA
ATOM      5  C   UNL     1      -6.250  -5.529   8.589  1.00  0.00     0.111 A 
ATOM      6  C   UNL     1      -6.393  -5.722   9.985  1.00  0.00     0.134 A 
ATOM      7  C   UNL     1      -7.669  -5.930  10.531  1.00  0.00     0.093 A 
ATOM      8  C   UNL     1      -8.801  -5.947   9.712  1.00  0.00     0.123 A 
ATOM      9  C   UNL     1      -8.665  -5.756   8.334  1.00  0.00     0.094 A 
ATOM     10  C   UNL     1      -7.403  -5.550   7.770  1.00  0.00     0.146 A 
ATOM     11  O   UNL     1      -7.302  -5.376   6.457  1.00  0.00    -0.451 OA
ENDROOT
BRANCH   1  12
ATOM     12  C   UNL     1      -6.158  -5.005   4.362  1.00  0.00     0.063 A 
ATOM     13  C   UNL     1      -5.318  -5.614   2.160  1.00  0.00     0.047 A 
ATOM     14  C   UNL     1      -5.286  -5.754   3.550  1.00  0.00     0.020 A 
ATOM     15  C   UNL     1      -6.223  -4.736   1.561  1.00  0.00     0.119 A 
ATOM     16  C   UNL     1      -7.105  -3.997   2.359  1.00  0.00     0.093 A 
ATOM     17  C   UNL     1      -7.079  -4.129   3.755  1.00  0.00     0.130 A 
BRANCH  15  18
ATOM     18  O   UNL     1      -6.242  -4.609   0.174  1.00  0.00    -0.508 OA
ATOM     19  H   UNL     1      -6.517  -5.378  -0.425  1.00  0.00     0.293 HD
ENDBRANCH  15  18
BRANCH  17  20
ATOM     20  O   UNL     1      -7.959  -3.382   4.540  1.00  0.00    -0.507 OA
ATOM     21  H   UNL     1      -8.066  -3.557   5.532  1.00  0.00     0.293 HD
ENDBRANCH  17  20
ENDBRANCH   1  12
BRANCH   2  22
ATOM     22  O   UNL     1      -3.735  -4.860   5.936  1.00  0.00    -0.502 OA
ATOM     23  H   UNL     1      -2.997  -5.551   5.870  1.00  0.00     0.293 HD
ENDBRANCH   2  22
BRANCH   6  24
ATOM     24  O   UNL     1      -5.283  -5.711  10.830  1.00  0.00    -0.507 OA
ATOM     25  H   UNL     1      -4.501  -6.341  10.692  1.00  0.00     0.293 HD
ENDBRANCH   6  24
BRANCH   8  26
ATOM     26  O   UNL     1     -10.056  -6.154  10.280  1.00  0.00    -0.508 OA
ATOM     27  H   UNL     1     -10.199  -6.099  11.282  1.00  0.00     0.293 HD
ENDBRANCH   8  26
TORSDOF 6
ENDMDL
MODEL 5
REMARK VINA RESULT:    -3.899      3.258      8.090
REMARK INTER + INTRA:          -4.967
REMARK INTER:                  -4.583
REMARK INTRA:                  -0.383
REMARK UNBOUND:                -0.270
REMARK SMILES O=c1c(O)c(-c2ccc(O)cc2O)oc2cc(O)cc(O)c12
REMARK SMILES IDX 5 1 3 2 2 3 1 4 22 5 20 6 19 7 17 8 16 9 15 10 14 11 6 12
REMARK SMILES IDX 8 13 7 14 9 15 11 16 12 17 10 18 13 20 4 22 21 24 18 26
REMARK H PARENT 10 19 13 21 4 23 21 25 18 27
REMARK Flexibility Score: inf
ROOT
ATOM      1  C   UNL     1      -4.041  -5.919   8.457  1.00  0.00     0.184 A 
ATOM      2  C   UNL     1      -3.241  -5.701   9.595  1.00  0.00     0.208 A 
ATOM      3  C   UNL     1      -3.859  -5.621  10.853  1.00  0.00     0.238 A 
ATOM      4  O   UNL     1      -3.152  -5.433  11.880  1.00  0.00    -0.285 OA
ATOM      5  C   UNL     1      -5.260  -5.744  10.949  1.00  0.00     0.111 A 
ATOM      6  C   UNL     1      -5.960  -5.671  12.178  1.00  0.00     0.134 A 
ATOM      7  C   UNL     1      -7.357  -5.797  12.191  1.00  0.00     0.093 A 
ATOM      8  C   UNL     1      -8.067  -5.991  11.003  1.00  0.00     0.123 A 
ATOM      9  C   UNL     1      -7.380  -6.064   9.787  1.00  0.00     0.094 A 
ATOM     10  C   UNL     1      -5.988  -5.943   9.753  1.00  0.00     0.146 A 
ATOM     11  O   UNL     1      -5.361  -6.020   8.585  1.00  0.00    -0.451 OA
ENDROOT
BRANCH   1  12
ATOM     12  C   UNL     1      -3.454  -6.033   7.101  1.00  0.00     0.063 A 
ATOM     13  C   UNL     1      -1.992  -7.170   5.524  1.00  0.00     0.047 A 
ATOM     14  C   UNL     1      -2.524  -7.046   6.810  1.00  0.00     0.020 A 
ATOM     15  C   UNL     1      -2.387  -6.295   4.510  1.00  0.00     0.119 A 
ATOM     16  C   UNL     1      -3.324  -5.291   4.786  1.00  0.00     0.093 A 
ATOM     17  C   UNL     1      -3.862  -5.157   6.074  1.00  0.00     0.130 A 
BRANCH  15  18
ATOM     18  O   UNL     1      -1.848  -6.432   3.233  1.00  0.00    -0.508 OA
ATOM     19  H   UNL     1      -2.433  -6.415   2.407  1.00  0.00     0.293 HD
ENDBRANCH  15  18
BRANCH  17  20
ATOM     20  O   UNL     1      -4.790  -4.148   6.338  1.00  0.00    -0.507 OA
ATOM     21  H   UNL     1      -5.746  -4.361   6.597  1.00  0.00     0.293 HD
ENDBRANCH  17  20
ENDBRANCH   1  12
BRANCH   2  22
ATOM     22  O   UNL     1      -1.859  -5.541   9.464  1.00  0.00    -0.502 OA
ATOM     23  H   UNL     1      -1.414  -4.632   9.488  1.00  0.00     0.293 HD
ENDBRANCH   2  22
BRANCH   6  24
ATOM     24  O   UNL     1      -5.281  -5.476  13.382  1.00  0.00    -0.507 OA
ATOM     25  H   UNL     1      -4.347  -5.838  13.532  1.00  0.00     0.293 HD
ENDBRANCH   6  24
BRANCH   8  26
ATOM     26  O   UNL     1      -9.454  -6.112  11.044  1.00  0.00    -0.508 OA
ATOM     27  H   UNL     1     -10.003  -5.665  11.769  1.00  0.00     0.293 HD
ENDBRANCH   8  26
TORSDOF 6
ENDMDL
MODEL 6
REMARK VINA RESULT:    -3.886      2.821      4.559
REMARK INTER + INTRA:          -4.951
REMARK INTER:                  -4.638
REMARK INTRA:                  -0.313
REMARK UNBOUND:                -0.270
REMARK SMILES O=c1c(O)c(-c2ccc(O)cc2O)oc2cc(O)cc(O)c12
REMARK SMILES IDX 5 1 3 2 2 3 1 4 22 5 20 6 19 7 17 8 16 9 15 10 14 11 6 12
REMARK SMILES IDX 8 13 7 14 9 15 11 16 12 17 10 18 13 20 4 22 21 24 18 26
REMARK H PARENT 10 19 13 21 4 23 21 25 18 27
REMARK Flexibility Score: inf
ROOT
ATOM      1  C   UNL     1      -6.345  -4.641   4.877  1.00  0.00     0.184 A 
ATOM      2  C   UNL     1      -6.000  -4.670   6.242  1.00  0.00     0.208 A 
ATOM      3  C   UNL     1      -4.732  -5.142   6.611  1.00  0.00     0.238 A 
ATOM      4  O   UNL     1      -4.410  -5.165   7.830  1.00  0.00    -0.285 OA
ATOM      5  C   UNL     1      -3.839  -5.592   5.617  1.00  0.00     0.111 A 
ATOM      6  C   UNL     1      -2.545  -6.087   5.906  1.00  0.00     0.134 A 
ATOM      7  C   UNL     1      -1.717  -6.522   4.860  1.00  0.00     0.093 A 
ATOM      8  C   UNL     1      -2.157  -6.474   3.535  1.00  0.00     0.123 A 
ATOM      9  C   UNL     1      -3.435  -5.986   3.244  1.00  0.00     0.094 A 
ATOM     10  C   UNL     1      -4.274  -5.546   4.272  1.00  0.00     0.146 A 
ATOM     11  O   UNL     1      -5.481  -5.083   3.967  1.00  0.00    -0.451 OA
ENDROOT
BRANCH   1  12
ATOM     12  C   UNL     1      -7.659  -4.138   4.413  1.00  0.00     0.063 A 
ATOM     13  C   UNL     1      -8.981  -2.481   3.218  1.00  0.00     0.047 A 
ATOM     14  C   UNL     1      -7.745  -2.941   3.679  1.00  0.00     0.020 A 
ATOM     15  C   UNL     1     -10.144  -3.210   3.472  1.00  0.00     0.119 A 
ATOM     16  C   UNL     1     -10.068  -4.410   4.190  1.00  0.00     0.093 A 
ATOM     17  C   UNL     1      -8.832  -4.880   4.659  1.00  0.00     0.130 A 
BRANCH  15  18
ATOM     18  O   UNL     1     -11.369  -2.738   3.006  1.00  0.00    -0.508 OA
ATOM     19  H   UNL     1     -11.469  -1.799   2.640  1.00  0.00     0.293 HD
ENDBRANCH  15  18
BRANCH  17  20
ATOM     20  O   UNL     1      -8.770  -6.074   5.378  1.00  0.00    -0.507 OA
ATOM     21  H   UNL     1      -8.565  -6.087   6.370  1.00  0.00     0.293 HD
ENDBRANCH  17  20
ENDBRANCH   1  12
BRANCH   2  22
ATOM     22  O   UNL     1      -6.922  -4.256   7.208  1.00  0.00    -0.502 OA
ATOM     23  H   UNL     1      -7.020  -4.728   8.099  1.00  0.00     0.293 HD
ENDBRANCH   2  22
BRANCH   6  24
ATOM     24  O   UNL     1      -2.075  -6.149   7.219  1.00  0.00    -0.507 OA
ATOM     25  H   UNL     1      -1.095  -6.023   7.441  1.00  0.00     0.293 HD
ENDBRANCH   6  24
BRANCH   8  26
ATOM     26  O   UNL     1      -1.316  -6.913   2.516  1.00  0.00    -0.508 OA
ATOM     27  H   UNL     1      -1.031  -7.883   2.445  1.00  0.00     0.293 HD
ENDBRANCH   8  26
TORSDOF 6
ENDMDL
MODEL 7
REMARK VINA RESULT:    -3.851      1.995      7.114
REMARK INTER + INTRA:          -4.909
REMARK INTER:                  -4.486
REMARK INTRA:                  -0.423
REMARK UNBOUND:                -0.270
REMARK SMILES O=c1c(O)c(-c2ccc(O)cc2O)oc2cc(O)cc(O)c12
REMARK SMILES IDX 5 1 3 2 2 3 1 4 22 5 20 6 19 7 17 8 16 9 15 10 14 11 6 12
REMARK SMILES IDX 8 13 7 14 9 15 11 16 12 17 10 18 13 20 4 22 21 24 18 26
REMARK H PARENT 10 19 13 21 4 23 21 25 18 27
REMARK Flexibility Score: inf
ROOT
ATOM      1  C   UNL     1      -4.045  -5.803   2.039  1.00  0.00     0.184 A 
ATOM      2  C   UNL     1      -5.325  -5.386   1.627  1.00  0.00     0.208 A 
ATOM      3  C   UNL     1      -6.230  -4.922   2.593  1.00  0.00     0.238 A 
ATOM      4  O   UNL     1      -7.377  -4.539   2.234  1.00  0.00    -0.285 OA
ATOM      5  C   UNL     1      -5.849  -4.898   3.950  1.00  0.00     0.111 A 
ATOM      6  C   UNL     1      -6.704  -4.449   4.986  1.00  0.00     0.134 A 
ATOM      7  C   UNL     1      -6.254  -4.461   6.314  1.00  0.00     0.093 A 
ATOM      8  C   UNL     1      -4.970  -4.914   6.627  1.00  0.00     0.123 A 
ATOM      9  C   UNL     1      -4.121  -5.359   5.608  1.00  0.00     0.094 A 
ATOM     10  C   UNL     1      -4.551  -5.352   4.278  1.00  0.00     0.146 A 
ATOM     11  O   UNL     1      -3.723  -5.775   3.329  1.00  0.00    -0.451 OA
ENDROOT
BRANCH   1  12
ATOM     12  C   UNL     1      -3.032  -6.286   1.071  1.00  0.00     0.063 A 
ATOM     13  C   UNL     1      -1.533  -5.868  -0.799  1.00  0.00     0.047 A 
ATOM     14  C   UNL     1      -2.508  -5.420   0.095  1.00  0.00     0.020 A 
ATOM     15  C   UNL     1      -1.059  -7.179  -0.726  1.00  0.00     0.119 A 
ATOM     16  C   UNL     1      -1.563  -8.046   0.251  1.00  0.00     0.093 A 
ATOM     17  C   UNL     1      -2.544  -7.607   1.152  1.00  0.00     0.130 A 
BRANCH  15  18
ATOM     18  O   UNL     1      -0.086  -7.611  -1.625  1.00  0.00    -0.508 OA
ATOM     19  H   UNL     1      -0.313  -7.825  -2.589  1.00  0.00     0.293 HD
ENDBRANCH  15  18
BRANCH  17  20
ATOM     20  O   UNL     1      -3.043  -8.482   2.117  1.00  0.00    -0.507 OA
ATOM     21  H   UNL     1      -2.464  -9.204   2.530  1.00  0.00     0.293 HD
ENDBRANCH  17  20
ENDBRANCH   1  12
BRANCH   2  22
ATOM     22  O   UNL     1      -5.688  -5.461   0.279  1.00  0.00    -0.502 OA
ATOM     23  H   UNL     1      -5.004  -5.474  -0.467  1.00  0.00     0.293 HD
ENDBRANCH   2  22
BRANCH   6  24
ATOM     24  O   UNL     1      -7.993  -3.992   4.707  1.00  0.00    -0.507 OA
ATOM     25  H   UNL     1      -8.452  -4.194   3.826  1.00  0.00     0.293 HD
ENDBRANCH   6  24
BRANCH   8  26
ATOM     26  O   UNL     1      -4.547  -4.917   7.954  1.00  0.00    -0.508 OA
ATOM     27  H   UNL     1      -3.594  -5.152   8.206  1.00  0.00     0.293 HD
ENDBRANCH   8  26
TORSDOF 6
ENDMDL
MODEL 8
REMARK VINA RESULT:    -3.820      2.671      4.114
REMARK INTER + INTRA:          -4.872
REMARK INTER:                  -4.412
REMARK INTRA:                  -0.459
REMARK UNBOUND:                -0.270
REMARK SMILES O=c1c(O)c(-c2ccc(O)cc2O)oc2cc(O)cc(O)c12
REMARK SMILES IDX 5 1 3 2 2 3 1 4 22 5 20 6 19 7 17 8 16 9 15 10 14 11 6 12
REMARK SMILES IDX 8 13 7 14 9 15 11 16 12 17 10 18 13 20 4 22 21 24 18 26
REMARK H PARENT 10 19 13 21 4 23 21 25 18 27
REMARK Flexibility Score: inf
ROOT
ATOM      1  C   UNL     1      -3.812  -6.089   2.117  1.00  0.00     0.184 A 
ATOM      2  C   UNL     1      -5.052  -5.929   1.470  1.00  0.00     0.208 A 
ATOM      3  C   UNL     1      -5.069  -5.671   0.091  1.00  0.00     0.238 A 
ATOM      4  O   UNL     1      -6.174  -5.534  -0.500  1.00  0.00    -0.285 OA
ATOM      5  C   UNL     1      -3.852  -5.560  -0.612  1.00  0.00     0.111 A 
ATOM      6  C   UNL     1      -3.782  -5.296  -2.001  1.00  0.00     0.134 A 
ATOM      7  C   UNL     1      -2.531  -5.193  -2.628  1.00  0.00     0.093 A 
ATOM      8  C   UNL     1      -1.352  -5.346  -1.895  1.00  0.00     0.123 A 
ATOM      9  C   UNL     1      -1.415  -5.607  -0.522  1.00  0.00     0.094 A 
ATOM     10  C   UNL     1      -2.652  -5.715   0.120  1.00  0.00     0.146 A 
ATOM     11  O   UNL     1      -2.684  -5.967   1.424  1.00  0.00    -0.451 OA
ENDROOT
BRANCH   1  12
ATOM     12  C   UNL     1      -3.719  -6.382   3.567  1.00  0.00     0.063 A 
ATOM     13  C   UNL     1      -4.006  -7.921   5.430  1.00  0.00     0.047 A 
ATOM     14  C   UNL     1      -4.119  -7.634   4.067  1.00  0.00     0.020 A 
ATOM     15  C   UNL     1      -3.484  -6.970   6.309  1.00  0.00     0.119 A 
ATOM     16  C   UNL     1      -3.070  -5.725   5.819  1.00  0.00     0.093 A 
ATOM     17  C   UNL     1      -3.182  -5.427   4.453  1.00  0.00     0.130 A 
BRANCH  15  18
ATOM     18  O   UNL     1      -3.378  -7.271   7.665  1.00  0.00    -0.508 OA
ATOM     19  H   UNL     1      -4.177  -7.215   8.284  1.00  0.00     0.293 HD
ENDBRANCH  15  18
BRANCH  17  20
ATOM     20  O   UNL     1      -2.772  -4.180   3.978  1.00  0.00    -0.507 OA
ATOM     21  H   UNL     1      -1.846  -3.816   4.172  1.00  0.00     0.293 HD
ENDBRANCH  17  20
ENDBRANCH   1  12
BRANCH   2  22
ATOM     22  O   UNL     1      -6.241  -6.004   2.201  1.00  0.00    -0.502 OA
ATOM     23  H   UNL     1      -6.775  -5.181   2.452  1.00  0.00     0.293 HD
ENDBRANCH   2  22
BRANCH   6  24
ATOM     24  O   UNL     1      -4.941  -5.136  -2.762  1.00  0.00    -0.507 OA
ATOM     25  H   UNL     1      -5.730  -4.595  -2.427  1.00  0.00     0.293 HD
ENDBRANCH   6  24
BRANCH   8  26
ATOM     26  O   UNL     1      -0.123  -5.238  -2.541  1.00  0.00    -0.508 OA
ATOM     27  H   UNL     1       0.251  -5.997  -3.099  1.00  0.00     0.293 HD
ENDBRANCH   8  26
TORSDOF 6
ENDMDL
MODEL 9
REMARK VINA RESULT:    -3.769      2.097      6.626
REMARK INTER + INTRA:          -4.810
REMARK INTER:                  -4.433
REMARK INTRA:                  -0.377
REMARK UNBOUND:                -0.270
REMARK SMILES O=c1c(O)c(-c2ccc(O)cc2O)oc2cc(O)cc(O)c12
REMARK SMILES IDX 5 1 3 2 2 3 1 4 22 5 20 6 19 7 17 8 16 9 15 10 14 11 6 12
REMARK SMILES IDX 8 13 7 14 9 15 11 16 12 17 10 18 13 20 4 22 21 24 18 26
REMARK H PARENT 10 19 13 21 4 23 21 25 18 27
REMARK Flexibility Score: inf
ROOT
ATOM      1  C   UNL     1      -3.418  -6.098   2.491  1.00  0.00     0.184 A 
ATOM      2  C   UNL     1      -2.589  -6.108   3.629  1.00  0.00     0.208 A 
ATOM      3  C   UNL     1      -3.127  -5.718   4.864  1.00  0.00     0.238 A 
ATOM      4  O   UNL     1      -2.395  -5.729   5.891  1.00  0.00    -0.285 OA
ATOM      5  C   UNL     1      -4.475  -5.311   4.939  1.00  0.00     0.111 A 
ATOM      6  C   UNL     1      -5.093  -4.899   6.145  1.00  0.00     0.134 A 
ATOM      7  C   UNL     1      -6.439  -4.503   6.136  1.00  0.00     0.093 A 
ATOM      8  C   UNL     1      -7.176  -4.508   4.950  1.00  0.00     0.123 A 
ATOM      9  C   UNL     1      -6.571  -4.914   3.756  1.00  0.00     0.094 A 
ATOM     10  C   UNL     1      -5.232  -5.314   3.744  1.00  0.00     0.146 A 
ATOM     11  O   UNL     1      -4.682  -5.699   2.598  1.00  0.00    -0.451 OA
ENDROOT
BRANCH   1  12
ATOM     12  C   UNL     1      -2.922  -6.515   1.159  1.00  0.00     0.063 A 
ATOM     13  C   UNL     1      -1.964  -5.952  -1.006  1.00  0.00     0.047 A 
ATOM     14  C   UNL     1      -2.458  -5.557   0.240  1.00  0.00     0.020 A 
ATOM     15  C   UNL     1      -1.915  -7.304  -1.348  1.00  0.00     0.119 A 
ATOM     16  C   UNL     1      -2.360  -8.268  -0.435  1.00  0.00     0.093 A 
ATOM     17  C   UNL     1      -2.860  -7.881   0.817  1.00  0.00     0.130 A 
BRANCH  15  18
ATOM     18  O   UNL     1      -1.419  -7.682  -2.594  1.00  0.00    -0.508 OA
ATOM     19  H   UNL     1      -1.961  -7.556  -3.440  1.00  0.00     0.293 HD
ENDBRANCH  15  18
BRANCH  17  20
ATOM     20  O   UNL     1      -3.307  -8.851   1.716  1.00  0.00    -0.507 OA
ATOM     21  H   UNL     1      -3.912  -9.609   1.423  1.00  0.00     0.293 HD
ENDBRANCH  17  20
ENDBRANCH   1  12
BRANCH   2  22
ATOM     22  O   UNL     1      -1.245  -6.476   3.516  1.00  0.00    -0.502 OA
ATOM     23  H   UNL     1      -0.616  -6.034   2.856  1.00  0.00     0.293 HD
ENDBRANCH   2  22
BRANCH   6  24
ATOM     24  O   UNL     1      -4.384  -4.882   7.347  1.00  0.00    -0.507 OA
ATOM     25  H   UNL     1      -4.766  -5.279   8.197  1.00  0.00     0.293 HD
ENDBRANCH   6  24
BRANCH   8  26
ATOM     26  O   UNL     1      -8.511  -4.108   4.969  1.00  0.00    -0.508 OA
ATOM     27  H   UNL     1      -9.164  -4.409   4.255  1.00  0.00     0.293 HD
ENDBRANCH   8  26
TORSDOF 6
ENDMDL
