MODEL 1
REMARK VINA RESULT:    -5.186      0.000      0.000
REMARK INTER + INTRA:         -11.559
REMARK INTER:                  -9.430
REMARK INTRA:                  -2.129
REMARK UNBOUND:                -2.129
REMARK SMILES CCCCCCCCCCCCCCCC(=O)[O-]
REMARK SMILES IDX 9 1 10 2 11 3 12 4 13 5 14 6 15 7 16 8 17 9 18 10 8 11 7 12
REMARK SMILES IDX 6 13 5 14 4 15 3 16 2 17 1 18
REMARK H PARENT
REMARK Flexibility Score: inf
ROOT
ATOM      1  C   UNL     1      35.125  44.530  47.499  1.00  0.00     0.000 C 
ENDROOT
BRANCH   1   2
ATOM      2  C   UNL     1      34.943  43.077  47.027  1.00  0.00     0.000 C 
BRANCH   2   3
ATOM      3  C   UNL     1      34.044  42.256  47.965  1.00  0.00     0.000 C 
BRANCH   3   4
ATOM      4  C   UNL     1      32.856  41.610  47.231  1.00  0.00     0.000 C 
BRANCH   4   5
ATOM      5  C   UNL     1      31.683  42.576  47.027  1.00  0.00     0.000 C 
BRANCH   5   6
ATOM      6  C   UNL     1      31.446  42.925  45.552  1.00  0.00     0.006 C 
BRANCH   6   7
ATOM      7  C   UNL     1      31.851  44.371  45.233  1.00  0.00     0.053 C 
BRANCH   7   8
ATOM      8  C   UNL     1      32.707  44.454  44.003  1.00  0.00     0.041 C 
ATOM      9  O   UNL     1      33.903  44.844  44.088  1.00  0.00    -0.550 OA
ATOM     10  O   UNL     1      32.202  44.072  42.771  1.00  0.00    -0.550 OA
ENDBRANCH   7   8
ENDBRANCH   6   7
ENDBRANCH   5   6
ENDBRANCH   4   5
ENDBRANCH   3   4
ENDBRANCH   2   3
ENDBRANCH   1   2
BRANCH   1  11
ATOM     11  C   UNL     1      34.266  44.868  48.729  1.00  0.00     0.000 C 
BRANCH  11  12
ATOM     12  C   UNL     1      34.969  45.840  49.693  1.00  0.00    -0.000 C 
BRANCH  12  13
ATOM     13  C   UNL     1      35.381  45.163  51.018  1.00  0.00    -0.000 C 
BRANCH  13  14
ATOM     14  C   UNL     1      34.923  43.697  51.125  1.00  0.00    -0.000 C 
BRANCH  14  15
ATOM     15  C   UNL     1      36.057  42.658  51.058  1.00  0.00    -0.000 C 
BRANCH  15  16
ATOM     16  C   UNL     1      37.438  43.229  50.691  1.00  0.00    -0.000 C 
BRANCH  16  17
ATOM     17  C   UNL     1      38.352  42.195  50.014  1.00  0.00    -0.003 C 
ATOM     18  C   UNL     1      38.012  42.046  48.529  1.00  0.00     0.004 C 
ENDBRANCH  16  17
ENDBRANCH  15  16
ENDBRANCH  14  15
ENDBRANCH  13  14
ENDBRANCH  12  13
ENDBRANCH  11  12
ENDBRANCH   1  11
TORSDOF 14
ENDMDL
MODEL 2
REMARK VINA RESULT:    -5.091      1.286      2.756
REMARK INTER + INTRA:         -11.387
REMARK INTER:                  -9.738
REMARK INTRA:                  -1.649
REMARK UNBOUND:                -2.129
REMARK SMILES CCCCCCCCCCCCCCCC(=O)[O-]
REMARK SMILES IDX 9 1 10 2 11 3 12 4 13 5 14 6 15 7 16 8 17 9 18 10 8 11 7 12
REMARK SMILES IDX 6 13 5 14 4 15 3 16 2 17 1 18
REMARK H PARENT
REMARK Flexibility Score: inf
ROOT
ATOM      1  C   UNL     1      35.381  44.544  46.454  1.00  0.00     0.000 C 
ENDROOT
BRANCH   1   2
ATOM      2  C   UNL     1      34.625  44.427  47.789  1.00  0.00     0.000 C 
BRANCH   2   3
ATOM      3  C   UNL     1      33.101  44.360  47.604  1.00  0.00     0.000 C 
BRANCH   3   4
ATOM      4  C   UNL     1      32.623  42.980  47.117  1.00  0.00     0.000 C 
BRANCH   4   5
ATOM      5  C   UNL     1      31.744  43.061  45.863  1.00  0.00     0.000 C 
BRANCH   5   6
ATOM      6  C   UNL     1      31.970  44.347  45.056  1.00  0.00     0.006 C 
BRANCH   6   7
ATOM      7  C   UNL     1      32.428  44.050  43.622  1.00  0.00     0.053 C 
BRANCH   7   8
ATOM      8  C   UNL     1      32.634  45.308  42.830  1.00  0.00     0.041 C 
ATOM      9  O   UNL     1      33.679  45.996  42.993  1.00  0.00    -0.550 OA
ATOM     10  O   UNL     1      31.698  45.707  41.892  1.00  0.00    -0.550 OA
ENDBRANCH   7   8
ENDBRANCH   6   7
ENDBRANCH   5   6
ENDBRANCH   4   5
ENDBRANCH   3   4
ENDBRANCH   2   3
ENDBRANCH   1   2
BRANCH   1  11
ATOM     11  C   UNL     1      36.278  43.327  46.169  1.00  0.00     0.000 C 
BRANCH  11  12
ATOM     12  C   UNL     1      36.409  42.392  47.385  1.00  0.00    -0.000 C 
BRANCH  12  13
ATOM     13  C   UNL     1      37.814  42.450  48.024  1.00  0.00    -0.000 C 
BRANCH  13  14
ATOM     14  C   UNL     1      37.857  41.895  49.459  1.00  0.00    -0.000 C 
BRANCH  14  15
ATOM     15  C   UNL     1      37.946  42.963  50.565  1.00  0.00    -0.000 C 
BRANCH  15  16
ATOM     16  C   UNL     1      36.626  43.692  50.869  1.00  0.00    -0.000 C 
BRANCH  16  17
ATOM     17  C   UNL     1      35.424  42.738  50.966  1.00  0.00    -0.003 C 
ATOM     18  C   UNL     1      34.487  43.147  52.105  1.00  0.00     0.004 C 
ENDBRANCH  16  17
ENDBRANCH  15  16
ENDBRANCH  14  15
ENDBRANCH  13  14
ENDBRANCH  12  13
ENDBRANCH  11  12
ENDBRANCH   1  11
TORSDOF 14
ENDMDL
MODEL 3
REMARK VINA RESULT:    -4.933      2.529      6.604
REMARK INTER + INTRA:         -11.098
REMARK INTER:                  -9.571
REMARK INTRA:                  -1.527
REMARK UNBOUND:                -2.129
REMARK SMILES CCCCCCCCCCCCCCCC(=O)[O-]
REMARK SMILES IDX 9 1 10 2 11 3 12 4 13 5 14 6 15 7 16 8 17 9 18 10 8 11 7 12
REMARK SMILES IDX 6 13 5 14 4 15 3 16 2 17 1 18
REMARK H PARENT
REMARK Flexibility Score: inf
ROOT
ATOM      1  C   UNL     1      33.592  44.004  48.463  1.00  0.00     0.000 C 
ENDROOT
BRANCH   1   2
ATOM      2  C   UNL     1      34.761  45.003  48.493  1.00  0.00     0.000 C 
BRANCH   2   3
ATOM      3  C   UNL     1      34.992  45.606  49.888  1.00  0.00     0.000 C 
BRANCH   3   4
ATOM      4  C   UNL     1      34.818  44.573  51.015  1.00  0.00     0.000 C 
BRANCH   4   5
ATOM      5  C   UNL     1      36.153  44.068  51.574  1.00  0.00     0.000 C 
BRANCH   5   6
ATOM      6  C   UNL     1      36.602  42.743  50.944  1.00  0.00     0.006 C 
BRANCH   6   7
ATOM      7  C   UNL     1      38.053  42.806  50.449  1.00  0.00     0.053 C 
BRANCH   7   8
ATOM      8  C   UNL     1      38.258  41.978  49.214  1.00  0.00     0.041 C 
ATOM      9  O   UNL     1      38.965  40.934  49.260  1.00  0.00    -0.550 OA
ATOM     10  O   UNL     1      37.650  42.335  48.022  1.00  0.00    -0.550 OA
ENDBRANCH   7   8
ENDBRANCH   6   7
ENDBRANCH   5   6
ENDBRANCH   4   5
ENDBRANCH   3   4
ENDBRANCH   2   3
ENDBRANCH   1   2
BRANCH   1  11
ATOM     11  C   UNL     1      34.007  42.618  47.942  1.00  0.00     0.000 C 
BRANCH  11  12
ATOM     12  C   UNL     1      32.805  41.777  47.475  1.00  0.00    -0.000 C 
BRANCH  12  13
ATOM     13  C   UNL     1      31.592  42.648  47.084  1.00  0.00    -0.000 C 
BRANCH  13  14
ATOM     14  C   UNL     1      31.474  42.891  45.569  1.00  0.00    -0.000 C 
BRANCH  14  15
ATOM     15  C   UNL     1      31.874  44.304  45.106  1.00  0.00    -0.000 C 
BRANCH  15  16
ATOM     16  C   UNL     1      33.361  44.471  44.749  1.00  0.00    -0.000 C 
BRANCH  16  17
ATOM     17  C   UNL     1      33.583  45.355  43.510  1.00  0.00    -0.003 C 
ATOM     18  C   UNL     1      32.296  45.494  42.694  1.00  0.00     0.004 C 
ENDBRANCH  16  17
ENDBRANCH  15  16
ENDBRANCH  14  15
ENDBRANCH  13  14
ENDBRANCH  12  13
ENDBRANCH  11  12
ENDBRANCH   1  11
TORSDOF 14
ENDMDL
MODEL 4
REMARK VINA RESULT:    -4.896      3.058      6.561
REMARK INTER + INTRA:         -11.031
REMARK INTER:                  -9.210
REMARK INTRA:                  -1.821
REMARK UNBOUND:                -2.129
REMARK SMILES CCCCCCCCCCCCCCCC(=O)[O-]
REMARK SMILES IDX 9 1 10 2 11 3 12 4 13 5 14 6 15 7 16 8 17 9 18 10 8 11 7 12
REMARK SMILES IDX 6 13 5 14 4 15 3 16 2 17 1 18
REMARK H PARENT
REMARK Flexibility Score: inf
ROOT
ATOM      1  C   UNL     1      33.361  43.834  49.177  1.00  0.00     0.000 C 
ENDROOT
BRANCH   1   2
ATOM      2  C   UNL     1      33.788  44.861  48.113  1.00  0.00     0.000 C 
BRANCH   2   3
ATOM      3  C   UNL     1      35.285  44.782  47.778  1.00  0.00     0.000 C 
BRANCH   3   4
ATOM      4  C   UNL     1      35.555  44.099  46.425  1.00  0.00     0.000 C 
BRANCH   4   5
ATOM      5  C   UNL     1      36.635  43.013  46.509  1.00  0.00     0.000 C 
BRANCH   5   6
ATOM      6  C   UNL     1      36.602  42.238  47.832  1.00  0.00     0.006 C 
BRANCH   6   7
ATOM      7  C   UNL     1      37.978  42.202  48.511  1.00  0.00     0.053 C 
BRANCH   7   8
ATOM      8  C   UNL     1      37.884  42.482  49.982  1.00  0.00     0.041 C 
ATOM      9  O   UNL     1      38.900  42.351  50.719  1.00  0.00    -0.550 OA
ATOM     10  O   UNL     1      36.693  42.918  50.537  1.00  0.00    -0.550 OA
ENDBRANCH   7   8
ENDBRANCH   6   7
ENDBRANCH   5   6
ENDBRANCH   4   5
ENDBRANCH   3   4
ENDBRANCH   2   3
ENDBRANCH   1   2
BRANCH   1  11
ATOM     11  C   UNL     1      32.314  42.837  48.655  1.00  0.00     0.000 C 
BRANCH  11  12
ATOM     12  C   UNL     1      32.813  42.035  47.441  1.00  0.00    -0.000 C 
BRANCH  12  13
ATOM     13  C   UNL     1      31.753  41.937  46.322  1.00  0.00    -0.000 C 
BRANCH  13  14
ATOM     14  C   UNL     1      31.244  43.306  45.838  1.00  0.00    -0.000 C 
BRANCH  14  15
ATOM     15  C   UNL     1      32.250  44.110  44.993  1.00  0.00    -0.000 C 
BRANCH  15  16
ATOM     16  C   UNL     1      31.939  44.156  43.487  1.00  0.00    -0.000 C 
BRANCH  16  17
ATOM     17  C   UNL     1      32.607  45.342  42.774  1.00  0.00    -0.003 C 
ATOM     18  C   UNL     1      33.949  45.690  43.421  1.00  0.00     0.004 C 
ENDBRANCH  16  17
ENDBRANCH  15  16
ENDBRANCH  14  15
ENDBRANCH  13  14
ENDBRANCH  12  13
ENDBRANCH  11  12
ENDBRANCH   1  11
TORSDOF 14
ENDMDL
MODEL 5
REMARK VINA RESULT:    -4.814      3.309      5.829
REMARK INTER + INTRA:         -10.884
REMARK INTER:                  -9.033
REMARK INTRA:                  -1.850
REMARK UNBOUND:                -2.129
REMARK SMILES CCCCCCCCCCCCCCCC(=O)[O-]
REMARK SMILES IDX 9 1 10 2 11 3 12 4 13 5 14 6 15 7 16 8 17 9 18 10 8 11 7 12
REMARK SMILES IDX 6 13 5 14 4 15 3 16 2 17 1 18
REMARK H PARENT
REMARK Flexibility Score: inf
ROOT
ATOM      1  C   UNL     1      33.388  44.173  43.983  1.00  0.00     0.000 C 
ENDROOT
BRANCH   1   2
ATOM      2  C   UNL     1      34.515  45.002  44.623  1.00  0.00     0.000 C 
BRANCH   2   3
ATOM      3  C   UNL     1      35.705  44.140  45.072  1.00  0.00     0.000 C 
BRANCH   3   4
ATOM      4  C   UNL     1      35.784  43.989  46.601  1.00  0.00     0.000 C 
BRANCH   4   5
ATOM      5  C   UNL     1      36.332  42.625  47.039  1.00  0.00     0.000 C 
BRANCH   5   6
ATOM      6  C   UNL     1      36.691  42.575  48.530  1.00  0.00     0.006 C 
BRANCH   6   7
ATOM      7  C   UNL     1      38.103  42.020  48.762  1.00  0.00     0.053 C 
BRANCH   7   8
ATOM      8  C   UNL     1      38.524  42.143  50.197  1.00  0.00     0.041 C 
ATOM      9  O   UNL     1      38.487  43.264  50.774  1.00  0.00    -0.550 OA
ATOM     10  O   UNL     1      38.924  41.025  50.908  1.00  0.00    -0.550 OA
ENDBRANCH   7   8
ENDBRANCH   6   7
ENDBRANCH   5   6
ENDBRANCH   4   5
ENDBRANCH   3   4
ENDBRANCH   2   3
ENDBRANCH   1   2
BRANCH   1  11
ATOM     11  C   UNL     1      32.039  44.349  44.699  1.00  0.00     0.000 C 
BRANCH  11  12
ATOM     12  C   UNL     1      32.132  44.085  46.212  1.00  0.00    -0.000 C 
BRANCH  12  13
ATOM     13  C   UNL     1      32.341  42.590  46.538  1.00  0.00    -0.000 C 
BRANCH  13  14
ATOM     14  C   UNL     1      32.495  42.307  48.043  1.00  0.00    -0.000 C 
BRANCH  14  15
ATOM     15  C   UNL     1      32.735  43.552  48.916  1.00  0.00    -0.000 C 
BRANCH  15  16
ATOM     16  C   UNL     1      33.765  43.363  50.043  1.00  0.00    -0.000 C 
BRANCH  16  17
ATOM     17  C   UNL     1      34.270  44.694  50.623  1.00  0.00    -0.003 C 
ATOM     18  C   UNL     1      34.806  45.608  49.518  1.00  0.00     0.004 C 
ENDBRANCH  16  17
ENDBRANCH  15  16
ENDBRANCH  14  15
ENDBRANCH  13  14
ENDBRANCH  12  13
ENDBRANCH  11  12
ENDBRANCH   1  11
TORSDOF 14
ENDMDL
MODEL 6
REMARK VINA RESULT:    -4.776      2.711      6.305
REMARK INTER + INTRA:         -10.814
REMARK INTER:                  -8.973
REMARK INTRA:                  -1.841
REMARK UNBOUND:                -2.129
REMARK SMILES CCCCCCCCCCCCCCCC(=O)[O-]
REMARK SMILES IDX 9 1 10 2 11 3 12 4 13 5 14 6 15 7 16 8 17 9 18 10 8 11 7 12
REMARK SMILES IDX 6 13 5 14 4 15 3 16 2 17 1 18
REMARK H PARENT
REMARK Flexibility Score: inf
ROOT
ATOM      1  C   UNL     1      35.744  42.900  46.746  1.00  0.00     0.000 C 
ENDROOT
BRANCH   1   2
ATOM      2  C   UNL     1      37.220  42.636  47.089  1.00  0.00     0.000 C 
BRANCH   2   3
ATOM      3  C   UNL     1      37.396  41.900  48.426  1.00  0.00     0.000 C 
BRANCH   3   4
ATOM      4  C   UNL     1      38.311  42.659  49.404  1.00  0.00     0.000 C 
BRANCH   4   5
ATOM      5  C   UNL     1      37.724  42.755  50.818  1.00  0.00     0.000 C 
BRANCH   5   6
ATOM      6  C   UNL     1      36.191  42.691  50.835  1.00  0.00     0.006 C 
BRANCH   6   7
ATOM      7  C   UNL     1      35.590  43.630  51.890  1.00  0.00     0.053 C 
BRANCH   7   8
ATOM      8  C   UNL     1      34.831  44.762  51.262  1.00  0.00     0.041 C 
ATOM      9  O   UNL     1      33.586  44.867  51.441  1.00  0.00    -0.550 OA
ATOM     10  O   UNL     1      35.492  45.717  50.509  1.00  0.00    -0.550 OA
ENDBRANCH   7   8
ENDBRANCH   6   7
ENDBRANCH   5   6
ENDBRANCH   4   5
ENDBRANCH   3   4
ENDBRANCH   2   3
ENDBRANCH   1   2
BRANCH   1  11
ATOM     11  C   UNL     1      35.161  44.101  47.511  1.00  0.00     0.000 C 
BRANCH  11  12
ATOM     12  C   UNL     1      33.662  43.936  47.817  1.00  0.00    -0.000 C 
BRANCH  12  13
ATOM     13  C   UNL     1      33.102  42.587  47.316  1.00  0.00    -0.000 C 
BRANCH  13  14
ATOM     14  C   UNL     1      31.899  42.736  46.367  1.00  0.00    -0.000 C 
BRANCH  14  15
ATOM     15  C   UNL     1      31.821  44.085  45.628  1.00  0.00    -0.000 C 
BRANCH  15  16
ATOM     16  C   UNL     1      31.987  43.996  44.101  1.00  0.00    -0.000 C 
BRANCH  16  17
ATOM     17  C   UNL     1      32.925  45.075  43.536  1.00  0.00    -0.003 C 
ATOM     18  C   UNL     1      34.346  44.910  44.081  1.00  0.00     0.004 C 
ENDBRANCH  16  17
ENDBRANCH  15  16
ENDBRANCH  14  15
ENDBRANCH  13  14
ENDBRANCH  12  13
ENDBRANCH  11  12
ENDBRANCH   1  11
TORSDOF 14
ENDMDL
MODEL 7
REMARK VINA RESULT:    -4.747      2.961      6.152
REMARK INTER + INTRA:         -10.762
REMARK INTER:                  -8.888
REMARK INTRA:                  -1.874
REMARK UNBOUND:                -2.129
REMARK SMILES CCCCCCCCCCCCCCCC(=O)[O-]
REMARK SMILES IDX 9 1 10 2 11 3 12 4 13 5 14 6 15 7 16 8 17 9 18 10 8 11 7 12
REMARK SMILES IDX 6 13 5 14 4 15 3 16 2 17 1 18
REMARK H PARENT
REMARK Flexibility Score: inf
ROOT
ATOM      1  C   UNL     1      33.376  42.183  48.492  1.00  0.00     0.000 C 
ENDROOT
BRANCH   1   2
ATOM      2  C   UNL     1      32.619  43.396  49.060  1.00  0.00     0.000 C 
BRANCH   2   3
ATOM      3  C   UNL     1      32.498  43.357  50.592  1.00  0.00     0.000 C 
BRANCH   3   4
ATOM      4  C   UNL     1      33.849  43.116  51.287  1.00  0.00     0.000 C 
BRANCH   4   5
ATOM      5  C   UNL     1      34.803  44.311  51.168  1.00  0.00     0.000 C 
BRANCH   5   6
ATOM      6  C   UNL     1      36.281  43.897  51.158  1.00  0.00     0.006 C 
BRANCH   6   7
ATOM      7  C   UNL     1      36.533  42.697  50.235  1.00  0.00     0.053 C 
BRANCH   7   8
ATOM      8  C   UNL     1      37.997  42.489  49.976  1.00  0.00     0.041 C 
ATOM      9  O   UNL     1      38.856  43.032  50.723  1.00  0.00    -0.550 OA
ATOM     10  O   UNL     1      38.416  41.675  48.937  1.00  0.00    -0.550 OA
ENDBRANCH   7   8
ENDBRANCH   6   7
ENDBRANCH   5   6
ENDBRANCH   4   5
ENDBRANCH   3   4
ENDBRANCH   2   3
ENDBRANCH   1   2
BRANCH   1  11
ATOM     11  C   UNL     1      32.844  41.739  47.119  1.00  0.00     0.000 C 
BRANCH  11  12
ATOM     12  C   UNL     1      31.426  42.265  46.835  1.00  0.00    -0.000 C 
BRANCH  12  13
ATOM     13  C   UNL     1      31.376  43.187  45.597  1.00  0.00    -0.000 C 
BRANCH  13  14
ATOM     14  C   UNL     1      32.399  44.336  45.646  1.00  0.00    -0.000 C 
BRANCH  14  15
ATOM     15  C   UNL     1      33.293  44.461  44.398  1.00  0.00    -0.000 C 
BRANCH  15  16
ATOM     16  C   UNL     1      34.788  44.674  44.692  1.00  0.00    -0.000 C 
BRANCH  16  17
ATOM     17  C   UNL     1      35.131  44.538  46.184  1.00  0.00    -0.003 C 
ATOM     18  C   UNL     1      36.171  43.439  46.413  1.00  0.00     0.004 C 
ENDBRANCH  16  17
ENDBRANCH  15  16
ENDBRANCH  14  15
ENDBRANCH  13  14
ENDBRANCH  12  13
ENDBRANCH  11  12
ENDBRANCH   1  11
TORSDOF 14
ENDMDL
MODEL 8
REMARK VINA RESULT:    -4.736      1.026      2.421
REMARK INTER + INTRA:         -10.741
REMARK INTER:                  -8.810
REMARK INTRA:                  -1.931
REMARK UNBOUND:                -2.129
REMARK SMILES CCCCCCCCCCCCCCCC(=O)[O-]
REMARK SMILES IDX 9 1 10 2 11 3 12 4 13 5 14 6 15 7 16 8 17 9 18 10 8 11 7 12
REMARK SMILES IDX 6 13 5 14 4 15 3 16 2 17 1 18
REMARK H PARENT
REMARK Flexibility Score: inf
ROOT
ATOM      1  C   UNL     1      33.851  43.496  50.193  1.00  0.00     0.000 C 
ENDROOT
BRANCH   1   2
ATOM      2  C   UNL     1      32.960  43.478  48.939  1.00  0.00     0.000 C 
BRANCH   2   3
ATOM      3  C   UNL     1      32.662  42.054  48.443  1.00  0.00     0.000 C 
BRANCH   3   4
ATOM      4  C   UNL     1      32.710  41.939  46.909  1.00  0.00     0.000 C 
BRANCH   4   5
ATOM      5  C   UNL     1      31.323  42.027  46.260  1.00  0.00     0.000 C 
BRANCH   5   6
ATOM      6  C   UNL     1      31.162  43.259  45.360  1.00  0.00     0.006 C 
BRANCH   6   7
ATOM      7  C   UNL     1      32.430  44.125  45.342  1.00  0.00     0.053 C 
BRANCH   7   8
ATOM      8  C   UNL     1      32.845  44.480  43.944  1.00  0.00     0.041 C 
ATOM      9  O   UNL     1      32.145  44.110  42.961  1.00  0.00    -0.550 OA
ATOM     10  O   UNL     1      33.980  45.241  43.722  1.00  0.00    -0.550 OA
ENDBRANCH   7   8
ENDBRANCH   6   7
ENDBRANCH   5   6
ENDBRANCH   4   5
ENDBRANCH   3   4
ENDBRANCH   2   3
ENDBRANCH   1   2
BRANCH   1  11
ATOM     11  C   UNL     1      35.052  44.447  50.056  1.00  0.00     0.000 C 
BRANCH  11  12
ATOM     12  C   UNL     1      36.180  44.123  51.051  1.00  0.00    -0.000 C 
BRANCH  12  13
ATOM     13  C   UNL     1      36.679  42.666  50.924  1.00  0.00    -0.000 C 
BRANCH  13  14
ATOM     14  C   UNL     1      38.005  42.538  50.153  1.00  0.00    -0.000 C 
BRANCH  14  15
ATOM     15  C   UNL     1      37.919  41.727  48.848  1.00  0.00    -0.000 C 
BRANCH  15  16
ATOM     16  C   UNL     1      37.709  42.567  47.576  1.00  0.00    -0.000 C 
BRANCH  16  17
ATOM     17  C   UNL     1      36.249  42.568  47.093  1.00  0.00    -0.003 C 
ATOM     18  C   UNL     1      35.888  43.901  46.433  1.00  0.00     0.004 C 
ENDBRANCH  16  17
ENDBRANCH  15  16
ENDBRANCH  14  15
ENDBRANCH  13  14
ENDBRANCH  12  13
ENDBRANCH  11  12
ENDBRANCH   1  11
TORSDOF 14
ENDMDL
MODEL 9
REMARK VINA RESULT:    -4.729      2.045      3.136
REMARK INTER + INTRA:         -10.728
REMARK INTER:                  -9.175
REMARK INTRA:                  -1.553
REMARK UNBOUND:                -2.129
REMARK SMILES CCCCCCCCCCCCCCCC(=O)[O-]
REMARK SMILES IDX 9 1 10 2 11 3 12 4 13 5 14 6 15 7 16 8 17 9 18 10 8 11 7 12
REMARK SMILES IDX 6 13 5 14 4 15 3 16 2 17 1 18
REMARK H PARENT
REMARK Flexibility Score: inf
ROOT
ATOM      1  C   UNL     1      31.884  43.363  48.858  1.00  0.00     0.000 C 
ENDROOT
BRANCH   1   2
ATOM      2  C   UNL     1      31.941  44.475  47.796  1.00  0.00     0.000 C 
BRANCH   2   3
ATOM      3  C   UNL     1      31.273  44.068  46.473  1.00  0.00     0.000 C 
BRANCH   3   4
ATOM      4  C   UNL     1      32.278  43.519  45.446  1.00  0.00     0.000 C 
BRANCH   4   5
ATOM      5  C   UNL     1      33.036  44.625  44.702  1.00  0.00     0.000 C 
BRANCH   5   6
ATOM      6  C   UNL     1      34.557  44.419  44.713  1.00  0.00     0.006 C 
BRANCH   6   7
ATOM      7  C   UNL     1      35.135  44.498  46.133  1.00  0.00     0.053 C 
BRANCH   7   8
ATOM      8  C   UNL     1      35.709  43.184  46.576  1.00  0.00     0.041 C 
ATOM      9  O   UNL     1      34.979  42.339  47.163  1.00  0.00    -0.550 OA
ATOM     10  O   UNL     1      37.034  42.875  46.317  1.00  0.00    -0.550 OA
ENDBRANCH   7   8
ENDBRANCH   6   7
ENDBRANCH   5   6
ENDBRANCH   4   5
ENDBRANCH   3   4
ENDBRANCH   2   3
ENDBRANCH   1   2
BRANCH   1  11
ATOM     11  C   UNL     1      33.078  43.404  49.827  1.00  0.00     0.000 C 
BRANCH  11  12
ATOM     12  C   UNL     1      33.958  44.650  49.630  1.00  0.00    -0.000 C 
BRANCH  12  13
ATOM     13  C   UNL     1      35.395  44.448  50.160  1.00  0.00    -0.000 C 
BRANCH  13  14
ATOM     14  C   UNL     1      35.648  43.037  50.721  1.00  0.00    -0.000 C 
BRANCH  14  15
ATOM     15  C   UNL     1      37.132  42.650  50.854  1.00  0.00    -0.000 C 
BRANCH  15  16
ATOM     16  C   UNL     1      37.821  42.263  49.533  1.00  0.00    -0.000 C 
BRANCH  16  17
ATOM     17  C   UNL     1      39.033  41.340  49.738  1.00  0.00    -0.003 C 
ATOM     18  C   UNL     1      39.396  41.228  51.220  1.00  0.00     0.004 C 
ENDBRANCH  16  17
ENDBRANCH  15  16
ENDBRANCH  14  15
ENDBRANCH  13  14
ENDBRANCH  12  13
ENDBRANCH  11  12
ENDBRANCH   1  11
TORSDOF 14
ENDMDL
