MODEL 1
REMARK VINA RESULT:    -4.990      0.000      0.000
REMARK INTER + INTRA:         -10.916
REMARK INTER:                  -9.365
REMARK INTRA:                  -1.551
REMARK UNBOUND:                -1.551
REMARK SMILES CCCCCCCCC=CCCCCCCCC(=O)[O-]
REMARK SMILES IDX 10 1 9 2 11 3 12 4 13 5 14 6 15 7 16 8 17 9 18 10 19 11
REMARK SMILES IDX 20 12 8 13 7 14 6 15 5 16 4 17 3 18 2 19 1 20
REMARK H PARENT
REMARK Flexibility Score: inf
ROOT
ATOM      1  C   UNL     1      23.850  46.020  37.879  1.00  0.00    -0.031 C 
ATOM      2  C   UNL     1      24.240  45.002  37.097  1.00  0.00    -0.031 C 
ENDROOT
BRANCH   1   3
ATOM      3  C   UNL     1      23.874  45.887  39.377  1.00  0.00     0.027 C 
BRANCH   3   4
ATOM      4  C   UNL     1      23.591  47.233  40.060  1.00  0.00     0.004 C 
BRANCH   4   5
ATOM      5  C   UNL     1      22.390  47.967  39.433  1.00  0.00     0.000 C 
BRANCH   5   6
ATOM      6  C   UNL     1      21.393  48.537  40.461  1.00  0.00     0.000 C 
BRANCH   6   7
ATOM      7  C   UNL     1      21.936  48.594  41.903  1.00  0.00     0.000 C 
BRANCH   7   8
ATOM      8  C   UNL     1      21.963  50.027  42.464  1.00  0.00     0.006 C 
BRANCH   8   9
ATOM      9  C   UNL     1      23.379  50.476  42.846  1.00  0.00     0.053 C 
BRANCH   9  10
ATOM     10  C   UNL     1      24.270  50.578  41.646  1.00  0.00     0.041 C 
ATOM     11  O   UNL     1      23.943  51.311  40.675  1.00  0.00    -0.550 OA
ATOM     12  O   UNL     1      25.444  49.839  41.584  1.00  0.00    -0.550 OA
ENDBRANCH   9  10
ENDBRANCH   8   9
ENDBRANCH   7   8
ENDBRANCH   6   7
ENDBRANCH   5   6
ENDBRANCH   4   5
ENDBRANCH   3   4
ENDBRANCH   1   3
BRANCH   2  13
ATOM     13  C   UNL     1      24.248  45.118  35.598  1.00  0.00     0.027 C 
BRANCH  13  14
ATOM     14  C   UNL     1      23.006  45.860  35.091  1.00  0.00     0.004 C 
BRANCH  14  15
ATOM     15  C   UNL     1      22.945  45.847  33.559  1.00  0.00     0.000 C 
BRANCH  15  16
ATOM     16  C   UNL     1      24.270  45.360  32.960  1.00  0.00     0.000 C 
BRANCH  16  17
ATOM     17  C   UNL     1      24.988  46.492  32.215  1.00  0.00    -0.000 C 
BRANCH  17  18
ATOM     18  C   UNL     1      25.958  47.233  33.145  1.00  0.00    -0.000 C 
BRANCH  18  19
ATOM     19  C   UNL     1      25.497  48.665  33.461  1.00  0.00    -0.003 C 
ATOM     20  C   UNL     1      24.848  49.354  32.262  1.00  0.00     0.004 C 
ENDBRANCH  18  19
ENDBRANCH  17  18
ENDBRANCH  16  17
ENDBRANCH  15  16
ENDBRANCH  14  15
ENDBRANCH  13  14
ENDBRANCH   2  13
TORSDOF 15
ENDMDL
MODEL 2
REMARK VINA RESULT:    -4.982      1.416      2.814
REMARK INTER + INTRA:         -10.901
REMARK INTER:                  -8.985
REMARK INTRA:                  -1.916
REMARK UNBOUND:                -1.551
REMARK SMILES CCCCCCCCC=CCCCCCCCC(=O)[O-]
REMARK SMILES IDX 10 1 9 2 11 3 12 4 13 5 14 6 15 7 16 8 17 9 18 10 19 11
REMARK SMILES IDX 20 12 8 13 7 14 6 15 5 16 4 17 3 18 2 19 1 20
REMARK H PARENT
REMARK Flexibility Score: inf
ROOT
ATOM      1  C   UNL     1      24.300  45.250  35.528  1.00  0.00    -0.031 C 
ATOM      2  C   UNL     1      23.203  45.472  34.789  1.00  0.00    -0.031 C 
ENDROOT
BRANCH   1   3
ATOM      3  C   UNL     1      24.186  44.941  36.996  1.00  0.00     0.027 C 
BRANCH   3   4
ATOM      4  C   UNL     1      23.628  46.140  37.776  1.00  0.00     0.004 C 
BRANCH   4   5
ATOM      5  C   UNL     1      24.021  46.104  39.266  1.00  0.00     0.000 C 
BRANCH   5   6
ATOM      6  C   UNL     1      23.448  47.269  40.096  1.00  0.00     0.000 C 
BRANCH   6   7
ATOM      7  C   UNL     1      22.318  48.050  39.395  1.00  0.00     0.000 C 
BRANCH   7   8
ATOM      8  C   UNL     1      21.326  48.671  40.394  1.00  0.00     0.006 C 
BRANCH   8   9
ATOM      9  C   UNL     1      21.840  48.609  41.838  1.00  0.00     0.053 C 
BRANCH   9  10
ATOM     10  C   UNL     1      22.196  49.968  42.358  1.00  0.00     0.041 C 
ATOM     11  O   UNL     1      21.833  50.320  43.512  1.00  0.00    -0.550 OA
ATOM     12  O   UNL     1      22.899  50.859  41.556  1.00  0.00    -0.550 OA
ENDBRANCH   9  10
ENDBRANCH   8   9
ENDBRANCH   7   8
ENDBRANCH   6   7
ENDBRANCH   5   6
ENDBRANCH   4   5
ENDBRANCH   3   4
ENDBRANCH   1   3
BRANCH   2  13
ATOM     13  C   UNL     1      23.290  45.759  33.315  1.00  0.00     0.027 C 
BRANCH  13  14
ATOM     14  C   UNL     1      24.722  45.580  32.798  1.00  0.00     0.004 C 
BRANCH  14  15
ATOM     15  C   UNL     1      25.292  46.909  32.288  1.00  0.00     0.000 C 
BRANCH  15  16
ATOM     16  C   UNL     1      25.932  47.708  33.430  1.00  0.00     0.000 C 
BRANCH  16  17
ATOM     17  C   UNL     1      25.531  49.187  33.360  1.00  0.00    -0.000 C 
BRANCH  17  18
ATOM     18  C   UNL     1      24.122  49.401  33.931  1.00  0.00    -0.000 C 
BRANCH  18  19
ATOM     19  C   UNL     1      23.988  48.901  35.378  1.00  0.00    -0.003 C 
ATOM     20  C   UNL     1      23.530  49.995  36.341  1.00  0.00     0.004 C 
ENDBRANCH  18  19
ENDBRANCH  17  18
ENDBRANCH  16  17
ENDBRANCH  15  16
ENDBRANCH  14  15
ENDBRANCH  13  14
ENDBRANCH   2  13
TORSDOF 15
ENDMDL
MODEL 3
REMARK VINA RESULT:    -4.933      1.635      3.754
REMARK INTER + INTRA:         -10.810
REMARK INTER:                  -8.572
REMARK INTRA:                  -2.237
REMARK UNBOUND:                -1.551
REMARK SMILES CCCCCCCCC=CCCCCCCCC(=O)[O-]
REMARK SMILES IDX 10 1 9 2 11 3 12 4 13 5 14 6 15 7 16 8 17 9 18 10 19 11
REMARK SMILES IDX 20 12 8 13 7 14 6 15 5 16 4 17 3 18 2 19 1 20
REMARK H PARENT
REMARK Flexibility Score: inf
ROOT
ATOM      1  C   UNL     1      23.328  49.447  34.249  1.00  0.00    -0.031 C 
ATOM      2  C   UNL     1      24.584  48.977  34.268  1.00  0.00    -0.031 C 
ENDROOT
BRANCH   1   3
ATOM      3  C   UNL     1      22.575  49.674  35.532  1.00  0.00     0.027 C 
BRANCH   3   4
ATOM      4  C   UNL     1      23.497  49.532  36.751  1.00  0.00     0.004 C 
BRANCH   4   5
ATOM      5  C   UNL     1      22.872  48.662  37.860  1.00  0.00     0.000 C 
BRANCH   5   6
ATOM      6  C   UNL     1      23.897  48.062  38.842  1.00  0.00     0.000 C 
BRANCH   6   7
ATOM      7  C   UNL     1      23.305  47.660  40.208  1.00  0.00     0.000 C 
BRANCH   7   8
ATOM      8  C   UNL     1      21.971  48.369  40.501  1.00  0.00     0.006 C 
BRANCH   8   9
ATOM      9  C   UNL     1      21.799  48.692  41.991  1.00  0.00     0.053 C 
BRANCH   9  10
ATOM     10  C   UNL     1      22.180  50.108  42.298  1.00  0.00     0.041 C 
ATOM     11  O   UNL     1      22.227  50.507  43.492  1.00  0.00    -0.550 OA
ATOM     12  O   UNL     1      22.450  50.997  41.266  1.00  0.00    -0.550 OA
ENDBRANCH   9  10
ENDBRANCH   8   9
ENDBRANCH   7   8
ENDBRANCH   6   7
ENDBRANCH   5   6
ENDBRANCH   4   5
ENDBRANCH   3   4
ENDBRANCH   1   3
BRANCH   2  13
ATOM     13  C   UNL     1      25.365  48.765  33.000  1.00  0.00     0.027 C 
BRANCH  13  14
ATOM     14  C   UNL     1      25.810  47.304  32.860  1.00  0.00     0.004 C 
BRANCH  14  15
ATOM     15  C   UNL     1      24.715  46.458  32.200  1.00  0.00     0.000 C 
BRANCH  15  16
ATOM     16  C   UNL     1      24.308  45.286  33.101  1.00  0.00     0.000 C 
BRANCH  16  17
ATOM     17  C   UNL     1      22.908  45.505  33.690  1.00  0.00    -0.000 C 
BRANCH  17  18
ATOM     18  C   UNL     1      22.986  45.815  35.191  1.00  0.00    -0.000 C 
BRANCH  18  19
ATOM     19  C   UNL     1      24.321  45.381  35.815  1.00  0.00    -0.003 C 
ATOM     20  C   UNL     1      24.153  44.776  37.209  1.00  0.00     0.004 C 
ENDBRANCH  18  19
ENDBRANCH  17  18
ENDBRANCH  16  17
ENDBRANCH  15  16
ENDBRANCH  14  15
ENDBRANCH  13  14
ENDBRANCH   2  13
TORSDOF 15
ENDMDL
MODEL 4
REMARK VINA RESULT:    -4.872      2.560      8.192
REMARK INTER + INTRA:         -10.695
REMARK INTER:                  -9.304
REMARK INTRA:                  -1.391
REMARK UNBOUND:                -1.551
REMARK SMILES CCCCCCCCC=CCCCCCCCC(=O)[O-]
REMARK SMILES IDX 10 1 9 2 11 3 12 4 13 5 14 6 15 7 16 8 17 9 18 10 19 11
REMARK SMILES IDX 20 12 8 13 7 14 6 15 5 16 4 17 3 18 2 19 1 20
REMARK H PARENT
REMARK Flexibility Score: inf
ROOT
ATOM      1  C   UNL     1      23.490  46.057  38.069  1.00  0.00    -0.031 C 
ATOM      2  C   UNL     1      24.128  46.557  39.138  1.00  0.00    -0.031 C 
ENDROOT
BRANCH   1   3
ATOM      3  C   UNL     1      24.092  44.927  37.278  1.00  0.00     0.027 C 
BRANCH   3   4
ATOM      4  C   UNL     1      24.280  45.318  35.804  1.00  0.00     0.004 C 
BRANCH   4   5
ATOM      5  C   UNL     1      22.956  45.740  35.137  1.00  0.00     0.000 C 
BRANCH   5   6
ATOM      6  C   UNL     1      22.974  45.661  33.598  1.00  0.00     0.000 C 
BRANCH   6   7
ATOM      7  C   UNL     1      24.338  45.260  33.001  1.00  0.00     0.000 C 
BRANCH   7   8
ATOM      8  C   UNL     1      24.988  46.404  32.202  1.00  0.00     0.006 C 
BRANCH   8   9
ATOM      9  C   UNL     1      25.807  47.344  33.096  1.00  0.00     0.053 C 
BRANCH   9  10
ATOM     10  C   UNL     1      25.215  48.719  33.144  1.00  0.00     0.041 C 
ATOM     11  O   UNL     1      25.887  49.683  33.598  1.00  0.00    -0.550 OA
ATOM     12  O   UNL     1      23.909  48.931  32.720  1.00  0.00    -0.550 OA
ENDBRANCH   9  10
ENDBRANCH   8   9
ENDBRANCH   7   8
ENDBRANCH   6   7
ENDBRANCH   5   6
ENDBRANCH   4   5
ENDBRANCH   3   4
ENDBRANCH   1   3
BRANCH   2  13
ATOM     13  C   UNL     1      23.536  47.669  39.960  1.00  0.00     0.027 C 
BRANCH  13  14
ATOM     14  C   UNL     1      22.335  48.306  39.249  1.00  0.00     0.004 C 
BRANCH  14  15
ATOM     15  C   UNL     1      21.161  48.492  40.217  1.00  0.00     0.000 C 
BRANCH  15  16
ATOM     16  C   UNL     1      21.644  48.508  41.672  1.00  0.00     0.000 C 
BRANCH  16  17
ATOM     17  C   UNL     1      20.935  49.605  42.477  1.00  0.00    -0.000 C 
BRANCH  17  18
ATOM     18  C   UNL     1      21.951  50.569  43.104  1.00  0.00    -0.000 C 
BRANCH  18  19
ATOM     19  C   UNL     1      23.401  50.231  42.721  1.00  0.00    -0.003 C 
ATOM     20  C   UNL     1      24.425  51.051  43.504  1.00  0.00     0.004 C 
ENDBRANCH  18  19
ENDBRANCH  17  18
ENDBRANCH  16  17
ENDBRANCH  15  16
ENDBRANCH  14  15
ENDBRANCH  13  14
ENDBRANCH   2  13
TORSDOF 15
ENDMDL
MODEL 5
REMARK VINA RESULT:    -4.823      1.790      3.120
REMARK INTER + INTRA:         -10.603
REMARK INTER:                  -8.462
REMARK INTRA:                  -2.141
REMARK UNBOUND:                -1.551
REMARK SMILES CCCCCCCCC=CCCCCCCCC(=O)[O-]
REMARK SMILES IDX 10 1 9 2 11 3 12 4 13 5 14 6 15 7 16 8 17 9 18 10 19 11
REMARK SMILES IDX 20 12 8 13 7 14 6 15 5 16 4 17 3 18 2 19 1 20
REMARK H PARENT
REMARK Flexibility Score: inf
ROOT
ATOM      1  C   UNL     1      24.428  44.990  35.541  1.00  0.00    -0.031 C 
ATOM      2  C   UNL     1      24.006  45.696  34.481  1.00  0.00    -0.031 C 
ENDROOT
BRANCH   1   3
ATOM      3  C   UNL     1      23.988  45.358  36.931  1.00  0.00     0.027 C 
BRANCH   3   4
ATOM      4  C   UNL     1      23.650  46.852  37.032  1.00  0.00     0.004 C 
BRANCH   4   5
ATOM      5  C   UNL     1      22.306  47.102  37.744  1.00  0.00     0.000 C 
BRANCH   5   6
ATOM      6  C   UNL     1      22.279  48.379  38.607  1.00  0.00     0.000 C 
BRANCH   6   7
ATOM      7  C   UNL     1      23.672  48.958  38.924  1.00  0.00     0.000 C 
BRANCH   7   8
ATOM      8  C   UNL     1      24.021  48.863  40.420  1.00  0.00     0.006 C 
BRANCH   8   9
ATOM      9  C   UNL     1      23.463  50.046  41.222  1.00  0.00     0.053 C 
BRANCH   9  10
ATOM     10  C   UNL     1      22.484  49.598  42.263  1.00  0.00     0.041 C 
ATOM     11  O   UNL     1      21.868  48.507  42.125  1.00  0.00    -0.550 OA
ATOM     12  O   UNL     1      22.225  50.399  43.368  1.00  0.00    -0.550 OA
ENDBRANCH   9  10
ENDBRANCH   8   9
ENDBRANCH   7   8
ENDBRANCH   6   7
ENDBRANCH   5   6
ENDBRANCH   4   5
ENDBRANCH   3   4
ENDBRANCH   1   3
BRANCH   2  13
ATOM     13  C   UNL     1      24.412  45.333  33.080  1.00  0.00     0.027 C 
BRANCH  13  14
ATOM     14  C   UNL     1      25.067  46.522  32.366  1.00  0.00     0.004 C 
BRANCH  14  15
ATOM     15  C   UNL     1      25.802  47.425  33.364  1.00  0.00     0.000 C 
BRANCH  15  16
ATOM     16  C   UNL     1      25.435  48.898  33.146  1.00  0.00     0.000 C 
BRANCH  16  17
ATOM     17  C   UNL     1      24.430  49.377  34.202  1.00  0.00    -0.000 C 
BRANCH  17  18
ATOM     18  C   UNL     1      23.027  49.526  33.597  1.00  0.00    -0.000 C 
BRANCH  18  19
ATOM     19  C   UNL     1      21.986  48.637  34.295  1.00  0.00    -0.003 C 
ATOM     20  C   UNL     1      21.194  47.773  33.314  1.00  0.00     0.004 C 
ENDBRANCH  18  19
ENDBRANCH  17  18
ENDBRANCH  16  17
ENDBRANCH  15  16
ENDBRANCH  14  15
ENDBRANCH  13  14
ENDBRANCH   2  13
TORSDOF 15
ENDMDL
MODEL 6
REMARK VINA RESULT:    -4.815      2.280      7.719
REMARK INTER + INTRA:         -10.588
REMARK INTER:                  -8.925
REMARK INTRA:                  -1.663
REMARK UNBOUND:                -1.551
REMARK SMILES CCCCCCCCC=CCCCCCCCC(=O)[O-]
REMARK SMILES IDX 10 1 9 2 11 3 12 4 13 5 14 6 15 7 16 8 17 9 18 10 19 11
REMARK SMILES IDX 20 12 8 13 7 14 6 15 5 16 4 17 3 18 2 19 1 20
REMARK H PARENT
REMARK Flexibility Score: inf
ROOT
ATOM      1  C   UNL     1      24.204  45.013  37.101  1.00  0.00    -0.031 C 
ATOM      2  C   UNL     1      23.871  46.025  37.916  1.00  0.00    -0.031 C 
ENDROOT
BRANCH   1   3
ATOM      3  C   UNL     1      24.277  45.220  35.613  1.00  0.00     0.027 C 
BRANCH   3   4
ATOM      4  C   UNL     1      22.892  45.522  35.024  1.00  0.00     0.004 C 
BRANCH   4   5
ATOM      5  C   UNL     1      22.907  45.561  33.483  1.00  0.00     0.000 C 
BRANCH   5   6
ATOM      6  C   UNL     1      24.293  45.300  32.860  1.00  0.00     0.000 C 
BRANCH   6   7
ATOM      7  C   UNL     1      24.919  46.530  32.174  1.00  0.00     0.000 C 
BRANCH   7   8
ATOM      8  C   UNL     1      25.854  47.313  33.112  1.00  0.00     0.006 C 
BRANCH   8   9
ATOM      9  C   UNL     1      25.451  48.789  33.235  1.00  0.00     0.053 C 
BRANCH   9  10
ATOM     10  C   UNL     1      24.152  48.949  33.964  1.00  0.00     0.041 C 
ATOM     11  O   UNL     1      23.105  49.254  33.333  1.00  0.00    -0.550 OA
ATOM     12  O   UNL     1      24.104  48.796  35.343  1.00  0.00    -0.550 OA
ENDBRANCH   9  10
ENDBRANCH   8   9
ENDBRANCH   7   8
ENDBRANCH   6   7
ENDBRANCH   5   6
ENDBRANCH   4   5
ENDBRANCH   3   4
ENDBRANCH   1   3
BRANCH   2  13
ATOM     13  C   UNL     1      23.814  45.850  39.408  1.00  0.00     0.027 C 
BRANCH  13  14
ATOM     14  C   UNL     1      23.510  47.178  40.112  1.00  0.00     0.004 C 
BRANCH  14  15
ATOM     15  C   UNL     1      23.687  48.361  39.154  1.00  0.00     0.000 C 
BRANCH  15  16
ATOM     16  C   UNL     1      22.478  49.303  39.213  1.00  0.00     0.000 C 
BRANCH  16  17
ATOM     17  C   UNL     1      21.422  48.783  40.196  1.00  0.00    -0.000 C 
BRANCH  17  18
ATOM     18  C   UNL     1      21.124  49.825  41.283  1.00  0.00    -0.000 C 
BRANCH  18  19
ATOM     19  C   UNL     1      22.238  49.914  42.338  1.00  0.00    -0.003 C 
ATOM     20  C   UNL     1      21.809  50.681  43.588  1.00  0.00     0.004 C 
ENDBRANCH  18  19
ENDBRANCH  17  18
ENDBRANCH  16  17
ENDBRANCH  15  16
ENDBRANCH  14  15
ENDBRANCH  13  14
ENDBRANCH   2  13
TORSDOF 15
ENDMDL
MODEL 7
REMARK VINA RESULT:    -4.764      2.274      7.250
REMARK INTER + INTRA:         -10.493
REMARK INTER:                  -8.649
REMARK INTRA:                  -1.844
REMARK UNBOUND:                -1.551
REMARK SMILES CCCCCCCCC=CCCCCCCCC(=O)[O-]
REMARK SMILES IDX 10 1 9 2 11 3 12 4 13 5 14 6 15 7 16 8 17 9 18 10 19 11
REMARK SMILES IDX 20 12 8 13 7 14 6 15 5 16 4 17 3 18 2 19 1 20
REMARK H PARENT
REMARK Flexibility Score: inf
ROOT
ATOM      1  C   UNL     1      23.121  45.403  34.948  1.00  0.00    -0.031 C 
ATOM      2  C   UNL     1      24.243  45.200  35.654  1.00  0.00    -0.031 C 
ENDROOT
BRANCH   1   3
ATOM      3  C   UNL     1      23.166  45.494  33.446  1.00  0.00     0.027 C 
BRANCH   3   4
ATOM      4  C   UNL     1      24.602  45.352  32.923  1.00  0.00     0.004 C 
BRANCH   4   5
ATOM      5  C   UNL     1      25.133  46.661  32.305  1.00  0.00     0.000 C 
BRANCH   5   6
ATOM      6  C   UNL     1      25.993  47.506  33.265  1.00  0.00     0.000 C 
BRANCH   6   7
ATOM      7  C   UNL     1      25.438  48.919  33.535  1.00  0.00     0.000 C 
BRANCH   7   8
ATOM      8  C   UNL     1      23.922  48.912  33.800  1.00  0.00     0.006 C 
BRANCH   8   9
ATOM      9  C   UNL     1      23.591  49.059  35.291  1.00  0.00     0.053 C 
BRANCH   9  10
ATOM     10  C   UNL     1      22.129  48.868  35.556  1.00  0.00     0.041 C 
ATOM     11  O   UNL     1      21.367  48.460  34.639  1.00  0.00    -0.550 OA
ATOM     12  O   UNL     1      21.601  49.173  36.804  1.00  0.00    -0.550 OA
ENDBRANCH   9  10
ENDBRANCH   8   9
ENDBRANCH   7   8
ENDBRANCH   6   7
ENDBRANCH   5   6
ENDBRANCH   4   5
ENDBRANCH   3   4
ENDBRANCH   1   3
BRANCH   2  13
ATOM     13  C   UNL     1      24.220  45.082  37.153  1.00  0.00     0.027 C 
BRANCH  13  14
ATOM     14  C   UNL     1      23.301  46.137  37.780  1.00  0.00     0.004 C 
BRANCH  14  15
ATOM     15  C   UNL     1      23.820  46.569  39.156  1.00  0.00     0.000 C 
BRANCH  15  16
ATOM     16  C   UNL     1      23.177  47.889  39.597  1.00  0.00     0.000 C 
BRANCH  16  17
ATOM     17  C   UNL     1      24.143  48.712  40.459  1.00  0.00    -0.000 C 
BRANCH  17  18
ATOM     18  C   UNL     1      23.381  49.735  41.314  1.00  0.00    -0.000 C 
BRANCH  18  19
ATOM     19  C   UNL     1      22.160  49.123  42.019  1.00  0.00    -0.003 C 
ATOM     20  C   UNL     1      21.489  50.095  42.989  1.00  0.00     0.004 C 
ENDBRANCH  18  19
ENDBRANCH  17  18
ENDBRANCH  16  17
ENDBRANCH  15  16
ENDBRANCH  14  15
ENDBRANCH  13  14
ENDBRANCH   2  13
TORSDOF 15
ENDMDL
MODEL 8
REMARK VINA RESULT:    -4.753      1.688      2.108
REMARK INTER + INTRA:         -10.471
REMARK INTER:                  -8.669
REMARK INTRA:                  -1.802
REMARK UNBOUND:                -1.551
REMARK SMILES CCCCCCCCC=CCCCCCCCC(=O)[O-]
REMARK SMILES IDX 10 1 9 2 11 3 12 4 13 5 14 6 15 7 16 8 17 9 18 10 19 11
REMARK SMILES IDX 20 12 8 13 7 14 6 15 5 16 4 17 3 18 2 19 1 20
REMARK H PARENT
REMARK Flexibility Score: inf
ROOT
ATOM      1  C   UNL     1      23.636  46.523  37.149  1.00  0.00    -0.031 C 
ATOM      2  C   UNL     1      24.187  45.343  36.828  1.00  0.00    -0.031 C 
ENDROOT
BRANCH   1   3
ATOM      3  C   UNL     1      23.220  46.814  38.566  1.00  0.00     0.027 C 
BRANCH   3   4
ATOM      4  C   UNL     1      21.942  47.664  38.608  1.00  0.00     0.004 C 
BRANCH   4   5
ATOM      5  C   UNL     1      22.097  48.992  37.840  1.00  0.00     0.000 C 
BRANCH   5   6
ATOM      6  C   UNL     1      23.282  49.857  38.312  1.00  0.00     0.000 C 
BRANCH   6   7
ATOM      7  C   UNL     1      23.092  50.482  39.708  1.00  0.00     0.000 C 
BRANCH   7   8
ATOM      8  C   UNL     1      23.973  49.811  40.777  1.00  0.00     0.006 C 
BRANCH   8   9
ATOM      9  C   UNL     1      23.539  50.179  42.202  1.00  0.00     0.053 C 
BRANCH   9  10
ATOM     10  C   UNL     1      22.164  49.670  42.512  1.00  0.00     0.041 C 
ATOM     11  O   UNL     1      21.367  50.373  43.188  1.00  0.00    -0.550 OA
ATOM     12  O   UNL     1      21.776  48.407  42.084  1.00  0.00    -0.550 OA
ENDBRANCH   9  10
ENDBRANCH   8   9
ENDBRANCH   7   8
ENDBRANCH   6   7
ENDBRANCH   5   6
ENDBRANCH   4   5
ENDBRANCH   3   4
ENDBRANCH   1   3
BRANCH   2  13
ATOM     13  C   UNL     1      24.633  45.037  35.425  1.00  0.00     0.027 C 
BRANCH  13  14
ATOM     14  C   UNL     1      23.591  45.497  34.398  1.00  0.00     0.004 C 
BRANCH  14  15
ATOM     15  C   UNL     1      24.078  45.237  32.968  1.00  0.00     0.000 C 
BRANCH  15  16
ATOM     16  C   UNL     1      24.269  46.553  32.204  1.00  0.00     0.000 C 
BRANCH  16  17
ATOM     17  C   UNL     1      25.720  47.041  32.303  1.00  0.00    -0.000 C 
BRANCH  17  18
ATOM     18  C   UNL     1      25.855  48.156  33.349  1.00  0.00    -0.000 C 
BRANCH  18  19
ATOM     19  C   UNL     1      24.664  49.127  33.334  1.00  0.00    -0.003 C 
ATOM     20  C   UNL     1      23.996  49.264  34.701  1.00  0.00     0.004 C 
ENDBRANCH  18  19
ENDBRANCH  17  18
ENDBRANCH  16  17
ENDBRANCH  15  16
ENDBRANCH  14  15
ENDBRANCH  13  14
ENDBRANCH   2  13
TORSDOF 15
ENDMDL
MODEL 9
REMARK VINA RESULT:    -4.693      3.129      4.593
REMARK INTER + INTRA:         -10.360
REMARK INTER:                  -7.902
REMARK INTRA:                  -2.458
REMARK UNBOUND:                -1.551
REMARK SMILES CCCCCCCCC=CCCCCCCCC(=O)[O-]
REMARK SMILES IDX 10 1 9 2 11 3 12 4 13 5 14 6 15 7 16 8 17 9 18 10 19 11
REMARK SMILES IDX 20 12 8 13 7 14 6 15 5 16 4 17 3 18 2 19 1 20
REMARK H PARENT
REMARK Flexibility Score: inf
ROOT
ATOM      1  C   UNL     1      23.977  46.918  38.821  1.00  0.00    -0.031 C 
ATOM      2  C   UNL     1      23.432  45.920  38.110  1.00  0.00    -0.031 C 
ENDROOT
BRANCH   1   3
ATOM      3  C   UNL     1      23.110  47.844  39.631  1.00  0.00     0.027 C 
BRANCH   3   4
ATOM      4  C   UNL     1      21.678  47.892  39.079  1.00  0.00     0.004 C 
BRANCH   4   5
ATOM      5  C   UNL     1      21.515  48.944  37.965  1.00  0.00     0.000 C 
BRANCH   5   6
ATOM      6  C   UNL     1      22.440  50.168  38.115  1.00  0.00     0.000 C 
BRANCH   6   7
ATOM      7  C   UNL     1      23.246  50.512  36.846  1.00  0.00     0.000 C 
BRANCH   7   8
ATOM      8  C   UNL     1      23.493  49.281  35.956  1.00  0.00     0.006 C 
BRANCH   8   9
ATOM      9  C   UNL     1      24.082  49.660  34.591  1.00  0.00     0.053 C 
BRANCH   9  10
ATOM     10  C   UNL     1      23.078  49.501  33.491  1.00  0.00     0.041 C 
ATOM     11  O   UNL     1      21.900  49.139  33.756  1.00  0.00    -0.550 OA
ATOM     12  O   UNL     1      23.450  49.717  32.171  1.00  0.00    -0.550 OA
ENDBRANCH   9  10
ENDBRANCH   8   9
ENDBRANCH   7   8
ENDBRANCH   6   7
ENDBRANCH   5   6
ENDBRANCH   4   5
ENDBRANCH   3   4
ENDBRANCH   1   3
BRANCH   2  13
ATOM     13  C   UNL     1      24.279  44.967  37.312  1.00  0.00     0.027 C 
BRANCH  13  14
ATOM     14  C   UNL     1      24.260  45.322  35.821  1.00  0.00     0.004 C 
BRANCH  14  15
ATOM     15  C   UNL     1      22.843  45.687  35.361  1.00  0.00     0.000 C 
BRANCH  15  16
ATOM     16  C   UNL     1      22.758  45.743  33.831  1.00  0.00     0.000 C 
BRANCH  16  17
ATOM     17  C   UNL     1      24.129  45.480  33.194  1.00  0.00    -0.000 C 
BRANCH  17  18
ATOM     18  C   UNL     1      24.316  46.325  31.926  1.00  0.00    -0.000 C 
BRANCH  18  19
ATOM     19  C   UNL     1      25.638  47.109  31.929  1.00  0.00    -0.003 C 
ATOM     20  C   UNL     1      26.151  47.397  33.340  1.00  0.00     0.004 C 
ENDBRANCH  18  19
ENDBRANCH  17  18
ENDBRANCH  16  17
ENDBRANCH  15  16
ENDBRANCH  14  15
ENDBRANCH  13  14
ENDBRANCH   2  13
TORSDOF 15
ENDMDL
