MODEL 1
REMARK VINA RESULT:    -3.913      0.000      0.000
REMARK INTER + INTRA:          -7.320
REMARK INTER:                  -6.201
REMARK INTRA:                  -1.119
REMARK UNBOUND:                -1.119
REMARK SMILES CCCCCCCCCCCC(=O)[O-]
REMARK SMILES IDX 7 1 8 2 9 3 10 4 11 5 12 6 13 7 14 8 6 9 5 10 4 11 3 12 2 13
REMARK SMILES IDX 1 14
REMARK H PARENT
REMARK Flexibility Score: inf
ROOT
ATOM      1  C   UNL     1       6.744  24.369 112.008  1.00  0.00     0.000 C 
ENDROOT
BRANCH   1   2
ATOM      2  C   UNL     1       5.252  24.021 112.045  1.00  0.00     0.000 C 
BRANCH   2   3
ATOM      3  C   UNL     1       4.470  25.032 112.893  1.00  0.00     0.000 C 
BRANCH   3   4
ATOM      4  C   UNL     1       3.225  25.533 112.147  1.00  0.00     0.006 C 
BRANCH   4   5
ATOM      5  C   UNL     1       3.543  25.965 110.710  1.00  0.00     0.053 C 
BRANCH   5   6
ATOM      6  C   UNL     1       3.721  27.448 110.601  1.00  0.00     0.041 C 
ATOM      7  O   UNL     1       3.346  28.056 109.565  1.00  0.00    -0.550 OA
ATOM      8  O   UNL     1       4.330  28.155 111.631  1.00  0.00    -0.550 OA
ENDBRANCH   5   6
ENDBRANCH   4   5
ENDBRANCH   3   4
ENDBRANCH   2   3
ENDBRANCH   1   2
BRANCH   1   9
ATOM      9  C   UNL     1       6.961  25.880 112.167  1.00  0.00     0.000 C 
BRANCH   9  10
ATOM     10  C   UNL     1       7.401  26.558 110.860  1.00  0.00    -0.000 C 
BRANCH  10  11
ATOM     11  C   UNL     1       7.263  25.636 109.638  1.00  0.00    -0.000 C 
BRANCH  11  12
ATOM     12  C   UNL     1       6.747  26.415 108.420  1.00  0.00    -0.000 C 
BRANCH  12  13
ATOM     13  C   UNL     1       7.484  26.042 107.124  1.00  0.00    -0.003 C 
ATOM     14  C   UNL     1       8.956  25.704 107.358  1.00  0.00     0.004 C 
ENDBRANCH  12  13
ENDBRANCH  11  12
ENDBRANCH  10  11
ENDBRANCH   9  10
ENDBRANCH   1   9
TORSDOF 10
ENDMDL
MODEL 2
REMARK VINA RESULT:    -3.853      1.295      2.291
REMARK INTER + INTRA:          -7.224
REMARK INTER:                  -6.116
REMARK INTRA:                  -1.109
REMARK UNBOUND:                -1.119
REMARK SMILES CCCCCCCCCCCC(=O)[O-]
REMARK SMILES IDX 7 1 8 2 9 3 10 4 11 5 12 6 13 7 14 8 6 9 5 10 4 11 3 12 2 13
REMARK SMILES IDX 1 14
REMARK H PARENT
REMARK Flexibility Score: inf
ROOT
ATOM      1  C   UNL     1       4.445  24.257 112.597  1.00  0.00     0.000 C 
ENDROOT
BRANCH   1   2
ATOM      2  C   UNL     1       3.747  25.573 112.237  1.00  0.00     0.000 C 
BRANCH   2   3
ATOM      3  C   UNL     1       3.396  25.622 110.745  1.00  0.00     0.000 C 
BRANCH   3   4
ATOM      4  C   UNL     1       3.686  27.010 110.155  1.00  0.00     0.006 C 
BRANCH   4   5
ATOM      5  C   UNL     1       3.295  28.142 111.113  1.00  0.00     0.053 C 
BRANCH   5   6
ATOM      6  C   UNL     1       2.407  29.150 110.451  1.00  0.00     0.041 C 
ATOM      7  O   UNL     1       2.810  30.329 110.273  1.00  0.00    -0.550 OA
ATOM      8  O   UNL     1       1.121  28.797 110.061  1.00  0.00    -0.550 OA
ENDBRANCH   5   6
ENDBRANCH   4   5
ENDBRANCH   3   4
ENDBRANCH   2   3
ENDBRANCH   1   2
BRANCH   1   9
ATOM      9  C   UNL     1       5.750  24.092 111.804  1.00  0.00     0.000 C 
BRANCH   9  10
ATOM     10  C   UNL     1       6.855  25.050 112.275  1.00  0.00    -0.000 C 
BRANCH  10  11
ATOM     11  C   UNL     1       7.896  25.337 111.182  1.00  0.00    -0.000 C 
BRANCH  11  12
ATOM     12  C   UNL     1       7.536  26.612 110.404  1.00  0.00    -0.000 C 
BRANCH  12  13
ATOM     13  C   UNL     1       7.042  26.315 108.979  1.00  0.00    -0.003 C 
ATOM     14  C   UNL     1       8.084  25.584 108.133  1.00  0.00     0.004 C 
ENDBRANCH  12  13
ENDBRANCH  11  12
ENDBRANCH  10  11
ENDBRANCH   9  10
ENDBRANCH   1   9
TORSDOF 10
ENDMDL
MODEL 3
REMARK VINA RESULT:    -3.682      1.944      4.836
REMARK INTER + INTRA:          -6.953
REMARK INTER:                  -6.293
REMARK INTRA:                  -0.660
REMARK UNBOUND:                -1.119
REMARK SMILES CCCCCCCCCCCC(=O)[O-]
REMARK SMILES IDX 7 1 8 2 9 3 10 4 11 5 12 6 13 7 14 8 6 9 5 10 4 11 3 12 2 13
REMARK SMILES IDX 1 14
REMARK H PARENT
REMARK Flexibility Score: inf
ROOT
ATOM      1  C   UNL     1       5.537  24.060 112.022  1.00  0.00     0.000 C 
ENDROOT
BRANCH   1   2
ATOM      2  C   UNL     1       6.784  24.241 111.148  1.00  0.00     0.000 C 
BRANCH   2   3
ATOM      3  C   UNL     1       7.589  25.472 111.583  1.00  0.00     0.000 C 
BRANCH   3   4
ATOM      4  C   UNL     1       7.700  26.491 110.439  1.00  0.00     0.006 C 
BRANCH   4   5
ATOM      5  C   UNL     1       7.910  25.816 109.078  1.00  0.00     0.053 C 
BRANCH   5   6
ATOM      6  C   UNL     1       6.931  26.307 108.056  1.00  0.00     0.041 C 
ATOM      7  O   UNL     1       7.242  26.317 106.836  1.00  0.00    -0.550 OA
ATOM      8  O   UNL     1       5.688  26.783 108.453  1.00  0.00    -0.550 OA
ENDBRANCH   5   6
ENDBRANCH   4   5
ENDBRANCH   3   4
ENDBRANCH   2   3
ENDBRANCH   1   2
BRANCH   1   9
ATOM      9  C   UNL     1       4.481  25.127 111.700  1.00  0.00     0.000 C 
BRANCH   9  10
ATOM     10  C   UNL     1       3.255  25.045 112.622  1.00  0.00    -0.000 C 
BRANCH  10  11
ATOM     11  C   UNL     1       2.093  25.931 112.146  1.00  0.00    -0.000 C 
BRANCH  11  12
ATOM     12  C   UNL     1       2.550  26.877 111.026  1.00  0.00    -0.000 C 
BRANCH  12  13
ATOM     13  C   UNL     1       2.029  28.311 111.215  1.00  0.00    -0.003 C 
ATOM     14  C   UNL     1       1.782  29.029 109.888  1.00  0.00     0.004 C 
ENDBRANCH  12  13
ENDBRANCH  11  12
ENDBRANCH  10  11
ENDBRANCH   9  10
ENDBRANCH   1   9
TORSDOF 10
ENDMDL
MODEL 4
REMARK VINA RESULT:    -3.677      3.126      5.678
REMARK INTER + INTRA:          -6.945
REMARK INTER:                  -5.874
REMARK INTRA:                  -1.072
REMARK UNBOUND:                -1.119
REMARK SMILES CCCCCCCCCCCC(=O)[O-]
REMARK SMILES IDX 7 1 8 2 9 3 10 4 11 5 12 6 13 7 14 8 6 9 5 10 4 11 3 12 2 13
REMARK SMILES IDX 1 14
REMARK H PARENT
REMARK Flexibility Score: inf
ROOT
ATOM      1  C   UNL     1       2.675  23.037 114.527  1.00  0.00     0.000 C 
ENDROOT
BRANCH   1   2
ATOM      2  C   UNL     1       3.738  22.599 113.512  1.00  0.00     0.000 C 
BRANCH   2   3
ATOM      3  C   UNL     1       4.813  23.678 113.339  1.00  0.00     0.000 C 
BRANCH   3   4
ATOM      4  C   UNL     1       5.327  23.717 111.893  1.00  0.00     0.006 C 
BRANCH   4   5
ATOM      5  C   UNL     1       6.343  24.844 111.667  1.00  0.00     0.053 C 
BRANCH   5   6
ATOM      6  C   UNL     1       7.369  24.897 112.757  1.00  0.00     0.041 C 
ATOM      7  O   UNL     1       8.267  24.018 112.824  1.00  0.00    -0.550 OA
ATOM      8  O   UNL     1       7.312  25.898 113.719  1.00  0.00    -0.550 OA
ENDBRANCH   5   6
ENDBRANCH   4   5
ENDBRANCH   3   4
ENDBRANCH   2   3
ENDBRANCH   1   2
BRANCH   1   9
ATOM      9  C   UNL     1       1.261  22.757 113.998  1.00  0.00     0.000 C 
BRANCH   9  10
ATOM     10  C   UNL     1       0.627  23.984 113.323  1.00  0.00    -0.000 C 
BRANCH  10  11
ATOM     11  C   UNL     1       1.136  25.311 113.906  1.00  0.00    -0.000 C 
BRANCH  11  12
ATOM     12  C   UNL     1       1.380  26.340 112.792  1.00  0.00    -0.000 C 
BRANCH  12  13
ATOM     13  C   UNL     1       2.424  25.866 111.768  1.00  0.00    -0.003 C 
ATOM     14  C   UNL     1       2.770  26.940 110.737  1.00  0.00     0.004 C 
ENDBRANCH  12  13
ENDBRANCH  11  12
ENDBRANCH  10  11
ENDBRANCH   9  10
ENDBRANCH   1   9
TORSDOF 10
ENDMDL
MODEL 5
REMARK VINA RESULT:    -3.639      2.919      5.650
REMARK INTER + INTRA:          -6.885
REMARK INTER:                  -5.371
REMARK INTRA:                  -1.515
REMARK UNBOUND:                -1.119
REMARK SMILES CCCCCCCCCCCC(=O)[O-]
REMARK SMILES IDX 7 1 8 2 9 3 10 4 11 5 12 6 13 7 14 8 6 9 5 10 4 11 3 12 2 13
REMARK SMILES IDX 1 14
REMARK H PARENT
REMARK Flexibility Score: inf
ROOT
ATOM      1  C   UNL     1       4.483  23.223 113.638  1.00  0.00     0.000 C 
ENDROOT
BRANCH   1   2
ATOM      2  C   UNL     1       4.148  24.652 114.081  1.00  0.00     0.000 C 
BRANCH   2   3
ATOM      3  C   UNL     1       4.408  25.656 112.951  1.00  0.00     0.000 C 
BRANCH   3   4
ATOM      4  C   UNL     1       4.135  25.024 111.578  1.00  0.00     0.006 C 
BRANCH   4   5
ATOM      5  C   UNL     1       3.169  25.863 110.733  1.00  0.00     0.053 C 
BRANCH   5   6
ATOM      6  C   UNL     1       3.859  27.026 110.089  1.00  0.00     0.041 C 
ATOM      7  O   UNL     1       3.443  28.198 110.285  1.00  0.00    -0.550 OA
ATOM      8  O   UNL     1       4.941  26.814 109.244  1.00  0.00    -0.550 OA
ENDBRANCH   5   6
ENDBRANCH   4   5
ENDBRANCH   3   4
ENDBRANCH   2   3
ENDBRANCH   1   2
BRANCH   1   9
ATOM      9  C   UNL     1       3.317  22.268 113.934  1.00  0.00     0.000 C 
BRANCH   9  10
ATOM     10  C   UNL     1       2.174  22.948 114.704  1.00  0.00    -0.000 C 
BRANCH  10  11
ATOM     11  C   UNL     1       0.842  22.916 113.939  1.00  0.00    -0.000 C 
BRANCH  11  12
ATOM     12  C   UNL     1       0.584  24.255 113.232  1.00  0.00    -0.000 C 
BRANCH  12  13
ATOM     13  C   UNL     1       0.506  25.435 114.213  1.00  0.00    -0.003 C 
ATOM     14  C   UNL     1       0.917  26.762 113.576  1.00  0.00     0.004 C 
ENDBRANCH  12  13
ENDBRANCH  11  12
ENDBRANCH  10  11
ENDBRANCH   9  10
ENDBRANCH   1   9
TORSDOF 10
ENDMDL
MODEL 6
REMARK VINA RESULT:    -3.628      2.104      4.906
REMARK INTER + INTRA:          -6.867
REMARK INTER:                  -6.010
REMARK INTRA:                  -0.858
REMARK UNBOUND:                -1.119
REMARK SMILES CCCCCCCCCCCC(=O)[O-]
REMARK SMILES IDX 7 1 8 2 9 3 10 4 11 5 12 6 13 7 14 8 6 9 5 10 4 11 3 12 2 13
REMARK SMILES IDX 1 14
REMARK H PARENT
REMARK Flexibility Score: inf
ROOT
ATOM      1  C   UNL     1       3.463  25.134 112.111  1.00  0.00     0.000 C 
ENDROOT
BRANCH   1   2
ATOM      2  C   UNL     1       4.698  25.543 112.923  1.00  0.00     0.000 C 
BRANCH   2   3
ATOM      3  C   UNL     1       5.813  24.499 112.794  1.00  0.00     0.000 C 
BRANCH   3   4
ATOM      4  C   UNL     1       7.164  25.168 112.500  1.00  0.00     0.006 C 
BRANCH   4   5
ATOM      5  C   UNL     1       7.465  25.233 110.997  1.00  0.00     0.053 C 
BRANCH   5   6
ATOM      6  C   UNL     1       7.251  26.609 110.445  1.00  0.00     0.041 C 
ATOM      7  O   UNL     1       7.507  27.620 111.149  1.00  0.00    -0.550 OA
ATOM      8  O   UNL     1       6.737  26.774 109.165  1.00  0.00    -0.550 OA
ENDBRANCH   5   6
ENDBRANCH   4   5
ENDBRANCH   3   4
ENDBRANCH   2   3
ENDBRANCH   1   2
BRANCH   1   9
ATOM      9  C   UNL     1       3.539  25.684 110.680  1.00  0.00     0.000 C 
BRANCH   9  10
ATOM     10  C   UNL     1       3.607  27.218 110.636  1.00  0.00    -0.000 C 
BRANCH  10  11
ATOM     11  C   UNL     1       2.218  27.871 110.564  1.00  0.00    -0.000 C 
BRANCH  11  12
ATOM     12  C   UNL     1       2.276  29.198 109.793  1.00  0.00    -0.000 C 
BRANCH  12  13
ATOM     13  C   UNL     1       2.675  30.384 110.687  1.00  0.00    -0.003 C 
ATOM     14  C   UNL     1       1.690  30.618 111.832  1.00  0.00     0.004 C 
ENDBRANCH  12  13
ENDBRANCH  11  12
ENDBRANCH  10  11
ENDBRANCH   9  10
ENDBRANCH   1   9
TORSDOF 10
ENDMDL
MODEL 7
REMARK VINA RESULT:    -3.621      2.646      5.233
REMARK INTER + INTRA:          -6.856
REMARK INTER:                  -5.281
REMARK INTRA:                  -1.576
REMARK UNBOUND:                -1.119
REMARK SMILES CCCCCCCCCCCC(=O)[O-]
REMARK SMILES IDX 7 1 8 2 9 3 10 4 11 5 12 6 13 7 14 8 6 9 5 10 4 11 3 12 2 13
REMARK SMILES IDX 1 14
REMARK H PARENT
REMARK Flexibility Score: inf
ROOT
ATOM      1  C   UNL     1       1.547  26.488 112.536  1.00  0.00     0.000 C 
ENDROOT
BRANCH   1   2
ATOM      2  C   UNL     1       2.977  25.973 112.339  1.00  0.00     0.000 C 
BRANCH   2   3
ATOM      3  C   UNL     1       3.290  25.768 110.852  1.00  0.00     0.000 C 
BRANCH   3   4
ATOM      4  C   UNL     1       4.432  26.687 110.397  1.00  0.00     0.006 C 
BRANCH   4   5
ATOM      5  C   UNL     1       5.507  26.859 111.477  1.00  0.00     0.053 C 
BRANCH   5   6
ATOM      6  C   UNL     1       6.885  26.641 110.932  1.00  0.00     0.041 C 
ATOM      7  O   UNL     1       7.724  27.579 110.938  1.00  0.00    -0.550 OA
ATOM      8  O   UNL     1       7.232  25.411 110.387  1.00  0.00    -0.550 OA
ENDBRANCH   5   6
ENDBRANCH   4   5
ENDBRANCH   3   4
ENDBRANCH   2   3
ENDBRANCH   1   2
BRANCH   1   9
ATOM      9  C   UNL     1       1.545  27.853 113.239  1.00  0.00     0.000 C 
BRANCH   9  10
ATOM     10  C   UNL     1       2.951  28.303 113.664  1.00  0.00    -0.000 C 
BRANCH  10  11
ATOM     11  C   UNL     1       3.400  29.593 112.961  1.00  0.00    -0.000 C 
BRANCH  11  12
ATOM     12  C   UNL     1       2.263  30.175 112.108  1.00  0.00    -0.000 C 
BRANCH  12  13
ATOM     13  C   UNL     1       2.640  30.297 110.623  1.00  0.00    -0.003 C 
ATOM     14  C   UNL     1       1.951  29.249 109.750  1.00  0.00     0.004 C 
ENDBRANCH  12  13
ENDBRANCH  11  12
ENDBRANCH  10  11
ENDBRANCH   9  10
ENDBRANCH   1   9
TORSDOF 10
ENDMDL
MODEL 8
REMARK VINA RESULT:    -3.567      2.808      5.430
REMARK INTER + INTRA:          -6.771
REMARK INTER:                  -5.327
REMARK INTRA:                  -1.443
REMARK UNBOUND:                -1.119
REMARK SMILES CCCCCCCCCCCC(=O)[O-]
REMARK SMILES IDX 7 1 8 2 9 3 10 4 11 5 12 6 13 7 14 8 6 9 5 10 4 11 3 12 2 13
REMARK SMILES IDX 1 14
REMARK H PARENT
REMARK Flexibility Score: inf
ROOT
ATOM      1  C   UNL     1       2.880  26.474 110.605  1.00  0.00     0.000 C 
ENDROOT
BRANCH   1   2
ATOM      2  C   UNL     1       4.404  26.335 110.707  1.00  0.00     0.000 C 
BRANCH   2   3
ATOM      3  C   UNL     1       4.983  27.326 111.723  1.00  0.00     0.000 C 
BRANCH   3   4
ATOM      4  C   UNL     1       6.516  27.247 111.760  1.00  0.00     0.006 C 
BRANCH   4   5
ATOM      5  C   UNL     1       7.079  26.357 110.645  1.00  0.00     0.053 C 
BRANCH   5   6
ATOM      6  C   UNL     1       7.806  25.168 111.194  1.00  0.00     0.041 C 
ATOM      7  O   UNL     1       8.942  25.308 111.718  1.00  0.00    -0.550 OA
ATOM      8  O   UNL     1       7.244  23.901 111.097  1.00  0.00    -0.550 OA
ENDBRANCH   5   6
ENDBRANCH   4   5
ENDBRANCH   3   4
ENDBRANCH   2   3
ENDBRANCH   1   2
BRANCH   1   9
ATOM      9  C   UNL     1       2.283  26.960 111.934  1.00  0.00     0.000 C 
BRANCH   9  10
ATOM     10  C   UNL     1       1.652  25.823 112.752  1.00  0.00    -0.000 C 
BRANCH  10  11
ATOM     11  C   UNL     1       2.627  25.213 113.771  1.00  0.00    -0.000 C 
BRANCH  11  12
ATOM     12  C   UNL     1       2.921  23.744 113.435  1.00  0.00    -0.000 C 
BRANCH  12  13
ATOM     13  C   UNL     1       4.414  23.483 113.179  1.00  0.00    -0.003 C 
ATOM     14  C   UNL     1       5.323  24.400 113.996  1.00  0.00     0.004 C 
ENDBRANCH  12  13
ENDBRANCH  11  12
ENDBRANCH  10  11
ENDBRANCH   9  10
ENDBRANCH   1   9
TORSDOF 10
ENDMDL
MODEL 9
REMARK VINA RESULT:    -3.451      2.173      4.764
REMARK INTER + INTRA:          -6.588
REMARK INTER:                  -5.009
REMARK INTRA:                  -1.578
REMARK UNBOUND:                -1.119
REMARK SMILES CCCCCCCCCCCC(=O)[O-]
REMARK SMILES IDX 7 1 8 2 9 3 10 4 11 5 12 6 13 7 14 8 6 9 5 10 4 11 3 12 2 13
REMARK SMILES IDX 1 14
REMARK H PARENT
REMARK Flexibility Score: inf
ROOT
ATOM      1  C   UNL     1       3.113  24.396 114.180  1.00  0.00     0.000 C 
ENDROOT
BRANCH   1   2
ATOM      2  C   UNL     1       4.143  23.556 113.415  1.00  0.00     0.000 C 
BRANCH   2   3
ATOM      3  C   UNL     1       5.366  24.397 113.032  1.00  0.00     0.000 C 
BRANCH   3   4
ATOM      4  C   UNL     1       5.596  24.378 111.514  1.00  0.00     0.006 C 
BRANCH   4   5
ATOM      5  C   UNL     1       6.927  25.030 111.119  1.00  0.00     0.053 C 
BRANCH   5   6
ATOM      6  C   UNL     1       6.740  26.439 110.646  1.00  0.00     0.041 C 
ATOM      7  O   UNL     1       6.269  26.665 109.501  1.00  0.00    -0.550 OA
ATOM      8  O   UNL     1       7.115  27.502 111.458  1.00  0.00    -0.550 OA
ENDBRANCH   5   6
ENDBRANCH   4   5
ENDBRANCH   3   4
ENDBRANCH   2   3
ENDBRANCH   1   2
BRANCH   1   9
ATOM      9  C   UNL     1       1.826  24.570 113.360  1.00  0.00     0.000 C 
BRANCH   9  10
ATOM     10  C   UNL     1       1.603  26.021 112.908  1.00  0.00    -0.000 C 
BRANCH  10  11
ATOM     11  C   UNL     1       2.344  26.358 111.606  1.00  0.00    -0.000 C 
BRANCH  11  12
ATOM     12  C   UNL     1       3.423  27.424 111.850  1.00  0.00    -0.000 C 
BRANCH  12  13
ATOM     13  C   UNL     1       3.350  28.026 113.262  1.00  0.00    -0.003 C 
ATOM     14  C   UNL     1       4.649  27.851 114.047  1.00  0.00     0.004 C 
ENDBRANCH  12  13
ENDBRANCH  11  12
ENDBRANCH  10  11
ENDBRANCH   9  10
ENDBRANCH   1   9
TORSDOF 10
ENDMDL
