MODEL 1
REMARK VINA RESULT:    -4.116      0.000      0.000
REMARK INTER + INTRA:         -12.030
REMARK INTER:                  -8.929
REMARK INTRA:                  -3.101
REMARK UNBOUND:                -3.101
REMARK SMILES CCCCCCCCCCCCCCCCCCCCCC(=O)[O-]
REMARK SMILES IDX 12 1 11 2 10 3 9 4 8 5 7 6 6 7 5 8 4 9 3 10 2 11 1 12 13 13
REMARK SMILES IDX 14 14 15 15 16 16 17 17 18 18 19 19 20 20 21 21 22 22 23 23
REMARK SMILES IDX 24 24
REMARK H PARENT
REMARK Flexibility Score: inf
ROOT
ATOM      1  C   UNL     1      18.035   5.366  -0.128  1.00  0.00     0.000 C 
ENDROOT
BRANCH   1   2
ATOM      2  C   UNL     1      18.250   6.135   1.190  1.00  0.00     0.000 C 
BRANCH   2   3
ATOM      3  C   UNL     1      19.676   6.056   1.767  1.00  0.00     0.000 C 
BRANCH   3   4
ATOM      4  C   UNL     1      19.864   4.937   2.813  1.00  0.00    -0.000 C 
BRANCH   4   5
ATOM      5  C   UNL     1      19.489   5.389   4.236  1.00  0.00    -0.000 C 
BRANCH   5   6
ATOM      6  C   UNL     1      18.636   4.346   4.978  1.00  0.00    -0.000 C 
BRANCH   6   7
ATOM      7  C   UNL     1      17.212   4.239   4.405  1.00  0.00    -0.000 C 
BRANCH   7   8
ATOM      8  C   UNL     1      16.825   2.793   4.023  1.00  0.00    -0.000 C 
BRANCH   8   9
ATOM      9  C   UNL     1      17.754   2.160   2.971  1.00  0.00    -0.000 C 
BRANCH   9  10
ATOM     10  C   UNL     1      17.197   2.160   1.535  1.00  0.00    -0.000 C 
BRANCH  10  11
ATOM     11  C   UNL     1      15.666   2.352   1.468  1.00  0.00    -0.003 C 
ATOM     12  C   UNL     1      15.212   3.068   0.197  1.00  0.00     0.004 C 
ENDBRANCH  10  11
ENDBRANCH   9  10
ENDBRANCH   8   9
ENDBRANCH   7   8
ENDBRANCH   6   7
ENDBRANCH   5   6
ENDBRANCH   4   5
ENDBRANCH   3   4
ENDBRANCH   2   3
ENDBRANCH   1   2
BRANCH   1  13
ATOM     13  C   UNL     1      18.957   5.788  -1.287  1.00  0.00     0.000 C 
BRANCH  13  14
ATOM     14  C   UNL     1      19.639   4.596  -1.973  1.00  0.00     0.000 C 
BRANCH  14  15
ATOM     15  C   UNL     1      19.566   3.338  -1.093  1.00  0.00     0.000 C 
BRANCH  15  16
ATOM     16  C   UNL     1      18.881   2.157  -1.802  1.00  0.00     0.000 C 
BRANCH  16  17
ATOM     17  C   UNL     1      17.587   2.570  -2.527  1.00  0.00     0.000 C 
BRANCH  17  18
ATOM     18  C   UNL     1      17.439   1.882  -3.895  1.00  0.00     0.000 C 
BRANCH  18  19
ATOM     19  C   UNL     1      18.258   2.571  -5.000  1.00  0.00     0.000 C 
BRANCH  19  20
ATOM     20  C   UNL     1      17.716   3.967  -5.346  1.00  0.00     0.006 C 
BRANCH  20  21
ATOM     21  C   UNL     1      16.380   3.907  -6.098  1.00  0.00     0.053 C 
BRANCH  21  22
ATOM     22  C   UNL     1      16.124   5.189  -6.822  1.00  0.00     0.041 C 
ATOM     23  O   UNL     1      17.011   5.685  -7.566  1.00  0.00    -0.550 OA
ATOM     24  O   UNL     1      14.892   5.824  -6.701  1.00  0.00    -0.550 OA
ENDBRANCH  21  22
ENDBRANCH  20  21
ENDBRANCH  19  20
ENDBRANCH  18  19
ENDBRANCH  17  18
ENDBRANCH  16  17
ENDBRANCH  15  16
ENDBRANCH  14  15
ENDBRANCH  13  14
ENDBRANCH   1  13
TORSDOF 20
ENDMDL
MODEL 2
REMARK VINA RESULT:    -3.921      2.958      8.217
REMARK INTER + INTRA:         -11.606
REMARK INTER:                  -9.165
REMARK INTRA:                  -2.441
REMARK UNBOUND:                -3.101
REMARK SMILES CCCCCCCCCCCCCCCCCCCCCC(=O)[O-]
REMARK SMILES IDX 12 1 11 2 10 3 9 4 8 5 7 6 6 7 5 8 4 9 3 10 2 11 1 12 13 13
REMARK SMILES IDX 14 14 15 15 16 16 17 17 18 18 19 19 20 20 21 21 22 22 23 23
REMARK SMILES IDX 24 24
REMARK H PARENT
REMARK Flexibility Score: inf
ROOT
ATOM      1  C   UNL     1      17.128   4.629  -0.753  1.00  0.00     0.000 C 
ENDROOT
BRANCH   1   2
ATOM      2  C   UNL     1      17.586   3.475  -1.665  1.00  0.00     0.000 C 
BRANCH   2   3
ATOM      3  C   UNL     1      18.886   3.737  -2.449  1.00  0.00     0.000 C 
BRANCH   3   4
ATOM      4  C   UNL     1      18.664   3.991  -3.955  1.00  0.00    -0.000 C 
BRANCH   4   5
ATOM      5  C   UNL     1      19.209   2.852  -4.834  1.00  0.00    -0.000 C 
BRANCH   5   6
ATOM      6  C   UNL     1      18.133   2.255  -5.757  1.00  0.00    -0.000 C 
BRANCH   6   7
ATOM      7  C   UNL     1      16.707   2.564  -5.270  1.00  0.00    -0.000 C 
BRANCH   7   8
ATOM      8  C   UNL     1      15.811   3.165  -6.376  1.00  0.00    -0.000 C 
BRANCH   8   9
ATOM      9  C   UNL     1      15.370   4.614  -6.099  1.00  0.00    -0.000 C 
BRANCH   9  10
ATOM     10  C   UNL     1      15.910   5.655  -7.097  1.00  0.00    -0.000 C 
BRANCH  10  11
ATOM     11  C   UNL     1      17.150   5.171  -7.882  1.00  0.00    -0.003 C 
ATOM     12  C   UNL     1      18.464   5.676  -7.287  1.00  0.00     0.004 C 
ENDBRANCH  10  11
ENDBRANCH   9  10
ENDBRANCH   8   9
ENDBRANCH   7   8
ENDBRANCH   6   7
ENDBRANCH   5   6
ENDBRANCH   4   5
ENDBRANCH   3   4
ENDBRANCH   2   3
ENDBRANCH   1   2
BRANCH   1  13
ATOM     13  C   UNL     1      18.206   5.685  -0.446  1.00  0.00     0.000 C 
BRANCH  13  14
ATOM     14  C   UNL     1      18.309   6.019   1.049  1.00  0.00     0.000 C 
BRANCH  14  15
ATOM     15  C   UNL     1      19.521   5.321   1.687  1.00  0.00     0.000 C 
BRANCH  15  16
ATOM     16  C   UNL     1      19.693   5.673   3.173  1.00  0.00     0.000 C 
BRANCH  16  17
ATOM     17  C   UNL     1      19.751   4.426   4.076  1.00  0.00     0.000 C 
BRANCH  17  18
ATOM     18  C   UNL     1      18.529   4.320   5.004  1.00  0.00     0.000 C 
BRANCH  18  19
ATOM     19  C   UNL     1      17.209   4.152   4.233  1.00  0.00     0.000 C 
BRANCH  19  20
ATOM     20  C   UNL     1      16.509   2.820   4.553  1.00  0.00     0.006 C 
BRANCH  20  21
ATOM     21  C   UNL     1      17.003   1.671   3.665  1.00  0.00     0.053 C 
BRANCH  21  22
ATOM     22  C   UNL     1      16.975   2.070   2.224  1.00  0.00     0.041 C 
ATOM     23  O   UNL     1      18.044   2.124   1.561  1.00  0.00    -0.550 OA
ATOM     24  O   UNL     1      15.763   2.351   1.602  1.00  0.00    -0.550 OA
ENDBRANCH  21  22
ENDBRANCH  20  21
ENDBRANCH  19  20
ENDBRANCH  18  19
ENDBRANCH  17  18
ENDBRANCH  16  17
ENDBRANCH  15  16
ENDBRANCH  14  15
ENDBRANCH  13  14
ENDBRANCH   1  13
TORSDOF 20
ENDMDL
MODEL 3
REMARK VINA RESULT:    -3.852      3.567      8.818
REMARK INTER + INTRA:         -11.456
REMARK INTER:                  -8.746
REMARK INTRA:                  -2.710
REMARK UNBOUND:                -3.101
REMARK SMILES CCCCCCCCCCCCCCCCCCCCCC(=O)[O-]
REMARK SMILES IDX 12 1 11 2 10 3 9 4 8 5 7 6 6 7 5 8 4 9 3 10 2 11 1 12 13 13
REMARK SMILES IDX 14 14 15 15 16 16 17 17 18 18 19 19 20 20 21 21 22 22 23 23
REMARK SMILES IDX 24 24
REMARK H PARENT
REMARK Flexibility Score: inf
ROOT
ATOM      1  C   UNL     1      17.116   3.173  -4.238  1.00  0.00     0.000 C 
ENDROOT
BRANCH   1   2
ATOM      2  C   UNL     1      16.998   1.996  -5.225  1.00  0.00     0.000 C 
BRANCH   2   3
ATOM      3  C   UNL     1      17.944   2.063  -6.439  1.00  0.00     0.000 C 
BRANCH   3   4
ATOM      4  C   UNL     1      17.237   1.843  -7.793  1.00  0.00    -0.000 C 
BRANCH   4   5
ATOM      5  C   UNL     1      18.164   2.104  -8.993  1.00  0.00    -0.000 C 
BRANCH   5   6
ATOM      6  C   UNL     1      19.393   2.948  -8.614  1.00  0.00    -0.000 C 
BRANCH   6   7
ATOM      7  C   UNL     1      19.250   4.419  -9.045  1.00  0.00    -0.000 C 
BRANCH   7   8
ATOM      8  C   UNL     1      18.566   5.294  -7.971  1.00  0.00    -0.000 C 
BRANCH   8   9
ATOM      9  C   UNL     1      17.029   5.307  -8.067  1.00  0.00    -0.000 C 
BRANCH   9  10
ATOM     10  C   UNL     1      16.307   5.740  -6.778  1.00  0.00    -0.000 C 
BRANCH  10  11
ATOM     11  C   UNL     1      14.934   5.059  -6.581  1.00  0.00    -0.003 C 
ATOM     12  C   UNL     1      13.761   6.019  -6.776  1.00  0.00     0.004 C 
ENDBRANCH  10  11
ENDBRANCH   9  10
ENDBRANCH   8   9
ENDBRANCH   7   8
ENDBRANCH   6   7
ENDBRANCH   5   6
ENDBRANCH   4   5
ENDBRANCH   3   4
ENDBRANCH   2   3
ENDBRANCH   1   2
BRANCH   1  13
ATOM     13  C   UNL     1      18.539   3.734  -4.058  1.00  0.00     0.000 C 
BRANCH  13  14
ATOM     14  C   UNL     1      19.386   2.914  -3.075  1.00  0.00     0.000 C 
BRANCH  14  15
ATOM     15  C   UNL     1      19.954   3.806  -1.959  1.00  0.00     0.000 C 
BRANCH  15  16
ATOM     16  C   UNL     1      19.175   5.121  -1.798  1.00  0.00     0.000 C 
BRANCH  16  17
ATOM     17  C   UNL     1      18.274   5.129  -0.550  1.00  0.00     0.000 C 
BRANCH  17  18
ATOM     18  C   UNL     1      16.872   4.564  -0.837  1.00  0.00     0.000 C 
BRANCH  18  19
ATOM     19  C   UNL     1      16.729   3.089  -0.424  1.00  0.00     0.000 C 
BRANCH  19  20
ATOM     20  C   UNL     1      15.834   2.911   0.813  1.00  0.00     0.006 C 
BRANCH  20  21
ATOM     21  C   UNL     1      16.583   2.281   1.993  1.00  0.00     0.053 C 
BRANCH  21  22
ATOM     22  C   UNL     1      17.554   3.254   2.581  1.00  0.00     0.041 C 
ATOM     23  O   UNL     1      17.209   4.447   2.789  1.00  0.00    -0.550 OA
ATOM     24  O   UNL     1      18.834   2.836   2.932  1.00  0.00    -0.550 OA
ENDBRANCH  21  22
ENDBRANCH  20  21
ENDBRANCH  19  20
ENDBRANCH  18  19
ENDBRANCH  17  18
ENDBRANCH  16  17
ENDBRANCH  15  16
ENDBRANCH  14  15
ENDBRANCH  13  14
ENDBRANCH   1  13
TORSDOF 20
ENDMDL
MODEL 4
REMARK VINA RESULT:    -3.815      1.279      1.925
REMARK INTER + INTRA:         -11.377
REMARK INTER:                  -8.305
REMARK INTRA:                  -3.072
REMARK UNBOUND:                -3.101
REMARK SMILES CCCCCCCCCCCCCCCCCCCCCC(=O)[O-]
REMARK SMILES IDX 12 1 11 2 10 3 9 4 8 5 7 6 6 7 5 8 4 9 3 10 2 11 1 12 13 13
REMARK SMILES IDX 14 14 15 15 16 16 17 17 18 18 19 19 20 20 21 21 22 22 23 23
REMARK SMILES IDX 24 24
REMARK H PARENT
REMARK Flexibility Score: inf
ROOT
ATOM      1  C   UNL     1      18.252   5.747  -0.358  1.00  0.00     0.000 C 
ENDROOT
BRANCH   1   2
ATOM      2  C   UNL     1      18.659   6.309   1.018  1.00  0.00     0.000 C 
BRANCH   2   3
ATOM      3  C   UNL     1      18.057   5.572   2.229  1.00  0.00     0.000 C 
BRANCH   3   4
ATOM      4  C   UNL     1      19.071   5.301   3.361  1.00  0.00    -0.000 C 
BRANCH   4   5
ATOM      5  C   UNL     1      18.635   4.149   4.283  1.00  0.00    -0.000 C 
BRANCH   5   6
ATOM      6  C   UNL     1      17.111   3.940   4.282  1.00  0.00    -0.000 C 
BRANCH   6   7
ATOM      7  C   UNL     1      16.721   2.465   4.484  1.00  0.00    -0.000 C 
BRANCH   7   8
ATOM      8  C   UNL     1      16.641   1.678   3.157  1.00  0.00    -0.000 C 
BRANCH   8   9
ATOM      9  C   UNL     1      16.341   2.559   1.930  1.00  0.00    -0.000 C 
BRANCH   9  10
ATOM     10  C   UNL     1      17.298   2.354   0.741  1.00  0.00    -0.000 C 
BRANCH  10  11
ATOM     11  C   UNL     1      18.551   1.522   1.093  1.00  0.00    -0.003 C 
ATOM     12  C   UNL     1      19.817   2.369   1.199  1.00  0.00     0.004 C 
ENDBRANCH  10  11
ENDBRANCH   9  10
ENDBRANCH   8   9
ENDBRANCH   7   8
ENDBRANCH   6   7
ENDBRANCH   5   6
ENDBRANCH   4   5
ENDBRANCH   3   4
ENDBRANCH   2   3
ENDBRANCH   1   2
BRANCH   1  13
ATOM     13  C   UNL     1      19.377   5.032  -1.130  1.00  0.00     0.000 C 
BRANCH  13  14
ATOM     14  C   UNL     1      19.399   5.389  -2.623  1.00  0.00     0.000 C 
BRANCH  14  15
ATOM     15  C   UNL     1      19.492   4.123  -3.490  1.00  0.00     0.000 C 
BRANCH  15  16
ATOM     16  C   UNL     1      18.852   2.897  -2.820  1.00  0.00     0.000 C 
BRANCH  16  17
ATOM     17  C   UNL     1      17.515   2.495  -3.471  1.00  0.00     0.000 C 
BRANCH  17  18
ATOM     18  C   UNL     1      17.686   2.052  -4.934  1.00  0.00     0.000 C 
BRANCH  18  19
ATOM     19  C   UNL     1      16.496   2.457  -5.821  1.00  0.00     0.000 C 
BRANCH  19  20
ATOM     20  C   UNL     1      15.988   3.874  -5.509  1.00  0.00     0.006 C 
BRANCH  20  21
ATOM     21  C   UNL     1      16.010   4.789  -6.740  1.00  0.00     0.053 C 
BRANCH  21  22
ATOM     22  C   UNL     1      17.394   4.889  -7.297  1.00  0.00     0.041 C 
ATOM     23  O   UNL     1      18.323   5.379  -6.602  1.00  0.00    -0.550 OA
ATOM     24  O   UNL     1      17.667   4.412  -8.574  1.00  0.00    -0.550 OA
ENDBRANCH  21  22
ENDBRANCH  20  21
ENDBRANCH  19  20
ENDBRANCH  18  19
ENDBRANCH  17  18
ENDBRANCH  16  17
ENDBRANCH  15  16
ENDBRANCH  14  15
ENDBRANCH  13  14
ENDBRANCH   1  13
TORSDOF 20
ENDMDL
MODEL 5
REMARK VINA RESULT:    -3.783      1.344      3.338
REMARK INTER + INTRA:         -11.307
REMARK INTER:                  -8.810
REMARK INTRA:                  -2.497
REMARK UNBOUND:                -3.101
REMARK SMILES CCCCCCCCCCCCCCCCCCCCCC(=O)[O-]
REMARK SMILES IDX 12 1 11 2 10 3 9 4 8 5 7 6 6 7 5 8 4 9 3 10 2 11 1 12 13 13
REMARK SMILES IDX 14 14 15 15 16 16 17 17 18 18 19 19 20 20 21 21 22 22 23 23
REMARK SMILES IDX 24 24
REMARK H PARENT
REMARK Flexibility Score: inf
ROOT
ATOM      1  C   UNL     1      16.253   3.582  -0.575  1.00  0.00     0.000 C 
ENDROOT
BRANCH   1   2
ATOM      2  C   UNL     1      16.276   2.901   0.807  1.00  0.00     0.000 C 
BRANCH   2   3
ATOM      3  C   UNL     1      17.582   2.158   1.148  1.00  0.00     0.000 C 
BRANCH   3   4
ATOM      4  C   UNL     1      17.665   1.685   2.615  1.00  0.00    -0.000 C 
BRANCH   4   5
ATOM      5  C   UNL     1      16.379   1.983   3.407  1.00  0.00    -0.000 C 
BRANCH   5   6
ATOM      6  C   UNL     1      16.646   2.825   4.666  1.00  0.00    -0.000 C 
BRANCH   6   7
ATOM      7  C   UNL     1      17.128   4.247   4.328  1.00  0.00    -0.000 C 
BRANCH   7   8
ATOM      8  C   UNL     1      18.497   4.583   4.962  1.00  0.00    -0.000 C 
BRANCH   8   9
ATOM      9  C   UNL     1      19.443   5.353   4.023  1.00  0.00    -0.000 C 
BRANCH   9  10
ATOM     10  C   UNL     1      19.859   4.584   2.755  1.00  0.00    -0.000 C 
BRANCH  10  11
ATOM     11  C   UNL     1      19.641   5.383   1.450  1.00  0.00    -0.003 C 
ATOM     12  C   UNL     1      18.307   6.128   1.426  1.00  0.00     0.004 C 
ENDBRANCH  10  11
ENDBRANCH   9  10
ENDBRANCH   8   9
ENDBRANCH   7   8
ENDBRANCH   6   7
ENDBRANCH   5   6
ENDBRANCH   4   5
ENDBRANCH   3   4
ENDBRANCH   2   3
ENDBRANCH   1   2
BRANCH   1  13
ATOM     13  C   UNL     1      17.568   3.487  -1.371  1.00  0.00     0.000 C 
BRANCH  13  14
ATOM     14  C   UNL     1      17.505   2.461  -2.511  1.00  0.00     0.000 C 
BRANCH  14  15
ATOM     15  C   UNL     1      17.793   3.125  -3.867  1.00  0.00     0.000 C 
BRANCH  15  16
ATOM     16  C   UNL     1      19.074   3.975  -3.851  1.00  0.00     0.000 C 
BRANCH  16  17
ATOM     17  C   UNL     1      19.805   3.971  -5.206  1.00  0.00     0.000 C 
BRANCH  17  18
ATOM     18  C   UNL     1      19.798   5.355  -5.878  1.00  0.00     0.000 C 
BRANCH  18  19
ATOM     19  C   UNL     1      19.161   5.332  -7.278  1.00  0.00     0.000 C 
BRANCH  19  20
ATOM     20  C   UNL     1      17.751   4.718  -7.270  1.00  0.00     0.006 C 
BRANCH  20  21
ATOM     21  C   UNL     1      16.648   5.782  -7.234  1.00  0.00     0.053 C 
BRANCH  21  22
ATOM     22  C   UNL     1      15.383   5.212  -6.675  1.00  0.00     0.041 C 
ATOM     23  O   UNL     1      15.314   3.989  -6.385  1.00  0.00    -0.550 OA
ATOM     24  O   UNL     1      14.290   6.039  -6.443  1.00  0.00    -0.550 OA
ENDBRANCH  21  22
ENDBRANCH  20  21
ENDBRANCH  19  20
ENDBRANCH  18  19
ENDBRANCH  17  18
ENDBRANCH  16  17
ENDBRANCH  15  16
ENDBRANCH  14  15
ENDBRANCH  13  14
ENDBRANCH   1  13
TORSDOF 20
ENDMDL
MODEL 6
REMARK VINA RESULT:    -3.760      2.634      7.617
REMARK INTER + INTRA:         -11.258
REMARK INTER:                  -9.039
REMARK INTRA:                  -2.219
REMARK UNBOUND:                -3.101
REMARK SMILES CCCCCCCCCCCCCCCCCCCCCC(=O)[O-]
REMARK SMILES IDX 12 1 11 2 10 3 9 4 8 5 7 6 6 7 5 8 4 9 3 10 2 11 1 12 13 13
REMARK SMILES IDX 14 14 15 15 16 16 17 17 18 18 19 19 20 20 21 21 22 22 23 23
REMARK SMILES IDX 24 24
REMARK H PARENT
REMARK Flexibility Score: inf
ROOT
ATOM      1  C   UNL     1      18.268   5.760  -0.291  1.00  0.00     0.000 C 
ENDROOT
BRANCH   1   2
ATOM      2  C   UNL     1      18.805   5.216  -1.629  1.00  0.00     0.000 C 
BRANCH   2   3
ATOM      3  C   UNL     1      19.870   4.110  -1.504  1.00  0.00     0.000 C 
BRANCH   3   4
ATOM      4  C   UNL     1      19.479   2.787  -2.197  1.00  0.00    -0.000 C 
BRANCH   4   5
ATOM      5  C   UNL     1      18.700   3.012  -3.504  1.00  0.00    -0.000 C 
BRANCH   5   6
ATOM      6  C   UNL     1      17.514   2.044  -3.655  1.00  0.00    -0.000 C 
BRANCH   6   7
ATOM      7  C   UNL     1      16.985   1.986  -5.099  1.00  0.00    -0.000 C 
BRANCH   7   8
ATOM      8  C   UNL     1      17.755   2.921  -6.058  1.00  0.00    -0.000 C 
BRANCH   8   9
ATOM      9  C   UNL     1      16.855   3.640  -7.079  1.00  0.00    -0.000 C 
BRANCH   9  10
ATOM     10  C   UNL     1      15.462   4.028  -6.550  1.00  0.00    -0.000 C 
BRANCH  10  11
ATOM     11  C   UNL     1      15.241   5.554  -6.455  1.00  0.00    -0.003 C 
ATOM     12  C   UNL     1      13.809   5.970  -6.787  1.00  0.00     0.004 C 
ENDBRANCH  10  11
ENDBRANCH   9  10
ENDBRANCH   8   9
ENDBRANCH   7   8
ENDBRANCH   6   7
ENDBRANCH   5   6
ENDBRANCH   4   5
ENDBRANCH   3   4
ENDBRANCH   2   3
ENDBRANCH   1   2
BRANCH   1  13
ATOM     13  C   UNL     1      19.108   5.394   0.947  1.00  0.00     0.000 C 
BRANCH  13  14
ATOM     14  C   UNL     1      18.302   5.438   2.252  1.00  0.00     0.000 C 
BRANCH  14  15
ATOM     15  C   UNL     1      19.233   5.437   3.475  1.00  0.00     0.000 C 
BRANCH  15  16
ATOM     16  C   UNL     1      19.604   4.018   3.936  1.00  0.00     0.000 C 
BRANCH  16  17
ATOM     17  C   UNL     1      19.017   3.670   5.317  1.00  0.00     0.000 C 
BRANCH  17  18
ATOM     18  C   UNL     1      18.038   2.485   5.254  1.00  0.00     0.000 C 
BRANCH  18  19
ATOM     19  C   UNL     1      16.807   2.776   4.379  1.00  0.00     0.000 C 
BRANCH  19  20
ATOM     20  C   UNL     1      16.690   1.804   3.192  1.00  0.00     0.006 C 
BRANCH  20  21
ATOM     21  C   UNL     1      16.044   2.456   1.963  1.00  0.00     0.053 C 
BRANCH  21  22
ATOM     22  C   UNL     1      16.952   2.364   0.779  1.00  0.00     0.041 C 
ATOM     23  O   UNL     1      16.542   2.700  -0.363  1.00  0.00    -0.550 OA
ATOM     24  O   UNL     1      18.266   1.936   0.941  1.00  0.00    -0.550 OA
ENDBRANCH  21  22
ENDBRANCH  20  21
ENDBRANCH  19  20
ENDBRANCH  18  19
ENDBRANCH  17  18
ENDBRANCH  16  17
ENDBRANCH  15  16
ENDBRANCH  14  15
ENDBRANCH  13  14
ENDBRANCH   1  13
TORSDOF 20
ENDMDL
MODEL 7
REMARK VINA RESULT:    -3.739      2.983      8.688
REMARK INTER + INTRA:         -11.212
REMARK INTER:                  -9.293
REMARK INTRA:                  -1.919
REMARK UNBOUND:                -3.101
REMARK SMILES CCCCCCCCCCCCCCCCCCCCCC(=O)[O-]
REMARK SMILES IDX 12 1 11 2 10 3 9 4 8 5 7 6 6 7 5 8 4 9 3 10 2 11 1 12 13 13
REMARK SMILES IDX 14 14 15 15 16 16 17 17 18 18 19 19 20 20 21 21 22 22 23 23
REMARK SMILES IDX 24 24
REMARK H PARENT
REMARK Flexibility Score: inf
ROOT
ATOM      1  C   UNL     1      18.457   2.963  -2.126  1.00  0.00     0.000 C 
ENDROOT
BRANCH   1   2
ATOM      2  C   UNL     1      17.897   3.135  -3.551  1.00  0.00     0.000 C 
BRANCH   2   3
ATOM      3  C   UNL     1      17.161   1.906  -4.117  1.00  0.00     0.000 C 
BRANCH   3   4
ATOM      4  C   UNL     1      16.978   1.939  -5.649  1.00  0.00    -0.000 C 
BRANCH   4   5
ATOM      5  C   UNL     1      18.254   2.380  -6.388  1.00  0.00    -0.000 C 
BRANCH   5   6
ATOM      6  C   UNL     1      18.131   2.232  -7.913  1.00  0.00    -0.000 C 
BRANCH   6   7
ATOM      7  C   UNL     1      18.856   3.357  -8.672  1.00  0.00    -0.000 C 
BRANCH   7   8
ATOM      8  C   UNL     1      18.474   4.766  -8.164  1.00  0.00    -0.000 C 
BRANCH   8   9
ATOM      9  C   UNL     1      16.967   5.068  -8.245  1.00  0.00    -0.000 C 
BRANCH   9  10
ATOM     10  C   UNL     1      16.370   5.713  -6.981  1.00  0.00    -0.000 C 
BRANCH  10  11
ATOM     11  C   UNL     1      15.058   5.049  -6.509  1.00  0.00    -0.003 C 
ATOM     12  C   UNL     1      13.833   5.939  -6.714  1.00  0.00     0.004 C 
ENDBRANCH  10  11
ENDBRANCH   9  10
ENDBRANCH   8   9
ENDBRANCH   7   8
ENDBRANCH   6   7
ENDBRANCH   5   6
ENDBRANCH   4   5
ENDBRANCH   3   4
ENDBRANCH   2   3
ENDBRANCH   1   2
BRANCH   1  13
ATOM     13  C   UNL     1      18.900   4.268  -1.438  1.00  0.00     0.000 C 
BRANCH  13  14
ATOM     14  C   UNL     1      17.765   4.948  -0.658  1.00  0.00     0.000 C 
BRANCH  14  15
ATOM     15  C   UNL     1      18.324   5.862   0.444  1.00  0.00     0.000 C 
BRANCH  15  16
ATOM     16  C   UNL     1      19.210   5.107   1.447  1.00  0.00     0.000 C 
BRANCH  16  17
ATOM     17  C   UNL     1      19.229   5.768   2.838  1.00  0.00     0.000 C 
BRANCH  17  18
ATOM     18  C   UNL     1      18.900   4.772   3.963  1.00  0.00     0.000 C 
BRANCH  18  19
ATOM     19  C   UNL     1      19.199   3.314   3.573  1.00  0.00     0.000 C 
BRANCH  19  20
ATOM     20  C   UNL     1      17.975   2.400   3.744  1.00  0.00     0.006 C 
BRANCH  20  21
ATOM     21  C   UNL     1      16.725   2.960   3.054  1.00  0.00     0.053 C 
BRANCH  21  22
ATOM     22  C   UNL     1      16.564   2.366   1.691  1.00  0.00     0.041 C 
ATOM     23  O   UNL     1      15.445   2.395   1.114  1.00  0.00    -0.550 OA
ATOM     24  O   UNL     1      17.660   1.806   1.042  1.00  0.00    -0.550 OA
ENDBRANCH  21  22
ENDBRANCH  20  21
ENDBRANCH  19  20
ENDBRANCH  18  19
ENDBRANCH  17  18
ENDBRANCH  16  17
ENDBRANCH  15  16
ENDBRANCH  14  15
ENDBRANCH  13  14
ENDBRANCH   1  13
TORSDOF 20
ENDMDL
MODEL 8
REMARK VINA RESULT:    -3.673      2.705      8.020
REMARK INTER + INTRA:         -11.069
REMARK INTER:                  -8.319
REMARK INTRA:                  -2.750
REMARK UNBOUND:                -3.101
REMARK SMILES CCCCCCCCCCCCCCCCCCCCCC(=O)[O-]
REMARK SMILES IDX 12 1 11 2 10 3 9 4 8 5 7 6 6 7 5 8 4 9 3 10 2 11 1 12 13 13
REMARK SMILES IDX 14 14 15 15 16 16 17 17 18 18 19 19 20 20 21 21 22 22 23 23
REMARK SMILES IDX 24 24
REMARK H PARENT
REMARK Flexibility Score: inf
ROOT
ATOM      1  C   UNL     1      16.152   3.496  -0.541  1.00  0.00     0.000 C 
ENDROOT
BRANCH   1   2
ATOM      2  C   UNL     1      17.407   3.254  -1.402  1.00  0.00     0.000 C 
BRANCH   2   3
ATOM      3  C   UNL     1      17.150   3.149  -2.917  1.00  0.00     0.000 C 
BRANCH   3   4
ATOM      4  C   UNL     1      18.405   2.785  -3.739  1.00  0.00    -0.000 C 
BRANCH   4   5
ATOM      5  C   UNL     1      19.465   3.901  -3.725  1.00  0.00    -0.000 C 
BRANCH   5   6
ATOM      6  C   UNL     1      19.468   4.724  -5.024  1.00  0.00    -0.000 C 
BRANCH   6   7
ATOM      7  C   UNL     1      19.319   3.843  -6.276  1.00  0.00    -0.000 C 
BRANCH   7   8
ATOM      8  C   UNL     1      18.738   4.611  -7.484  1.00  0.00    -0.000 C 
BRANCH   8   9
ATOM      9  C   UNL     1      17.656   5.639  -7.105  1.00  0.00    -0.000 C 
BRANCH   9  10
ATOM     10  C   UNL     1      16.208   5.156  -7.310  1.00  0.00    -0.000 C 
BRANCH  10  11
ATOM     11  C   UNL     1      15.681   4.278  -6.154  1.00  0.00    -0.003 C 
ATOM     12  C   UNL     1      15.700   2.786  -6.484  1.00  0.00     0.004 C 
ENDBRANCH  10  11
ENDBRANCH   9  10
ENDBRANCH   8   9
ENDBRANCH   7   8
ENDBRANCH   6   7
ENDBRANCH   5   6
ENDBRANCH   4   5
ENDBRANCH   3   4
ENDBRANCH   2   3
ENDBRANCH   1   2
BRANCH   1  13
ATOM     13  C   UNL     1      16.138   2.760   0.812  1.00  0.00     0.000 C 
BRANCH  13  14
ATOM     14  C   UNL     1      17.475   2.078   1.136  1.00  0.00     0.000 C 
BRANCH  14  15
ATOM     15  C   UNL     1      17.551   1.692   2.622  1.00  0.00     0.000 C 
BRANCH  15  16
ATOM     16  C   UNL     1      16.325   2.164   3.420  1.00  0.00     0.000 C 
BRANCH  16  17
ATOM     17  C   UNL     1      16.697   2.718   4.808  1.00  0.00     0.000 C 
BRANCH  17  18
ATOM     18  C   UNL     1      18.170   3.151   4.889  1.00  0.00     0.000 C 
BRANCH  18  19
ATOM     19  C   UNL     1      18.354   4.671   4.734  1.00  0.00     0.000 C 
BRANCH  19  20
ATOM     20  C   UNL     1      19.095   5.042   3.439  1.00  0.00     0.006 C 
BRANCH  20  21
ATOM     21  C   UNL     1      18.138   5.462   2.316  1.00  0.00     0.053 C 
BRANCH  21  22
ATOM     22  C   UNL     1      18.870   5.581   1.018  1.00  0.00     0.041 C 
ATOM     23  O   UNL     1      18.377   6.250   0.071  1.00  0.00    -0.550 OA
ATOM     24  O   UNL     1      20.113   4.979   0.861  1.00  0.00    -0.550 OA
ENDBRANCH  21  22
ENDBRANCH  20  21
ENDBRANCH  19  20
ENDBRANCH  18  19
ENDBRANCH  17  18
ENDBRANCH  16  17
ENDBRANCH  15  16
ENDBRANCH  14  15
ENDBRANCH  13  14
ENDBRANCH   1  13
TORSDOF 20
ENDMDL
MODEL 9
REMARK VINA RESULT:    -3.625      2.488      7.896
REMARK INTER + INTRA:         -10.964
REMARK INTER:                  -8.203
REMARK INTRA:                  -2.761
REMARK UNBOUND:                -3.101
REMARK SMILES CCCCCCCCCCCCCCCCCCCCCC(=O)[O-]
REMARK SMILES IDX 12 1 11 2 10 3 9 4 8 5 7 6 6 7 5 8 4 9 3 10 2 11 1 12 13 13
REMARK SMILES IDX 14 14 15 15 16 16 17 17 18 18 19 19 20 20 21 21 22 22 23 23
REMARK SMILES IDX 24 24
REMARK H PARENT
REMARK Flexibility Score: inf
ROOT
ATOM      1  C   UNL     1      17.512   2.895  -2.182  1.00  0.00     0.000 C 
ENDROOT
BRANCH   1   2
ATOM      2  C   UNL     1      17.849   2.676  -3.669  1.00  0.00     0.000 C 
BRANCH   2   3
ATOM      3  C   UNL     1      19.280   3.068  -4.081  1.00  0.00     0.000 C 
BRANCH   3   4
ATOM      4  C   UNL     1      19.412   4.527  -4.567  1.00  0.00    -0.000 C 
BRANCH   4   5
ATOM      5  C   UNL     1      19.446   4.637  -6.102  1.00  0.00    -0.000 C 
BRANCH   5   6
ATOM      6  C   UNL     1      20.027   3.379  -6.769  1.00  0.00    -0.000 C 
BRANCH   6   7
ATOM      7  C   UNL     1      18.998   2.662  -7.661  1.00  0.00    -0.000 C 
BRANCH   7   8
ATOM      8  C   UNL     1      17.630   3.377  -7.694  1.00  0.00    -0.000 C 
BRANCH   8   9
ATOM      9  C   UNL     1      16.495   2.578  -7.028  1.00  0.00    -0.000 C 
BRANCH   9  10
ATOM     10  C   UNL     1      15.410   3.438  -6.353  1.00  0.00    -0.000 C 
BRANCH  10  11
ATOM     11  C   UNL     1      15.725   4.950  -6.367  1.00  0.00    -0.003 C 
ATOM     12  C   UNL     1      14.505   5.808  -6.697  1.00  0.00     0.004 C 
ENDBRANCH  10  11
ENDBRANCH   9  10
ENDBRANCH   8   9
ENDBRANCH   7   8
ENDBRANCH   6   7
ENDBRANCH   5   6
ENDBRANCH   4   5
ENDBRANCH   3   4
ENDBRANCH   2   3
ENDBRANCH   1   2
BRANCH   1  13
ATOM     13  C   UNL     1      18.444   2.176  -1.189  1.00  0.00     0.000 C 
BRANCH  13  14
ATOM     14  C   UNL     1      18.051   2.408   0.277  1.00  0.00     0.000 C 
BRANCH  14  15
ATOM     15  C   UNL     1      16.525   2.509   0.429  1.00  0.00     0.000 C 
BRANCH  15  16
ATOM     16  C   UNL     1      16.087   2.728   1.886  1.00  0.00     0.000 C 
BRANCH  16  17
ATOM     17  C   UNL     1      17.269   2.686   2.873  1.00  0.00     0.000 C 
BRANCH  17  18
ATOM     18  C   UNL     1      17.474   4.028   3.596  1.00  0.00     0.000 C 
BRANCH  18  19
ATOM     19  C   UNL     1      18.851   4.653   3.313  1.00  0.00     0.000 C 
BRANCH  19  20
ATOM     20  C   UNL     1      18.770   5.822   2.318  1.00  0.00     0.006 C 
BRANCH  20  21
ATOM     21  C   UNL     1      19.854   5.746   1.235  1.00  0.00     0.053 C 
BRANCH  21  22
ATOM     22  C   UNL     1      19.237   5.646  -0.123  1.00  0.00     0.041 C 
ATOM     23  O   UNL     1      18.006   5.861  -0.277  1.00  0.00    -0.550 OA
ATOM     24  O   UNL     1      20.028   5.346  -1.227  1.00  0.00    -0.550 OA
ENDBRANCH  21  22
ENDBRANCH  20  21
ENDBRANCH  19  20
ENDBRANCH  18  19
ENDBRANCH  17  18
ENDBRANCH  16  17
ENDBRANCH  15  16
ENDBRANCH  14  15
ENDBRANCH  13  14
ENDBRANCH   1  13
TORSDOF 20
ENDMDL
