MODEL 1
REMARK VINA RESULT:    -4.249      0.000      0.000
REMARK INTER + INTRA:          -7.298
REMARK INTER:                  -6.733
REMARK INTRA:                  -0.565
REMARK UNBOUND:                -0.565
REMARK SMILES CCCCCCCCCCCC(=O)[O-]
REMARK SMILES IDX 7 1 8 2 9 3 10 4 11 5 12 6 13 7 14 8 6 9 5 10 4 11 3 12 2 13
REMARK SMILES IDX 1 14
REMARK H PARENT
REMARK Flexibility Score: inf
ROOT
ATOM      1  C   UNL     1       3.906   9.227   9.450  1.00  0.00     0.000 C 
ENDROOT
BRANCH   1   2
ATOM      2  C   UNL     1       4.245   7.865   8.831  1.00  0.00     0.000 C 
BRANCH   2   3
ATOM      3  C   UNL     1       4.145   6.745   9.876  1.00  0.00     0.000 C 
BRANCH   3   4
ATOM      4  C   UNL     1       4.093   5.342   9.244  1.00  0.00     0.006 C 
BRANCH   4   5
ATOM      5  C   UNL     1       2.792   5.036   8.485  1.00  0.00     0.053 C 
BRANCH   5   6
ATOM      6  C   UNL     1       2.975   3.946   7.475  1.00  0.00     0.041 C 
ATOM      7  O   UNL     1       3.091   2.749   7.849  1.00  0.00    -0.550 OA
ATOM      8  O   UNL     1       2.984   4.247   6.118  1.00  0.00    -0.550 OA
ENDBRANCH   5   6
ENDBRANCH   4   5
ENDBRANCH   3   4
ENDBRANCH   2   3
ENDBRANCH   1   2
BRANCH   1   9
ATOM      9  C   UNL     1       4.691  10.355   8.763  1.00  0.00     0.000 C 
BRANCH   9  10
ATOM     10  C   UNL     1       5.131   9.987   7.337  1.00  0.00    -0.000 C 
BRANCH  10  11
ATOM     11  C   UNL     1       4.855  11.107   6.324  1.00  0.00    -0.000 C 
BRANCH  11  12
ATOM     12  C   UNL     1       4.065  12.251   6.972  1.00  0.00    -0.000 C 
BRANCH  12  13
ATOM     13  C   UNL     1       4.632  13.615   6.560  1.00  0.00    -0.003 C 
ATOM     14  C   UNL     1       5.284  14.321   7.744  1.00  0.00     0.004 C 
ENDBRANCH  12  13
ENDBRANCH  11  12
ENDBRANCH  10  11
ENDBRANCH   9  10
ENDBRANCH   1   9
TORSDOF 10
ENDMDL
MODEL 2
REMARK VINA RESULT:    -4.103      4.317      7.816
REMARK INTER + INTRA:          -7.066
REMARK INTER:                  -6.524
REMARK INTRA:                  -0.542
REMARK UNBOUND:                -0.565
REMARK SMILES CCCCCCCCCCCC(=O)[O-]
REMARK SMILES IDX 7 1 8 2 9 3 10 4 11 5 12 6 13 7 14 8 6 9 5 10 4 11 3 12 2 13
REMARK SMILES IDX 1 14
REMARK H PARENT
REMARK Flexibility Score: inf
ROOT
ATOM      1  C   UNL     1       4.579  10.547   8.532  1.00  0.00     0.000 C 
ENDROOT
BRANCH   1   2
ATOM      2  C   UNL     1       5.147  10.205   7.149  1.00  0.00     0.000 C 
BRANCH   2   3
ATOM      3  C   UNL     1       4.936  11.364   6.165  1.00  0.00     0.000 C 
BRANCH   3   4
ATOM      4  C   UNL     1       4.051  12.484   6.742  1.00  0.00     0.006 C 
BRANCH   4   5
ATOM      5  C   UNL     1       4.597  13.903   6.520  1.00  0.00     0.053 C 
BRANCH   5   6
ATOM      6  C   UNL     1       5.563  14.307   7.591  1.00  0.00     0.041 C 
ATOM      7  O   UNL     1       6.801  14.148   7.421  1.00  0.00    -0.550 OA
ATOM      8  O   UNL     1       5.099  14.888   8.765  1.00  0.00    -0.550 OA
ENDBRANCH   5   6
ENDBRANCH   4   5
ENDBRANCH   3   4
ENDBRANCH   2   3
ENDBRANCH   1   2
BRANCH   1   9
ATOM      9  C   UNL     1       3.799   9.360   9.116  1.00  0.00     0.000 C 
BRANCH   9  10
ATOM     10  C   UNL     1       4.396   8.002   8.711  1.00  0.00    -0.000 C 
BRANCH  10  11
ATOM     11  C   UNL     1       3.825   6.836   9.531  1.00  0.00    -0.000 C 
BRANCH  11  12
ATOM     12  C   UNL     1       4.179   5.489   8.890  1.00  0.00    -0.000 C 
BRANCH  12  13
ATOM     13  C   UNL     1       2.996   4.932   8.089  1.00  0.00    -0.003 C 
ATOM     14  C   UNL     1       1.990   4.238   9.001  1.00  0.00     0.004 C 
ENDBRANCH  12  13
ENDBRANCH  11  12
ENDBRANCH  10  11
ENDBRANCH   9  10
ENDBRANCH   1   9
TORSDOF 10
ENDMDL
MODEL 3
REMARK VINA RESULT:    -3.919     15.270     16.640
REMARK INTER + INTRA:          -6.774
REMARK INTER:                  -6.152
REMARK INTRA:                  -0.622
REMARK UNBOUND:                -0.565
REMARK SMILES CCCCCCCCCCCC(=O)[O-]
REMARK SMILES IDX 7 1 8 2 9 3 10 4 11 5 12 6 13 7 14 8 6 9 5 10 4 11 3 12 2 13
REMARK SMILES IDX 1 14
REMARK H PARENT
REMARK Flexibility Score: inf
ROOT
ATOM      1  C   UNL     1       2.548   4.254  -9.422  1.00  0.00     0.000 C 
ENDROOT
BRANCH   1   2
ATOM      2  C   UNL     1       4.081   4.275  -9.440  1.00  0.00     0.000 C 
BRANCH   2   3
ATOM      3  C   UNL     1       4.652   2.850  -9.407  1.00  0.00     0.000 C 
BRANCH   3   4
ATOM      4  C   UNL     1       5.161   2.443  -8.013  1.00  0.00     0.006 C 
BRANCH   4   5
ATOM      5  C   UNL     1       4.949   0.960  -7.668  1.00  0.00     0.053 C 
BRANCH   5   6
ATOM      6  C   UNL     1       4.579   0.766  -6.230  1.00  0.00     0.041 C 
ATOM      7  O   UNL     1       3.554   0.100  -5.924  1.00  0.00    -0.550 OA
ATOM      8  O   UNL     1       5.382   1.293  -5.226  1.00  0.00    -0.550 OA
ENDBRANCH   5   6
ENDBRANCH   4   5
ENDBRANCH   3   4
ENDBRANCH   2   3
ENDBRANCH   1   2
BRANCH   1   9
ATOM      9  C   UNL     1       1.977   5.680  -9.435  1.00  0.00     0.000 C 
BRANCH   9  10
ATOM     10  C   UNL     1       3.073   6.756  -9.509  1.00  0.00    -0.000 C 
BRANCH  10  11
ATOM     11  C   UNL     1       2.738   8.002  -8.677  1.00  0.00    -0.000 C 
BRANCH  11  12
ATOM     12  C   UNL     1       4.014   8.670  -8.151  1.00  0.00    -0.000 C 
BRANCH  12  13
ATOM     13  C   UNL     1       5.011   7.625  -7.636  1.00  0.00    -0.003 C 
ATOM     14  C   UNL     1       6.190   8.288  -6.930  1.00  0.00     0.004 C 
ENDBRANCH  12  13
ENDBRANCH  11  12
ENDBRANCH  10  11
ENDBRANCH   9  10
ENDBRANCH   1   9
TORSDOF 10
ENDMDL
MODEL 4
REMARK VINA RESULT:    -3.777      1.233      2.438
REMARK INTER + INTRA:          -6.550
REMARK INTER:                  -5.950
REMARK INTRA:                  -0.600
REMARK UNBOUND:                -0.565
REMARK SMILES CCCCCCCCCCCC(=O)[O-]
REMARK SMILES IDX 7 1 8 2 9 3 10 4 11 5 12 6 13 7 14 8 6 9 5 10 4 11 3 12 2 13
REMARK SMILES IDX 1 14
REMARK H PARENT
REMARK Flexibility Score: inf
ROOT
ATOM      1  C   UNL     1       4.863  10.713   7.925  1.00  0.00     0.000 C 
ENDROOT
BRANCH   1   2
ATOM      2  C   UNL     1       4.122   9.790   8.901  1.00  0.00     0.000 C 
BRANCH   2   3
ATOM      3  C   UNL     1       4.413   8.315   8.593  1.00  0.00     0.000 C 
BRANCH   3   4
ATOM      4  C   UNL     1       3.831   7.357   9.649  1.00  0.00     0.006 C 
BRANCH   4   5
ATOM      5  C   UNL     1       4.165   5.876   9.415  1.00  0.00     0.053 C 
BRANCH   5   6
ATOM      6  C   UNL     1       3.090   5.172   8.647  1.00  0.00     0.041 C 
ATOM      7  O   UNL     1       3.187   5.039   7.398  1.00  0.00    -0.550 OA
ATOM      8  O   UNL     1       1.995   4.635   9.313  1.00  0.00    -0.550 OA
ENDBRANCH   5   6
ENDBRANCH   4   5
ENDBRANCH   3   4
ENDBRANCH   2   3
ENDBRANCH   1   2
BRANCH   1   9
ATOM      9  C   UNL     1       3.874  11.538   7.089  1.00  0.00     0.000 C 
BRANCH   9  10
ATOM     10  C   UNL     1       4.578  12.534   6.153  1.00  0.00    -0.000 C 
BRANCH  10  11
ATOM     11  C   UNL     1       4.554  13.972   6.691  1.00  0.00    -0.000 C 
BRANCH  11  12
ATOM     12  C   UNL     1       5.957  14.424   7.113  1.00  0.00    -0.000 C 
BRANCH  12  13
ATOM     13  C   UNL     1       6.011  14.721   8.616  1.00  0.00    -0.003 C 
ATOM     14  C   UNL     1       6.731  13.609   9.373  1.00  0.00     0.004 C 
ENDBRANCH  12  13
ENDBRANCH  11  12
ENDBRANCH  10  11
ENDBRANCH   9  10
ENDBRANCH   1   9
TORSDOF 10
ENDMDL
MODEL 5
REMARK VINA RESULT:    -3.738      1.462      2.315
REMARK INTER + INTRA:          -6.488
REMARK INTER:                  -5.495
REMARK INTRA:                  -0.994
REMARK UNBOUND:                -0.565
REMARK SMILES CCCCCCCCCCCC(=O)[O-]
REMARK SMILES IDX 7 1 8 2 9 3 10 4 11 5 12 6 13 7 14 8 6 9 5 10 4 11 3 12 2 13
REMARK SMILES IDX 1 14
REMARK H PARENT
REMARK Flexibility Score: inf
ROOT
ATOM      1  C   UNL     1       6.563   9.939   9.007  1.00  0.00     0.000 C 
ENDROOT
BRANCH   1   2
ATOM      2  C   UNL     1       5.457   9.976  10.069  1.00  0.00     0.000 C 
BRANCH   2   3
ATOM      3  C   UNL     1       4.093   9.631   9.455  1.00  0.00     0.000 C 
BRANCH   3   4
ATOM      4  C   UNL     1       4.110   8.308   8.668  1.00  0.00     0.006 C 
BRANCH   4   5
ATOM      5  C   UNL     1       3.953   7.050   9.538  1.00  0.00     0.053 C 
BRANCH   5   6
ATOM      6  C   UNL     1       4.091   5.793   8.736  1.00  0.00     0.041 C 
ATOM      7  O   UNL     1       3.249   5.516   7.842  1.00  0.00    -0.550 OA
ATOM      8  O   UNL     1       5.168   4.942   8.955  1.00  0.00    -0.550 OA
ENDBRANCH   5   6
ENDBRANCH   4   5
ENDBRANCH   3   4
ENDBRANCH   2   3
ENDBRANCH   1   2
BRANCH   1   9
ATOM      9  C   UNL     1       6.512  11.188   8.115  1.00  0.00     0.000 C 
BRANCH   9  10
ATOM     10  C   UNL     1       6.321  10.845   6.628  1.00  0.00    -0.000 C 
BRANCH  10  11
ATOM     11  C   UNL     1       5.115  11.563   6.005  1.00  0.00    -0.000 C 
BRANCH  11  12
ATOM     12  C   UNL     1       4.371  12.397   7.054  1.00  0.00    -0.000 C 
BRANCH  12  13
ATOM     13  C   UNL     1       4.383  13.886   6.686  1.00  0.00    -0.003 C 
ATOM     14  C   UNL     1       5.708  14.538   7.071  1.00  0.00     0.004 C 
ENDBRANCH  12  13
ENDBRANCH  11  12
ENDBRANCH  10  11
ENDBRANCH   9  10
ENDBRANCH   1   9
TORSDOF 10
ENDMDL
MODEL 6
REMARK VINA RESULT:    -3.727      3.293      7.187
REMARK INTER + INTRA:          -6.471
REMARK INTER:                  -5.911
REMARK INTRA:                  -0.560
REMARK UNBOUND:                -0.565
REMARK SMILES CCCCCCCCCCCC(=O)[O-]
REMARK SMILES IDX 7 1 8 2 9 3 10 4 11 5 12 6 13 7 14 8 6 9 5 10 4 11 3 12 2 13
REMARK SMILES IDX 1 14
REMARK H PARENT
REMARK Flexibility Score: inf
ROOT
ATOM      1  C   UNL     1       4.109   7.713   8.900  1.00  0.00     0.000 C 
ENDROOT
BRANCH   1   2
ATOM      2  C   UNL     1       3.957   8.953   9.790  1.00  0.00     0.000 C 
BRANCH   2   3
ATOM      3  C   UNL     1       4.516  10.202   9.093  1.00  0.00     0.000 C 
BRANCH   3   4
ATOM      4  C   UNL     1       5.511   9.863   7.967  1.00  0.00     0.006 C 
BRANCH   4   5
ATOM      5  C   UNL     1       6.032  11.083   7.193  1.00  0.00     0.053 C 
BRANCH   5   6
ATOM      6  C   UNL     1       4.943  11.767   6.425  1.00  0.00     0.041 C 
ATOM      7  O   UNL     1       4.544  11.291   5.330  1.00  0.00    -0.550 OA
ATOM      8  O   UNL     1       4.346  12.914   6.935  1.00  0.00    -0.550 OA
ENDBRANCH   5   6
ENDBRANCH   4   5
ENDBRANCH   3   4
ENDBRANCH   2   3
ENDBRANCH   1   2
BRANCH   1   9
ATOM      9  C   UNL     1       4.510   6.485   9.732  1.00  0.00     0.000 C 
BRANCH   9  10
ATOM     10  C   UNL     1       4.401   5.172   8.939  1.00  0.00    -0.000 C 
BRANCH  10  11
ATOM     11  C   UNL     1       3.092   5.066   8.145  1.00  0.00    -0.000 C 
BRANCH  11  12
ATOM     12  C   UNL     1       2.181   3.980   8.729  1.00  0.00    -0.000 C 
BRANCH  12  13
ATOM     13  C   UNL     1       1.338   4.531   9.885  1.00  0.00    -0.003 C 
ATOM     14  C   UNL     1      -0.017   3.833   9.960  1.00  0.00     0.004 C 
ENDBRANCH  12  13
ENDBRANCH  11  12
ENDBRANCH  10  11
ENDBRANCH   9  10
ENDBRANCH   1   9
TORSDOF 10
ENDMDL
MODEL 7
REMARK VINA RESULT:    -3.682      3.847      5.663
REMARK INTER + INTRA:          -6.400
REMARK INTER:                  -5.116
REMARK INTRA:                  -1.284
REMARK UNBOUND:                -0.565
REMARK SMILES CCCCCCCCCCCC(=O)[O-]
REMARK SMILES IDX 7 1 8 2 9 3 10 4 11 5 12 6 13 7 14 8 6 9 5 10 4 11 3 12 2 13
REMARK SMILES IDX 1 14
REMARK H PARENT
REMARK Flexibility Score: inf
ROOT
ATOM      1  C   UNL     1       4.882  13.854   6.370  1.00  0.00     0.000 C 
ENDROOT
BRANCH   1   2
ATOM      2  C   UNL     1       4.172  12.557   6.776  1.00  0.00     0.000 C 
BRANCH   2   3
ATOM      3  C   UNL     1       4.805  11.342   6.082  1.00  0.00     0.000 C 
BRANCH   3   4
ATOM      4  C   UNL     1       4.934  10.123   7.013  1.00  0.00     0.006 C 
BRANCH   4   5
ATOM      5  C   UNL     1       4.790  10.448   8.508  1.00  0.00     0.053 C 
BRANCH   5   6
ATOM      6  C   UNL     1       5.922   9.891   9.315  1.00  0.00     0.041 C 
ATOM      7  O   UNL     1       6.596  10.645  10.066  1.00  0.00    -0.550 OA
ATOM      8  O   UNL     1       6.213   8.533   9.263  1.00  0.00    -0.550 OA
ENDBRANCH   5   6
ENDBRANCH   4   5
ENDBRANCH   3   4
ENDBRANCH   2   3
ENDBRANCH   1   2
BRANCH   1   9
ATOM      9  C   UNL     1       5.489  14.556   7.594  1.00  0.00     0.000 C 
BRANCH   9  10
ATOM     10  C   UNL     1       6.568  13.709   8.288  1.00  0.00    -0.000 C 
BRANCH  10  11
ATOM     11  C   UNL     1       7.993  14.153   7.929  1.00  0.00    -0.000 C 
BRANCH  11  12
ATOM     12  C   UNL     1       8.913  12.943   7.735  1.00  0.00    -0.000 C 
BRANCH  12  13
ATOM     13  C   UNL     1       8.170  11.789   7.051  1.00  0.00    -0.003 C 
ATOM     14  C   UNL     1       9.128  10.912   6.251  1.00  0.00     0.004 C 
ENDBRANCH  12  13
ENDBRANCH  11  12
ENDBRANCH  10  11
ENDBRANCH   9  10
ENDBRANCH   1   9
TORSDOF 10
ENDMDL
MODEL 8
REMARK VINA RESULT:    -3.680     15.504     17.786
REMARK INTER + INTRA:          -6.396
REMARK INTER:                  -5.768
REMARK INTRA:                  -0.628
REMARK UNBOUND:                -0.565
REMARK SMILES CCCCCCCCCCCC(=O)[O-]
REMARK SMILES IDX 7 1 8 2 9 3 10 4 11 5 12 6 13 7 14 8 6 9 5 10 4 11 3 12 2 13
REMARK SMILES IDX 1 14
REMARK H PARENT
REMARK Flexibility Score: inf
ROOT
ATOM      1  C   UNL     1       2.090   4.711  -9.636  1.00  0.00     0.000 C 
ENDROOT
BRANCH   1   2
ATOM      2  C   UNL     1       1.917   6.206  -9.342  1.00  0.00     0.000 C 
BRANCH   2   3
ATOM      3  C   UNL     1       3.237   6.963  -9.546  1.00  0.00     0.000 C 
BRANCH   3   4
ATOM      4  C   UNL     1       3.565   7.916  -8.381  1.00  0.00     0.006 C 
BRANCH   4   5
ATOM      5  C   UNL     1       5.033   8.366  -8.325  1.00  0.00     0.053 C 
BRANCH   5   6
ATOM      6  C   UNL     1       5.825   7.575  -7.329  1.00  0.00     0.041 C 
ATOM      7  O   UNL     1       5.926   6.325  -7.449  1.00  0.00    -0.550 OA
ATOM      8  O   UNL     1       6.478   8.221  -6.286  1.00  0.00    -0.550 OA
ENDBRANCH   5   6
ENDBRANCH   4   5
ENDBRANCH   3   4
ENDBRANCH   2   3
ENDBRANCH   1   2
BRANCH   1   9
ATOM      9  C   UNL     1       3.571   4.307  -9.587  1.00  0.00     0.000 C 
BRANCH   9  10
ATOM     10  C   UNL     1       3.851   3.207  -8.551  1.00  0.00    -0.000 C 
BRANCH  10  11
ATOM     11  C   UNL     1       4.954   2.237  -8.999  1.00  0.00    -0.000 C 
BRANCH  11  12
ATOM     12  C   UNL     1       5.254   1.205  -7.907  1.00  0.00    -0.000 C 
BRANCH  12  13
ATOM     13  C   UNL     1       4.625   1.616  -6.571  1.00  0.00    -0.003 C 
ATOM     14  C   UNL     1       3.849   0.461  -5.947  1.00  0.00     0.004 C 
ENDBRANCH  12  13
ENDBRANCH  11  12
ENDBRANCH  10  11
ENDBRANCH   9  10
ENDBRANCH   1   9
TORSDOF 10
ENDMDL
MODEL 9
REMARK VINA RESULT:    -3.623      7.588      9.255
REMARK INTER + INTRA:          -6.306
REMARK INTER:                  -5.168
REMARK INTRA:                  -1.138
REMARK UNBOUND:                -0.565
REMARK SMILES CCCCCCCCCCCC(=O)[O-]
REMARK SMILES IDX 7 1 8 2 9 3 10 4 11 5 12 6 13 7 14 8 6 9 5 10 4 11 3 12 2 13
REMARK SMILES IDX 1 14
REMARK H PARENT
REMARK Flexibility Score: inf
ROOT
ATOM      1  C   UNL     1       6.809   0.300   7.516  1.00  0.00     0.000 C 
ENDROOT
BRANCH   1   2
ATOM      2  C   UNL     1       7.987  -0.116   6.626  1.00  0.00     0.000 C 
BRANCH   2   3
ATOM      3  C   UNL     1       7.537  -0.300   5.169  1.00  0.00     0.000 C 
BRANCH   3   4
ATOM      4  C   UNL     1       6.794  -1.629   4.937  1.00  0.00     0.006 C 
BRANCH   4   5
ATOM      5  C   UNL     1       7.461  -2.850   5.590  1.00  0.00     0.053 C 
BRANCH   5   6
ATOM      6  C   UNL     1       6.495  -3.641   6.417  1.00  0.00     0.041 C 
ATOM      7  O   UNL     1       6.017  -4.720   5.975  1.00  0.00    -0.550 OA
ATOM      8  O   UNL     1       6.146  -3.205   7.690  1.00  0.00    -0.550 OA
ENDBRANCH   5   6
ENDBRANCH   4   5
ENDBRANCH   3   4
ENDBRANCH   2   3
ENDBRANCH   1   2
BRANCH   1   9
ATOM      9  C   UNL     1       6.735   1.828   7.654  1.00  0.00     0.000 C 
BRANCH   9  10
ATOM     10  C   UNL     1       8.124   2.483   7.723  1.00  0.00    -0.000 C 
BRANCH  10  11
ATOM     11  C   UNL     1       8.242   3.719   6.820  1.00  0.00    -0.000 C 
BRANCH  11  12
ATOM     12  C   UNL     1       7.467   3.519   5.512  1.00  0.00    -0.000 C 
BRANCH  12  13
ATOM     13  C   UNL     1       8.420   3.234   4.345  1.00  0.00    -0.003 C 
ATOM     14  C   UNL     1       9.810   3.800   4.617  1.00  0.00     0.004 C 
ENDBRANCH  12  13
ENDBRANCH  11  12
ENDBRANCH  10  11
ENDBRANCH   9  10
ENDBRANCH   1   9
TORSDOF 10
ENDMDL
