MODEL 1
REMARK VINA RESULT:    22.511      0.000      0.000
REMARK INTER + INTRA:          59.549
REMARK INTER:                  59.357
REMARK INTRA:                   0.191
REMARK UNBOUND:                 0.191
REMARK SMILES CCCCCCCCCCCCCCCCCCCCCCCCCCCCCC(=O)[O-]
REMARK SMILES IDX 16 1 17 2 18 3 19 4 20 5 21 6 22 7 23 8 24 9 25 10 26 11
REMARK SMILES IDX 27 12 28 13 29 14 30 15 31 16 32 17 15 18 14 19 13 20 12 21
REMARK SMILES IDX 11 22 10 23 9 24 8 25 7 26 6 27 5 28 4 29 3 30 2 31 1 32
REMARK H PARENT
REMARK Flexibility Score: inf
ROOT
ATOM      1  C   UNL     1     100.830  95.326  10.347  1.00  0.00     0.000 C 
ENDROOT
BRANCH   1   2
ATOM      2  C   UNL     1      99.506  96.100  10.465  1.00  0.00     0.000 C 
BRANCH   2   3
ATOM      3  C   UNL     1      98.573  95.521  11.543  1.00  0.00     0.000 C 
BRANCH   3   4
ATOM      4  C   UNL     1      98.855  94.054  11.925  1.00  0.00     0.000 C 
BRANCH   4   5
ATOM      5  C   UNL     1     100.032  93.394  11.177  1.00  0.00     0.000 C 
BRANCH   5   6
ATOM      6  C   UNL     1     100.029  91.855  11.181  1.00  0.00     0.000 C 
BRANCH   6   7
ATOM      7  C   UNL     1     101.420  91.256  10.910  1.00  0.00     0.000 C 
BRANCH   7   8
ATOM      8  C   UNL     1     101.478  89.743  11.179  1.00  0.00     0.000 C 
BRANCH   8   9
ATOM      9  C   UNL     1     100.487  88.947  10.310  1.00  0.00     0.000 C 
BRANCH   9  10
ATOM     10  C   UNL     1     101.106  88.494   8.977  1.00  0.00     0.000 C 
BRANCH  10  11
ATOM     11  C   UNL     1     100.175  87.572   8.175  1.00  0.00     0.000 C 
BRANCH  11  12
ATOM     12  C   UNL     1     100.886  86.261   7.806  1.00  0.00     0.000 C 
BRANCH  12  13
ATOM     13  C   UNL     1     100.768  85.186   8.902  1.00  0.00     0.006 C 
BRANCH  13  14
ATOM     14  C   UNL     1     100.865  83.741   8.390  1.00  0.00     0.053 C 
BRANCH  14  15
ATOM     15  C   UNL     1      99.600  83.293   7.723  1.00  0.00     0.041 C 
ATOM     16  O   UNL     1      99.391  83.569   6.512  1.00  0.00    -0.550 OA
ATOM     17  O   UNL     1      98.662  82.553   8.433  1.00  0.00    -0.550 OA
ENDBRANCH  14  15
ENDBRANCH  13  14
ENDBRANCH  12  13
ENDBRANCH  11  12
ENDBRANCH  10  11
ENDBRANCH   9  10
ENDBRANCH   8   9
ENDBRANCH   7   8
ENDBRANCH   6   7
ENDBRANCH   5   6
ENDBRANCH   4   5
ENDBRANCH   3   4
ENDBRANCH   2   3
ENDBRANCH   1   2
BRANCH   1  18
ATOM     18  C   UNL     1     102.059  96.241  10.455  1.00  0.00     0.000 C 
BRANCH  18  19
ATOM     19  C   UNL     1     101.836  97.609   9.787  1.00  0.00     0.000 C 
BRANCH  19  20
ATOM     20  C   UNL     1     101.599  98.736  10.805  1.00  0.00     0.000 C 
BRANCH  20  21
ATOM     21  C   UNL     1     101.497 100.119  10.139  1.00  0.00     0.000 C 
BRANCH  21  22
ATOM     22  C   UNL     1     100.256 100.904  10.595  1.00  0.00     0.000 C 
BRANCH  22  23
ATOM     23  C   UNL     1      99.432 100.150  11.654  1.00  0.00     0.000 C 
BRANCH  23  24
ATOM     24  C   UNL     1      98.218  99.425  11.053  1.00  0.00    -0.000 C 
BRANCH  24  25
ATOM     25  C   UNL     1      96.999  99.437  11.986  1.00  0.00    -0.000 C 
BRANCH  25  26
ATOM     26  C   UNL     1      96.060 100.602  11.648  1.00  0.00    -0.000 C 
BRANCH  26  27
ATOM     27  C   UNL     1      94.819 100.108  10.888  1.00  0.00    -0.000 C 
BRANCH  27  28
ATOM     28  C   UNL     1      94.850 100.504   9.397  1.00  0.00    -0.000 C 
BRANCH  28  29
ATOM     29  C   UNL     1      94.595  99.327   8.437  1.00  0.00    -0.000 C 
BRANCH  29  30
ATOM     30  C   UNL     1      93.154  99.291   7.905  1.00  0.00    -0.000 C 
BRANCH  30  31
ATOM     31  C   UNL     1      93.033  99.891   6.495  1.00  0.00    -0.003 C 
ATOM     32  C   UNL     1      91.584 100.154   6.088  1.00  0.00     0.004 C 
ENDBRANCH  30  31
ENDBRANCH  29  30
ENDBRANCH  28  29
ENDBRANCH  27  28
ENDBRANCH  26  27
ENDBRANCH  25  26
ENDBRANCH  24  25
ENDBRANCH  23  24
ENDBRANCH  22  23
ENDBRANCH  21  22
ENDBRANCH  20  21
ENDBRANCH  19  20
ENDBRANCH  18  19
ENDBRANCH   1  18
TORSDOF 28
ENDMDL
MODEL 2
REMARK VINA RESULT:    22.603      5.874      6.857
REMARK INTER + INTRA:          59.792
REMARK INTER:                  60.815
REMARK INTRA:                  -1.023
REMARK UNBOUND:                 0.191
REMARK SMILES CCCCCCCCCCCCCCCCCCCCCCCCCCCCCC(=O)[O-]
REMARK SMILES IDX 16 1 17 2 18 3 19 4 20 5 21 6 22 7 23 8 24 9 25 10 26 11
REMARK SMILES IDX 27 12 28 13 29 14 30 15 31 16 32 17 15 18 14 19 13 20 12 21
REMARK SMILES IDX 11 22 10 23 9 24 8 25 7 26 6 27 5 28 4 29 3 30 2 31 1 32
REMARK H PARENT
REMARK Flexibility Score: inf
ROOT
ATOM      1  C   UNL     1      99.468  95.456  10.692  1.00  0.00     0.000 C 
ENDROOT
BRANCH   1   2
ATOM      2  C   UNL     1      98.657  94.528  11.612  1.00  0.00     0.000 C 
BRANCH   2   3
ATOM      3  C   UNL     1      98.366  95.158  12.985  1.00  0.00     0.000 C 
BRANCH   3   4
ATOM      4  C   UNL     1      98.494  94.193  14.182  1.00  0.00     0.000 C 
BRANCH   4   5
ATOM      5  C   UNL     1      98.047  92.742  13.907  1.00  0.00     0.000 C 
BRANCH   5   6
ATOM      6  C   UNL     1      97.563  91.963  15.143  1.00  0.00     0.000 C 
BRANCH   6   7
ATOM      7  C   UNL     1      96.540  90.868  14.793  1.00  0.00     0.000 C 
BRANCH   7   8
ATOM      8  C   UNL     1      95.095  91.281  15.116  1.00  0.00     0.000 C 
BRANCH   8   9
ATOM      9  C   UNL     1      94.061  90.239  14.651  1.00  0.00     0.000 C 
BRANCH   9  10
ATOM     10  C   UNL     1      93.413  89.487  15.827  1.00  0.00     0.000 C 
BRANCH  10  11
ATOM     11  C   UNL     1      91.943  89.129  15.562  1.00  0.00     0.000 C 
BRANCH  11  12
ATOM     12  C   UNL     1      91.806  87.660  15.132  1.00  0.00     0.000 C 
BRANCH  12  13
ATOM     13  C   UNL     1      91.503  86.718  16.311  1.00  0.00     0.006 C 
BRANCH  13  14
ATOM     14  C   UNL     1      91.409  87.417  17.676  1.00  0.00     0.053 C 
BRANCH  14  15
ATOM     15  C   UNL     1      92.654  87.234  18.490  1.00  0.00     0.041 C 
ATOM     16  O   UNL     1      93.395  86.235  18.296  1.00  0.00    -0.550 OA
ATOM     17  O   UNL     1      93.005  88.177  19.448  1.00  0.00    -0.550 OA
ENDBRANCH  14  15
ENDBRANCH  13  14
ENDBRANCH  12  13
ENDBRANCH  11  12
ENDBRANCH  10  11
ENDBRANCH   9  10
ENDBRANCH   8   9
ENDBRANCH   7   8
ENDBRANCH   6   7
ENDBRANCH   5   6
ENDBRANCH   4   5
ENDBRANCH   3   4
ENDBRANCH   2   3
ENDBRANCH   1   2
BRANCH   1  18
ATOM     18  C   UNL     1     100.883  94.924  10.417  1.00  0.00     0.000 C 
BRANCH  18  19
ATOM     19  C   UNL     1     101.930  96.049  10.337  1.00  0.00     0.000 C 
BRANCH  19  20
ATOM     20  C   UNL     1     101.311  97.448  10.481  1.00  0.00     0.000 C 
BRANCH  20  21
ATOM     21  C   UNL     1     102.171  98.543   9.828  1.00  0.00     0.000 C 
BRANCH  21  22
ATOM     22  C   UNL     1     101.963  99.923  10.473  1.00  0.00     0.000 C 
BRANCH  22  23
ATOM     23  C   UNL     1     100.709 100.642   9.944  1.00  0.00     0.000 C 
BRANCH  23  24
ATOM     24  C   UNL     1      99.518 100.542  10.910  1.00  0.00    -0.000 C 
BRANCH  24  25
ATOM     25  C   UNL     1      98.955  99.117  11.010  1.00  0.00    -0.000 C 
BRANCH  25  26
ATOM     26  C   UNL     1      97.475  99.082  10.604  1.00  0.00    -0.000 C 
BRANCH  26  27
ATOM     27  C   UNL     1      97.316  99.242   9.084  1.00  0.00    -0.000 C 
BRANCH  27  28
ATOM     28  C   UNL     1      95.943  99.830   8.697  1.00  0.00    -0.000 C 
BRANCH  28  29
ATOM     29  C   UNL     1      94.981  98.803   8.074  1.00  0.00    -0.000 C 
BRANCH  29  30
ATOM     30  C   UNL     1      94.139  99.390   6.930  1.00  0.00    -0.000 C 
BRANCH  30  31
ATOM     31  C   UNL     1      92.636  99.390   7.247  1.00  0.00    -0.003 C 
ATOM     32  C   UNL     1      91.850 100.375   6.381  1.00  0.00     0.004 C 
ENDBRANCH  30  31
ENDBRANCH  29  30
ENDBRANCH  28  29
ENDBRANCH  27  28
ENDBRANCH  26  27
ENDBRANCH  25  26
ENDBRANCH  24  25
ENDBRANCH  23  24
ENDBRANCH  22  23
ENDBRANCH  21  22
ENDBRANCH  20  21
ENDBRANCH  19  20
ENDBRANCH  18  19
ENDBRANCH   1  18
TORSDOF 28
ENDMDL
MODEL 3
REMARK VINA RESULT:    22.750      5.722      7.052
REMARK INTER + INTRA:          60.182
REMARK INTER:                  61.587
REMARK INTRA:                  -1.406
REMARK UNBOUND:                 0.191
REMARK SMILES CCCCCCCCCCCCCCCCCCCCCCCCCCCCCC(=O)[O-]
REMARK SMILES IDX 16 1 17 2 18 3 19 4 20 5 21 6 22 7 23 8 24 9 25 10 26 11
REMARK SMILES IDX 27 12 28 13 29 14 30 15 31 16 32 17 15 18 14 19 13 20 12 21
REMARK SMILES IDX 11 22 10 23 9 24 8 25 7 26 6 27 5 28 4 29 3 30 2 31 1 32
REMARK H PARENT
REMARK Flexibility Score: inf
ROOT
ATOM      1  C   UNL     1      99.470  95.450  10.593  1.00  0.00     0.000 C 
ENDROOT
BRANCH   1   2
ATOM      2  C   UNL     1      98.630  94.534  11.499  1.00  0.00     0.000 C 
BRANCH   2   3
ATOM      3  C   UNL     1      98.341  95.162  12.874  1.00  0.00     0.000 C 
BRANCH   3   4
ATOM      4  C   UNL     1      98.502  94.203  14.072  1.00  0.00     0.000 C 
BRANCH   4   5
ATOM      5  C   UNL     1      97.840  92.820  13.901  1.00  0.00     0.000 C 
BRANCH   5   6
ATOM      6  C   UNL     1      97.580  92.053  15.210  1.00  0.00     0.000 C 
BRANCH   6   7
ATOM      7  C   UNL     1      96.344  91.141  15.131  1.00  0.00     0.000 C 
BRANCH   7   8
ATOM      8  C   UNL     1      95.093  91.782  15.753  1.00  0.00     0.000 C 
BRANCH   8   9
ATOM      9  C   UNL     1      94.195  90.759  16.472  1.00  0.00     0.000 C 
BRANCH   9  10
ATOM     10  C   UNL     1      94.185  90.954  17.998  1.00  0.00     0.000 C 
BRANCH  10  11
ATOM     11  C   UNL     1      92.903  90.420  18.654  1.00  0.00     0.000 C 
BRANCH  11  12
ATOM     12  C   UNL     1      93.206  89.193  19.528  1.00  0.00     0.000 C 
BRANCH  12  13
ATOM     13  C   UNL     1      92.428  87.939  19.090  1.00  0.00     0.006 C 
BRANCH  13  14
ATOM     14  C   UNL     1      93.017  87.220  17.866  1.00  0.00     0.053 C 
BRANCH  14  15
ATOM     15  C   UNL     1      92.243  87.509  16.616  1.00  0.00     0.041 C 
ATOM     16  O   UNL     1      91.022  87.806  16.682  1.00  0.00    -0.550 OA
ATOM     17  O   UNL     1      92.877  87.471  15.379  1.00  0.00    -0.550 OA
ENDBRANCH  14  15
ENDBRANCH  13  14
ENDBRANCH  12  13
ENDBRANCH  11  12
ENDBRANCH  10  11
ENDBRANCH   9  10
ENDBRANCH   8   9
ENDBRANCH   7   8
ENDBRANCH   6   7
ENDBRANCH   5   6
ENDBRANCH   4   5
ENDBRANCH   3   4
ENDBRANCH   2   3
ENDBRANCH   1   2
BRANCH   1  18
ATOM     18  C   UNL     1     100.892  94.913  10.369  1.00  0.00     0.000 C 
BRANCH  18  19
ATOM     19  C   UNL     1     101.946  96.034  10.336  1.00  0.00     0.000 C 
BRANCH  19  20
ATOM     20  C   UNL     1     101.327  97.435  10.460  1.00  0.00     0.000 C 
BRANCH  20  21
ATOM     21  C   UNL     1     102.213  98.528   9.839  1.00  0.00     0.000 C 
BRANCH  21  22
ATOM     22  C   UNL     1     101.980  99.910  10.473  1.00  0.00     0.000 C 
BRANCH  22  23
ATOM     23  C   UNL     1     100.750 100.630   9.891  1.00  0.00     0.000 C 
BRANCH  23  24
ATOM     24  C   UNL     1      99.532 100.565  10.825  1.00  0.00    -0.000 C 
BRANCH  24  25
ATOM     25  C   UNL     1      98.939  99.153  10.929  1.00  0.00    -0.000 C 
BRANCH  25  26
ATOM     26  C   UNL     1      97.454  99.151  10.543  1.00  0.00    -0.000 C 
BRANCH  26  27
ATOM     27  C   UNL     1      97.280  99.213   9.018  1.00  0.00    -0.000 C 
BRANCH  27  28
ATOM     28  C   UNL     1      95.920  99.815   8.607  1.00  0.00    -0.000 C 
BRANCH  28  29
ATOM     29  C   UNL     1      94.904  98.771   8.109  1.00  0.00    -0.000 C 
BRANCH  29  30
ATOM     30  C   UNL     1      94.075  99.267   6.913  1.00  0.00    -0.000 C 
BRANCH  30  31
ATOM     31  C   UNL     1      92.585  99.421   7.256  1.00  0.00    -0.003 C 
ATOM     32  C   UNL     1      91.852 100.357   6.294  1.00  0.00     0.004 C 
ENDBRANCH  30  31
ENDBRANCH  29  30
ENDBRANCH  28  29
ENDBRANCH  27  28
ENDBRANCH  26  27
ENDBRANCH  25  26
ENDBRANCH  24  25
ENDBRANCH  23  24
ENDBRANCH  22  23
ENDBRANCH  21  22
ENDBRANCH  20  21
ENDBRANCH  19  20
ENDBRANCH  18  19
ENDBRANCH   1  18
TORSDOF 28
ENDMDL
MODEL 4
REMARK VINA RESULT:    23.418      6.815      8.777
REMARK INTER + INTRA:          61.942
REMARK INTER:                  62.275
REMARK INTRA:                  -0.334
REMARK UNBOUND:                 0.191
REMARK SMILES CCCCCCCCCCCCCCCCCCCCCCCCCCCCCC(=O)[O-]
REMARK SMILES IDX 16 1 17 2 18 3 19 4 20 5 21 6 22 7 23 8 24 9 25 10 26 11
REMARK SMILES IDX 27 12 28 13 29 14 30 15 31 16 32 17 15 18 14 19 13 20 12 21
REMARK SMILES IDX 11 22 10 23 9 24 8 25 7 26 6 27 5 28 4 29 3 30 2 31 1 32
REMARK H PARENT
REMARK Flexibility Score: inf
ROOT
ATOM      1  C   UNL     1     101.784  98.318  10.199  1.00  0.00     0.000 C 
ENDROOT
BRANCH   1   2
ATOM      2  C   UNL     1     102.275  96.865  10.303  1.00  0.00     0.000 C 
BRANCH   2   3
ATOM      3  C   UNL     1     101.131  95.868  10.557  1.00  0.00     0.000 C 
BRANCH   3   4
ATOM      4  C   UNL     1      99.737  96.508  10.723  1.00  0.00     0.000 C 
BRANCH   4   5
ATOM      5  C   UNL     1      98.597  95.523  11.054  1.00  0.00     0.000 C 
BRANCH   5   6
ATOM      6  C   UNL     1      98.261  95.391  12.551  1.00  0.00     0.000 C 
BRANCH   6   7
ATOM      7  C   UNL     1      98.634  94.014  13.126  1.00  0.00     0.000 C 
BRANCH   7   8
ATOM      8  C   UNL     1      98.569  93.974  14.661  1.00  0.00     0.000 C 
BRANCH   8   9
ATOM      9  C   UNL     1      99.091  95.268  15.311  1.00  0.00     0.000 C 
BRANCH   9  10
ATOM     10  C   UNL     1      99.785  95.011  16.660  1.00  0.00     0.000 C 
BRANCH  10  11
ATOM     11  C   UNL     1      99.261  95.923  17.779  1.00  0.00     0.000 C 
BRANCH  11  12
ATOM     12  C   UNL     1     100.243  97.072  18.055  1.00  0.00     0.000 C 
BRANCH  12  13
ATOM     13  C   UNL     1      99.850  98.378  17.339  1.00  0.00     0.006 C 
BRANCH  13  14
ATOM     14  C   UNL     1      98.359  98.735  17.439  1.00  0.00     0.053 C 
BRANCH  14  15
ATOM     15  C   UNL     1      97.946  99.043  18.846  1.00  0.00     0.041 C 
ATOM     16  O   UNL     1      98.687  99.745  19.583  1.00  0.00    -0.550 OA
ATOM     17  O   UNL     1      96.734  98.573  19.336  1.00  0.00    -0.550 OA
ENDBRANCH  14  15
ENDBRANCH  13  14
ENDBRANCH  12  13
ENDBRANCH  11  12
ENDBRANCH  10  11
ENDBRANCH   9  10
ENDBRANCH   8   9
ENDBRANCH   7   8
ENDBRANCH   6   7
ENDBRANCH   5   6
ENDBRANCH   4   5
ENDBRANCH   3   4
ENDBRANCH   2   3
ENDBRANCH   1   2
BRANCH   1  18
ATOM     18  C   UNL     1     102.800  99.235   9.499  1.00  0.00     0.000 C 
BRANCH  18  19
ATOM     19  C   UNL     1     102.437 100.725   9.631  1.00  0.00     0.000 C 
BRANCH  19  20
ATOM     20  C   UNL     1     100.943 100.950   9.912  1.00  0.00     0.000 C 
BRANCH  20  21
ATOM     21  C   UNL     1     100.491 100.313  11.237  1.00  0.00     0.000 C 
BRANCH  21  22
ATOM     22  C   UNL     1      99.105  99.655  11.135  1.00  0.00     0.000 C 
BRANCH  22  23
ATOM     23  C   UNL     1      98.084 100.266  12.113  1.00  0.00     0.000 C 
BRANCH  23  24
ATOM     24  C   UNL     1      97.192  99.205  12.775  1.00  0.00    -0.000 C 
BRANCH  24  25
ATOM     25  C   UNL     1      95.833  99.767  13.217  1.00  0.00    -0.000 C 
BRANCH  25  26
ATOM     26  C   UNL     1      94.875  99.889  12.024  1.00  0.00    -0.000 C 
BRANCH  26  27
ATOM     27  C   UNL     1      95.479 100.771  10.920  1.00  0.00    -0.000 C 
BRANCH  27  28
ATOM     28  C   UNL     1      95.176 100.232   9.507  1.00  0.00    -0.000 C 
BRANCH  28  29
ATOM     29  C   UNL     1      93.762 100.571   9.003  1.00  0.00    -0.000 C 
BRANCH  29  30
ATOM     30  C   UNL     1      93.144  99.449   8.154  1.00  0.00    -0.000 C 
BRANCH  30  31
ATOM     31  C   UNL     1      92.980  99.849   6.680  1.00  0.00    -0.003 C 
ATOM     32  C   UNL     1      91.525  99.804   6.215  1.00  0.00     0.004 C 
ENDBRANCH  30  31
ENDBRANCH  29  30
ENDBRANCH  28  29
ENDBRANCH  27  28
ENDBRANCH  26  27
ENDBRANCH  25  26
ENDBRANCH  24  25
ENDBRANCH  23  24
ENDBRANCH  22  23
ENDBRANCH  21  22
ENDBRANCH  20  21
ENDBRANCH  19  20
ENDBRANCH  18  19
ENDBRANCH   1  18
TORSDOF 28
ENDMDL
MODEL 5
REMARK VINA RESULT:    23.681      5.244      6.045
REMARK INTER + INTRA:          62.634
REMARK INTER:                  63.237
REMARK INTRA:                  -0.603
REMARK UNBOUND:                 0.191
REMARK SMILES CCCCCCCCCCCCCCCCCCCCCCCCCCCCCC(=O)[O-]
REMARK SMILES IDX 16 1 17 2 18 3 19 4 20 5 21 6 22 7 23 8 24 9 25 10 26 11
REMARK SMILES IDX 27 12 28 13 29 14 30 15 31 16 32 17 15 18 14 19 13 20 12 21
REMARK SMILES IDX 11 22 10 23 9 24 8 25 7 26 6 27 5 28 4 29 3 30 2 31 1 32
REMARK H PARENT
REMARK Flexibility Score: inf
ROOT
ATOM      1  C   UNL     1     101.510  95.330   9.911  1.00  0.00     0.000 C 
ENDROOT
BRANCH   1   2
ATOM      2  C   UNL     1     100.726  94.356  10.807  1.00  0.00     0.000 C 
BRANCH   2   3
ATOM      3  C   UNL     1      99.202  94.521  10.673  1.00  0.00     0.000 C 
BRANCH   3   4
ATOM      4  C   UNL     1      98.661  95.908  11.076  1.00  0.00     0.000 C 
BRANCH   4   5
ATOM      5  C   UNL     1      98.152  96.019  12.527  1.00  0.00     0.000 C 
BRANCH   5   6
ATOM      6  C   UNL     1      97.660  94.700  13.150  1.00  0.00     0.000 C 
BRANCH   6   7
ATOM      7  C   UNL     1      98.762  93.962  13.930  1.00  0.00     0.000 C 
BRANCH   7   8
ATOM      8  C   UNL     1      98.200  93.061  15.042  1.00  0.00     0.000 C 
BRANCH   8   9
ATOM      9  C   UNL     1      97.310  91.930  14.497  1.00  0.00     0.000 C 
BRANCH   9  10
ATOM     10  C   UNL     1      95.881  91.980  15.065  1.00  0.00     0.000 C 
BRANCH  10  11
ATOM     11  C   UNL     1      95.089  90.693  14.789  1.00  0.00     0.000 C 
BRANCH  11  12
ATOM     12  C   UNL     1      93.645  90.818  15.299  1.00  0.00     0.000 C 
BRANCH  12  13
ATOM     13  C   UNL     1      93.257  89.692  16.275  1.00  0.00     0.006 C 
BRANCH  13  14
ATOM     14  C   UNL     1      92.981  88.336  15.606  1.00  0.00     0.053 C 
BRANCH  14  15
ATOM     15  C   UNL     1      92.007  87.509  16.388  1.00  0.00     0.041 C 
ATOM     16  O   UNL     1      90.998  87.014  15.820  1.00  0.00    -0.550 OA
ATOM     17  O   UNL     1      92.225  87.268  17.739  1.00  0.00    -0.550 OA
ENDBRANCH  14  15
ENDBRANCH  13  14
ENDBRANCH  12  13
ENDBRANCH  11  12
ENDBRANCH  10  11
ENDBRANCH   9  10
ENDBRANCH   8   9
ENDBRANCH   7   8
ENDBRANCH   6   7
ENDBRANCH   5   6
ENDBRANCH   4   5
ENDBRANCH   3   4
ENDBRANCH   2   3
ENDBRANCH   1   2
BRANCH   1  18
ATOM     18  C   UNL     1     102.014  96.562  10.678  1.00  0.00     0.000 C 
BRANCH  18  19
ATOM     19  C   UNL     1     101.218  97.834  10.337  1.00  0.00     0.000 C 
BRANCH  19  20
ATOM     20  C   UNL     1     102.114  98.979   9.838  1.00  0.00     0.000 C 
BRANCH  20  21
ATOM     21  C   UNL     1     101.649 100.355  10.346  1.00  0.00     0.000 C 
BRANCH  21  22
ATOM     22  C   UNL     1     100.118 100.461  10.447  1.00  0.00     0.000 C 
BRANCH  22  23
ATOM     23  C   UNL     1      99.505  99.371  11.345  1.00  0.00     0.000 C 
BRANCH  23  24
ATOM     24  C   UNL     1      98.139  99.778  11.918  1.00  0.00    -0.000 C 
BRANCH  24  25
ATOM     25  C   UNL     1      96.966  99.305  11.046  1.00  0.00    -0.000 C 
BRANCH  25  26
ATOM     26  C   UNL     1      95.755 100.233  11.206  1.00  0.00    -0.000 C 
BRANCH  26  27
ATOM     27  C   UNL     1      94.899 100.247   9.930  1.00  0.00    -0.000 C 
BRANCH  27  28
ATOM     28  C   UNL     1      95.703  99.831   8.680  1.00  0.00    -0.000 C 
BRANCH  28  29
ATOM     29  C   UNL     1      94.894  98.997   7.671  1.00  0.00    -0.000 C 
BRANCH  29  30
ATOM     30  C   UNL     1      93.385  99.288   7.727  1.00  0.00    -0.000 C 
BRANCH  30  31
ATOM     31  C   UNL     1      92.787  99.559   6.338  1.00  0.00    -0.003 C 
ATOM     32  C   UNL     1      91.891 100.797   6.313  1.00  0.00     0.004 C 
ENDBRANCH  30  31
ENDBRANCH  29  30
ENDBRANCH  28  29
ENDBRANCH  27  28
ENDBRANCH  26  27
ENDBRANCH  25  26
ENDBRANCH  24  25
ENDBRANCH  23  24
ENDBRANCH  22  23
ENDBRANCH  21  22
ENDBRANCH  20  21
ENDBRANCH  19  20
ENDBRANCH  18  19
ENDBRANCH   1  18
TORSDOF 28
ENDMDL
MODEL 6
REMARK VINA RESULT:    23.780      6.383     11.771
REMARK INTER + INTRA:          62.897
REMARK INTER:                  65.470
REMARK INTRA:                  -2.573
REMARK UNBOUND:                 0.191
REMARK SMILES CCCCCCCCCCCCCCCCCCCCCCCCCCCCCC(=O)[O-]
REMARK SMILES IDX 16 1 17 2 18 3 19 4 20 5 21 6 22 7 23 8 24 9 25 10 26 11
REMARK SMILES IDX 27 12 28 13 29 14 30 15 31 16 32 17 15 18 14 19 13 20 12 21
REMARK SMILES IDX 11 22 10 23 9 24 8 25 7 26 6 27 5 28 4 29 3 30 2 31 1 32
REMARK H PARENT
REMARK Flexibility Score: inf
ROOT
ATOM      1  C   UNL     1     100.475  94.444  10.684  1.00  0.00     0.000 C 
ENDROOT
BRANCH   1   2
ATOM      2  C   UNL     1     101.581  95.450  10.323  1.00  0.00     0.000 C 
BRANCH   2   3
ATOM      3  C   UNL     1     101.162  96.909  10.571  1.00  0.00     0.000 C 
BRANCH   3   4
ATOM      4  C   UNL     1     102.277  97.952  10.348  1.00  0.00     0.000 C 
BRANCH   4   5
ATOM      5  C   UNL     1     101.901  99.128   9.423  1.00  0.00     0.000 C 
BRANCH   5   6
ATOM      6  C   UNL     1     101.918 100.515  10.091  1.00  0.00     0.000 C 
BRANCH   6   7
ATOM      7  C   UNL     1     100.506 101.057  10.373  1.00  0.00     0.000 C 
BRANCH   7   8
ATOM      8  C   UNL     1      99.790 100.291  11.498  1.00  0.00     0.000 C 
BRANCH   8   9
ATOM      9  C   UNL     1      98.642  99.408  10.978  1.00  0.00     0.000 C 
BRANCH   9  10
ATOM     10  C   UNL     1      98.091  98.462  12.059  1.00  0.00     0.000 C 
BRANCH  10  11
ATOM     11  C   UNL     1      97.076  99.149  12.986  1.00  0.00     0.000 C 
BRANCH  11  12
ATOM     12  C   UNL     1      96.493 100.407  12.322  1.00  0.00     0.000 C 
BRANCH  12  13
ATOM     13  C   UNL     1      95.119 100.157  11.673  1.00  0.00     0.006 C 
BRANCH  13  14
ATOM     14  C   UNL     1      94.898 100.900  10.346  1.00  0.00     0.053 C 
BRANCH  14  15
ATOM     15  C   UNL     1      95.065  99.998   9.161  1.00  0.00     0.041 C 
ATOM     16  O   UNL     1      96.215  99.730   8.726  1.00  0.00    -0.550 OA
ATOM     17  O   UNL     1      93.949  99.436   8.551  1.00  0.00    -0.550 OA
ENDBRANCH  14  15
ENDBRANCH  13  14
ENDBRANCH  12  13
ENDBRANCH  11  12
ENDBRANCH  10  11
ENDBRANCH   9  10
ENDBRANCH   8   9
ENDBRANCH   7   8
ENDBRANCH   6   7
ENDBRANCH   5   6
ENDBRANCH   4   5
ENDBRANCH   3   4
ENDBRANCH   2   3
ENDBRANCH   1   2
BRANCH   1  18
ATOM     18  C   UNL     1      99.086  95.096  10.755  1.00  0.00     0.000 C 
BRANCH  18  19
ATOM     19  C   UNL     1      98.176  94.432  11.803  1.00  0.00     0.000 C 
BRANCH  19  20
ATOM     20  C   UNL     1      98.544  94.823  13.243  1.00  0.00     0.000 C 
BRANCH  20  21
ATOM     21  C   UNL     1      98.710  93.600  14.161  1.00  0.00     0.000 C 
BRANCH  21  22
ATOM     22  C   UNL     1      97.370  92.922  14.491  1.00  0.00     0.000 C 
BRANCH  22  23
ATOM     23  C   UNL     1      97.531  91.436  14.858  1.00  0.00     0.000 C 
BRANCH  23  24
ATOM     24  C   UNL     1      96.212  90.654  14.752  1.00  0.00    -0.000 C 
BRANCH  24  25
ATOM     25  C   UNL     1      95.060  91.332  15.508  1.00  0.00    -0.000 C 
BRANCH  25  26
ATOM     26  C   UNL     1      93.703  90.783  15.047  1.00  0.00    -0.000 C 
BRANCH  26  27
ATOM     27  C   UNL     1      93.744  89.253  14.913  1.00  0.00    -0.000 C 
BRANCH  27  28
ATOM     28  C   UNL     1      92.655  88.561  15.758  1.00  0.00    -0.000 C 
BRANCH  28  29
ATOM     29  C   UNL     1      93.211  87.565  16.793  1.00  0.00    -0.000 C 
BRANCH  29  30
ATOM     30  C   UNL     1      92.440  87.591  18.122  1.00  0.00    -0.000 C 
BRANCH  30  31
ATOM     31  C   UNL     1      92.098  89.020  18.575  1.00  0.00    -0.003 C 
ATOM     32  C   UNL     1      93.114  89.582  19.569  1.00  0.00     0.004 C 
ENDBRANCH  30  31
ENDBRANCH  29  30
ENDBRANCH  28  29
ENDBRANCH  27  28
ENDBRANCH  26  27
ENDBRANCH  25  26
ENDBRANCH  24  25
ENDBRANCH  23  24
ENDBRANCH  22  23
ENDBRANCH  21  22
ENDBRANCH  20  21
ENDBRANCH  19  20
ENDBRANCH  18  19
ENDBRANCH   1  18
TORSDOF 28
ENDMDL
MODEL 7
REMARK VINA RESULT:    23.783      1.121      1.629
REMARK INTER + INTRA:          62.904
REMARK INTER:                  63.957
REMARK INTRA:                  -1.053
REMARK UNBOUND:                 0.191
REMARK SMILES CCCCCCCCCCCCCCCCCCCCCCCCCCCCCC(=O)[O-]
REMARK SMILES IDX 16 1 17 2 18 3 19 4 20 5 21 6 22 7 23 8 24 9 25 10 26 11
REMARK SMILES IDX 27 12 28 13 29 14 30 15 31 16 32 17 15 18 14 19 13 20 12 21
REMARK SMILES IDX 11 22 10 23 9 24 8 25 7 26 6 27 5 28 4 29 3 30 2 31 1 32
REMARK H PARENT
REMARK Flexibility Score: inf
ROOT
ATOM      1  C   UNL     1     101.093  95.175  10.237  1.00  0.00     0.000 C 
ENDROOT
BRANCH   1   2
ATOM      2  C   UNL     1      99.923  95.615  11.132  1.00  0.00     0.000 C 
BRANCH   2   3
ATOM      3  C   UNL     1      98.718  94.661  11.048  1.00  0.00     0.000 C 
BRANCH   3   4
ATOM      4  C   UNL     1      98.921  93.298  11.741  1.00  0.00     0.000 C 
BRANCH   4   5
ATOM      5  C   UNL     1     100.225  92.561  11.372  1.00  0.00     0.000 C 
BRANCH   5   6
ATOM      6  C   UNL     1     100.039  91.124  10.852  1.00  0.00     0.000 C 
BRANCH   6   7
ATOM      7  C   UNL     1     101.271  90.236  11.101  1.00  0.00     0.000 C 
BRANCH   7   8
ATOM      8  C   UNL     1     101.758  89.525   9.828  1.00  0.00     0.000 C 
BRANCH   8   9
ATOM      9  C   UNL     1     100.704  88.569   9.241  1.00  0.00     0.000 C 
BRANCH   9  10
ATOM     10  C   UNL     1     101.267  87.698   8.105  1.00  0.00     0.000 C 
BRANCH  10  11
ATOM     11  C   UNL     1     100.769  86.246   8.170  1.00  0.00     0.000 C 
BRANCH  11  12
ATOM     12  C   UNL     1     101.929  85.282   8.466  1.00  0.00     0.000 C 
BRANCH  12  13
ATOM     13  C   UNL     1     101.514  83.802   8.373  1.00  0.00     0.006 C 
BRANCH  13  14
ATOM     14  C   UNL     1     100.662  83.456   7.141  1.00  0.00     0.053 C 
BRANCH  14  15
ATOM     15  C   UNL     1      99.206  83.349   7.476  1.00  0.00     0.041 C 
ATOM     16  O   UNL     1      98.823  82.585   8.400  1.00  0.00    -0.550 OA
ATOM     17  O   UNL     1      98.274  84.110   6.780  1.00  0.00    -0.550 OA
ENDBRANCH  14  15
ENDBRANCH  13  14
ENDBRANCH  12  13
ENDBRANCH  11  12
ENDBRANCH  10  11
ENDBRANCH   9  10
ENDBRANCH   8   9
ENDBRANCH   7   8
ENDBRANCH   6   7
ENDBRANCH   5   6
ENDBRANCH   4   5
ENDBRANCH   3   4
ENDBRANCH   2   3
ENDBRANCH   1   2
BRANCH   1  18
ATOM     18  C   UNL     1     102.121  96.296  10.018  1.00  0.00     0.000 C 
BRANCH  18  19
ATOM     19  C   UNL     1     101.683  97.629  10.651  1.00  0.00     0.000 C 
BRANCH  19  20
ATOM     20  C   UNL     1     101.923  98.832   9.725  1.00  0.00     0.000 C 
BRANCH  20  21
ATOM     21  C   UNL     1     101.134 100.078  10.163  1.00  0.00     0.000 C 
BRANCH  21  22
ATOM     22  C   UNL     1     100.415  99.880  11.509  1.00  0.00     0.000 C 
BRANCH  22  23
ATOM     23  C   UNL     1      98.909  99.608  11.343  1.00  0.00     0.000 C 
BRANCH  23  24
ATOM     24  C   UNL     1      98.498  99.438   9.873  1.00  0.00    -0.000 C 
BRANCH  24  25
ATOM     25  C   UNL     1      96.991  99.633   9.653  1.00  0.00    -0.000 C 
BRANCH  25  26
ATOM     26  C   UNL     1      96.594  99.270   8.216  1.00  0.00    -0.000 C 
BRANCH  26  27
ATOM     27  C   UNL     1      95.102  99.544   7.970  1.00  0.00    -0.000 C 
BRANCH  27  28
ATOM     28  C   UNL     1      94.286  98.244   7.810  1.00  0.00    -0.000 C 
BRANCH  28  29
ATOM     29  C   UNL     1      93.159  98.343   6.766  1.00  0.00    -0.000 C 
BRANCH  29  30
ATOM     30  C   UNL     1      93.276  99.591   5.876  1.00  0.00    -0.000 C 
BRANCH  30  31
ATOM     31  C   UNL     1      91.986 100.425   5.860  1.00  0.00    -0.003 C 
ATOM     32  C   UNL     1      91.169 100.271   7.144  1.00  0.00     0.004 C 
ENDBRANCH  30  31
ENDBRANCH  29  30
ENDBRANCH  28  29
ENDBRANCH  27  28
ENDBRANCH  26  27
ENDBRANCH  25  26
ENDBRANCH  24  25
ENDBRANCH  23  24
ENDBRANCH  22  23
ENDBRANCH  21  22
ENDBRANCH  20  21
ENDBRANCH  19  20
ENDBRANCH  18  19
ENDBRANCH   1  18
TORSDOF 28
ENDMDL
MODEL 8
REMARK VINA RESULT:    23.838      6.613     11.426
REMARK INTER + INTRA:          63.050
REMARK INTER:                  63.790
REMARK INTRA:                  -0.740
REMARK UNBOUND:                 0.191
REMARK SMILES CCCCCCCCCCCCCCCCCCCCCCCCCCCCCC(=O)[O-]
REMARK SMILES IDX 16 1 17 2 18 3 19 4 20 5 21 6 22 7 23 8 24 9 25 10 26 11
REMARK SMILES IDX 27 12 28 13 29 14 30 15 31 16 32 17 15 18 14 19 13 20 12 21
REMARK SMILES IDX 11 22 10 23 9 24 8 25 7 26 6 27 5 28 4 29 3 30 2 31 1 32
REMARK H PARENT
REMARK Flexibility Score: inf
ROOT
ATOM      1  C   UNL     1     100.541  94.380  10.759  1.00  0.00     0.000 C 
ENDROOT
BRANCH   1   2
ATOM      2  C   UNL     1     101.551  95.076   9.832  1.00  0.00     0.000 C 
BRANCH   2   3
ATOM      3  C   UNL     1     102.170  96.334  10.466  1.00  0.00     0.000 C 
BRANCH   3   4
ATOM      4  C   UNL     1     101.307  97.607  10.359  1.00  0.00     0.000 C 
BRANCH   4   5
ATOM      5  C   UNL     1     102.084  98.937  10.439  1.00  0.00     0.000 C 
BRANCH   5   6
ATOM      6  C   UNL     1     101.474 100.100   9.636  1.00  0.00     0.000 C 
BRANCH   6   7
ATOM      7  C   UNL     1     100.290 100.766  10.358  1.00  0.00     0.000 C 
BRANCH   7   8
ATOM      8  C   UNL     1      99.825  99.974  11.590  1.00  0.00     0.000 C 
BRANCH   8   9
ATOM      9  C   UNL     1      98.292  99.880  11.693  1.00  0.00     0.000 C 
BRANCH   9  10
ATOM     10  C   UNL     1      97.832  98.728  12.603  1.00  0.00     0.000 C 
BRANCH  10  11
ATOM     11  C   UNL     1      97.261  99.223  13.941  1.00  0.00     0.000 C 
BRANCH  11  12
ATOM     12  C   UNL     1      97.587  98.238  15.074  1.00  0.00     0.000 C 
BRANCH  12  13
ATOM     13  C   UNL     1      98.450  98.867  16.183  1.00  0.00     0.006 C 
BRANCH  13  14
ATOM     14  C   UNL     1      98.471  98.073  17.499  1.00  0.00     0.053 C 
BRANCH  14  15
ATOM     15  C   UNL     1      99.652  97.156  17.586  1.00  0.00     0.041 C 
ATOM     16  O   UNL     1      99.490  95.939  17.863  1.00  0.00    -0.550 OA
ATOM     17  O   UNL     1     100.931  97.642  17.339  1.00  0.00    -0.550 OA
ENDBRANCH  14  15
ENDBRANCH  13  14
ENDBRANCH  12  13
ENDBRANCH  11  12
ENDBRANCH  10  11
ENDBRANCH   9  10
ENDBRANCH   8   9
ENDBRANCH   7   8
ENDBRANCH   6   7
ENDBRANCH   5   6
ENDBRANCH   4   5
ENDBRANCH   3   4
ENDBRANCH   2   3
ENDBRANCH   1   2
BRANCH   1  18
ATOM     18  C   UNL     1      99.109  94.904  10.570  1.00  0.00     0.000 C 
BRANCH  18  19
ATOM     19  C   UNL     1      98.754  96.021  11.569  1.00  0.00     0.000 C 
BRANCH  19  20
ATOM     20  C   UNL     1      98.283  95.475  12.926  1.00  0.00     0.000 C 
BRANCH  20  21
ATOM     21  C   UNL     1      98.447  93.950  13.036  1.00  0.00     0.000 C 
BRANCH  21  22
ATOM     22  C   UNL     1      98.250  93.436  14.473  1.00  0.00     0.000 C 
BRANCH  22  23
ATOM     23  C   UNL     1      97.936  91.930  14.527  1.00  0.00     0.000 C 
BRANCH  23  24
ATOM     24  C   UNL     1      96.777  91.602  15.482  1.00  0.00    -0.000 C 
BRANCH  24  25
ATOM     25  C   UNL     1      95.742  90.658  14.854  1.00  0.00    -0.000 C 
BRANCH  25  26
ATOM     26  C   UNL     1      94.319  91.038  15.285  1.00  0.00    -0.000 C 
BRANCH  26  27
ATOM     27  C   UNL     1      93.451  89.787  15.488  1.00  0.00    -0.000 C 
BRANCH  27  28
ATOM     28  C   UNL     1      93.005  89.614  16.955  1.00  0.00    -0.000 C 
BRANCH  28  29
ATOM     29  C   UNL     1      92.622  88.169  17.321  1.00  0.00    -0.000 C 
BRANCH  29  30
ATOM     30  C   UNL     1      92.591  87.231  16.104  1.00  0.00    -0.000 C 
BRANCH  30  31
ATOM     31  C   UNL     1      91.170  86.748  15.772  1.00  0.00    -0.003 C 
ATOM     32  C   UNL     1      90.300  87.847  15.163  1.00  0.00     0.004 C 
ENDBRANCH  30  31
ENDBRANCH  29  30
ENDBRANCH  28  29
ENDBRANCH  27  28
ENDBRANCH  26  27
ENDBRANCH  25  26
ENDBRANCH  24  25
ENDBRANCH  23  24
ENDBRANCH  22  23
ENDBRANCH  21  22
ENDBRANCH  20  21
ENDBRANCH  19  20
ENDBRANCH  18  19
ENDBRANCH   1  18
TORSDOF 28
ENDMDL
MODEL 9
REMARK VINA RESULT:    23.977      6.264     11.371
REMARK INTER + INTRA:          63.417
REMARK INTER:                  63.699
REMARK INTRA:                  -0.282
REMARK UNBOUND:                 0.191
REMARK SMILES CCCCCCCCCCCCCCCCCCCCCCCCCCCCCC(=O)[O-]
REMARK SMILES IDX 16 1 17 2 18 3 19 4 20 5 21 6 22 7 23 8 24 9 25 10 26 11
REMARK SMILES IDX 27 12 28 13 29 14 30 15 31 16 32 17 15 18 14 19 13 20 12 21
REMARK SMILES IDX 11 22 10 23 9 24 8 25 7 26 6 27 5 28 4 29 3 30 2 31 1 32
REMARK H PARENT
REMARK Flexibility Score: inf
ROOT
ATOM      1  C   UNL     1     100.600  94.379  10.868  1.00  0.00     0.000 C 
ENDROOT
BRANCH   1   2
ATOM      2  C   UNL     1     101.612  94.947   9.860  1.00  0.00     0.000 C 
BRANCH   2   3
ATOM      3  C   UNL     1     102.296  96.230  10.363  1.00  0.00     0.000 C 
BRANCH   3   4
ATOM      4  C   UNL     1     101.375  97.465  10.450  1.00  0.00     0.000 C 
BRANCH   4   5
ATOM      5  C   UNL     1     101.972  98.771   9.886  1.00  0.00     0.000 C 
BRANCH   5   6
ATOM      6  C   UNL     1     101.538 100.056  10.615  1.00  0.00     0.000 C 
BRANCH   6   7
ATOM      7  C   UNL     1     100.058 100.403  10.379  1.00  0.00     0.000 C 
BRANCH   7   8
ATOM      8  C   UNL     1      99.130  99.189  10.547  1.00  0.00     0.000 C 
BRANCH   8   9
ATOM      9  C   UNL     1      97.732  99.577  11.062  1.00  0.00     0.000 C 
BRANCH   9  10
ATOM     10  C   UNL     1      96.694  99.675   9.931  1.00  0.00     0.000 C 
BRANCH  10  11
ATOM     11  C   UNL     1      95.412 100.402  10.366  1.00  0.00     0.000 C 
BRANCH  11  12
ATOM     12  C   UNL     1      94.408 100.483   9.206  1.00  0.00     0.000 C 
BRANCH  12  13
ATOM     13  C   UNL     1      94.436  99.237   8.303  1.00  0.00     0.006 C 
BRANCH  13  14
ATOM     14  C   UNL     1      93.059  98.800   7.778  1.00  0.00     0.053 C 
BRANCH  14  15
ATOM     15  C   UNL     1      92.633  99.596   6.582  1.00  0.00     0.041 C 
ATOM     16  O   UNL     1      91.471 100.076   6.522  1.00  0.00    -0.550 OA
ATOM     17  O   UNL     1      93.528  99.824   5.543  1.00  0.00    -0.550 OA
ENDBRANCH  14  15
ENDBRANCH  13  14
ENDBRANCH  12  13
ENDBRANCH  11  12
ENDBRANCH  10  11
ENDBRANCH   9  10
ENDBRANCH   8   9
ENDBRANCH   7   8
ENDBRANCH   6   7
ENDBRANCH   5   6
ENDBRANCH   4   5
ENDBRANCH   3   4
ENDBRANCH   2   3
ENDBRANCH   1   2
BRANCH   1  18
ATOM     18  C   UNL     1      99.144  94.603  10.431  1.00  0.00     0.000 C 
BRANCH  18  19
ATOM     19  C   UNL     1      98.614  95.990  10.836  1.00  0.00     0.000 C 
BRANCH  19  20
ATOM     20  C   UNL     1      98.247  96.073  12.326  1.00  0.00     0.000 C 
BRANCH  20  21
ATOM     21  C   UNL     1      98.794  94.884  13.134  1.00  0.00     0.000 C 
BRANCH  21  22
ATOM     22  C   UNL     1      97.855  94.465  14.278  1.00  0.00     0.000 C 
BRANCH  22  23
ATOM     23  C   UNL     1      98.273  93.135  14.931  1.00  0.00     0.000 C 
BRANCH  23  24
ATOM     24  C   UNL     1      97.599  91.918  14.279  1.00  0.00    -0.000 C 
BRANCH  24  25
ATOM     25  C   UNL     1      96.782  91.087  15.279  1.00  0.00    -0.000 C 
BRANCH  25  26
ATOM     26  C   UNL     1      95.288  91.418  15.176  1.00  0.00    -0.000 C 
BRANCH  26  27
ATOM     27  C   UNL     1      94.427  90.216  15.596  1.00  0.00    -0.000 C 
BRANCH  27  28
ATOM     28  C   UNL     1      93.236  89.986  14.642  1.00  0.00    -0.000 C 
BRANCH  28  29
ATOM     29  C   UNL     1      92.001  89.372  15.326  1.00  0.00    -0.000 C 
BRANCH  29  30
ATOM     30  C   UNL     1      92.346  88.160  16.206  1.00  0.00    -0.000 C 
BRANCH  30  31
ATOM     31  C   UNL     1      91.216  87.120  16.240  1.00  0.00    -0.003 C 
ATOM     32  C   UNL     1      91.068  86.366  14.919  1.00  0.00     0.004 C 
ENDBRANCH  30  31
ENDBRANCH  29  30
ENDBRANCH  28  29
ENDBRANCH  27  28
ENDBRANCH  26  27
ENDBRANCH  25  26
ENDBRANCH  24  25
ENDBRANCH  23  24
ENDBRANCH  22  23
ENDBRANCH  21  22
ENDBRANCH  20  21
ENDBRANCH  19  20
ENDBRANCH  18  19
ENDBRANCH   1  18
TORSDOF 28
ENDMDL
