MODEL 1
REMARK VINA RESULT:    -3.932      0.000      0.000
REMARK INTER + INTRA:          -4.752
REMARK INTER:                  -4.622
REMARK INTRA:                  -0.130
REMARK UNBOUND:                -0.130
REMARK SMILES O=C([O-])C=Cc1ccc(O)c(O)c1
REMARK SMILES IDX 6 1 13 2 7 3 11 4 8 5 9 6 5 7 4 8 2 9 1 10 3 11 12 12 10 14
REMARK H PARENT 12 13 10 15
REMARK Flexibility Score: inf
ROOT
ATOM      1  C   UNL     1       9.099  10.263  60.348  1.00  0.00    -0.022 A 
ATOM      2  C   UNL     1       9.869   9.326  61.058  1.00  0.00     0.058 A 
ATOM      3  C   UNL     1       9.113  10.226  58.939  1.00  0.00     0.012 A 
ATOM      4  C   UNL     1      10.618   8.353  60.382  1.00  0.00     0.157 A 
ATOM      5  C   UNL     1       9.860   9.256  58.266  1.00  0.00     0.051 A 
ATOM      6  C   UNL     1      10.611   8.318  58.978  1.00  0.00     0.157 A 
ENDROOT
BRANCH   1   7
ATOM      7  C   UNL     1       8.332  11.278  61.112  1.00  0.00     0.010 C 
ATOM      8  C   UNL     1       8.724  12.551  61.263  1.00  0.00     0.025 C 
BRANCH   8   9
ATOM      9  C   UNL     1       7.929  13.534  62.019  1.00  0.00     0.064 C 
ATOM     10  O   UNL     1       8.449  14.597  62.454  1.00  0.00    -0.545 OA
ATOM     11  O   UNL     1       6.584  13.286  62.256  1.00  0.00    -0.545 OA
ENDBRANCH   8   9
ENDBRANCH   1   7
BRANCH   4  12
ATOM     12  O   UNL     1      11.369   7.423  61.099  1.00  0.00    -0.504 OA
ATOM     13  H   UNL     1      10.961   6.562  61.443  1.00  0.00     0.293 HD
ENDBRANCH   4  12
BRANCH   6  14
ATOM     14  O   UNL     1      11.345   7.362  58.276  1.00  0.00    -0.504 OA
ATOM     15  H   UNL     1      12.331   7.208  58.449  1.00  0.00     0.293 HD
ENDBRANCH   6  14
TORSDOF 4
ENDMDL
MODEL 2
REMARK VINA RESULT:    -3.880      1.815      2.610
REMARK INTER + INTRA:          -4.691
REMARK INTER:                  -4.561
REMARK INTRA:                  -0.130
REMARK UNBOUND:                -0.130
REMARK SMILES O=C([O-])C=Cc1ccc(O)c(O)c1
REMARK SMILES IDX 6 1 13 2 7 3 11 4 8 5 9 6 5 7 4 8 2 9 1 10 3 11 12 12 10 14
REMARK H PARENT 12 13 10 15
REMARK Flexibility Score: inf
ROOT
ATOM      1  C   UNL     1       8.610  12.204  61.534  1.00  0.00    -0.022 A 
ATOM      2  C   UNL     1       8.221  11.087  62.293  1.00  0.00     0.058 A 
ATOM      3  C   UNL     1       9.408  12.005  60.391  1.00  0.00     0.012 A 
ATOM      4  C   UNL     1       8.597   9.792  61.908  1.00  0.00     0.157 A 
ATOM      5  C   UNL     1       9.783  10.714  60.007  1.00  0.00     0.051 A 
ATOM      6  C   UNL     1       9.380   9.607  60.757  1.00  0.00     0.157 A 
ENDROOT
BRANCH   1   7
ATOM      7  C   UNL     1       8.193  13.553  61.992  1.00  0.00     0.010 C 
ATOM      8  C   UNL     1       6.951  13.851  62.399  1.00  0.00     0.025 C 
BRANCH   8   9
ATOM      9  C   UNL     1       6.577  15.200  62.858  1.00  0.00     0.064 C 
ATOM     10  O   UNL     1       7.426  15.971  63.379  1.00  0.00    -0.545 OA
ATOM     11  O   UNL     1       5.265  15.630  62.710  1.00  0.00    -0.545 OA
ENDBRANCH   8   9
ENDBRANCH   1   7
BRANCH   4  12
ATOM     12  O   UNL     1       8.196   8.692  62.664  1.00  0.00    -0.504 OA
ATOM     13  H   UNL     1       8.719   7.824  62.659  1.00  0.00     0.293 HD
ENDBRANCH   4  12
BRANCH   6  14
ATOM     14  O   UNL     1       9.771   8.332  60.347  1.00  0.00    -0.504 OA
ATOM     15  H   UNL     1       9.593   7.508  60.910  1.00  0.00     0.293 HD
ENDBRANCH   6  14
TORSDOF 4
ENDMDL
MODEL 3
REMARK VINA RESULT:    -3.783      1.850      2.519
REMARK INTER + INTRA:          -4.577
REMARK INTER:                  -4.447
REMARK INTRA:                  -0.130
REMARK UNBOUND:                -0.130
REMARK SMILES O=C([O-])C=Cc1ccc(O)c(O)c1
REMARK SMILES IDX 6 1 13 2 7 3 11 4 8 5 9 6 5 7 4 8 2 9 1 10 3 11 12 12 10 14
REMARK H PARENT 12 13 10 15
REMARK Flexibility Score: inf
ROOT
ATOM      1  C   UNL     1       8.536  11.484  61.263  1.00  0.00    -0.022 A 
ATOM      2  C   UNL     1       8.693  10.118  60.971  1.00  0.00     0.058 A 
ATOM      3  C   UNL     1       9.374  12.417  60.621  1.00  0.00     0.012 A 
ATOM      4  C   UNL     1       9.648   9.690  60.037  1.00  0.00     0.157 A 
ATOM      5  C   UNL     1      10.325  11.990  59.691  1.00  0.00     0.051 A 
ATOM      6  C   UNL     1      10.466  10.632  59.394  1.00  0.00     0.157 A 
ENDROOT
BRANCH   1   7
ATOM      7  C   UNL     1       7.517  11.883  62.266  1.00  0.00     0.010 C 
ATOM      8  C   UNL     1       6.566  12.800  62.038  1.00  0.00     0.025 C 
BRANCH   8   9
ATOM      9  C   UNL     1       5.564  13.163  63.054  1.00  0.00     0.064 C 
ATOM     10  O   UNL     1       4.330  13.055  62.820  1.00  0.00    -0.545 OA
ATOM     11  O   UNL     1       5.985  13.628  64.291  1.00  0.00    -0.545 OA
ENDBRANCH   8   9
ENDBRANCH   1   7
BRANCH   4  12
ATOM     12  O   UNL     1       9.786   8.333  59.750  1.00  0.00    -0.504 OA
ATOM     13  H   UNL     1       9.012   7.688  59.846  1.00  0.00     0.293 HD
ENDBRANCH   4  12
BRANCH   6  14
ATOM     14  O   UNL     1      11.425  10.238  58.460  1.00  0.00    -0.504 OA
ATOM     15  H   UNL     1      11.413   9.320  58.032  1.00  0.00     0.293 HD
ENDBRANCH   6  14
TORSDOF 4
ENDMDL
MODEL 4
REMARK VINA RESULT:    -3.738     13.786     15.698
REMARK INTER + INTRA:          -4.523
REMARK INTER:                  -4.385
REMARK INTRA:                  -0.138
REMARK UNBOUND:                -0.130
REMARK SMILES O=C([O-])C=Cc1ccc(O)c(O)c1
REMARK SMILES IDX 6 1 13 2 7 3 11 4 8 5 9 6 5 7 4 8 2 9 1 10 3 11 12 12 10 14
REMARK H PARENT 12 13 10 15
REMARK Flexibility Score: inf
ROOT
ATOM      1  C   UNL     1       5.486  13.114  75.373  1.00  0.00    -0.022 A 
ATOM      2  C   UNL     1       6.283  12.399  76.285  1.00  0.00     0.058 A 
ATOM      3  C   UNL     1       5.789  13.036  74.000  1.00  0.00     0.012 A 
ATOM      4  C   UNL     1       7.345  11.601  75.836  1.00  0.00     0.157 A 
ATOM      5  C   UNL     1       6.848  12.241  73.553  1.00  0.00     0.051 A 
ATOM      6  C   UNL     1       7.626  11.522  74.463  1.00  0.00     0.157 A 
ENDROOT
BRANCH   1   7
ATOM      7  C   UNL     1       4.379  13.950  75.901  1.00  0.00     0.010 C 
ATOM      8  C   UNL     1       4.069  15.164  75.423  1.00  0.00     0.025 C 
BRANCH   8   9
ATOM      9  C   UNL     1       2.955  15.961  75.964  1.00  0.00     0.064 C 
ATOM     10  O   UNL     1       1.758  15.605  75.799  1.00  0.00    -0.545 OA
ATOM     11  O   UNL     1       3.230  17.123  76.671  1.00  0.00    -0.545 OA
ENDBRANCH   8   9
ENDBRANCH   1   7
BRANCH   4  12
ATOM     12  O   UNL     1       8.121  10.891  76.750  1.00  0.00    -0.504 OA
ATOM     13  H   UNL     1       8.516  11.334  77.571  1.00  0.00     0.293 HD
ENDBRANCH   4  12
BRANCH   6  14
ATOM     14  O   UNL     1       8.676  10.737  73.985  1.00  0.00    -0.504 OA
ATOM     15  H   UNL     1       8.515   9.859  73.504  1.00  0.00     0.293 HD
ENDBRANCH   6  14
TORSDOF 4
ENDMDL
MODEL 5
REMARK VINA RESULT:    -3.730     11.980     13.470
REMARK INTER + INTRA:          -4.514
REMARK INTER:                  -4.386
REMARK INTRA:                  -0.128
REMARK UNBOUND:                -0.130
REMARK SMILES O=C([O-])C=Cc1ccc(O)c(O)c1
REMARK SMILES IDX 6 1 13 2 7 3 11 4 8 5 9 6 5 7 4 8 2 9 1 10 3 11 12 12 10 14
REMARK H PARENT 12 13 10 15
REMARK Flexibility Score: inf
ROOT
ATOM      1  C   UNL     1      -3.275   9.030  60.155  1.00  0.00    -0.022 A 
ATOM      2  C   UNL     1      -2.693  10.261  59.805  1.00  0.00     0.058 A 
ATOM      3  C   UNL     1      -2.493   8.080  60.842  1.00  0.00     0.012 A 
ATOM      4  C   UNL     1      -1.367  10.553  60.156  1.00  0.00     0.157 A 
ATOM      5  C   UNL     1      -1.172   8.371  61.190  1.00  0.00     0.051 A 
ATOM      6  C   UNL     1      -0.605   9.603  60.853  1.00  0.00     0.157 A 
ENDROOT
BRANCH   1   7
ATOM      7  C   UNL     1      -4.679   8.768  59.752  1.00  0.00     0.010 C 
ATOM      8  C   UNL     1      -5.033   7.866  58.826  1.00  0.00     0.025 C 
BRANCH   8   9
ATOM      9  C   UNL     1      -6.439   7.625  58.460  1.00  0.00     0.064 C 
ATOM     10  O   UNL     1      -7.121   8.508  57.875  1.00  0.00    -0.545 OA
ATOM     11  O   UNL     1      -7.022   6.403  58.763  1.00  0.00    -0.545 OA
ENDBRANCH   8   9
ENDBRANCH   1   7
BRANCH   4  12
ATOM     12  O   UNL     1      -0.806  11.782  59.812  1.00  0.00    -0.504 OA
ATOM     13  H   UNL     1      -0.618  12.494  60.507  1.00  0.00     0.293 HD
ENDBRANCH   4  12
BRANCH   6  14
ATOM     14  O   UNL     1       0.717   9.862  61.216  1.00  0.00    -0.504 OA
ATOM     15  H   UNL     1       1.116  10.793  61.164  1.00  0.00     0.293 HD
ENDBRANCH   6  14
TORSDOF 4
ENDMDL
MODEL 6
REMARK VINA RESULT:    -3.684     10.076     11.954
REMARK INTER + INTRA:          -4.460
REMARK INTER:                  -4.332
REMARK INTRA:                  -0.128
REMARK UNBOUND:                -0.130
REMARK SMILES O=C([O-])C=Cc1ccc(O)c(O)c1
REMARK SMILES IDX 6 1 13 2 7 3 11 4 8 5 9 6 5 7 4 8 2 9 1 10 3 11 12 12 10 14
REMARK H PARENT 12 13 10 15
REMARK Flexibility Score: inf
ROOT
ATOM      1  C   UNL     1      -1.697   9.433  60.880  1.00  0.00    -0.022 A 
ATOM      2  C   UNL     1      -0.941  10.134  59.925  1.00  0.00     0.058 A 
ATOM      3  C   UNL     1      -2.840  10.048  61.428  1.00  0.00     0.012 A 
ATOM      4  C   UNL     1      -1.329  11.414  59.503  1.00  0.00     0.157 A 
ATOM      5  C   UNL     1      -3.226  11.324  61.007  1.00  0.00     0.051 A 
ATOM      6  C   UNL     1      -2.479  12.009  60.046  1.00  0.00     0.157 A 
ENDROOT
BRANCH   1   7
ATOM      7  C   UNL     1      -1.237   8.086  61.300  1.00  0.00     0.010 C 
ATOM      8  C   UNL     1      -0.095   7.861  61.965  1.00  0.00     0.025 C 
BRANCH   8   9
ATOM      9  C   UNL     1       0.323   6.510  62.375  1.00  0.00     0.064 C 
ATOM     10  O   UNL     1       1.340   6.333  63.097  1.00  0.00    -0.545 OA
ATOM     11  O   UNL     1      -0.418   5.412  61.961  1.00  0.00    -0.545 OA
ENDBRANCH   8   9
ENDBRANCH   1   7
BRANCH   4  12
ATOM     12  O   UNL     1      -0.576  12.094  58.547  1.00  0.00    -0.504 OA
ATOM     13  H   UNL     1      -1.008  12.532  57.743  1.00  0.00     0.293 HD
ENDBRANCH   4  12
BRANCH   6  14
ATOM     14  O   UNL     1      -2.892  13.280  59.646  1.00  0.00    -0.504 OA
ATOM     15  H   UNL     1      -3.424  13.431  58.797  1.00  0.00     0.293 HD
ENDBRANCH   6  14
TORSDOF 4
ENDMDL
MODEL 7
REMARK VINA RESULT:    -3.681      1.658      2.600
REMARK INTER + INTRA:          -4.456
REMARK INTER:                  -4.316
REMARK INTRA:                  -0.141
REMARK UNBOUND:                -0.130
REMARK SMILES O=C([O-])C=Cc1ccc(O)c(O)c1
REMARK SMILES IDX 6 1 13 2 7 3 11 4 8 5 9 6 5 7 4 8 2 9 1 10 3 11 12 12 10 14
REMARK H PARENT 12 13 10 15
REMARK Flexibility Score: inf
ROOT
ATOM      1  C   UNL     1       8.991  12.097  61.201  1.00  0.00    -0.022 A 
ATOM      2  C   UNL     1       9.699  11.920  60.000  1.00  0.00     0.058 A 
ATOM      3  C   UNL     1       8.551  10.959  61.905  1.00  0.00     0.012 A 
ATOM      4  C   UNL     1       9.987  10.634  59.520  1.00  0.00     0.157 A 
ATOM      5  C   UNL     1       8.838   9.678  61.426  1.00  0.00     0.051 A 
ATOM      6  C   UNL     1       9.556   9.509  60.239  1.00  0.00     0.157 A 
ENDROOT
BRANCH   1   7
ATOM      7  C   UNL     1       8.704  13.479  61.659  1.00  0.00     0.010 C 
ATOM      8  C   UNL     1       7.610  13.822  62.354  1.00  0.00     0.025 C 
BRANCH   8   9
ATOM      9  C   UNL     1       7.365  15.203  62.803  1.00  0.00     0.064 C 
ATOM     10  O   UNL     1       8.259  16.087  62.714  1.00  0.00    -0.545 OA
ATOM     11  O   UNL     1       6.125  15.539  63.330  1.00  0.00    -0.545 OA
ENDBRANCH   8   9
ENDBRANCH   1   7
BRANCH   4  12
ATOM     12  O   UNL     1      10.699  10.474  58.333  1.00  0.00    -0.504 OA
ATOM     13  H   UNL     1      10.821  11.238  57.678  1.00  0.00     0.293 HD
ENDBRANCH   4  12
BRANCH   6  14
ATOM     14  O   UNL     1       9.827   8.216  59.789  1.00  0.00    -0.504 OA
ATOM     15  H   UNL     1       9.167   7.456  59.907  1.00  0.00     0.293 HD
ENDBRANCH   6  14
TORSDOF 4
ENDMDL
MODEL 8
REMARK VINA RESULT:    -3.533     15.575     17.516
REMARK INTER + INTRA:          -4.283
REMARK INTER:                  -4.154
REMARK INTRA:                  -0.129
REMARK UNBOUND:                -0.130
REMARK SMILES O=C([O-])C=Cc1ccc(O)c(O)c1
REMARK SMILES IDX 6 1 13 2 7 3 11 4 8 5 9 6 5 7 4 8 2 9 1 10 3 11 12 12 10 14
REMARK H PARENT 12 13 10 15
REMARK Flexibility Score: inf
ROOT
ATOM      1  C   UNL     1       3.301  12.666  75.749  1.00  0.00    -0.022 A 
ATOM      2  C   UNL     1       2.337  11.680  76.020  1.00  0.00     0.058 A 
ATOM      3  C   UNL     1       2.900  14.016  75.708  1.00  0.00     0.012 A 
ATOM      4  C   UNL     1       1.002  12.032  76.273  1.00  0.00     0.157 A 
ATOM      5  C   UNL     1       1.570  14.366  75.959  1.00  0.00     0.051 A 
ATOM      6  C   UNL     1       0.620  13.382  76.244  1.00  0.00     0.157 A 
ENDROOT
BRANCH   1   7
ATOM      7  C   UNL     1       4.697  12.240  75.480  1.00  0.00     0.010 C 
ATOM      8  C   UNL     1       5.771  12.797  76.058  1.00  0.00     0.025 C 
BRANCH   8   9
ATOM      9  C   UNL     1       7.141  12.338  75.775  1.00  0.00     0.064 C 
ATOM     10  O   UNL     1       7.648  11.370  76.402  1.00  0.00    -0.545 OA
ATOM     11  O   UNL     1       7.888  12.983  74.798  1.00  0.00    -0.545 OA
ENDBRANCH   8   9
ENDBRANCH   1   7
BRANCH   4  12
ATOM     12  O   UNL     1       0.059  11.045  76.550  1.00  0.00    -0.504 OA
ATOM     13  H   UNL     1      -0.702  10.842  75.913  1.00  0.00     0.293 HD
ENDBRANCH   4  12
BRANCH   6  14
ATOM     14  O   UNL     1      -0.699  13.765  76.490  1.00  0.00    -0.504 OA
ATOM     15  H   UNL     1      -1.220  13.416  77.287  1.00  0.00     0.293 HD
ENDBRANCH   6  14
TORSDOF 4
ENDMDL
MODEL 9
REMARK VINA RESULT:    -3.478     10.144     11.177
REMARK INTER + INTRA:          -4.218
REMARK INTER:                  -4.094
REMARK INTRA:                  -0.124
REMARK UNBOUND:                -0.130
REMARK SMILES O=C([O-])C=Cc1ccc(O)c(O)c1
REMARK SMILES IDX 6 1 13 2 7 3 11 4 8 5 9 6 5 7 4 8 2 9 1 10 3 11 12 12 10 14
REMARK H PARENT 12 13 10 15
REMARK Flexibility Score: inf
ROOT
ATOM      1  C   UNL     1      -1.816  10.678  60.217  1.00  0.00    -0.022 A 
ATOM      2  C   UNL     1      -0.665   9.999  60.653  1.00  0.00     0.058 A 
ATOM      3  C   UNL     1      -3.019   9.959  60.081  1.00  0.00     0.012 A 
ATOM      4  C   UNL     1      -0.716   8.634  60.973  1.00  0.00     0.157 A 
ATOM      5  C   UNL     1      -3.070   8.599  60.400  1.00  0.00     0.051 A 
ATOM      6  C   UNL     1      -1.926   7.933  60.847  1.00  0.00     0.157 A 
ENDROOT
BRANCH   1   7
ATOM      7  C   UNL     1      -1.705  12.120  59.883  1.00  0.00     0.010 C 
ATOM      8  C   UNL     1      -1.570  13.090  60.799  1.00  0.00     0.025 C 
BRANCH   8   9
ATOM      9  C   UNL     1      -1.451  14.510  60.428  1.00  0.00     0.064 C 
ATOM     10  O   UNL     1      -0.335  15.015  60.132  1.00  0.00    -0.545 OA
ATOM     11  O   UNL     1      -2.588  15.306  60.403  1.00  0.00    -0.545 OA
ENDBRANCH   8   9
ENDBRANCH   1   7
BRANCH   4  12
ATOM     12  O   UNL     1       0.430   7.975  61.414  1.00  0.00    -0.504 OA
ATOM     13  H   UNL     1       0.601   7.001  61.193  1.00  0.00     0.293 HD
ENDBRANCH   4  12
BRANCH   6  14
ATOM     14  O   UNL     1      -2.011   6.576  61.158  1.00  0.00    -0.504 OA
ATOM     15  H   UNL     1      -2.229   6.251  62.093  1.00  0.00     0.293 HD
ENDBRANCH   6  14
TORSDOF 4
ENDMDL
