MODEL 1
REMARK VINA RESULT:    -6.305      0.000      0.000
REMARK INTER + INTRA:          -7.722
REMARK INTER:                  -7.411
REMARK INTRA:                  -0.311
REMARK UNBOUND:                -0.311
REMARK SMILES O=c1cc(-c2ccc(O)c(O)c2)oc2cc(O)cc(O)c12
REMARK SMILES IDX 4 1 3 2 2 3 1 4 21 5 19 6 18 7 16 8 15 9 14 10 13 11 5 12
REMARK SMILES IDX 6 13 7 14 8 15 12 16 10 17 9 18 11 20 20 22 17 24
REMARK H PARENT 9 19 11 21 20 23 17 25
REMARK Flexibility Score: inf
ROOT
ATOM      1  C   UNL     1      15.129   0.091  33.454  1.00  0.00     0.138 A 
ATOM      2  C   UNL     1      15.846   1.199  32.982  1.00  0.00     0.100 A 
ATOM      3  C   UNL     1      17.238   1.134  32.895  1.00  0.00     0.197 A 
ATOM      4  O   UNL     1      17.849   2.125  32.417  1.00  0.00    -0.289 OA
ATOM      5  C   UNL     1      17.915  -0.036  33.317  1.00  0.00     0.107 A 
ATOM      6  C   UNL     1      19.334  -0.203  33.307  1.00  0.00     0.134 A 
ATOM      7  C   UNL     1      19.884  -1.443  33.655  1.00  0.00     0.093 A 
ATOM      8  C   UNL     1      19.075  -2.500  34.069  1.00  0.00     0.123 A 
ATOM      9  C   UNL     1      17.692  -2.332  34.132  1.00  0.00     0.094 A 
ATOM     10  C   UNL     1      17.109  -1.119  33.757  1.00  0.00     0.146 A 
ATOM     11  O   UNL     1      15.786  -1.006  33.814  1.00  0.00    -0.456 OA
ENDROOT
BRANCH   1  12
ATOM     12  C   UNL     1      13.648   0.106  33.571  1.00  0.00     0.021 A 
ATOM     13  C   UNL     1      12.977   1.333  33.682  1.00  0.00     0.016 A 
ATOM     14  C   UNL     1      11.586   1.373  33.799  1.00  0.00     0.051 A 
ATOM     15  C   UNL     1      10.837   0.193  33.817  1.00  0.00     0.157 A 
ATOM     16  C   UNL     1      12.896  -1.084  33.604  1.00  0.00     0.062 A 
ATOM     17  C   UNL     1      11.501  -1.052  33.724  1.00  0.00     0.158 A 
BRANCH  15  18
ATOM     18  O   UNL     1       9.449   0.303  33.932  1.00  0.00    -0.504 OA
ATOM     19  H   UNL     1       8.796  -0.088  33.268  1.00  0.00     0.293 HD
ENDBRANCH  15  18
BRANCH  17  20
ATOM     20  O   UNL     1      10.822  -2.272  33.752  1.00  0.00    -0.504 OA
ATOM     21  H   UNL     1      10.318  -2.619  34.556  1.00  0.00     0.293 HD
ENDBRANCH  17  20
ENDBRANCH   1  12
BRANCH   6  22
ATOM     22  O   UNL     1      20.241   0.812  32.986  1.00  0.00    -0.507 OA
ATOM     23  H   UNL     1      21.080   1.023  33.504  1.00  0.00     0.293 HD
ENDBRANCH   6  22
BRANCH   8  24
ATOM     24  O   UNL     1      19.660  -3.715  34.423  1.00  0.00    -0.508 OA
ATOM     25  H   UNL     1      19.292  -4.279  35.180  1.00  0.00     0.293 HD
ENDBRANCH   8  24
TORSDOF 5
ENDMDL
MODEL 2
REMARK VINA RESULT:    -6.235      1.612      6.948
REMARK INTER + INTRA:          -7.639
REMARK INTER:                  -7.343
REMARK INTRA:                  -0.296
REMARK UNBOUND:                -0.311
REMARK SMILES O=c1cc(-c2ccc(O)c(O)c2)oc2cc(O)cc(O)c12
REMARK SMILES IDX 4 1 3 2 2 3 1 4 21 5 19 6 18 7 16 8 15 9 14 10 13 11 5 12
REMARK SMILES IDX 6 13 7 14 8 15 12 16 10 17 9 18 11 20 20 22 17 24
REMARK H PARENT 9 19 11 21 20 23 17 25
REMARK Flexibility Score: inf
ROOT
ATOM      1  C   UNL     1      17.099  -1.363  33.598  1.00  0.00     0.138 A 
ATOM      2  C   UNL     1      17.263  -0.119  32.975  1.00  0.00     0.100 A 
ATOM      3  C   UNL     1      16.140   0.640  32.642  1.00  0.00     0.197 A 
ATOM      4  O   UNL     1      16.322   1.776  32.133  1.00  0.00    -0.289 OA
ATOM      5  C   UNL     1      14.845   0.132  32.905  1.00  0.00     0.107 A 
ATOM      6  C   UNL     1      13.626   0.802  32.579  1.00  0.00     0.134 A 
ATOM      7  C   UNL     1      12.404   0.244  32.978  1.00  0.00     0.093 A 
ATOM      8  C   UNL     1      12.353  -0.984  33.637  1.00  0.00     0.123 A 
ATOM      9  C   UNL     1      13.534  -1.671  33.916  1.00  0.00     0.094 A 
ATOM     10  C   UNL     1      14.771  -1.125  33.563  1.00  0.00     0.146 A 
ATOM     11  O   UNL     1      15.874  -1.804  33.863  1.00  0.00    -0.456 OA
ENDROOT
BRANCH   1  12
ATOM     12  C   UNL     1      18.258  -2.214  33.971  1.00  0.00     0.021 A 
ATOM     13  C   UNL     1      18.050  -3.360  34.753  1.00  0.00     0.016 A 
ATOM     14  C   UNL     1      19.123  -4.173  35.122  1.00  0.00     0.051 A 
ATOM     15  C   UNL     1      20.427  -3.856  34.727  1.00  0.00     0.157 A 
ATOM     16  C   UNL     1      19.572  -1.886  33.585  1.00  0.00     0.062 A 
ATOM     17  C   UNL     1      20.656  -2.695  33.953  1.00  0.00     0.158 A 
BRANCH  15  18
ATOM     18  O   UNL     1      21.455  -4.714  35.125  1.00  0.00    -0.504 OA
ATOM     19  H   UNL     1      22.354  -4.399  35.460  1.00  0.00     0.293 HD
ENDBRANCH  15  18
BRANCH  17  20
ATOM     20  O   UNL     1      21.930  -2.306  33.536  1.00  0.00    -0.504 OA
ATOM     21  H   UNL     1      22.120  -1.844  32.658  1.00  0.00     0.293 HD
ENDBRANCH  17  20
ENDBRANCH   1  12
BRANCH   6  22
ATOM     22  O   UNL     1      13.557   1.994  31.852  1.00  0.00    -0.507 OA
ATOM     23  H   UNL     1      12.707   2.412  31.503  1.00  0.00     0.293 HD
ENDBRANCH   6  22
BRANCH   8  24
ATOM     24  O   UNL     1      11.119  -1.515  34.005  1.00  0.00    -0.508 OA
ATOM     25  H   UNL     1      11.040  -2.219  34.730  1.00  0.00     0.293 HD
ENDBRANCH   8  24
TORSDOF 5
ENDMDL
MODEL 3
REMARK VINA RESULT:    -6.213     13.911     16.610
REMARK INTER + INTRA:          -7.614
REMARK INTER:                  -7.350
REMARK INTRA:                  -0.264
REMARK UNBOUND:                -0.311
REMARK SMILES O=c1cc(-c2ccc(O)c(O)c2)oc2cc(O)cc(O)c12
REMARK SMILES IDX 4 1 3 2 2 3 1 4 21 5 19 6 18 7 16 8 15 9 14 10 13 11 5 12
REMARK SMILES IDX 6 13 7 14 8 15 12 16 10 17 9 18 11 20 20 22 17 24
REMARK H PARENT 9 19 11 21 20 23 17 25
REMARK Flexibility Score: inf
ROOT
ATOM      1  C   UNL     1      19.180 -14.396  26.407  1.00  0.00     0.138 A 
ATOM      2  C   UNL     1      19.070 -15.672  26.976  1.00  0.00     0.100 A 
ATOM      3  C   UNL     1      19.001 -15.806  28.363  1.00  0.00     0.197 A 
ATOM      4  O   UNL     1      18.848 -16.960  28.840  1.00  0.00    -0.289 OA
ATOM      5  C   UNL     1      19.080 -14.657  29.186  1.00  0.00     0.107 A 
ATOM      6  C   UNL     1      19.055 -14.675  30.614  1.00  0.00     0.134 A 
ATOM      7  C   UNL     1      19.040 -13.464  31.319  1.00  0.00     0.093 A 
ATOM      8  C   UNL     1      19.108 -12.241  30.652  1.00  0.00     0.123 A 
ATOM      9  C   UNL     1      19.183 -12.213  29.260  1.00  0.00     0.094 A 
ATOM     10  C   UNL     1      19.164 -13.402  28.526  1.00  0.00     0.146 A 
ATOM     11  O   UNL     1      19.220 -13.330  27.200  1.00  0.00    -0.456 OA
ENDROOT
BRANCH   1  12
ATOM     12  C   UNL     1      19.260 -14.194  24.938  1.00  0.00     0.021 A 
ATOM     13  C   UNL     1      20.480 -13.813  24.359  1.00  0.00     0.016 A 
ATOM     14  C   UNL     1      20.580 -13.611  22.981  1.00  0.00     0.051 A 
ATOM     15  C   UNL     1      19.465 -13.776  22.153  1.00  0.00     0.157 A 
ATOM     16  C   UNL     1      18.133 -14.346  24.107  1.00  0.00     0.062 A 
ATOM     17  C   UNL     1      18.224 -14.142  22.724  1.00  0.00     0.158 A 
BRANCH  15  18
ATOM     18  O   UNL     1      19.634 -13.564  20.783  1.00  0.00    -0.504 OA
ATOM     19  H   UNL     1      19.911 -12.681  20.379  1.00  0.00     0.293 HD
ENDBRANCH  15  18
BRANCH  17  20
ATOM     20  O   UNL     1      17.065 -14.308  21.964  1.00  0.00    -0.504 OA
ATOM     21  H   UNL     1      16.176 -14.600  22.346  1.00  0.00     0.293 HD
ENDBRANCH  17  20
ENDBRANCH   1  12
BRANCH   6  22
ATOM     22  O   UNL     1      19.067 -15.842  31.384  1.00  0.00    -0.507 OA
ATOM     23  H   UNL     1      18.705 -15.920  32.322  1.00  0.00     0.293 HD
ENDBRANCH   6  22
BRANCH   8  24
ATOM     24  O   UNL     1      19.106 -11.058  31.388  1.00  0.00    -0.508 OA
ATOM     25  H   UNL     1      18.382 -10.858  32.068  1.00  0.00     0.293 HD
ENDBRANCH   8  24
TORSDOF 5
ENDMDL
MODEL 4
REMARK VINA RESULT:    -6.168     15.045     17.412
REMARK INTER + INTRA:          -7.561
REMARK INTER:                  -7.296
REMARK INTRA:                  -0.265
REMARK UNBOUND:                -0.311
REMARK SMILES O=c1cc(-c2ccc(O)c(O)c2)oc2cc(O)cc(O)c12
REMARK SMILES IDX 4 1 3 2 2 3 1 4 21 5 19 6 18 7 16 8 15 9 14 10 13 11 5 12
REMARK SMILES IDX 6 13 7 14 8 15 12 16 10 17 9 18 11 20 20 22 17 24
REMARK H PARENT 9 19 11 21 20 23 17 25
REMARK Flexibility Score: inf
ROOT
ATOM      1  C   UNL     1      19.783 -14.106  25.266  1.00  0.00     0.138 A 
ATOM      2  C   UNL     1      21.117 -13.974  24.857  1.00  0.00     0.100 A 
ATOM      3  C   UNL     1      21.411 -13.794  23.504  1.00  0.00     0.197 A 
ATOM      4  O   UNL     1      22.613 -13.624  23.176  1.00  0.00    -0.289 OA
ATOM      5  C   UNL     1      20.362 -13.783  22.553  1.00  0.00     0.107 A 
ATOM      6  C   UNL     1      20.545 -13.641  21.143  1.00  0.00     0.134 A 
ATOM      7  C   UNL     1      19.423 -13.545  20.309  1.00  0.00     0.093 A 
ATOM      8  C   UNL     1      18.131 -13.644  20.824  1.00  0.00     0.123 A 
ATOM      9  C   UNL     1      17.942 -13.834  22.193  1.00  0.00     0.094 A 
ATOM     10  C   UNL     1      19.039 -13.898  23.057  1.00  0.00     0.146 A 
ATOM     11  O   UNL     1      18.816 -14.061  24.356  1.00  0.00    -0.456 OA
ENDROOT
BRANCH   1  12
ATOM     12  C   UNL     1      19.414 -14.303  26.691  1.00  0.00     0.021 A 
ATOM     13  C   UNL     1      19.055 -15.583  27.140  1.00  0.00     0.016 A 
ATOM     14  C   UNL     1      18.697 -15.792  28.473  1.00  0.00     0.051 A 
ATOM     15  C   UNL     1      18.681 -14.731  29.383  1.00  0.00     0.157 A 
ATOM     16  C   UNL     1      19.383 -13.230  27.602  1.00  0.00     0.062 A 
ATOM     17  C   UNL     1      19.023 -13.432  28.941  1.00  0.00     0.158 A 
BRANCH  15  18
ATOM     18  O   UNL     1      18.319 -15.010  30.703  1.00  0.00    -0.504 OA
ATOM     19  H   UNL     1      17.365 -15.119  31.016  1.00  0.00     0.293 HD
ENDBRANCH  15  18
BRANCH  17  20
ATOM     20  O   UNL     1      19.013 -12.321  29.787  1.00  0.00    -0.504 OA
ATOM     21  H   UNL     1      18.187 -11.778  29.997  1.00  0.00     0.293 HD
ENDBRANCH  17  20
ENDBRANCH   1  12
BRANCH   6  22
ATOM     22  O   UNL     1      21.792 -13.612  20.512  1.00  0.00    -0.507 OA
ATOM     23  H   UNL     1      22.044 -12.996  19.754  1.00  0.00     0.293 HD
ENDBRANCH   6  22
BRANCH   8  24
ATOM     24  O   UNL     1      17.040 -13.559  19.962  1.00  0.00    -0.508 OA
ATOM     25  H   UNL     1      16.277 -14.225  20.006  1.00  0.00     0.293 HD
ENDBRANCH   8  24
TORSDOF 5
ENDMDL
MODEL 5
REMARK VINA RESULT:    -6.101     15.723     17.949
REMARK INTER + INTRA:          -7.482
REMARK INTER:                  -7.207
REMARK INTRA:                  -0.275
REMARK UNBOUND:                -0.311
REMARK SMILES O=c1cc(-c2ccc(O)c(O)c2)oc2cc(O)cc(O)c12
REMARK SMILES IDX 4 1 3 2 2 3 1 4 21 5 19 6 18 7 16 8 15 9 14 10 13 11 5 12
REMARK SMILES IDX 6 13 7 14 8 15 12 16 10 17 9 18 11 20 20 22 17 24
REMARK H PARENT 9 19 11 21 20 23 17 25
REMARK Flexibility Score: inf
ROOT
ATOM      1  C   UNL     1      19.140 -14.269  24.649  1.00  0.00     0.138 A 
ATOM      2  C   UNL     1      18.694 -12.987  24.302  1.00  0.00     0.100 A 
ATOM      3  C   UNL     1      18.796 -12.555  22.979  1.00  0.00     0.197 A 
ATOM      4  O   UNL     1      18.337 -11.420  22.689  1.00  0.00    -0.289 OA
ATOM      5  C   UNL     1      19.381 -13.401  22.006  1.00  0.00     0.107 A 
ATOM      6  C   UNL     1      19.569 -13.053  20.633  1.00  0.00     0.134 A 
ATOM      7  C   UNL     1      20.070 -14.012  19.742  1.00  0.00     0.093 A 
ATOM      8  C   UNL     1      20.443 -15.281  20.183  1.00  0.00     0.123 A 
ATOM      9  C   UNL     1      20.312 -15.614  21.531  1.00  0.00     0.094 A 
ATOM     10  C   UNL     1      19.782 -14.693  22.439  1.00  0.00     0.146 A 
ATOM     11  O   UNL     1      19.657 -15.056  23.711  1.00  0.00    -0.456 OA
ENDROOT
BRANCH   1  12
ATOM     12  C   UNL     1      19.059 -14.780  26.042  1.00  0.00     0.021 A 
ATOM     13  C   UNL     1      18.506 -16.046  26.281  1.00  0.00     0.016 A 
ATOM     14  C   UNL     1      18.413 -16.546  27.582  1.00  0.00     0.051 A 
ATOM     15  C   UNL     1      18.860 -15.791  28.670  1.00  0.00     0.157 A 
ATOM     16  C   UNL     1      19.497 -14.012  27.138  1.00  0.00     0.062 A 
ATOM     17  C   UNL     1      19.404 -14.505  28.447  1.00  0.00     0.158 A 
BRANCH  15  18
ATOM     18  O   UNL     1      18.743 -16.351  29.944  1.00  0.00    -0.504 OA
ATOM     19  H   UNL     1      18.977 -17.309  30.163  1.00  0.00     0.293 HD
ENDBRANCH  15  18
BRANCH  17  20
ATOM     20  O   UNL     1      19.856 -13.687  29.484  1.00  0.00    -0.504 OA
ATOM     21  H   UNL     1      19.265 -13.051  29.999  1.00  0.00     0.293 HD
ENDBRANCH  17  20
ENDBRANCH   1  12
BRANCH   6  22
ATOM     22  O   UNL     1      19.304 -11.788  20.100  1.00  0.00    -0.507 OA
ATOM     23  H   UNL     1      18.707 -11.607  19.308  1.00  0.00     0.293 HD
ENDBRANCH   6  22
BRANCH   8  24
ATOM     24  O   UNL     1      20.952 -16.203  19.270  1.00  0.00    -0.508 OA
ATOM     25  H   UNL     1      20.619 -17.159  19.242  1.00  0.00     0.293 HD
ENDBRANCH   8  24
TORSDOF 5
ENDMDL
MODEL 6
REMARK VINA RESULT:    -6.100     13.351     15.929
REMARK INTER + INTRA:          -7.481
REMARK INTER:                  -7.216
REMARK INTRA:                  -0.265
REMARK UNBOUND:                -0.311
REMARK SMILES O=c1cc(-c2ccc(O)c(O)c2)oc2cc(O)cc(O)c12
REMARK SMILES IDX 4 1 3 2 2 3 1 4 21 5 19 6 18 7 16 8 15 9 14 10 13 11 5 12
REMARK SMILES IDX 6 13 7 14 8 15 12 16 10 17 9 18 11 20 20 22 17 24
REMARK H PARENT 9 19 11 21 20 23 17 25
REMARK Flexibility Score: inf
ROOT
ATOM      1  C   UNL     1      19.676 -13.987  26.942  1.00  0.00     0.138 A 
ATOM      2  C   UNL     1      20.777 -14.773  27.307  1.00  0.00     0.100 A 
ATOM      3  C   UNL     1      21.337 -14.630  28.578  1.00  0.00     0.197 A 
ATOM      4  O   UNL     1      22.290 -15.388  28.894  1.00  0.00    -0.289 OA
ATOM      5  C   UNL     1      20.812 -13.667  29.474  1.00  0.00     0.107 A 
ATOM      6  C   UNL     1      21.324 -13.409  30.782  1.00  0.00     0.134 A 
ATOM      7  C   UNL     1      20.658 -12.500  31.615  1.00  0.00     0.093 A 
ATOM      8  C   UNL     1      19.539 -11.799  31.169  1.00  0.00     0.123 A 
ATOM      9  C   UNL     1      19.061 -12.006  29.876  1.00  0.00     0.094 A 
ATOM     10  C   UNL     1      19.680 -12.932  29.032  1.00  0.00     0.146 A 
ATOM     11  O   UNL     1      19.182 -13.112  27.813  1.00  0.00    -0.456 OA
ENDROOT
BRANCH   1  12
ATOM     12  C   UNL     1      19.042 -14.095  25.604  1.00  0.00     0.021 A 
ATOM     13  C   UNL     1      19.181 -13.041  24.688  1.00  0.00     0.016 A 
ATOM     14  C   UNL     1      18.589 -13.115  23.425  1.00  0.00     0.051 A 
ATOM     15  C   UNL     1      17.841 -14.236  23.053  1.00  0.00     0.157 A 
ATOM     16  C   UNL     1      18.277 -15.218  25.235  1.00  0.00     0.062 A 
ATOM     17  C   UNL     1      17.678 -15.299  23.971  1.00  0.00     0.158 A 
BRANCH  15  18
ATOM     18  O   UNL     1      17.281 -14.250  21.773  1.00  0.00    -0.504 OA
ATOM     19  H   UNL     1      17.446 -13.537  21.077  1.00  0.00     0.293 HD
ENDBRANCH  15  18
BRANCH  17  20
ATOM     20  O   UNL     1      16.932 -16.442  23.676  1.00  0.00    -0.504 OA
ATOM     21  H   UNL     1      16.599 -17.093  24.373  1.00  0.00     0.293 HD
ENDBRANCH  17  20
ENDBRANCH   1  12
BRANCH   6  22
ATOM     22  O   UNL     1      22.483 -13.994  31.301  1.00  0.00    -0.507 OA
ATOM     23  H   UNL     1      22.519 -14.881  31.781  1.00  0.00     0.293 HD
ENDBRANCH   6  22
BRANCH   8  24
ATOM     24  O   UNL     1      18.913 -10.892  32.021  1.00  0.00    -0.508 OA
ATOM     25  H   UNL     1      18.898 -11.031  33.025  1.00  0.00     0.293 HD
ENDBRANCH   8  24
TORSDOF 5
ENDMDL
MODEL 7
REMARK VINA RESULT:    -6.059     16.456     18.661
REMARK INTER + INTRA:          -7.432
REMARK INTER:                  -7.169
REMARK INTRA:                  -0.263
REMARK UNBOUND:                -0.311
REMARK SMILES O=c1cc(-c2ccc(O)c(O)c2)oc2cc(O)cc(O)c12
REMARK SMILES IDX 4 1 3 2 2 3 1 4 21 5 19 6 18 7 16 8 15 9 14 10 13 11 5 12
REMARK SMILES IDX 6 13 7 14 8 15 12 16 10 17 9 18 11 20 20 22 17 24
REMARK H PARENT 9 19 11 21 20 23 17 25
REMARK Flexibility Score: inf
ROOT
ATOM      1  C   UNL     1      19.494 -14.938  23.945  1.00  0.00     0.138 A 
ATOM      2  C   UNL     1      20.598 -15.598  23.388  1.00  0.00     0.100 A 
ATOM      3  C   UNL     1      20.851 -15.487  22.020  1.00  0.00     0.197 A 
ATOM      4  O   UNL     1      21.879 -16.047  21.561  1.00  0.00    -0.289 OA
ATOM      5  C   UNL     1      19.971 -14.739  21.201  1.00  0.00     0.107 A 
ATOM      6  C   UNL     1      20.110 -14.585  19.787  1.00  0.00     0.134 A 
ATOM      7  C   UNL     1      19.232 -13.738  19.097  1.00  0.00     0.093 A 
ATOM      8  C   UNL     1      18.189 -13.089  19.756  1.00  0.00     0.123 A 
ATOM      9  C   UNL     1      18.013 -13.273  21.127  1.00  0.00     0.094 A 
ATOM     10  C   UNL     1      18.893 -14.082  21.851  1.00  0.00     0.146 A 
ATOM     11  O   UNL     1      18.701 -14.216  23.159  1.00  0.00    -0.456 OA
ENDROOT
BRANCH   1  12
ATOM     12  C   UNL     1      19.175 -15.023  25.393  1.00  0.00     0.021 A 
ATOM     13  C   UNL     1      19.531 -13.964  26.241  1.00  0.00     0.016 A 
ATOM     14  C   UNL     1      19.248 -14.023  27.608  1.00  0.00     0.051 A 
ATOM     15  C   UNL     1      18.614 -15.141  28.157  1.00  0.00     0.157 A 
ATOM     16  C   UNL     1      18.550 -16.157  25.948  1.00  0.00     0.062 A 
ATOM     17  C   UNL     1      18.265 -16.225  27.318  1.00  0.00     0.158 A 
BRANCH  15  18
ATOM     18  O   UNL     1      18.355 -15.135  29.530  1.00  0.00    -0.504 OA
ATOM     19  H   UNL     1      18.819 -15.737  30.195  1.00  0.00     0.293 HD
ENDBRANCH  15  18
BRANCH  17  20
ATOM     20  O   UNL     1      17.645 -17.381  27.797  1.00  0.00    -0.504 OA
ATOM     21  H   UNL     1      17.057 -17.407  28.618  1.00  0.00     0.293 HD
ENDBRANCH  17  20
ENDBRANCH   1  12
BRANCH   6  22
ATOM     22  O   UNL     1      21.068 -15.249  19.016  1.00  0.00    -0.507 OA
ATOM     23  H   UNL     1      21.581 -14.839  18.251  1.00  0.00     0.293 HD
ENDBRANCH   6  22
BRANCH   8  24
ATOM     24  O   UNL     1      17.327 -12.267  19.033  1.00  0.00    -0.508 OA
ATOM     25  H   UNL     1      17.577 -11.314  18.797  1.00  0.00     0.293 HD
ENDBRANCH   8  24
TORSDOF 5
ENDMDL
MODEL 8
REMARK VINA RESULT:    -5.944     16.111     17.347
REMARK INTER + INTRA:          -7.298
REMARK INTER:                  -7.003
REMARK INTRA:                  -0.295
REMARK UNBOUND:                -0.311
REMARK SMILES O=c1cc(-c2ccc(O)c(O)c2)oc2cc(O)cc(O)c12
REMARK SMILES IDX 4 1 3 2 2 3 1 4 21 5 19 6 18 7 16 8 15 9 14 10 13 11 5 12
REMARK SMILES IDX 6 13 7 14 8 15 12 16 10 17 9 18 11 20 20 22 17 24
REMARK H PARENT 9 19 11 21 20 23 17 25
REMARK Flexibility Score: inf
ROOT
ATOM      1  C   UNL     1      20.321 -13.851  24.214  1.00  0.00     0.138 A 
ATOM      2  C   UNL     1      21.701 -13.999  24.406  1.00  0.00     0.100 A 
ATOM      3  C   UNL     1      22.190 -14.345  25.666  1.00  0.00     0.197 A 
ATOM      4  O   UNL     1      23.429 -14.523  25.793  1.00  0.00    -0.289 OA
ATOM      5  C   UNL     1      21.291 -14.507  26.749  1.00  0.00     0.107 A 
ATOM      6  C   UNL     1      21.678 -14.825  28.087  1.00  0.00     0.134 A 
ATOM      7  C   UNL     1      20.691 -15.059  29.053  1.00  0.00     0.093 A 
ATOM      8  C   UNL     1      19.337 -14.929  28.746  1.00  0.00     0.123 A 
ATOM      9  C   UNL     1      18.949 -14.569  27.455  1.00  0.00     0.094 A 
ATOM     10  C   UNL     1      19.908 -14.364  26.459  1.00  0.00     0.146 A 
ATOM     11  O   UNL     1      19.496 -14.040  25.238  1.00  0.00    -0.456 OA
ENDROOT
BRANCH   1  12
ATOM     12  C   UNL     1      19.746 -13.481  22.895  1.00  0.00     0.021 A 
ATOM     13  C   UNL     1      20.250 -14.080  21.731  1.00  0.00     0.016 A 
ATOM     14  C   UNL     1      19.731 -13.745  20.478  1.00  0.00     0.051 A 
ATOM     15  C   UNL     1      18.707 -12.801  20.360  1.00  0.00     0.157 A 
ATOM     16  C   UNL     1      18.725 -12.519  22.776  1.00  0.00     0.062 A 
ATOM     17  C   UNL     1      18.201 -12.175  21.523  1.00  0.00     0.158 A 
BRANCH  15  18
ATOM     18  O   UNL     1      18.228 -12.515  19.079  1.00  0.00    -0.504 OA
ATOM     19  H   UNL     1      17.268 -12.643  18.794  1.00  0.00     0.293 HD
ENDBRANCH  15  18
BRANCH  17  20
ATOM     20  O   UNL     1      17.191 -11.212  21.482  1.00  0.00    -0.504 OA
ATOM     21  H   UNL     1      16.389 -11.261  20.870  1.00  0.00     0.293 HD
ENDBRANCH  17  20
ENDBRANCH   1  12
BRANCH   6  22
ATOM     22  O   UNL     1      23.005 -14.903  28.522  1.00  0.00    -0.507 OA
ATOM     23  H   UNL     1      23.407 -15.684  29.017  1.00  0.00     0.293 HD
ENDBRANCH   6  22
BRANCH   8  24
ATOM     24  O   UNL     1      18.384 -15.154  29.737  1.00  0.00    -0.508 OA
ATOM     25  H   UNL     1      18.193 -14.465  30.455  1.00  0.00     0.293 HD
ENDBRANCH   8  24
TORSDOF 5
ENDMDL
MODEL 9
REMARK VINA RESULT:    -5.914     14.431     16.949
REMARK INTER + INTRA:          -7.262
REMARK INTER:                  -6.962
REMARK INTRA:                  -0.300
REMARK UNBOUND:                -0.311
REMARK SMILES O=c1cc(-c2ccc(O)c(O)c2)oc2cc(O)cc(O)c12
REMARK SMILES IDX 4 1 3 2 2 3 1 4 21 5 19 6 18 7 16 8 15 9 14 10 13 11 5 12
REMARK SMILES IDX 6 13 7 14 8 15 12 16 10 17 9 18 11 20 20 22 17 24
REMARK H PARENT 9 19 11 21 20 23 17 25
REMARK Flexibility Score: inf
ROOT
ATOM      1  C   UNL     1      19.141 -14.218  25.161  1.00  0.00     0.138 A 
ATOM      2  C   UNL     1      19.174 -15.601  25.388  1.00  0.00     0.100 A 
ATOM      3  C   UNL     1      19.215 -16.085  26.697  1.00  0.00     0.197 A 
ATOM      4  O   UNL     1      19.189 -17.331  26.868  1.00  0.00    -0.289 OA
ATOM      5  C   UNL     1      19.259 -15.176  27.782  1.00  0.00     0.107 A 
ATOM      6  C   UNL     1      19.337 -15.555  29.157  1.00  0.00     0.134 A 
ATOM      7  C   UNL     1      19.274 -14.567  30.149  1.00  0.00     0.093 A 
ATOM      8  C   UNL     1      19.196 -13.216  29.815  1.00  0.00     0.123 A 
ATOM      9  C   UNL     1      19.170 -12.831  28.475  1.00  0.00     0.094 A 
ATOM     10  C   UNL     1      19.195 -13.794  27.462  1.00  0.00     0.146 A 
ATOM     11  O   UNL     1      19.151 -13.387  26.198  1.00  0.00    -0.456 OA
ENDROOT
BRANCH   1  12
ATOM     12  C   UNL     1      19.100 -13.647  23.791  1.00  0.00     0.021 A 
ATOM     13  C   UNL     1      19.836 -14.261  22.766  1.00  0.00     0.016 A 
ATOM     14  C   UNL     1      19.819 -13.740  21.470  1.00  0.00     0.051 A 
ATOM     15  C   UNL     1      19.077 -12.594  21.172  1.00  0.00     0.157 A 
ATOM     16  C   UNL     1      18.364 -12.484  23.494  1.00  0.00     0.062 A 
ATOM     17  C   UNL     1      18.344 -11.953  22.198  1.00  0.00     0.158 A 
BRANCH  15  18
ATOM     18  O   UNL     1      19.099 -12.128  19.855  1.00  0.00    -0.504 OA
ATOM     19  H   UNL     1      18.307 -12.168  19.229  1.00  0.00     0.293 HD
ENDBRANCH  15  18
BRANCH  17  20
ATOM     20  O   UNL     1      17.593 -10.797  21.979  1.00  0.00    -0.504 OA
ATOM     21  H   UNL     1      16.692 -10.622  22.399  1.00  0.00     0.293 HD
ENDBRANCH  17  20
ENDBRANCH   1  12
BRANCH   6  22
ATOM     22  O   UNL     1      19.497 -16.871  29.601  1.00  0.00    -0.507 OA
ATOM     23  H   UNL     1      18.833 -17.376  30.167  1.00  0.00     0.293 HD
ENDBRANCH   6  22
BRANCH   8  24
ATOM     24  O   UNL     1      19.151 -12.260  30.829  1.00  0.00    -0.508 OA
ATOM     25  H   UNL     1      18.853 -11.309  30.647  1.00  0.00     0.293 HD
ENDBRANCH   8  24
TORSDOF 5
ENDMDL
