MODEL 1
REMARK VINA RESULT:    -3.865      0.000      0.000
REMARK INTER + INTRA:          -7.046
REMARK INTER:                  -6.125
REMARK INTRA:                  -0.922
REMARK UNBOUND:                -0.922
REMARK SMILES CCCCCCCCCCCC(=O)[O-]
REMARK SMILES IDX 7 1 8 2 9 3 10 4 11 5 12 6 13 7 14 8 6 9 5 10 4 11 3 12 2 13
REMARK SMILES IDX 1 14
REMARK H PARENT
REMARK Flexibility Score: inf
ROOT
ATOM      1  C   UNL     1       4.716  29.081  57.128  1.00  0.00     0.000 C 
ENDROOT
BRANCH   1   2
ATOM      2  C   UNL     1       4.083  27.727  57.480  1.00  0.00     0.000 C 
BRANCH   2   3
ATOM      3  C   UNL     1       2.588  27.843  57.817  1.00  0.00     0.000 C 
BRANCH   3   4
ATOM      4  C   UNL     1       1.864  28.886  56.949  1.00  0.00     0.006 C 
BRANCH   4   5
ATOM      5  C   UNL     1       1.188  28.255  55.725  1.00  0.00     0.053 C 
BRANCH   5   6
ATOM      6  C   UNL     1       0.406  29.265  54.940  1.00  0.00     0.041 C 
ATOM      7  O   UNL     1       0.928  30.367  54.630  1.00  0.00    -0.550 OA
ATOM      8  O   UNL     1      -0.886  28.972  54.523  1.00  0.00    -0.550 OA
ENDBRANCH   5   6
ENDBRANCH   4   5
ENDBRANCH   3   4
ENDBRANCH   2   3
ENDBRANCH   1   2
BRANCH   1   9
ATOM      9  C   UNL     1       5.942  28.895  56.227  1.00  0.00     0.000 C 
BRANCH   9  10
ATOM     10  C   UNL     1       5.779  29.661  54.908  1.00  0.00    -0.000 C 
BRANCH  10  11
ATOM     11  C   UNL     1       4.523  29.198  54.154  1.00  0.00    -0.000 C 
BRANCH  11  12
ATOM     12  C   UNL     1       4.099  30.173  53.041  1.00  0.00    -0.000 C 
BRANCH  12  13
ATOM     13  C   UNL     1       4.315  29.652  51.609  1.00  0.00    -0.003 C 
ATOM     14  C   UNL     1       4.812  28.207  51.567  1.00  0.00     0.004 C 
ENDBRANCH  12  13
ENDBRANCH  11  12
ENDBRANCH  10  11
ENDBRANCH   9  10
ENDBRANCH   1   9
TORSDOF 10
ENDMDL
MODEL 2
REMARK VINA RESULT:    -3.821      1.988      4.449
REMARK INTER + INTRA:          -6.976
REMARK INTER:                  -6.053
REMARK INTRA:                  -0.924
REMARK UNBOUND:                -0.922
REMARK SMILES CCCCCCCCCCCC(=O)[O-]
REMARK SMILES IDX 7 1 8 2 9 3 10 4 11 5 12 6 13 7 14 8 6 9 5 10 4 11 3 12 2 13
REMARK SMILES IDX 1 14
REMARK H PARENT
REMARK Flexibility Score: inf
ROOT
ATOM      1  C   UNL     1       4.809  27.789  56.541  1.00  0.00     0.000 C 
ENDROOT
BRANCH   1   2
ATOM      2  C   UNL     1       5.419  29.196  56.448  1.00  0.00     0.000 C 
BRANCH   2   3
ATOM      3  C   UNL     1       5.716  29.617  55.000  1.00  0.00     0.000 C 
BRANCH   3   4
ATOM      4  C   UNL     1       4.754  28.974  53.986  1.00  0.00     0.006 C 
BRANCH   4   5
ATOM      5  C   UNL     1       3.532  29.858  53.704  1.00  0.00     0.053 C 
BRANCH   5   6
ATOM      6  C   UNL     1       3.780  30.801  52.566  1.00  0.00     0.041 C 
ATOM      7  O   UNL     1       4.715  30.580  51.753  1.00  0.00    -0.550 OA
ATOM      8  O   UNL     1       2.955  31.904  52.385  1.00  0.00    -0.550 OA
ENDBRANCH   5   6
ENDBRANCH   4   5
ENDBRANCH   3   4
ENDBRANCH   2   3
ENDBRANCH   1   2
BRANCH   1   9
ATOM      9  C   UNL     1       3.559  27.792  57.429  1.00  0.00     0.000 C 
BRANCH   9  10
ATOM     10  C   UNL     1       2.331  28.285  56.652  1.00  0.00    -0.000 C 
BRANCH  10  11
ATOM     11  C   UNL     1       1.339  28.994  57.585  1.00  0.00    -0.000 C 
BRANCH  11  12
ATOM     12  C   UNL     1      -0.009  29.300  56.906  1.00  0.00    -0.000 C 
BRANCH  12  13
ATOM     13  C   UNL     1      -0.040  29.048  55.389  1.00  0.00    -0.003 C 
ATOM     14  C   UNL     1       0.005  30.336  54.568  1.00  0.00     0.004 C 
ENDBRANCH  12  13
ENDBRANCH  11  12
ENDBRANCH  10  11
ENDBRANCH   9  10
ENDBRANCH   1   9
TORSDOF 10
ENDMDL
MODEL 3
REMARK VINA RESULT:    -3.807      1.590      2.183
REMARK INTER + INTRA:          -6.953
REMARK INTER:                  -6.428
REMARK INTRA:                  -0.526
REMARK UNBOUND:                -0.922
REMARK SMILES CCCCCCCCCCCC(=O)[O-]
REMARK SMILES IDX 7 1 8 2 9 3 10 4 11 5 12 6 13 7 14 8 6 9 5 10 4 11 3 12 2 13
REMARK SMILES IDX 1 14
REMARK H PARENT
REMARK Flexibility Score: inf
ROOT
ATOM      1  C   UNL     1       5.185  28.971  55.823  1.00  0.00     0.000 C 
ENDROOT
BRANCH   1   2
ATOM      2  C   UNL     1       4.248  27.768  56.008  1.00  0.00     0.000 C 
BRANCH   2   3
ATOM      3  C   UNL     1       3.298  27.937  57.204  1.00  0.00     0.000 C 
BRANCH   3   4
ATOM      4  C   UNL     1       2.198  28.980  56.945  1.00  0.00     0.006 C 
BRANCH   4   5
ATOM      5  C   UNL     1       0.793  28.422  57.212  1.00  0.00     0.053 C 
BRANCH   5   6
ATOM      6  C   UNL     1      -0.275  29.323  56.671  1.00  0.00     0.041 C 
ATOM      7  O   UNL     1      -0.513  29.352  55.435  1.00  0.00    -0.550 OA
ATOM      8  O   UNL     1      -1.029  30.105  57.537  1.00  0.00    -0.550 OA
ENDBRANCH   5   6
ENDBRANCH   4   5
ENDBRANCH   3   4
ENDBRANCH   2   3
ENDBRANCH   1   2
BRANCH   1   9
ATOM      9  C   UNL     1       5.069  29.543  54.405  1.00  0.00     0.000 C 
BRANCH   9  10
ATOM     10  C   UNL     1       4.219  28.633  53.511  1.00  0.00    -0.000 C 
BRANCH  10  11
ATOM     11  C   UNL     1       4.440  28.958  52.026  1.00  0.00    -0.000 C 
BRANCH  11  12
ATOM     12  C   UNL     1       5.036  27.778  51.236  1.00  0.00    -0.000 C 
BRANCH  12  13
ATOM     13  C   UNL     1       4.238  27.369  49.985  1.00  0.00    -0.003 C 
ATOM     14  C   UNL     1       4.470  25.914  49.579  1.00  0.00     0.004 C 
ENDBRANCH  12  13
ENDBRANCH  11  12
ENDBRANCH  10  11
ENDBRANCH   9  10
ENDBRANCH   1   9
TORSDOF 10
ENDMDL
MODEL 4
REMARK VINA RESULT:    -3.804      3.243      5.970
REMARK INTER + INTRA:          -6.950
REMARK INTER:                  -6.238
REMARK INTRA:                  -0.711
REMARK UNBOUND:                -0.922
REMARK SMILES CCCCCCCCCCCC(=O)[O-]
REMARK SMILES IDX 7 1 8 2 9 3 10 4 11 5 12 6 13 7 14 8 6 9 5 10 4 11 3 12 2 13
REMARK SMILES IDX 1 14
REMARK H PARENT
REMARK Flexibility Score: inf
ROOT
ATOM      1  C   UNL     1       3.389  29.515  54.056  1.00  0.00     0.000 C 
ENDROOT
BRANCH   1   2
ATOM      2  C   UNL     1       4.333  29.644  52.851  1.00  0.00     0.000 C 
BRANCH   2   3
ATOM      3  C   UNL     1       4.571  28.302  52.142  1.00  0.00     0.000 C 
BRANCH   3   4
ATOM      4  C   UNL     1       5.084  28.475  50.702  1.00  0.00     0.006 C 
BRANCH   4   5
ATOM      5  C   UNL     1       5.679  27.178  50.137  1.00  0.00     0.053 C 
BRANCH   5   6
ATOM      6  C   UNL     1       4.644  26.355  49.432  1.00  0.00     0.041 C 
ATOM      7  O   UNL     1       4.229  25.284  49.948  1.00  0.00    -0.550 OA
ATOM      8  O   UNL     1       4.114  26.788  48.224  1.00  0.00    -0.550 OA
ENDBRANCH   5   6
ENDBRANCH   4   5
ENDBRANCH   3   4
ENDBRANCH   2   3
ENDBRANCH   1   2
BRANCH   1   9
ATOM      9  C   UNL     1       3.436  28.099  54.642  1.00  0.00     0.000 C 
BRANCH   9  10
ATOM     10  C   UNL     1       4.384  28.031  55.846  1.00  0.00    -0.000 C 
BRANCH  10  11
ATOM     11  C   UNL     1       3.701  28.565  57.114  1.00  0.00    -0.000 C 
BRANCH  11  12
ATOM     12  C   UNL     1       2.240  28.098  57.250  1.00  0.00    -0.000 C 
BRANCH  12  13
ATOM     13  C   UNL     1       1.213  29.230  57.426  1.00  0.00    -0.003 C 
ATOM     14  C   UNL     1       0.164  29.263  56.315  1.00  0.00     0.004 C 
ENDBRANCH  12  13
ENDBRANCH  11  12
ENDBRANCH  10  11
ENDBRANCH   9  10
ENDBRANCH   1   9
TORSDOF 10
ENDMDL
MODEL 5
REMARK VINA RESULT:    -3.675      2.227      4.165
REMARK INTER + INTRA:          -6.744
REMARK INTER:                  -5.920
REMARK INTRA:                  -0.824
REMARK UNBOUND:                -0.922
REMARK SMILES CCCCCCCCCCCC(=O)[O-]
REMARK SMILES IDX 7 1 8 2 9 3 10 4 11 5 12 6 13 7 14 8 6 9 5 10 4 11 3 12 2 13
REMARK SMILES IDX 1 14
REMARK H PARENT
REMARK Flexibility Score: inf
ROOT
ATOM      1  C   UNL     1       0.564  28.445  56.596  1.00  0.00     0.000 C 
ENDROOT
BRANCH   1   2
ATOM      2  C   UNL     1      -0.336  29.600  56.133  1.00  0.00     0.000 C 
BRANCH   2   3
ATOM      3  C   UNL     1      -0.225  29.867  54.624  1.00  0.00     0.000 C 
BRANCH   3   4
ATOM      4  C   UNL     1       1.048  30.646  54.251  1.00  0.00     0.006 C 
BRANCH   4   5
ATOM      5  C   UNL     1       0.736  31.923  53.460  1.00  0.00     0.053 C 
BRANCH   5   6
ATOM      6  C   UNL     1       1.876  32.317  52.570  1.00  0.00     0.041 C 
ATOM      7  O   UNL     1       1.758  33.293  51.785  1.00  0.00    -0.550 OA
ATOM      8  O   UNL     1       3.080  31.627  52.636  1.00  0.00    -0.550 OA
ENDBRANCH   5   6
ENDBRANCH   4   5
ENDBRANCH   3   4
ENDBRANCH   2   3
ENDBRANCH   1   2
BRANCH   1   9
ATOM      9  C   UNL     1       1.718  28.963  57.462  1.00  0.00     0.000 C 
BRANCH   9  10
ATOM     10  C   UNL     1       2.704  27.837  57.798  1.00  0.00    -0.000 C 
BRANCH  10  11
ATOM     11  C   UNL     1       4.088  28.119  57.195  1.00  0.00    -0.000 C 
BRANCH  11  12
ATOM     12  C   UNL     1       4.191  27.710  55.714  1.00  0.00    -0.000 C 
BRANCH  12  13
ATOM     13  C   UNL     1       4.227  28.885  54.720  1.00  0.00    -0.003 C 
ATOM     14  C   UNL     1       5.552  29.647  54.744  1.00  0.00     0.004 C 
ENDBRANCH  12  13
ENDBRANCH  11  12
ENDBRANCH  10  11
ENDBRANCH   9  10
ENDBRANCH   1   9
TORSDOF 10
ENDMDL
MODEL 6
REMARK VINA RESULT:    -3.571      3.324      6.315
REMARK INTER + INTRA:          -6.580
REMARK INTER:                  -5.974
REMARK INTRA:                  -0.606
REMARK UNBOUND:                -0.922
REMARK SMILES CCCCCCCCCCCC(=O)[O-]
REMARK SMILES IDX 7 1 8 2 9 3 10 4 11 5 12 6 13 7 14 8 6 9 5 10 4 11 3 12 2 13
REMARK SMILES IDX 1 14
REMARK H PARENT
REMARK Flexibility Score: inf
ROOT
ATOM      1  C   UNL     1       4.288  28.765  52.214  1.00  0.00     0.000 C 
ENDROOT
BRANCH   1   2
ATOM      2  C   UNL     1       5.631  28.948  51.492  1.00  0.00     0.000 C 
BRANCH   2   3
ATOM      3  C   UNL     1       5.956  27.782  50.544  1.00  0.00     0.000 C 
BRANCH   3   4
ATOM      4  C   UNL     1       4.768  26.824  50.355  1.00  0.00     0.006 C 
BRANCH   4   5
ATOM      5  C   UNL     1       4.529  26.480  48.878  1.00  0.00     0.053 C 
BRANCH   5   6
ATOM      6  C   UNL     1       3.765  27.559  48.173  1.00  0.00     0.041 C 
ATOM      7  O   UNL     1       3.888  27.713  46.930  1.00  0.00    -0.550 OA
ATOM      8  O   UNL     1       2.890  28.369  48.885  1.00  0.00    -0.550 OA
ENDBRANCH   5   6
ENDBRANCH   4   5
ENDBRANCH   3   4
ENDBRANCH   2   3
ENDBRANCH   1   2
BRANCH   1   9
ATOM      9  C   UNL     1       4.401  29.162  53.691  1.00  0.00     0.000 C 
BRANCH   9  10
ATOM     10  C   UNL     1       3.826  28.070  54.601  1.00  0.00    -0.000 C 
BRANCH  10  11
ATOM     11  C   UNL     1       2.534  28.545  55.283  1.00  0.00    -0.000 C 
BRANCH  11  12
ATOM     12  C   UNL     1       2.542  28.321  56.805  1.00  0.00    -0.000 C 
BRANCH  12  13
ATOM     13  C   UNL     1       3.862  27.767  57.371  1.00  0.00    -0.003 C 
ATOM     14  C   UNL     1       3.669  26.954  58.651  1.00  0.00     0.004 C 
ENDBRANCH  12  13
ENDBRANCH  11  12
ENDBRANCH  10  11
ENDBRANCH   9  10
ENDBRANCH   1   9
TORSDOF 10
ENDMDL
MODEL 7
REMARK VINA RESULT:    -3.421      9.217     10.986
REMARK INTER + INTRA:          -6.343
REMARK INTER:                  -5.450
REMARK INTRA:                  -0.892
REMARK UNBOUND:                -0.922
REMARK SMILES CCCCCCCCCCCC(=O)[O-]
REMARK SMILES IDX 7 1 8 2 9 3 10 4 11 5 12 6 13 7 14 8 6 9 5 10 4 11 3 12 2 13
REMARK SMILES IDX 1 14
REMARK H PARENT
REMARK Flexibility Score: inf
ROOT
ATOM      1  C   UNL     1      -4.736  29.018  58.323  1.00  0.00     0.000 C 
ENDROOT
BRANCH   1   2
ATOM      2  C   UNL     1      -4.637  30.461  58.839  1.00  0.00     0.000 C 
BRANCH   2   3
ATOM      3  C   UNL     1      -5.951  30.957  59.465  1.00  0.00     0.000 C 
BRANCH   3   4
ATOM      4  C   UNL     1      -6.626  32.058  58.630  1.00  0.00     0.006 C 
BRANCH   4   5
ATOM      5  C   UNL     1      -8.107  31.758  58.361  1.00  0.00     0.053 C 
BRANCH   5   6
ATOM      6  C   UNL     1      -8.343  31.364  56.934  1.00  0.00     0.041 C 
ATOM      7  O   UNL     1      -9.478  30.959  56.569  1.00  0.00    -0.550 OA
ATOM      8  O   UNL     1      -7.320  31.480  56.002  1.00  0.00    -0.550 OA
ENDBRANCH   5   6
ENDBRANCH   4   5
ENDBRANCH   3   4
ENDBRANCH   2   3
ENDBRANCH   1   2
BRANCH   1   9
ATOM      9  C   UNL     1      -6.200  28.573  58.215  1.00  0.00     0.000 C 
BRANCH   9  10
ATOM     10  C   UNL     1      -6.538  28.132  56.785  1.00  0.00    -0.000 C 
BRANCH  10  11
ATOM     11  C   UNL     1      -7.930  27.487  56.724  1.00  0.00    -0.000 C 
BRANCH  11  12
ATOM     12  C   UNL     1      -8.389  27.187  55.286  1.00  0.00    -0.000 C 
BRANCH  12  13
ATOM     13  C   UNL     1      -7.687  25.991  54.619  1.00  0.00    -0.003 C 
ATOM     14  C   UNL     1      -7.550  24.785  55.548  1.00  0.00     0.004 C 
ENDBRANCH  12  13
ENDBRANCH  11  12
ENDBRANCH  10  11
ENDBRANCH   9  10
ENDBRANCH   1   9
TORSDOF 10
ENDMDL
MODEL 8
REMARK VINA RESULT:    -3.421     11.642     12.862
REMARK INTER + INTRA:          -6.342
REMARK INTER:                  -5.243
REMARK INTRA:                  -1.099
REMARK UNBOUND:                -0.922
REMARK SMILES CCCCCCCCCCCC(=O)[O-]
REMARK SMILES IDX 7 1 8 2 9 3 10 4 11 5 12 6 13 7 14 8 6 9 5 10 4 11 3 12 2 13
REMARK SMILES IDX 1 14
REMARK H PARENT
REMARK Flexibility Score: inf
ROOT
ATOM      1  C   UNL     1      -1.708  29.440  42.033  1.00  0.00     0.000 C 
ENDROOT
BRANCH   1   2
ATOM      2  C   UNL     1      -2.045  29.354  43.529  1.00  0.00     0.000 C 
BRANCH   2   3
ATOM      3  C   UNL     1      -1.149  28.358  44.281  1.00  0.00     0.000 C 
BRANCH   3   4
ATOM      4  C   UNL     1      -1.957  27.315  45.073  1.00  0.00     0.006 C 
BRANCH   4   5
ATOM      5  C   UNL     1      -3.383  27.794  45.378  1.00  0.00     0.053 C 
BRANCH   5   6
ATOM      6  C   UNL     1      -4.249  26.676  45.873  1.00  0.00     0.041 C 
ATOM      7  O   UNL     1      -5.496  26.830  45.954  1.00  0.00    -0.550 OA
ATOM      8  O   UNL     1      -3.683  25.453  46.209  1.00  0.00    -0.550 OA
ENDBRANCH   5   6
ENDBRANCH   4   5
ENDBRANCH   3   4
ENDBRANCH   2   3
ENDBRANCH   1   2
BRANCH   1   9
ATOM      9  C   UNL     1      -0.682  28.370  41.640  1.00  0.00     0.000 C 
BRANCH   9  10
ATOM     10  C   UNL     1       0.101  28.789  40.389  1.00  0.00    -0.000 C 
BRANCH  10  11
ATOM     11  C   UNL     1       1.046  29.959  40.698  1.00  0.00    -0.000 C 
BRANCH  11  12
ATOM     12  C   UNL     1       2.217  29.559  41.614  1.00  0.00    -0.000 C 
BRANCH  12  13
ATOM     13  C   UNL     1       2.099  30.052  43.067  1.00  0.00    -0.003 C 
ATOM     14  C   UNL     1       1.318  31.360  43.193  1.00  0.00     0.004 C 
ENDBRANCH  12  13
ENDBRANCH  11  12
ENDBRANCH  10  11
ENDBRANCH   9  10
ENDBRANCH   1   9
TORSDOF 10
ENDMDL
MODEL 9
REMARK VINA RESULT:    -3.347      2.619      4.413
REMARK INTER + INTRA:          -6.225
REMARK INTER:                  -5.656
REMARK INTRA:                  -0.569
REMARK UNBOUND:                -0.922
REMARK SMILES CCCCCCCCCCCC(=O)[O-]
REMARK SMILES IDX 7 1 8 2 9 3 10 4 11 5 12 6 13 7 14 8 6 9 5 10 4 11 3 12 2 13
REMARK SMILES IDX 1 14
REMARK H PARENT
REMARK Flexibility Score: inf
ROOT
ATOM      1  C   UNL     1       4.576  29.614  51.767  1.00  0.00     0.000 C 
ENDROOT
BRANCH   1   2
ATOM      2  C   UNL     1       4.478  28.831  53.085  1.00  0.00     0.000 C 
BRANCH   2   3
ATOM      3  C   UNL     1       3.245  29.222  53.914  1.00  0.00     0.000 C 
BRANCH   3   4
ATOM      4  C   UNL     1       2.822  28.120  54.902  1.00  0.00     0.006 C 
BRANCH   4   5
ATOM      5  C   UNL     1       1.459  28.409  55.545  1.00  0.00     0.053 C 
BRANCH   5   6
ATOM      6  C   UNL     1       1.585  28.682  57.013  1.00  0.00     0.041 C 
ATOM      7  O   UNL     1       0.827  29.521  57.568  1.00  0.00    -0.550 OA
ATOM      8  O   UNL     1       2.514  27.985  57.773  1.00  0.00    -0.550 OA
ENDBRANCH   5   6
ENDBRANCH   4   5
ENDBRANCH   3   4
ENDBRANCH   2   3
ENDBRANCH   1   2
BRANCH   1   9
ATOM      9  C   UNL     1       5.361  28.821  50.715  1.00  0.00     0.000 C 
BRANCH   9  10
ATOM     10  C   UNL     1       4.919  27.353  50.687  1.00  0.00    -0.000 C 
BRANCH  10  11
ATOM     11  C   UNL     1       5.245  26.706  49.333  1.00  0.00    -0.000 C 
BRANCH  11  12
ATOM     12  C   UNL     1       4.151  26.943  48.276  1.00  0.00    -0.000 C 
BRANCH  12  13
ATOM     13  C   UNL     1       4.524  27.950  47.174  1.00  0.00    -0.003 C 
ATOM     14  C   UNL     1       3.744  29.261  47.274  1.00  0.00     0.004 C 
ENDBRANCH  12  13
ENDBRANCH  11  12
ENDBRANCH  10  11
ENDBRANCH   9  10
ENDBRANCH   1   9
TORSDOF 10
ENDMDL
