MODEL 1
REMARK VINA RESULT:    -7.163      0.000      0.000
REMARK INTER + INTRA:          -8.921
REMARK INTER:                  -8.629
REMARK INTRA:                  -0.292
REMARK UNBOUND:                -0.292
REMARK SMILES O=c1c(O)c(-c2ccc(O)c(O)c2)oc2cc(O)cc(O)c12
REMARK SMILES IDX 5 1 3 2 2 3 1 4 22 5 20 6 19 7 17 8 16 9 15 10 14 11 6 12
REMARK SMILES IDX 7 13 8 14 9 15 13 16 11 17 10 18 12 20 4 22 21 24 18 26
REMARK H PARENT 10 19 12 21 4 23 21 25 18 27
REMARK Flexibility Score: inf
ROOT
ATOM      1  C   UNL     1     -38.218   4.728  79.853  1.00  0.00     0.180 A 
ATOM      2  C   UNL     1     -38.753   4.700  81.152  1.00  0.00     0.208 A 
ATOM      3  C   UNL     1     -40.060   4.226  81.341  1.00  0.00     0.238 A 
ATOM      4  O   UNL     1     -40.514   4.153  82.513  1.00  0.00    -0.285 OA
ATOM      5  C   UNL     1     -40.824   3.801  80.227  1.00  0.00     0.111 A 
ATOM      6  C   UNL     1     -42.172   3.340  80.297  1.00  0.00     0.134 A 
ATOM      7  C   UNL     1     -42.785   2.823  79.149  1.00  0.00     0.093 A 
ATOM      8  C   UNL     1     -42.124   2.808  77.923  1.00  0.00     0.123 A 
ATOM      9  C   UNL     1     -40.825   3.311  77.830  1.00  0.00     0.094 A 
ATOM     10  C   UNL     1     -40.174   3.801  78.965  1.00  0.00     0.146 A 
ATOM     11  O   UNL     1     -38.935   4.261  78.837  1.00  0.00    -0.452 OA
ENDROOT
BRANCH   1  12
ATOM     12  C   UNL     1     -36.856   5.237  79.572  1.00  0.00     0.025 A 
ATOM     13  C   UNL     1     -35.750   4.401  79.782  1.00  0.00     0.016 A 
ATOM     14  C   UNL     1     -34.460   4.853  79.505  1.00  0.00     0.051 A 
ATOM     15  C   UNL     1     -34.248   6.141  78.999  1.00  0.00     0.157 A 
ATOM     16  C   UNL     1     -36.649   6.522  79.043  1.00  0.00     0.062 A 
ATOM     17  C   UNL     1     -35.358   6.984  78.758  1.00  0.00     0.158 A 
BRANCH  15  18
ATOM     18  O   UNL     1     -32.932   6.536  78.749  1.00  0.00    -0.504 OA
ATOM     19  H   UNL     1     -32.591   7.478  78.875  1.00  0.00     0.293 HD
ENDBRANCH  15  18
BRANCH  17  20
ATOM     20  O   UNL     1     -35.227   8.273  78.236  1.00  0.00    -0.504 OA
ATOM     21  H   UNL     1     -35.197   9.110  78.799  1.00  0.00     0.293 HD
ENDBRANCH  17  20
ENDBRANCH   1  12
BRANCH   2  22
ATOM     22  O   UNL     1     -37.974   5.103  82.241  1.00  0.00    -0.502 OA
ATOM     23  H   UNL     1     -38.073   4.693  83.162  1.00  0.00     0.293 HD
ENDBRANCH   2  22
BRANCH   6  24
ATOM     24  O   UNL     1     -42.958   3.396  81.452  1.00  0.00    -0.507 OA
ATOM     25  H   UNL     1     -43.289   2.591  81.962  1.00  0.00     0.293 HD
ENDBRANCH   6  24
BRANCH   8  26
ATOM     26  O   UNL     1     -42.769   2.300  76.798  1.00  0.00    -0.508 OA
ATOM     27  H   UNL     1     -43.517   2.808  76.340  1.00  0.00     0.293 HD
ENDBRANCH   8  26
TORSDOF 6
ENDMDL
MODEL 2
REMARK VINA RESULT:    -6.680     10.152     11.829
REMARK INTER + INTRA:          -8.339
REMARK INTER:                  -8.038
REMARK INTRA:                  -0.301
REMARK UNBOUND:                -0.292
REMARK SMILES O=c1c(O)c(-c2ccc(O)c(O)c2)oc2cc(O)cc(O)c12
REMARK SMILES IDX 5 1 3 2 2 3 1 4 22 5 20 6 19 7 17 8 16 9 15 10 14 11 6 12
REMARK SMILES IDX 7 13 8 14 9 15 13 16 11 17 10 18 12 20 4 22 21 24 18 26
REMARK H PARENT 10 19 12 21 4 23 21 25 18 27
REMARK Flexibility Score: inf
ROOT
ATOM      1  C   UNL     1     -46.802   2.285  73.741  1.00  0.00     0.180 A 
ATOM      2  C   UNL     1     -47.452   3.150  74.638  1.00  0.00     0.208 A 
ATOM      3  C   UNL     1     -47.643   4.492  74.272  1.00  0.00     0.238 A 
ATOM      4  O   UNL     1     -48.275   5.249  75.056  1.00  0.00    -0.285 OA
ATOM      5  C   UNL     1     -47.168   4.956  73.021  1.00  0.00     0.111 A 
ATOM      6  C   UNL     1     -47.271   6.304  72.565  1.00  0.00     0.134 A 
ATOM      7  C   UNL     1     -46.883   6.622  71.258  1.00  0.00     0.093 A 
ATOM      8  C   UNL     1     -46.336   5.657  70.414  1.00  0.00     0.123 A 
ATOM      9  C   UNL     1     -46.175   4.348  70.870  1.00  0.00     0.094 A 
ATOM     10  C   UNL     1     -46.587   3.992  72.157  1.00  0.00     0.146 A 
ATOM     11  O   UNL     1     -46.426   2.734  72.550  1.00  0.00    -0.452 OA
ENDROOT
BRANCH   1  12
ATOM     12  C   UNL     1     -46.541   0.864  74.067  1.00  0.00     0.025 A 
ATOM     13  C   UNL     1     -45.297   0.494  74.596  1.00  0.00     0.016 A 
ATOM     14  C   UNL     1     -45.037  -0.836  74.928  1.00  0.00     0.051 A 
ATOM     15  C   UNL     1     -46.017  -1.820  74.754  1.00  0.00     0.157 A 
ATOM     16  C   UNL     1     -47.535  -0.117  73.911  1.00  0.00     0.062 A 
ATOM     17  C   UNL     1     -47.286  -1.454  74.245  1.00  0.00     0.158 A 
BRANCH  15  18
ATOM     18  O   UNL     1     -45.692  -3.134  75.100  1.00  0.00    -0.504 OA
ATOM     19  H   UNL     1     -46.274  -3.933  74.891  1.00  0.00     0.293 HD
ENDBRANCH  15  18
BRANCH  17  20
ATOM     20  O   UNL     1     -48.319  -2.375  74.063  1.00  0.00    -0.504 OA
ATOM     21  H   UNL     1     -48.300  -3.118  73.379  1.00  0.00     0.293 HD
ENDBRANCH  17  20
ENDBRANCH   1  12
BRANCH   2  22
ATOM     22  O   UNL     1     -47.934   2.666  75.857  1.00  0.00    -0.502 OA
ATOM     23  H   UNL     1     -48.918   2.682  76.098  1.00  0.00     0.293 HD
ENDBRANCH   2  22
BRANCH   6  24
ATOM     24  O   UNL     1     -47.718   7.365  73.358  1.00  0.00    -0.507 OA
ATOM     25  H   UNL     1     -48.678   7.517  73.628  1.00  0.00     0.293 HD
ENDBRANCH   6  24
BRANCH   8  26
ATOM     26  O   UNL     1     -45.945   6.012  69.124  1.00  0.00    -0.508 OA
ATOM     27  H   UNL     1     -46.361   6.799  68.642  1.00  0.00     0.293 HD
ENDBRANCH   8  26
TORSDOF 6
ENDMDL
MODEL 3
REMARK VINA RESULT:    -6.432      1.388      6.793
REMARK INTER + INTRA:          -8.040
REMARK INTER:                  -8.138
REMARK INTRA:                   0.098
REMARK UNBOUND:                -0.292
REMARK SMILES O=c1c(O)c(-c2ccc(O)c(O)c2)oc2cc(O)cc(O)c12
REMARK SMILES IDX 5 1 3 2 2 3 1 4 22 5 20 6 19 7 17 8 16 9 15 10 14 11 6 12
REMARK SMILES IDX 7 13 8 14 9 15 13 16 11 17 10 18 12 20 4 22 21 24 18 26
REMARK H PARENT 10 19 12 21 4 23 21 25 18 27
REMARK Flexibility Score: inf
ROOT
ATOM      1  C   UNL     1     -38.617   3.971  79.700  1.00  0.00     0.180 A 
ATOM      2  C   UNL     1     -38.010   3.475  80.867  1.00  0.00     0.208 A 
ATOM      3  C   UNL     1     -36.674   3.811  81.136  1.00  0.00     0.238 A 
ATOM      4  O   UNL     1     -36.153   3.408  82.209  1.00  0.00    -0.285 OA
ATOM      5  C   UNL     1     -35.955   4.626  80.228  1.00  0.00     0.111 A 
ATOM      6  C   UNL     1     -34.586   4.996  80.380  1.00  0.00     0.134 A 
ATOM      7  C   UNL     1     -34.015   5.912  79.488  1.00  0.00     0.093 A 
ATOM      8  C   UNL     1     -34.743   6.421  78.413  1.00  0.00     0.123 A 
ATOM      9  C   UNL     1     -36.066   6.020  78.220  1.00  0.00     0.094 A 
ATOM     10  C   UNL     1     -36.674   5.136  79.115  1.00  0.00     0.146 A 
ATOM     11  O   UNL     1     -37.938   4.787  78.902  1.00  0.00    -0.452 OA
ENDROOT
BRANCH   1  12
ATOM     12  C   UNL     1     -40.013   3.640  79.337  1.00  0.00     0.025 A 
ATOM     13  C   UNL     1     -40.307   3.231  78.028  1.00  0.00     0.016 A 
ATOM     14  C   UNL     1     -41.613   2.895  77.669  1.00  0.00     0.051 A 
ATOM     15  C   UNL     1     -42.648   2.945  78.610  1.00  0.00     0.157 A 
ATOM     16  C   UNL     1     -41.045   3.670  80.290  1.00  0.00     0.062 A 
ATOM     17  C   UNL     1     -42.358   3.332  79.940  1.00  0.00     0.158 A 
BRANCH  15  18
ATOM     18  O   UNL     1     -43.933   2.603  78.185  1.00  0.00    -0.504 OA
ATOM     19  H   UNL     1     -44.147   2.243  77.266  1.00  0.00     0.293 HD
ENDBRANCH  15  18
BRANCH  17  20
ATOM     20  O   UNL     1     -43.333   3.386  80.938  1.00  0.00    -0.504 OA
ATOM     21  H   UNL     1     -44.178   3.934  80.873  1.00  0.00     0.293 HD
ENDBRANCH  17  20
ENDBRANCH   1  12
BRANCH   2  22
ATOM     22  O   UNL     1     -38.744   2.690  81.761  1.00  0.00    -0.502 OA
ATOM     23  H   UNL     1     -38.609   2.739  82.765  1.00  0.00     0.293 HD
ENDBRANCH   2  22
BRANCH   6  24
ATOM     24  O   UNL     1     -33.741   4.475  81.364  1.00  0.00    -0.507 OA
ATOM     25  H   UNL     1     -32.898   4.921  81.693  1.00  0.00     0.293 HD
ENDBRANCH   6  24
BRANCH   8  26
ATOM     26  O   UNL     1     -34.139   7.319  77.536  1.00  0.00    -0.508 OA
ATOM     27  H   UNL     1     -34.019   7.102  76.554  1.00  0.00     0.293 HD
ENDBRANCH   8  26
TORSDOF 6
ENDMDL
MODEL 4
REMARK VINA RESULT:    -6.366     10.421     11.739
REMARK INTER + INTRA:          -7.961
REMARK INTER:                  -7.766
REMARK INTRA:                  -0.194
REMARK UNBOUND:                -0.292
REMARK SMILES O=c1c(O)c(-c2ccc(O)c(O)c2)oc2cc(O)cc(O)c12
REMARK SMILES IDX 5 1 3 2 2 3 1 4 22 5 20 6 19 7 17 8 16 9 15 10 14 11 6 12
REMARK SMILES IDX 7 13 8 14 9 15 13 16 11 17 10 18 12 20 4 22 21 24 18 26
REMARK H PARENT 10 19 12 21 4 23 21 25 18 27
REMARK Flexibility Score: inf
ROOT
ATOM      1  C   UNL     1     -46.594  -0.351  74.187  1.00  0.00     0.180 A 
ATOM      2  C   UNL     1     -47.775  -1.106  74.082  1.00  0.00     0.208 A 
ATOM      3  C   UNL     1     -47.723  -2.489  74.316  1.00  0.00     0.238 A 
ATOM      4  O   UNL     1     -48.794  -3.150  74.275  1.00  0.00    -0.285 OA
ATOM      5  C   UNL     1     -46.489  -3.104  74.636  1.00  0.00     0.111 A 
ATOM      6  C   UNL     1     -46.312  -4.503  74.854  1.00  0.00     0.134 A 
ATOM      7  C   UNL     1     -45.072  -4.983  75.292  1.00  0.00     0.093 A 
ATOM      8  C   UNL     1     -43.985  -4.126  75.458  1.00  0.00     0.123 A 
ATOM      9  C   UNL     1     -44.130  -2.763  75.191  1.00  0.00     0.094 A 
ATOM     10  C   UNL     1     -45.365  -2.249  74.788  1.00  0.00     0.146 A 
ATOM     11  O   UNL     1     -45.465  -0.946  74.553  1.00  0.00    -0.452 OA
ENDROOT
BRANCH   1  12
ATOM     12  C   UNL     1     -46.565   1.107  73.931  1.00  0.00     0.025 A 
ATOM     13  C   UNL     1     -45.931   1.592  72.778  1.00  0.00     0.016 A 
ATOM     14  C   UNL     1     -45.909   2.960  72.507  1.00  0.00     0.051 A 
ATOM     15  C   UNL     1     -46.531   3.870  73.370  1.00  0.00     0.157 A 
ATOM     16  C   UNL     1     -47.209   2.014  74.788  1.00  0.00     0.062 A 
ATOM     17  C   UNL     1     -47.196   3.389  74.523  1.00  0.00     0.158 A 
BRANCH  15  18
ATOM     18  O   UNL     1     -46.467   5.226  73.045  1.00  0.00    -0.504 OA
ATOM     19  H   UNL     1     -45.844   5.885  73.490  1.00  0.00     0.293 HD
ENDBRANCH  15  18
BRANCH  17  20
ATOM     20  O   UNL     1     -47.855   4.233  75.419  1.00  0.00    -0.504 OA
ATOM     21  H   UNL     1     -47.430   5.039  75.853  1.00  0.00     0.293 HD
ENDBRANCH  17  20
ENDBRANCH   1  12
BRANCH   2  22
ATOM     22  O   UNL     1     -48.988  -0.475  73.788  1.00  0.00    -0.502 OA
ATOM     23  H   UNL     1     -49.534   0.009  74.491  1.00  0.00     0.293 HD
ENDBRANCH   2  22
BRANCH   6  24
ATOM     24  O   UNL     1     -47.307  -5.460  74.628  1.00  0.00    -0.507 OA
ATOM     25  H   UNL     1     -47.677  -5.701  73.721  1.00  0.00     0.293 HD
ENDBRANCH   6  24
BRANCH   8  26
ATOM     26  O   UNL     1     -42.762  -4.639  75.880  1.00  0.00    -0.508 OA
ATOM     27  H   UNL     1     -42.075  -4.059  76.347  1.00  0.00     0.293 HD
ENDBRANCH   8  26
TORSDOF 6
ENDMDL
MODEL 5
REMARK VINA RESULT:    -6.328      1.941      7.264
REMARK INTER + INTRA:          -7.915
REMARK INTER:                  -7.586
REMARK INTRA:                  -0.329
REMARK UNBOUND:                -0.292
REMARK SMILES O=c1c(O)c(-c2ccc(O)c(O)c2)oc2cc(O)cc(O)c12
REMARK SMILES IDX 5 1 3 2 2 3 1 4 22 5 20 6 19 7 17 8 16 9 15 10 14 11 6 12
REMARK SMILES IDX 7 13 8 14 9 15 13 16 11 17 10 18 12 20 4 22 21 24 18 26
REMARK H PARENT 10 19 12 21 4 23 21 25 18 27
REMARK Flexibility Score: inf
ROOT
ATOM      1  C   UNL     1     -38.786   6.020  78.354  1.00  0.00     0.180 A 
ATOM      2  C   UNL     1     -39.113   7.230  77.718  1.00  0.00     0.208 A 
ATOM      3  C   UNL     1     -38.089   8.148  77.435  1.00  0.00     0.238 A 
ATOM      4  O   UNL     1     -38.380   9.206  76.817  1.00  0.00    -0.285 OA
ATOM      5  C   UNL     1     -36.755   7.853  77.804  1.00  0.00     0.111 A 
ATOM      6  C   UNL     1     -35.645   8.727  77.601  1.00  0.00     0.134 A 
ATOM      7  C   UNL     1     -34.351   8.277  77.887  1.00  0.00     0.093 A 
ATOM      8  C   UNL     1     -34.130   7.012  78.428  1.00  0.00     0.123 A 
ATOM      9  C   UNL     1     -35.214   6.170  78.686  1.00  0.00     0.094 A 
ATOM     10  C   UNL     1     -36.514   6.577  78.377  1.00  0.00     0.146 A 
ATOM     11  O   UNL     1     -37.517   5.743  78.628  1.00  0.00    -0.452 OA
ENDROOT
BRANCH   1  12
ATOM     12  C   UNL     1     -39.813   5.014  78.708  1.00  0.00     0.025 A 
ATOM     13  C   UNL     1     -40.128   3.998  77.794  1.00  0.00     0.016 A 
ATOM     14  C   UNL     1     -41.078   3.028  78.115  1.00  0.00     0.051 A 
ATOM     15  C   UNL     1     -41.722   3.043  79.358  1.00  0.00     0.157 A 
ATOM     16  C   UNL     1     -40.441   5.019  79.965  1.00  0.00     0.062 A 
ATOM     17  C   UNL     1     -41.394   4.048  80.298  1.00  0.00     0.158 A 
BRANCH  15  18
ATOM     18  O   UNL     1     -42.668   2.048  79.615  1.00  0.00    -0.504 OA
ATOM     19  H   UNL     1     -43.346   1.726  78.940  1.00  0.00     0.293 HD
ENDBRANCH  15  18
BRANCH  17  20
ATOM     20  O   UNL     1     -41.978   4.115  81.564  1.00  0.00    -0.504 OA
ATOM     21  H   UNL     1     -41.512   3.844  82.417  1.00  0.00     0.293 HD
ENDBRANCH  17  20
ENDBRANCH   1  12
BRANCH   2  22
ATOM     22  O   UNL     1     -40.433   7.492  77.342  1.00  0.00    -0.502 OA
ATOM     23  H   UNL     1     -40.894   8.370  77.551  1.00  0.00     0.293 HD
ENDBRANCH   2  22
BRANCH   6  24
ATOM     24  O   UNL     1     -35.762  10.046  77.152  1.00  0.00    -0.507 OA
ATOM     25  H   UNL     1     -35.068  10.530  76.603  1.00  0.00     0.293 HD
ENDBRANCH   6  24
BRANCH   8  26
ATOM     26  O   UNL     1     -32.831   6.602  78.715  1.00  0.00    -0.508 OA
ATOM     27  H   UNL     1     -32.531   5.646  78.568  1.00  0.00     0.293 HD
ENDBRANCH   8  26
TORSDOF 6
ENDMDL
MODEL 6
REMARK VINA RESULT:    -6.316      9.076     11.646
REMARK INTER + INTRA:          -7.900
REMARK INTER:                  -7.699
REMARK INTRA:                  -0.201
REMARK UNBOUND:                -0.292
REMARK SMILES O=c1c(O)c(-c2ccc(O)c(O)c2)oc2cc(O)cc(O)c12
REMARK SMILES IDX 5 1 3 2 2 3 1 4 22 5 20 6 19 7 17 8 16 9 15 10 14 11 6 12
REMARK SMILES IDX 7 13 8 14 9 15 13 16 11 17 10 18 12 20 4 22 21 24 18 26
REMARK H PARENT 10 19 12 21 4 23 21 25 18 27
REMARK Flexibility Score: inf
ROOT
ATOM      1  C   UNL     1     -46.797   4.556  72.196  1.00  0.00     0.180 A 
ATOM      2  C   UNL     1     -47.959   3.822  71.903  1.00  0.00     0.208 A 
ATOM      3  C   UNL     1     -48.059   2.497  72.353  1.00  0.00     0.238 A 
ATOM      4  O   UNL     1     -49.125   1.862  72.135  1.00  0.00    -0.285 OA
ATOM      5  C   UNL     1     -46.990   1.915  73.077  1.00  0.00     0.111 A 
ATOM      6  C   UNL     1     -46.967   0.568  73.547  1.00  0.00     0.134 A 
ATOM      7  C   UNL     1     -45.914   0.139  74.364  1.00  0.00     0.093 A 
ATOM      8  C   UNL     1     -44.852   0.986  74.675  1.00  0.00     0.123 A 
ATOM      9  C   UNL     1     -44.834   2.289  74.172  1.00  0.00     0.094 A 
ATOM     10  C   UNL     1     -45.889   2.757  73.384  1.00  0.00     0.146 A 
ATOM     11  O   UNL     1     -45.840   4.005  72.933  1.00  0.00    -0.452 OA
ENDROOT
BRANCH   1  12
ATOM     12  C   UNL     1     -46.607   5.950  71.734  1.00  0.00     0.025 A 
ATOM     13  C   UNL     1     -46.477   6.978  72.678  1.00  0.00     0.016 A 
ATOM     14  C   UNL     1     -46.278   8.296  72.265  1.00  0.00     0.051 A 
ATOM     15  C   UNL     1     -46.190   8.613  70.904  1.00  0.00     0.157 A 
ATOM     16  C   UNL     1     -46.497   6.260  70.368  1.00  0.00     0.062 A 
ATOM     17  C   UNL     1     -46.294   7.579  69.944  1.00  0.00     0.158 A 
BRANCH  15  18
ATOM     18  O   UNL     1     -45.997   9.951  70.557  1.00  0.00    -0.504 OA
ATOM     19  H   UNL     1     -45.725  10.261  69.635  1.00  0.00     0.293 HD
ENDBRANCH  15  18
BRANCH  17  20
ATOM     20  O   UNL     1     -46.196   7.815  68.571  1.00  0.00    -0.504 OA
ATOM     21  H   UNL     1     -46.101   8.732  68.160  1.00  0.00     0.293 HD
ENDBRANCH  17  20
ENDBRANCH   1  12
BRANCH   2  22
ATOM     22  O   UNL     1     -49.012   4.423  71.207  1.00  0.00    -0.502 OA
ATOM     23  H   UNL     1     -48.907   5.303  70.716  1.00  0.00     0.293 HD
ENDBRANCH   2  22
BRANCH   6  24
ATOM     24  O   UNL     1     -47.932  -0.390  73.219  1.00  0.00    -0.507 OA
ATOM     25  H   UNL     1     -47.731  -1.295  72.822  1.00  0.00     0.293 HD
ENDBRANCH   6  24
BRANCH   8  26
ATOM     26  O   UNL     1     -43.813   0.522  75.477  1.00  0.00    -0.508 OA
ATOM     27  H   UNL     1     -43.393  -0.387  75.328  1.00  0.00     0.293 HD
ENDBRANCH   8  26
TORSDOF 6
ENDMDL
MODEL 7
REMARK VINA RESULT:    -6.247      1.501      3.172
REMARK INTER + INTRA:          -7.818
REMARK INTER:                  -7.527
REMARK INTRA:                  -0.291
REMARK UNBOUND:                -0.292
REMARK SMILES O=c1c(O)c(-c2ccc(O)c(O)c2)oc2cc(O)cc(O)c12
REMARK SMILES IDX 5 1 3 2 2 3 1 4 22 5 20 6 19 7 17 8 16 9 15 10 14 11 6 12
REMARK SMILES IDX 7 13 8 14 9 15 13 16 11 17 10 18 12 20 4 22 21 24 18 26
REMARK H PARENT 10 19 12 21 4 23 21 25 18 27
REMARK Flexibility Score: inf
ROOT
ATOM      1  C   UNL     1     -38.014   5.084  80.229  1.00  0.00     0.180 A 
ATOM      2  C   UNL     1     -39.006   4.929  79.245  1.00  0.00     0.208 A 
ATOM      3  C   UNL     1     -40.280   4.482  79.626  1.00  0.00     0.238 A 
ATOM      4  O   UNL     1     -41.179   4.397  78.749  1.00  0.00    -0.285 OA
ATOM      5  C   UNL     1     -40.544   4.179  80.984  1.00  0.00     0.111 A 
ATOM      6  C   UNL     1     -41.787   3.680  81.476  1.00  0.00     0.134 A 
ATOM      7  C   UNL     1     -41.976   3.539  82.856  1.00  0.00     0.093 A 
ATOM      8  C   UNL     1     -40.949   3.815  83.757  1.00  0.00     0.123 A 
ATOM      9  C   UNL     1     -39.709   4.247  83.283  1.00  0.00     0.094 A 
ATOM     10  C   UNL     1     -39.502   4.433  81.913  1.00  0.00     0.146 A 
ATOM     11  O   UNL     1     -38.311   4.855  81.503  1.00  0.00    -0.452 OA
ENDROOT
BRANCH   1  12
ATOM     12  C   UNL     1     -36.640   5.527  79.901  1.00  0.00     0.025 A 
ATOM     13  C   UNL     1     -35.624   4.573  79.755  1.00  0.00     0.016 A 
ATOM     14  C   UNL     1     -34.326   4.967  79.426  1.00  0.00     0.051 A 
ATOM     15  C   UNL     1     -34.020   6.317  79.222  1.00  0.00     0.157 A 
ATOM     16  C   UNL     1     -36.342   6.882  79.675  1.00  0.00     0.062 A 
ATOM     17  C   UNL     1     -35.044   7.286  79.341  1.00  0.00     0.158 A 
BRANCH  15  18
ATOM     18  O   UNL     1     -32.701   6.646  78.902  1.00  0.00    -0.504 OA
ATOM     19  H   UNL     1     -32.297   7.561  79.044  1.00  0.00     0.293 HD
ENDBRANCH  15  18
BRANCH  17  20
ATOM     20  O   UNL     1     -34.819   8.649  79.132  1.00  0.00    -0.504 OA
ATOM     21  H   UNL     1     -35.553   9.327  78.988  1.00  0.00     0.293 HD
ENDBRANCH  17  20
ENDBRANCH   1  12
BRANCH   2  22
ATOM     22  O   UNL     1     -38.731   5.256  77.914  1.00  0.00    -0.502 OA
ATOM     23  H   UNL     1     -38.798   4.579  77.163  1.00  0.00     0.293 HD
ENDBRANCH   2  22
BRANCH   6  24
ATOM     24  O   UNL     1     -42.849   3.285  80.657  1.00  0.00    -0.507 OA
ATOM     25  H   UNL     1     -42.807   2.536  79.982  1.00  0.00     0.293 HD
ENDBRANCH   6  24
BRANCH   8  26
ATOM     26  O   UNL     1     -41.167   3.649  85.122  1.00  0.00    -0.508 OA
ATOM     27  H   UNL     1     -40.614   4.144  85.812  1.00  0.00     0.293 HD
ENDBRANCH   8  26
TORSDOF 6
ENDMDL
MODEL 8
REMARK VINA RESULT:    -6.232      1.625      7.142
REMARK INTER + INTRA:          -7.799
REMARK INTER:                  -7.749
REMARK INTRA:                  -0.050
REMARK UNBOUND:                -0.292
REMARK SMILES O=c1c(O)c(-c2ccc(O)c(O)c2)oc2cc(O)cc(O)c12
REMARK SMILES IDX 5 1 3 2 2 3 1 4 22 5 20 6 19 7 17 8 16 9 15 10 14 11 6 12
REMARK SMILES IDX 7 13 8 14 9 15 13 16 11 17 10 18 12 20 4 22 21 24 18 26
REMARK H PARENT 10 19 12 21 4 23 21 25 18 27
REMARK Flexibility Score: inf
ROOT
ATOM      1  C   UNL     1     -38.907   4.498  79.329  1.00  0.00     0.180 A 
ATOM      2  C   UNL     1     -38.485   5.428  78.363  1.00  0.00     0.208 A 
ATOM      3  C   UNL     1     -37.177   5.932  78.429  1.00  0.00     0.238 A 
ATOM      4  O   UNL     1     -36.788   6.723  77.530  1.00  0.00    -0.285 OA
ATOM      5  C   UNL     1     -36.311   5.513  79.468  1.00  0.00     0.111 A 
ATOM      6  C   UNL     1     -34.979   5.989  79.654  1.00  0.00     0.134 A 
ATOM      7  C   UNL     1     -34.170   5.408  80.639  1.00  0.00     0.093 A 
ATOM      8  C   UNL     1     -34.663   4.416  81.485  1.00  0.00     0.123 A 
ATOM      9  C   UNL     1     -35.984   3.985  81.350  1.00  0.00     0.094 A 
ATOM     10  C   UNL     1     -36.804   4.519  80.353  1.00  0.00     0.146 A 
ATOM     11  O   UNL     1     -38.052   4.075  80.251  1.00  0.00    -0.452 OA
ENDROOT
BRANCH   1  12
ATOM     12  C   UNL     1     -40.279   3.941  79.339  1.00  0.00     0.025 A 
ATOM     13  C   UNL     1     -40.756   3.260  78.211  1.00  0.00     0.016 A 
ATOM     14  C   UNL     1     -42.039   2.710  78.207  1.00  0.00     0.051 A 
ATOM     15  C   UNL     1     -42.864   2.815  79.332  1.00  0.00     0.157 A 
ATOM     16  C   UNL     1     -41.096   4.029  80.479  1.00  0.00     0.062 A 
ATOM     17  C   UNL     1     -42.384   3.478  80.486  1.00  0.00     0.158 A 
BRANCH  15  18
ATOM     18  O   UNL     1     -44.139   2.249  79.262  1.00  0.00    -0.504 OA
ATOM     19  H   UNL     1     -44.359   1.417  78.733  1.00  0.00     0.293 HD
ENDBRANCH  15  18
BRANCH  17  20
ATOM     20  O   UNL     1     -43.141   3.604  81.652  1.00  0.00    -0.504 OA
ATOM     21  H   UNL     1     -43.046   4.366  82.308  1.00  0.00     0.293 HD
ENDBRANCH  17  20
ENDBRANCH   1  12
BRANCH   2  22
ATOM     22  O   UNL     1     -39.349   5.811  77.332  1.00  0.00    -0.502 OA
ATOM     23  H   UNL     1     -39.468   6.779  77.054  1.00  0.00     0.293 HD
ENDBRANCH   2  22
BRANCH   6  24
ATOM     24  O   UNL     1     -34.416   7.041  78.925  1.00  0.00    -0.507 OA
ATOM     25  H   UNL     1     -34.386   7.090  77.918  1.00  0.00     0.293 HD
ENDBRANCH   6  24
BRANCH   8  26
ATOM     26  O   UNL     1     -33.836   3.872  82.463  1.00  0.00    -0.508 OA
ATOM     27  H   UNL     1     -34.025   4.000  83.450  1.00  0.00     0.293 HD
ENDBRANCH   8  26
TORSDOF 6
ENDMDL
MODEL 9
REMARK VINA RESULT:    -6.173      8.804     10.777
REMARK INTER + INTRA:          -7.728
REMARK INTER:                  -7.405
REMARK INTRA:                  -0.323
REMARK UNBOUND:                -0.292
REMARK SMILES O=c1c(O)c(-c2ccc(O)c(O)c2)oc2cc(O)cc(O)c12
REMARK SMILES IDX 5 1 3 2 2 3 1 4 22 5 20 6 19 7 17 8 16 9 15 10 14 11 6 12
REMARK SMILES IDX 7 13 8 14 9 15 13 16 11 17 10 18 12 20 4 22 21 24 18 26
REMARK H PARENT 10 19 12 21 4 23 21 25 18 27
REMARK Flexibility Score: inf
ROOT
ATOM      1  C   UNL     1     -42.019  -4.583  82.701  1.00  0.00     0.180 A 
ATOM      2  C   UNL     1     -42.632  -5.475  83.597  1.00  0.00     0.208 A 
ATOM      3  C   UNL     1     -43.500  -6.457  83.094  1.00  0.00     0.238 A 
ATOM      4  O   UNL     1     -44.003  -7.288  83.896  1.00  0.00    -0.285 OA
ATOM      5  C   UNL     1     -43.757  -6.526  81.703  1.00  0.00     0.111 A 
ATOM      6  C   UNL     1     -44.649  -7.454  81.089  1.00  0.00     0.134 A 
ATOM      7  C   UNL     1     -44.727  -7.516  79.692  1.00  0.00     0.093 A 
ATOM      8  C   UNL     1     -43.995  -6.641  78.890  1.00  0.00     0.123 A 
ATOM      9  C   UNL     1     -43.164  -5.689  79.482  1.00  0.00     0.094 A 
ATOM     10  C   UNL     1     -43.038  -5.627  80.872  1.00  0.00     0.146 A 
ATOM     11  O   UNL     1     -42.229  -4.714  81.397  1.00  0.00    -0.452 OA
ENDROOT
BRANCH   1  12
ATOM     12  C   UNL     1     -41.112  -3.506  83.159  1.00  0.00     0.025 A 
ATOM     13  C   UNL     1     -41.646  -2.258  83.512  1.00  0.00     0.016 A 
ATOM     14  C   UNL     1     -40.812  -1.235  83.964  1.00  0.00     0.051 A 
ATOM     15  C   UNL     1     -39.433  -1.440  84.089  1.00  0.00     0.157 A 
ATOM     16  C   UNL     1     -39.731  -3.723  83.303  1.00  0.00     0.062 A 
ATOM     17  C   UNL     1     -38.887  -2.704  83.760  1.00  0.00     0.158 A 
BRANCH  15  18
ATOM     18  O   UNL     1     -38.652  -0.374  84.541  1.00  0.00    -0.504 OA
ATOM     19  H   UNL     1     -38.854   0.160  85.374  1.00  0.00     0.293 HD
ENDBRANCH  15  18
BRANCH  17  20
ATOM     20  O   UNL     1     -37.525  -2.989  83.877  1.00  0.00    -0.504 OA
ATOM     21  H   UNL     1     -36.810  -2.289  84.006  1.00  0.00     0.293 HD
ENDBRANCH  17  20
ENDBRANCH   1  12
BRANCH   2  22
ATOM     22  O   UNL     1     -42.347  -5.405  84.964  1.00  0.00    -0.502 OA
ATOM     23  H   UNL     1     -42.365  -6.221  85.566  1.00  0.00     0.293 HD
ENDBRANCH   2  22
BRANCH   6  24
ATOM     24  O   UNL     1     -45.496  -8.311  81.799  1.00  0.00    -0.507 OA
ATOM     25  H   UNL     1     -45.655  -8.267  82.794  1.00  0.00     0.293 HD
ENDBRANCH   6  24
BRANCH   8  26
ATOM     26  O   UNL     1     -44.108  -6.720  77.504  1.00  0.00    -0.508 OA
ATOM     27  H   UNL     1     -44.084  -7.609  77.019  1.00  0.00     0.293 HD
ENDBRANCH   8  26
TORSDOF 6
ENDMDL
