MODEL 1
REMARK VINA RESULT:    -4.246      0.000      0.000
REMARK INTER + INTRA:          -7.261
REMARK INTER:                  -6.728
REMARK INTRA:                  -0.534
REMARK UNBOUND:                -0.534
REMARK SMILES CCCCCCCCCCCC(=O)[O-]
REMARK SMILES IDX 7 1 8 2 9 3 10 4 11 5 12 6 13 7 14 8 6 9 5 10 4 11 3 12 2 13
REMARK SMILES IDX 1 14
REMARK H PARENT
REMARK Flexibility Score: inf
ROOT
ATOM      1  C   UNL     1      -4.003  35.622  20.583  1.00  0.00     0.000 C 
ENDROOT
BRANCH   1   2
ATOM      2  C   UNL     1      -3.311  36.847  19.973  1.00  0.00     0.000 C 
BRANCH   2   3
ATOM      3  C   UNL     1      -3.951  37.228  18.630  1.00  0.00     0.000 C 
BRANCH   3   4
ATOM      4  C   UNL     1      -2.958  37.162  17.456  1.00  0.00     0.006 C 
BRANCH   4   5
ATOM      5  C   UNL     1      -3.284  36.083  16.410  1.00  0.00     0.053 C 
BRANCH   5   6
ATOM      6  C   UNL     1      -3.141  36.595  15.011  1.00  0.00     0.041 C 
ATOM      7  O   UNL     1      -2.230  36.151  14.263  1.00  0.00    -0.550 OA
ATOM      8  O   UNL     1      -3.992  37.588  14.542  1.00  0.00    -0.550 OA
ENDBRANCH   5   6
ENDBRANCH   4   5
ENDBRANCH   3   4
ENDBRANCH   2   3
ENDBRANCH   1   2
BRANCH   1   9
ATOM      9  C   UNL     1      -5.528  35.765  20.530  1.00  0.00     0.000 C 
BRANCH   9  10
ATOM     10  C   UNL     1      -6.125  35.810  21.944  1.00  0.00    -0.000 C 
BRANCH  10  11
ATOM     11  C   UNL     1      -5.470  34.800  22.900  1.00  0.00    -0.000 C 
BRANCH  11  12
ATOM     12  C   UNL     1      -5.898  34.931  24.375  1.00  0.00    -0.000 C 
BRANCH  12  13
ATOM     13  C   UNL     1      -6.070  36.390  24.846  1.00  0.00    -0.003 C 
ATOM     14  C   UNL     1      -4.968  36.828  25.810  1.00  0.00     0.004 C 
ENDBRANCH  12  13
ENDBRANCH  11  12
ENDBRANCH  10  11
ENDBRANCH   9  10
ENDBRANCH   1   9
TORSDOF 10
ENDMDL
MODEL 2
REMARK VINA RESULT:    -4.075      1.260      2.114
REMARK INTER + INTRA:          -6.991
REMARK INTER:                  -6.482
REMARK INTRA:                  -0.509
REMARK UNBOUND:                -0.534
REMARK SMILES CCCCCCCCCCCC(=O)[O-]
REMARK SMILES IDX 7 1 8 2 9 3 10 4 11 5 12 6 13 7 14 8 6 9 5 10 4 11 3 12 2 13
REMARK SMILES IDX 1 14
REMARK H PARENT
REMARK Flexibility Score: inf
ROOT
ATOM      1  C   UNL     1      -3.028  37.201  19.499  1.00  0.00     0.000 C 
ENDROOT
BRANCH   1   2
ATOM      2  C   UNL     1      -2.740  37.328  17.998  1.00  0.00     0.000 C 
BRANCH   2   3
ATOM      3  C   UNL     1      -3.522  36.277  17.197  1.00  0.00     0.000 C 
BRANCH   3   4
ATOM      4  C   UNL     1      -2.686  35.642  16.071  1.00  0.00     0.006 C 
BRANCH   4   5
ATOM      5  C   UNL     1      -2.545  36.518  14.816  1.00  0.00     0.053 C 
BRANCH   5   6
ATOM      6  C   UNL     1      -3.828  37.202  14.461  1.00  0.00     0.041 C 
ATOM      7  O   UNL     1      -3.988  38.424  14.720  1.00  0.00    -0.550 OA
ATOM      8  O   UNL     1      -4.862  36.482  13.876  1.00  0.00    -0.550 OA
ENDBRANCH   5   6
ENDBRANCH   4   5
ENDBRANCH   3   4
ENDBRANCH   2   3
ENDBRANCH   1   2
BRANCH   1   9
ATOM      9  C   UNL     1      -4.374  36.509  19.746  1.00  0.00     0.000 C 
BRANCH   9  10
ATOM     10  C   UNL     1      -5.352  37.452  20.464  1.00  0.00    -0.000 C 
BRANCH  10  11
ATOM     11  C   UNL     1      -5.816  36.907  21.825  1.00  0.00    -0.000 C 
BRANCH  11  12
ATOM     12  C   UNL     1      -5.909  35.371  21.910  1.00  0.00    -0.000 C 
BRANCH  12  13
ATOM     13  C   UNL     1      -5.408  34.791  23.250  1.00  0.00    -0.003 C 
ATOM     14  C   UNL     1      -6.125  35.397  24.456  1.00  0.00     0.004 C 
ENDBRANCH  12  13
ENDBRANCH  11  12
ENDBRANCH  10  11
ENDBRANCH   9  10
ENDBRANCH   1   9
TORSDOF 10
ENDMDL
MODEL 3
REMARK VINA RESULT:    -3.518      4.192      7.441
REMARK INTER + INTRA:          -6.108
REMARK INTER:                  -5.595
REMARK INTRA:                  -0.513
REMARK UNBOUND:                -0.534
REMARK SMILES CCCCCCCCCCCC(=O)[O-]
REMARK SMILES IDX 7 1 8 2 9 3 10 4 11 5 12 6 13 7 14 8 6 9 5 10 4 11 3 12 2 13
REMARK SMILES IDX 1 14
REMARK H PARENT
REMARK Flexibility Score: inf
ROOT
ATOM      1  C   UNL     1      -2.956  36.907  19.627  1.00  0.00     0.000 C 
ENDROOT
BRANCH   1   2
ATOM      2  C   UNL     1      -4.025  36.020  20.277  1.00  0.00     0.000 C 
BRANCH   2   3
ATOM      3  C   UNL     1      -5.377  36.745  20.341  1.00  0.00     0.000 C 
BRANCH   3   4
ATOM      4  C   UNL     1      -5.474  37.724  21.525  1.00  0.00     0.006 C 
BRANCH   4   5
ATOM      5  C   UNL     1      -5.982  39.125  21.148  1.00  0.00     0.053 C 
BRANCH   5   6
ATOM      6  C   UNL     1      -5.840  40.097  22.278  1.00  0.00     0.041 C 
ATOM      7  O   UNL     1      -6.125  41.312  22.108  1.00  0.00    -0.550 OA
ATOM      8  O   UNL     1      -5.361  39.668  23.509  1.00  0.00    -0.550 OA
ENDBRANCH   5   6
ENDBRANCH   4   5
ENDBRANCH   3   4
ENDBRANCH   2   3
ENDBRANCH   1   2
BRANCH   1   9
ATOM      9  C   UNL     1      -3.322  37.239  18.177  1.00  0.00     0.000 C 
BRANCH   9  10
ATOM     10  C   UNL     1      -3.882  36.004  17.455  1.00  0.00    -0.000 C 
BRANCH  10  11
ATOM     11  C   UNL     1      -2.936  35.468  16.368  1.00  0.00    -0.000 C 
BRANCH  11  12
ATOM     12  C   UNL     1      -2.407  36.531  15.386  1.00  0.00    -0.000 C 
BRANCH  12  13
ATOM     13  C   UNL     1      -3.280  36.702  14.125  1.00  0.00    -0.003 C 
ATOM     14  C   UNL     1      -4.287  37.845  14.259  1.00  0.00     0.004 C 
ENDBRANCH  12  13
ENDBRANCH  11  12
ENDBRANCH  10  11
ENDBRANCH   9  10
ENDBRANCH   1   9
TORSDOF 10
ENDMDL
MODEL 4
REMARK VINA RESULT:    -3.329      4.158      7.861
REMARK INTER + INTRA:          -5.809
REMARK INTER:                  -5.621
REMARK INTRA:                  -0.188
REMARK UNBOUND:                -0.534
REMARK SMILES CCCCCCCCCCCC(=O)[O-]
REMARK SMILES IDX 7 1 8 2 9 3 10 4 11 5 12 6 13 7 14 8 6 9 5 10 4 11 3 12 2 13
REMARK SMILES IDX 1 14
REMARK H PARENT
REMARK Flexibility Score: inf
ROOT
ATOM      1  C   UNL     1      -5.749  35.679  19.822  1.00  0.00     0.000 C 
ENDROOT
BRANCH   1   2
ATOM      2  C   UNL     1      -6.115  34.852  21.061  1.00  0.00     0.000 C 
BRANCH   2   3
ATOM      3  C   UNL     1      -6.041  35.707  22.335  1.00  0.00     0.000 C 
BRANCH   3   4
ATOM      4  C   UNL     1      -5.652  34.889  23.580  1.00  0.00     0.006 C 
BRANCH   4   5
ATOM      5  C   UNL     1      -6.103  35.512  24.911  1.00  0.00     0.053 C 
BRANCH   5   6
ATOM      6  C   UNL     1      -5.428  36.821  25.176  1.00  0.00     0.041 C 
ATOM      7  O   UNL     1      -4.602  36.929  26.120  1.00  0.00    -0.550 OA
ATOM      8  O   UNL     1      -5.737  37.933  24.402  1.00  0.00    -0.550 OA
ENDBRANCH   5   6
ENDBRANCH   4   5
ENDBRANCH   3   4
ENDBRANCH   2   3
ENDBRANCH   1   2
BRANCH   1   9
ATOM      9  C   UNL     1      -4.257  36.030  19.814  1.00  0.00     0.000 C 
BRANCH   9  10
ATOM     10  C   UNL     1      -3.972  37.191  18.850  1.00  0.00    -0.000 C 
BRANCH  10  11
ATOM     11  C   UNL     1      -2.922  36.838  17.784  1.00  0.00    -0.000 C 
BRANCH  11  12
ATOM     12  C   UNL     1      -3.387  35.817  16.729  1.00  0.00    -0.000 C 
BRANCH  12  13
ATOM     13  C   UNL     1      -3.110  36.255  15.275  1.00  0.00    -0.003 C 
ATOM     14  C   UNL     1      -3.837  37.547  14.903  1.00  0.00     0.004 C 
ENDBRANCH  12  13
ENDBRANCH  11  12
ENDBRANCH  10  11
ENDBRANCH   9  10
ENDBRANCH   1   9
TORSDOF 10
ENDMDL
MODEL 5
REMARK VINA RESULT:    -3.134      2.431      3.180
REMARK INTER + INTRA:          -5.500
REMARK INTER:                  -4.992
REMARK INTRA:                  -0.508
REMARK UNBOUND:                -0.534
REMARK SMILES CCCCCCCCCCCC(=O)[O-]
REMARK SMILES IDX 7 1 8 2 9 3 10 4 11 5 12 6 13 7 14 8 6 9 5 10 4 11 3 12 2 13
REMARK SMILES IDX 1 14
REMARK H PARENT
REMARK Flexibility Score: inf
ROOT
ATOM      1  C   UNL     1      -4.599  34.298  17.989  1.00  0.00     0.000 C 
ENDROOT
BRANCH   1   2
ATOM      2  C   UNL     1      -4.381  35.509  17.074  1.00  0.00     0.000 C 
BRANCH   2   3
ATOM      3  C   UNL     1      -3.085  35.360  16.263  1.00  0.00     0.000 C 
BRANCH   3   4
ATOM      4  C   UNL     1      -1.982  36.332  16.716  1.00  0.00     0.006 C 
BRANCH   4   5
ATOM      5  C   UNL     1      -2.477  37.479  17.611  1.00  0.00     0.053 C 
BRANCH   5   6
ATOM      6  C   UNL     1      -1.818  37.469  18.955  1.00  0.00     0.041 C 
ATOM      7  O   UNL     1      -2.515  37.420  20.002  1.00  0.00    -0.550 OA
ATOM      8  O   UNL     1      -0.434  37.548  19.052  1.00  0.00    -0.550 OA
ENDBRANCH   5   6
ENDBRANCH   4   5
ENDBRANCH   3   4
ENDBRANCH   2   3
ENDBRANCH   1   2
BRANCH   1   9
ATOM      9  C   UNL     1      -5.841  34.487  18.868  1.00  0.00     0.000 C 
BRANCH   9  10
ATOM     10  C   UNL     1      -5.532  35.397  20.066  1.00  0.00    -0.000 C 
BRANCH  10  11
ATOM     11  C   UNL     1      -6.125  34.870  21.384  1.00  0.00    -0.000 C 
BRANCH  11  12
ATOM     12  C   UNL     1      -6.045  35.850  22.569  1.00  0.00    -0.000 C 
BRANCH  12  13
ATOM     13  C   UNL     1      -5.935  35.157  23.944  1.00  0.00    -0.003 C 
ATOM     14  C   UNL     1      -5.930  36.153  25.104  1.00  0.00     0.004 C 
ENDBRANCH  12  13
ENDBRANCH  11  12
ENDBRANCH  10  11
ENDBRANCH   9  10
ENDBRANCH   1   9
TORSDOF 10
ENDMDL
MODEL 6
REMARK VINA RESULT:    -2.863      2.129      2.799
REMARK INTER + INTRA:          -5.070
REMARK INTER:                  -4.590
REMARK INTRA:                  -0.480
REMARK UNBOUND:                -0.534
REMARK SMILES CCCCCCCCCCCC(=O)[O-]
REMARK SMILES IDX 7 1 8 2 9 3 10 4 11 5 12 6 13 7 14 8 6 9 5 10 4 11 3 12 2 13
REMARK SMILES IDX 1 14
REMARK H PARENT
REMARK Flexibility Score: inf
ROOT
ATOM      1  C   UNL     1      -4.790  35.128  20.080  1.00  0.00     0.000 C 
ENDROOT
BRANCH   1   2
ATOM      2  C   UNL     1      -5.245  34.591  18.718  1.00  0.00     0.000 C 
BRANCH   2   3
ATOM      3  C   UNL     1      -4.224  34.933  17.622  1.00  0.00     0.000 C 
BRANCH   3   4
ATOM      4  C   UNL     1      -3.675  36.366  17.745  1.00  0.00     0.006 C 
BRANCH   4   5
ATOM      5  C   UNL     1      -2.402  36.629  16.924  1.00  0.00     0.053 C 
BRANCH   5   6
ATOM      6  C   UNL     1      -2.707  36.881  15.480  1.00  0.00     0.041 C 
ATOM      7  O   UNL     1      -2.019  36.328  14.582  1.00  0.00    -0.550 OA
ATOM      8  O   UNL     1      -3.728  37.753  15.126  1.00  0.00    -0.550 OA
ENDBRANCH   5   6
ENDBRANCH   4   5
ENDBRANCH   3   4
ENDBRANCH   2   3
ENDBRANCH   1   2
BRANCH   1   9
ATOM      9  C   UNL     1      -5.986  35.356  21.011  1.00  0.00     0.000 C 
BRANCH   9  10
ATOM     10  C   UNL     1      -5.873  36.709  21.728  1.00  0.00    -0.000 C 
BRANCH  10  11
ATOM     11  C   UNL     1      -5.196  37.787  20.866  1.00  0.00    -0.000 C 
BRANCH  11  12
ATOM     12  C   UNL     1      -6.090  38.991  20.512  1.00  0.00    -0.000 C 
BRANCH  12  13
ATOM     13  C   UNL     1      -6.029  40.136  21.544  1.00  0.00    -0.003 C 
ATOM     14  C   UNL     1      -5.410  39.697  22.871  1.00  0.00     0.004 C 
ENDBRANCH  12  13
ENDBRANCH  11  12
ENDBRANCH  10  11
ENDBRANCH   9  10
ENDBRANCH   1   9
TORSDOF 10
ENDMDL
MODEL 7
REMARK VINA RESULT:    -2.836      3.036      3.782
REMARK INTER + INTRA:          -5.028
REMARK INTER:                  -4.107
REMARK INTRA:                  -0.922
REMARK UNBOUND:                -0.534
REMARK SMILES CCCCCCCCCCCC(=O)[O-]
REMARK SMILES IDX 7 1 8 2 9 3 10 4 11 5 12 6 13 7 14 8 6 9 5 10 4 11 3 12 2 13
REMARK SMILES IDX 1 14
REMARK H PARENT
REMARK Flexibility Score: inf
ROOT
ATOM      1  C   UNL     1      -4.612  34.278  18.020  1.00  0.00     0.000 C 
ENDROOT
BRANCH   1   2
ATOM      2  C   UNL     1      -4.270  35.545  17.226  1.00  0.00     0.000 C 
BRANCH   2   3
ATOM      3  C   UNL     1      -2.984  35.351  16.409  1.00  0.00     0.000 C 
BRANCH   3   4
ATOM      4  C   UNL     1      -1.967  36.487  16.619  1.00  0.00     0.006 C 
BRANCH   4   5
ATOM      5  C   UNL     1      -2.394  37.534  17.660  1.00  0.00     0.053 C 
BRANCH   5   6
ATOM      6  C   UNL     1      -1.470  37.565  18.838  1.00  0.00     0.041 C 
ATOM      7  O   UNL     1      -0.223  37.569  18.665  1.00  0.00    -0.550 OA
ATOM      8  O   UNL     1      -1.986  37.553  20.128  1.00  0.00    -0.550 OA
ENDBRANCH   5   6
ENDBRANCH   4   5
ENDBRANCH   3   4
ENDBRANCH   2   3
ENDBRANCH   1   2
BRANCH   1   9
ATOM      9  C   UNL     1      -5.434  34.615  19.269  1.00  0.00     0.000 C 
BRANCH   9  10
ATOM     10  C   UNL     1      -4.610  35.453  20.259  1.00  0.00    -0.000 C 
BRANCH  10  11
ATOM     11  C   UNL     1      -5.415  36.607  20.878  1.00  0.00    -0.000 C 
BRANCH  11  12
ATOM     12  C   UNL     1      -5.426  37.907  20.050  1.00  0.00    -0.000 C 
BRANCH  12  13
ATOM     13  C   UNL     1      -6.077  39.102  20.777  1.00  0.00    -0.003 C 
ATOM     14  C   UNL     1      -5.595  39.244  22.221  1.00  0.00     0.004 C 
ENDBRANCH  12  13
ENDBRANCH  11  12
ENDBRANCH  10  11
ENDBRANCH   9  10
ENDBRANCH   1   9
TORSDOF 10
ENDMDL
MODEL 8
REMARK VINA RESULT:    -2.775      3.087      7.097
REMARK INTER + INTRA:          -4.931
REMARK INTER:                  -4.548
REMARK INTRA:                  -0.383
REMARK UNBOUND:                -0.534
REMARK SMILES CCCCCCCCCCCC(=O)[O-]
REMARK SMILES IDX 7 1 8 2 9 3 10 4 11 5 12 6 13 7 14 8 6 9 5 10 4 11 3 12 2 13
REMARK SMILES IDX 1 14
REMARK H PARENT
REMARK Flexibility Score: inf
ROOT
ATOM      1  C   UNL     1      -4.225  34.908  18.234  1.00  0.00     0.000 C 
ENDROOT
BRANCH   1   2
ATOM      2  C   UNL     1      -5.700  34.565  18.478  1.00  0.00     0.000 C 
BRANCH   2   3
ATOM      3  C   UNL     1      -6.061  34.713  19.963  1.00  0.00     0.000 C 
BRANCH   3   4
ATOM      4  C   UNL     1      -5.055  35.581  20.739  1.00  0.00     0.006 C 
BRANCH   4   5
ATOM      5  C   UNL     1      -5.700  36.602  21.690  1.00  0.00     0.053 C 
BRANCH   5   6
ATOM      6  C   UNL     1      -5.634  37.996  21.147  1.00  0.00     0.041 C 
ATOM      7  O   UNL     1      -5.551  38.189  19.905  1.00  0.00    -0.550 OA
ATOM      8  O   UNL     1      -5.630  39.081  22.014  1.00  0.00    -0.550 OA
ENDBRANCH   5   6
ENDBRANCH   4   5
ENDBRANCH   3   4
ENDBRANCH   2   3
ENDBRANCH   1   2
BRANCH   1   9
ATOM      9  C   UNL     1      -4.083  36.257  17.520  1.00  0.00     0.000 C 
BRANCH   9  10
ATOM     10  C   UNL     1      -2.608  36.565  17.218  1.00  0.00    -0.000 C 
BRANCH  10  11
ATOM     11  C   UNL     1      -2.080  35.803  15.991  1.00  0.00    -0.000 C 
BRANCH  11  12
ATOM     12  C   UNL     1      -2.369  36.476  14.635  1.00  0.00    -0.000 C 
BRANCH  12  13
ATOM     13  C   UNL     1      -3.872  36.680  14.350  1.00  0.00    -0.003 C 
ATOM     14  C   UNL     1      -4.250  38.157  14.231  1.00  0.00     0.004 C 
ENDBRANCH  12  13
ENDBRANCH  11  12
ENDBRANCH  10  11
ENDBRANCH   9  10
ENDBRANCH   1   9
TORSDOF 10
ENDMDL
