MODEL 1
REMARK VINA RESULT:    -4.632      0.000      0.000
REMARK INTER + INTRA:          -4.632
REMARK INTER:                  -4.632
REMARK INTRA:                   0.000
REMARK UNBOUND:                 0.000
REMARK SMILES CC1(C)O[C@]2(C)CC[C@H]1CC2
REMARK SMILES IDX 1 1 2 2 9 3 10 4 11 5 5 6 4 7 7 8 8 9 6 10 3 11
REMARK H PARENT
REMARK Flexibility Score: inf
ROOT
ATOM      1  C   UNL     1      18.546  47.117  44.998  1.00  0.00     0.042 C 
ATOM      2  C   UNL     1      20.029  47.536  44.914  1.00  0.00     0.066 C 
ATOM      3  C   UNL     1      20.274  48.470  43.667  1.00  0.00     0.021 C 
ATOM      4  C   UNL     1      19.454  49.769  43.858  1.00  0.00     0.009 C 
ATOM      5  C   UNL     1      19.767  50.365  45.252  1.00  0.00     0.035 C 
ATOM      6  C   UNL     1      20.865  49.516  45.955  1.00  0.00     0.066 C 
ATOM      7  O   UNL     1      20.379  48.187  46.144  1.00  0.00    -0.369 OA
ATOM      8  C   UNL     1      22.129  49.476  45.049  1.00  0.00     0.035 C 
ATOM      9  C   UNL     1      21.762  48.900  43.661  1.00  0.00     0.009 C 
ATOM     10  C   UNL     1      21.208  50.116  47.322  1.00  0.00     0.042 C 
ATOM     11  C   UNL     1      20.865  46.243  44.801  1.00  0.00     0.042 C 
ENDROOT
TORSDOF 0
ENDMDL
MODEL 2
REMARK VINA RESULT:    -4.598      1.483      3.521
REMARK INTER + INTRA:          -4.598
REMARK INTER:                  -4.598
REMARK INTRA:                   0.000
REMARK UNBOUND:                 0.000
REMARK SMILES CC1(C)O[C@]2(C)CC[C@H]1CC2
REMARK SMILES IDX 1 1 2 2 9 3 10 4 11 5 5 6 4 7 7 8 8 9 6 10 3 11
REMARK H PARENT
REMARK Flexibility Score: inf
ROOT
ATOM      1  C   UNL     1      20.917  49.451  45.904  1.00  0.00     0.042 C 
ATOM      2  C   UNL     1      20.991  48.668  44.575  1.00  0.00     0.066 C 
ATOM      3  C   UNL     1      21.276  47.140  44.844  1.00  0.00     0.021 C 
ATOM      4  C   UNL     1      20.088  46.552  45.642  1.00  0.00     0.009 C 
ATOM      5  C   UNL     1      18.767  46.900  44.914  1.00  0.00     0.035 C 
ATOM      6  C   UNL     1      19.077  47.641  43.582  1.00  0.00     0.066 C 
ATOM      7  O   UNL     1      19.755  48.864  43.873  1.00  0.00    -0.369 OA
ATOM      8  C   UNL     1      19.997  46.742  42.706  1.00  0.00     0.035 C 
ATOM      9  C   UNL     1      21.290  46.399  43.485  1.00  0.00     0.009 C 
ATOM     10  C   UNL     1      17.779  47.961  42.835  1.00  0.00     0.042 C 
ATOM     11  C   UNL     1      22.124  49.297  43.736  1.00  0.00     0.042 C 
ENDROOT
TORSDOF 0
ENDMDL
MODEL 3
REMARK VINA RESULT:    -4.594      1.633      2.882
REMARK INTER + INTRA:          -4.594
REMARK INTER:                  -4.594
REMARK INTRA:                   0.000
REMARK UNBOUND:                 0.000
REMARK SMILES CC1(C)O[C@]2(C)CC[C@H]1CC2
REMARK SMILES IDX 1 1 2 2 9 3 10 4 11 5 5 6 4 7 7 8 8 9 6 10 3 11
REMARK H PARENT
REMARK Flexibility Score: inf
ROOT
ATOM      1  C   UNL     1      21.342  45.194  44.091  1.00  0.00     0.042 C 
ATOM      2  C   UNL     1      20.553  46.409  43.557  1.00  0.00     0.066 C 
ATOM      3  C   UNL     1      19.450  46.855  44.593  1.00  0.00     0.021 C 
ATOM      4  C   UNL     1      20.155  47.317  45.891  1.00  0.00     0.009 C 
ATOM      5  C   UNL     1      21.243  48.359  45.534  1.00  0.00     0.035 C 
ATOM      6  C   UNL     1      21.204  48.662  44.008  1.00  0.00     0.066 C 
ATOM      7  O   UNL     1      21.487  47.464  43.285  1.00  0.00    -0.369 OA
ATOM      8  C   UNL     1      19.780  49.163  43.630  1.00  0.00     0.035 C 
ATOM      9  C   UNL     1      18.727  48.103  44.031  1.00  0.00     0.009 C 
ATOM     10  C   UNL     1      22.253  49.717  43.647  1.00  0.00     0.042 C 
ATOM     11  C   UNL     1      19.906  45.984  42.220  1.00  0.00     0.042 C 
ENDROOT
TORSDOF 0
ENDMDL
MODEL 4
REMARK VINA RESULT:    -4.519      1.425      3.121
REMARK INTER + INTRA:          -4.519
REMARK INTER:                  -4.519
REMARK INTRA:                   0.000
REMARK UNBOUND:                 0.000
REMARK SMILES CC1(C)O[C@]2(C)CC[C@H]1CC2
REMARK SMILES IDX 1 1 2 2 9 3 10 4 11 5 5 6 4 7 7 8 8 9 6 10 3 11
REMARK H PARENT
REMARK Flexibility Score: inf
ROOT
ATOM      1  C   UNL     1      22.481  49.784  44.084  1.00  0.00     0.042 C 
ATOM      2  C   UNL     1      21.167  48.979  44.191  1.00  0.00     0.066 C 
ATOM      3  C   UNL     1      20.886  48.568  45.689  1.00  0.00     0.021 C 
ATOM      4  C   UNL     1      20.688  49.857  46.522  1.00  0.00     0.009 C 
ATOM      5  C   UNL     1      19.630  50.751  45.830  1.00  0.00     0.035 C 
ATOM      6  C   UNL     1      19.053  50.018  44.585  1.00  0.00     0.066 C 
ATOM      7  O   UNL     1      20.107  49.781  43.651  1.00  0.00    -0.369 OA
ATOM      8  C   UNL     1      18.451  48.655  45.034  1.00  0.00     0.035 C 
ATOM      9  C   UNL     1      19.537  47.811  45.743  1.00  0.00     0.009 C 
ATOM     10  C   UNL     1      17.980  50.878  43.911  1.00  0.00     0.042 C 
ATOM     11  C   UNL     1      21.323  47.727  43.301  1.00  0.00     0.042 C 
ENDROOT
TORSDOF 0
ENDMDL
MODEL 5
REMARK VINA RESULT:    -4.491      1.427      3.001
REMARK INTER + INTRA:          -4.491
REMARK INTER:                  -4.491
REMARK INTRA:                   0.000
REMARK UNBOUND:                 0.000
REMARK SMILES CC1(C)O[C@]2(C)CC[C@H]1CC2
REMARK SMILES IDX 1 1 2 2 9 3 10 4 11 5 5 6 4 7 7 8 8 9 6 10 3 11
REMARK H PARENT
REMARK Flexibility Score: inf
ROOT
ATOM      1  C   UNL     1      18.219  48.806  43.620  1.00  0.00     0.042 C 
ATOM      2  C   UNL     1      19.098  49.530  44.662  1.00  0.00     0.066 C 
ATOM      3  C   UNL     1      19.415  48.579  45.881  1.00  0.00     0.021 C 
ATOM      4  C   UNL     1      20.238  47.376  45.363  1.00  0.00     0.009 C 
ATOM      5  C   UNL     1      21.447  47.900  44.551  1.00  0.00     0.035 C 
ATOM      6  C   UNL     1      21.485  49.455  44.604  1.00  0.00     0.066 C 
ATOM      7  O   UNL     1      20.296  49.972  44.006  1.00  0.00    -0.369 OA
ATOM      8  C   UNL     1      21.549  49.908  46.091  1.00  0.00     0.035 C 
ATOM      9  C   UNL     1      20.337  49.337  46.866  1.00  0.00     0.009 C 
ATOM     10  C   UNL     1      22.697  49.985  43.833  1.00  0.00     0.042 C 
ATOM     11  C   UNL     1      18.319  50.778  45.131  1.00  0.00     0.042 C 
ENDROOT
TORSDOF 0
ENDMDL
MODEL 6
REMARK VINA RESULT:    -4.458      1.406      2.576
REMARK INTER + INTRA:          -4.458
REMARK INTER:                  -4.458
REMARK INTRA:                   0.000
REMARK UNBOUND:                 0.000
REMARK SMILES CC1(C)O[C@]2(C)CC[C@H]1CC2
REMARK SMILES IDX 1 1 2 2 9 3 10 4 11 5 5 6 4 7 7 8 8 9 6 10 3 11
REMARK H PARENT
REMARK Flexibility Score: inf
ROOT
ATOM      1  C   UNL     1      18.624  49.483  43.326  1.00  0.00     0.042 C 
ATOM      2  C   UNL     1      19.119  48.056  43.648  1.00  0.00     0.066 C 
ATOM      3  C   UNL     1      20.669  47.931  43.386  1.00  0.00     0.021 C 
ATOM      4  C   UNL     1      21.408  48.888  44.352  1.00  0.00     0.009 C 
ATOM      5  C   UNL     1      20.919  48.626  45.798  1.00  0.00     0.035 C 
ATOM      6  C   UNL     1      19.921  47.433  45.809  1.00  0.00     0.066 C 
ATOM      7  O   UNL     1      18.784  47.765  45.013  1.00  0.00    -0.369 OA
ATOM      8  C   UNL     1      20.622  46.182  45.203  1.00  0.00     0.035 C 
ATOM      9  C   UNL     1      21.118  46.501  43.772  1.00  0.00     0.009 C 
ATOM     10  C   UNL     1      19.455  47.142  47.239  1.00  0.00     0.042 C 
ATOM     11  C   UNL     1      18.332  47.083  42.743  1.00  0.00     0.042 C 
ENDROOT
TORSDOF 0
ENDMDL
MODEL 7
REMARK VINA RESULT:    -4.418      1.650      3.387
REMARK INTER + INTRA:          -4.418
REMARK INTER:                  -4.418
REMARK INTRA:                   0.000
REMARK UNBOUND:                 0.000
REMARK SMILES CC1(C)O[C@]2(C)CC[C@H]1CC2
REMARK SMILES IDX 1 1 2 2 9 3 10 4 11 5 5 6 4 7 7 8 8 9 6 10 3 11
REMARK H PARENT
REMARK Flexibility Score: inf
ROOT
ATOM      1  C   UNL     1      19.853  48.281  46.638  1.00  0.00     0.042 C 
ATOM      2  C   UNL     1      19.333  47.372  45.503  1.00  0.00     0.066 C 
ATOM      3  C   UNL     1      19.170  48.189  44.164  1.00  0.00     0.021 C 
ATOM      4  C   UNL     1      20.565  48.695  43.725  1.00  0.00     0.009 C 
ATOM      5  C   UNL     1      21.553  47.503  43.702  1.00  0.00     0.035 C 
ATOM      6  C   UNL     1      20.797  46.185  44.036  1.00  0.00     0.066 C 
ATOM      7  O   UNL     1      20.250  46.279  45.352  1.00  0.00    -0.369 OA
ATOM      8  C   UNL     1      19.639  45.994  43.013  1.00  0.00     0.035 C 
ATOM      9  C   UNL     1      18.697  47.220  43.053  1.00  0.00     0.009 C 
ATOM     10  C   UNL     1      21.756  44.992  43.983  1.00  0.00     0.042 C 
ATOM     11  C   UNL     1      17.975  46.798  45.962  1.00  0.00     0.042 C 
ENDROOT
TORSDOF 0
ENDMDL
MODEL 8
REMARK VINA RESULT:    -4.341      1.667      3.459
REMARK INTER + INTRA:          -4.341
REMARK INTER:                  -4.341
REMARK INTRA:                   0.000
REMARK UNBOUND:                 0.000
REMARK SMILES CC1(C)O[C@]2(C)CC[C@H]1CC2
REMARK SMILES IDX 1 1 2 2 9 3 10 4 11 5 5 6 4 7 7 8 8 9 6 10 3 11
REMARK H PARENT
REMARK Flexibility Score: inf
ROOT
ATOM      1  C   UNL     1      17.526  48.860  45.054  1.00  0.00     0.042 C 
ATOM      2  C   UNL     1      18.821  48.898  44.214  1.00  0.00     0.066 C 
ATOM      3  C   UNL     1      20.091  48.953  45.149  1.00  0.00     0.021 C 
ATOM      4  C   UNL     1      20.140  47.652  45.986  1.00  0.00     0.009 C 
ATOM      5  C   UNL     1      20.022  46.434  45.038  1.00  0.00     0.035 C 
ATOM      6  C   UNL     1      19.985  46.918  43.559  1.00  0.00     0.066 C 
ATOM      7  O   UNL     1      18.836  47.742  43.364  1.00  0.00    -0.369 OA
ATOM      8  C   UNL     1      21.267  47.751  43.269  1.00  0.00     0.035 C 
ATOM      9  C   UNL     1      21.356  48.938  44.258  1.00  0.00     0.009 C 
ATOM     10  C   UNL     1      19.903  45.720  42.609  1.00  0.00     0.042 C 
ATOM     11  C   UNL     1      18.749  50.152  43.316  1.00  0.00     0.042 C 
ENDROOT
TORSDOF 0
ENDMDL
MODEL 9
REMARK VINA RESULT:    -4.289      1.420      2.259
REMARK INTER + INTRA:          -4.289
REMARK INTER:                  -4.289
REMARK INTRA:                   0.000
REMARK UNBOUND:                 0.000
REMARK SMILES CC1(C)O[C@]2(C)CC[C@H]1CC2
REMARK SMILES IDX 1 1 2 2 9 3 10 4 11 5 5 6 4 7 7 8 8 9 6 10 3 11
REMARK H PARENT
REMARK Flexibility Score: inf
ROOT
ATOM      1  C   UNL     1      18.200  49.189  46.629  1.00  0.00     0.042 C 
ATOM      2  C   UNL     1      19.306  48.165  46.293  1.00  0.00     0.066 C 
ATOM      3  C   UNL     1      18.963  47.390  44.962  1.00  0.00     0.021 C 
ATOM      4  C   UNL     1      18.928  48.408  43.797  1.00  0.00     0.009 C 
ATOM      5  C   UNL     1      20.237  49.235  43.807  1.00  0.00     0.035 C 
ATOM      6  C   UNL     1      21.185  48.709  44.923  1.00  0.00     0.066 C 
ATOM      7  O   UNL     1      20.551  48.871  46.192  1.00  0.00    -0.369 OA
ATOM      8  C   UNL     1      21.462  47.197  44.678  1.00  0.00     0.035 C 
ATOM      9  C   UNL     1      20.125  46.418  44.648  1.00  0.00     0.009 C 
ATOM     10  C   UNL     1      22.499  49.497  44.921  1.00  0.00     0.042 C 
ATOM     11  C   UNL     1      19.404  47.188  47.484  1.00  0.00     0.042 C 
ENDROOT
TORSDOF 0
ENDMDL
