MODEL 1
REMARK VINA RESULT:    -0.838      0.000      0.000
REMARK INTER + INTRA:          -5.975
REMARK INTER:                  -1.818
REMARK INTRA:                  -4.157
REMARK UNBOUND:                -4.157
REMARK SMILES CCCCCCCCCCCCCCCCCCCCCC(=O)[O-]
REMARK SMILES IDX 12 1 11 2 10 3 9 4 8 5 7 6 6 7 5 8 4 9 3 10 2 11 1 12 13 13
REMARK SMILES IDX 14 14 15 15 16 16 17 17 18 18 19 19 20 20 21 21 22 22 23 23
REMARK SMILES IDX 24 24
REMARK H PARENT
REMARK Flexibility Score: inf
ROOT
ATOM      1  C   UNL     1      37.400   3.994  38.295  1.00  0.00     0.000 C 
ENDROOT
BRANCH   1   2
ATOM      2  C   UNL     1      35.962   4.463  37.980  1.00  0.00     0.000 C 
BRANCH   2   3
ATOM      3  C   UNL     1      34.937   3.963  39.011  1.00  0.00     0.000 C 
BRANCH   3   4
ATOM      4  C   UNL     1      35.266   4.415  40.444  1.00  0.00    -0.000 C 
BRANCH   4   5
ATOM      5  C   UNL     1      34.766   3.440  41.534  1.00  0.00    -0.000 C 
BRANCH   5   6
ATOM      6  C   UNL     1      35.871   2.541  42.125  1.00  0.00    -0.000 C 
BRANCH   6   7
ATOM      7  C   UNL     1      36.149   1.251  41.328  1.00  0.00    -0.000 C 
BRANCH   7   8
ATOM      8  C   UNL     1      37.543   1.231  40.683  1.00  0.00    -0.000 C 
BRANCH   8   9
ATOM      9  C   UNL     1      38.645   1.218  41.755  1.00  0.00    -0.000 C 
BRANCH   9  10
ATOM     10  C   UNL     1      40.029   1.566  41.187  1.00  0.00    -0.000 C 
BRANCH  10  11
ATOM     11  C   UNL     1      40.003   1.799  39.668  1.00  0.00    -0.003 C 
ATOM     12  C   UNL     1      41.304   1.337  39.019  1.00  0.00     0.004 C 
ENDBRANCH  10  11
ENDBRANCH   9  10
ENDBRANCH   8   9
ENDBRANCH   7   8
ENDBRANCH   6   7
ENDBRANCH   5   6
ENDBRANCH   4   5
ENDBRANCH   3   4
ENDBRANCH   2   3
ENDBRANCH   1   2
BRANCH   1  13
ATOM     13  C   UNL     1      38.449   5.120  38.242  1.00  0.00     0.000 C 
BRANCH  13  14
ATOM     14  C   UNL     1      37.898   6.506  37.852  1.00  0.00     0.000 C 
BRANCH  14  15
ATOM     15  C   UNL     1      38.160   7.625  38.877  1.00  0.00     0.000 C 
BRANCH  15  16
ATOM     16  C   UNL     1      37.218   7.559  40.092  1.00  0.00     0.000 C 
BRANCH  16  17
ATOM     17  C   UNL     1      37.980   7.363  41.413  1.00  0.00     0.000 C 
BRANCH  17  18
ATOM     18  C   UNL     1      37.598   6.057  42.125  1.00  0.00     0.000 C 
BRANCH  18  19
ATOM     19  C   UNL     1      38.687   4.989  41.934  1.00  0.00     0.000 C 
BRANCH  19  20
ATOM     20  C   UNL     1      40.112   5.569  42.020  1.00  0.00     0.006 C 
BRANCH  20  21
ATOM     21  C   UNL     1      41.021   5.192  40.839  1.00  0.00     0.053 C 
BRANCH  21  22
ATOM     22  C   UNL     1      42.421   4.894  41.280  1.00  0.00     0.041 C 
ATOM     23  O   UNL     1      43.175   5.823  41.672  1.00  0.00    -0.550 OA
ATOM     24  O   UNL     1      42.885   3.585  41.278  1.00  0.00    -0.550 OA
ENDBRANCH  21  22
ENDBRANCH  20  21
ENDBRANCH  19  20
ENDBRANCH  18  19
ENDBRANCH  17  18
ENDBRANCH  16  17
ENDBRANCH  15  16
ENDBRANCH  14  15
ENDBRANCH  13  14
ENDBRANCH   1  13
TORSDOF 20
ENDMDL
MODEL 2
REMARK VINA RESULT:    -0.732      2.919      5.919
REMARK INTER + INTRA:          -5.744
REMARK INTER:                  -1.450
REMARK INTRA:                  -4.294
REMARK UNBOUND:                -4.157
REMARK SMILES CCCCCCCCCCCCCCCCCCCCCC(=O)[O-]
REMARK SMILES IDX 12 1 11 2 10 3 9 4 8 5 7 6 6 7 5 8 4 9 3 10 2 11 1 12 13 13
REMARK SMILES IDX 14 14 15 15 16 16 17 17 18 18 19 19 20 20 21 21 22 22 23 23
REMARK SMILES IDX 24 24
REMARK H PARENT
REMARK Flexibility Score: inf
ROOT
ATOM      1  C   UNL     1      38.332   4.170  37.822  1.00  0.00     0.000 C 
ENDROOT
BRANCH   1   2
ATOM      2  C   UNL     1      39.564   4.715  38.577  1.00  0.00     0.000 C 
BRANCH   2   3
ATOM      3  C   UNL     1      40.686   5.168  37.628  1.00  0.00     0.000 C 
BRANCH   3   4
ATOM      4  C   UNL     1      41.879   4.197  37.612  1.00  0.00    -0.000 C 
BRANCH   4   5
ATOM      5  C   UNL     1      41.885   3.200  38.794  1.00  0.00    -0.000 C 
BRANCH   5   6
ATOM      6  C   UNL     1      42.860   3.578  39.928  1.00  0.00    -0.000 C 
BRANCH   6   7
ATOM      7  C   UNL     1      42.186   3.946  41.264  1.00  0.00    -0.000 C 
BRANCH   7   8
ATOM      8  C   UNL     1      41.922   5.453  41.410  1.00  0.00    -0.000 C 
BRANCH   8   9
ATOM      9  C   UNL     1      43.088   6.273  40.832  1.00  0.00    -0.000 C 
BRANCH   9  10
ATOM     10  C   UNL     1      42.618   7.365  39.860  1.00  0.00    -0.000 C 
BRANCH  10  11
ATOM     11  C   UNL     1      43.495   7.453  38.601  1.00  0.00    -0.003 C 
ATOM     12  C   UNL     1      42.808   8.267  37.509  1.00  0.00     0.004 C 
ENDBRANCH  10  11
ENDBRANCH   9  10
ENDBRANCH   8   9
ENDBRANCH   7   8
ENDBRANCH   6   7
ENDBRANCH   5   6
ENDBRANCH   4   5
ENDBRANCH   3   4
ENDBRANCH   2   3
ENDBRANCH   1   2
BRANCH   1  13
ATOM     13  C   UNL     1      38.324   2.637  37.668  1.00  0.00     0.000 C 
BRANCH  13  14
ATOM     14  C   UNL     1      37.140   1.921  38.347  1.00  0.00     0.000 C 
BRANCH  14  15
ATOM     15  C   UNL     1      37.505   1.088  39.590  1.00  0.00     0.000 C 
BRANCH  15  16
ATOM     16  C   UNL     1      39.016   1.073  39.880  1.00  0.00     0.000 C 
BRANCH  16  17
ATOM     17  C   UNL     1      39.355   1.690  41.248  1.00  0.00     0.000 C 
BRANCH  17  18
ATOM     18  C   UNL     1      38.133   2.330  41.923  1.00  0.00     0.000 C 
BRANCH  18  19
ATOM     19  C   UNL     1      38.278   3.859  41.983  1.00  0.00     0.000 C 
BRANCH  19  20
ATOM     20  C   UNL     1      36.922   4.581  42.096  1.00  0.00     0.006 C 
BRANCH  20  21
ATOM     21  C   UNL     1      36.160   4.705  40.766  1.00  0.00     0.053 C 
BRANCH  21  22
ATOM     22  C   UNL     1      36.176   6.107  40.237  1.00  0.00     0.041 C 
ATOM     23  O   UNL     1      35.811   6.345  39.056  1.00  0.00    -0.550 OA
ATOM     24  O   UNL     1      36.575   7.153  41.059  1.00  0.00    -0.550 OA
ENDBRANCH  21  22
ENDBRANCH  20  21
ENDBRANCH  19  20
ENDBRANCH  18  19
ENDBRANCH  17  18
ENDBRANCH  16  17
ENDBRANCH  15  16
ENDBRANCH  14  15
ENDBRANCH  13  14
ENDBRANCH   1  13
TORSDOF 20
ENDMDL
MODEL 3
REMARK VINA RESULT:    -0.727      2.447      3.750
REMARK INTER + INTRA:          -5.733
REMARK INTER:                  -1.173
REMARK INTRA:                  -4.559
REMARK UNBOUND:                -4.157
REMARK SMILES CCCCCCCCCCCCCCCCCCCCCC(=O)[O-]
REMARK SMILES IDX 12 1 11 2 10 3 9 4 8 5 7 6 6 7 5 8 4 9 3 10 2 11 1 12 13 13
REMARK SMILES IDX 14 14 15 15 16 16 17 17 18 18 19 19 20 20 21 21 22 22 23 23
REMARK SMILES IDX 24 24
REMARK H PARENT
REMARK Flexibility Score: inf
ROOT
ATOM      1  C   UNL     1      40.151   5.717  37.337  1.00  0.00     0.000 C 
ENDROOT
BRANCH   1   2
ATOM      2  C   UNL     1      38.660   5.756  37.738  1.00  0.00     0.000 C 
BRANCH   2   3
ATOM      3  C   UNL     1      38.366   4.937  39.004  1.00  0.00     0.000 C 
BRANCH   3   4
ATOM      4  C   UNL     1      37.012   5.293  39.641  1.00  0.00    -0.000 C 
BRANCH   4   5
ATOM      5  C   UNL     1      36.474   4.211  40.605  1.00  0.00    -0.000 C 
BRANCH   5   6
ATOM      6  C   UNL     1      37.434   3.871  41.764  1.00  0.00    -0.000 C 
BRANCH   6   7
ATOM      7  C   UNL     1      37.750   2.372  41.924  1.00  0.00    -0.000 C 
BRANCH   7   8
ATOM      8  C   UNL     1      39.149   1.995  41.412  1.00  0.00    -0.000 C 
BRANCH   8   9
ATOM      9  C   UNL     1      39.083   1.468  39.969  1.00  0.00    -0.000 C 
BRANCH   9  10
ATOM     10  C   UNL     1      40.417   1.617  39.222  1.00  0.00    -0.000 C 
BRANCH  10  11
ATOM     11  C   UNL     1      41.630   1.582  40.165  1.00  0.00    -0.003 C 
ATOM     12  C   UNL     1      42.896   2.041  39.449  1.00  0.00     0.004 C 
ENDBRANCH  10  11
ENDBRANCH   9  10
ENDBRANCH   8   9
ENDBRANCH   7   8
ENDBRANCH   6   7
ENDBRANCH   5   6
ENDBRANCH   4   5
ENDBRANCH   3   4
ENDBRANCH   2   3
ENDBRANCH   1   2
BRANCH   1  13
ATOM     13  C   UNL     1      41.067   5.091  38.405  1.00  0.00     0.000 C 
BRANCH  13  14
ATOM     14  C   UNL     1      42.155   6.030  38.962  1.00  0.00     0.000 C 
BRANCH  14  15
ATOM     15  C   UNL     1      42.307   6.017  40.495  1.00  0.00     0.000 C 
BRANCH  15  16
ATOM     16  C   UNL     1      41.314   5.069  41.189  1.00  0.00     0.000 C 
BRANCH  16  17
ATOM     17  C   UNL     1      40.338   5.819  42.112  1.00  0.00     0.000 C 
BRANCH  17  18
ATOM     18  C   UNL     1      40.397   7.341  41.918  1.00  0.00     0.000 C 
BRANCH  18  19
ATOM     19  C   UNL     1      39.023   7.896  41.509  1.00  0.00     0.000 C 
BRANCH  19  20
ATOM     20  C   UNL     1      39.011   8.458  40.075  1.00  0.00     0.006 C 
BRANCH  20  21
ATOM     21  C   UNL     1      40.324   9.138  39.651  1.00  0.00     0.053 C 
BRANCH  21  22
ATOM     22  C   UNL     1      40.316   9.522  38.203  1.00  0.00     0.041 C 
ATOM     23  O   UNL     1      41.200   9.078  37.423  1.00  0.00    -0.550 OA
ATOM     24  O   UNL     1      39.319  10.354  37.712  1.00  0.00    -0.550 OA
ENDBRANCH  21  22
ENDBRANCH  20  21
ENDBRANCH  19  20
ENDBRANCH  18  19
ENDBRANCH  17  18
ENDBRANCH  16  17
ENDBRANCH  15  16
ENDBRANCH  14  15
ENDBRANCH  13  14
ENDBRANCH   1  13
TORSDOF 20
ENDMDL
MODEL 4
REMARK VINA RESULT:    -0.711      2.352      5.572
REMARK INTER + INTRA:          -5.698
REMARK INTER:                  -1.707
REMARK INTRA:                  -3.991
REMARK UNBOUND:                -4.157
REMARK SMILES CCCCCCCCCCCCCCCCCCCCCC(=O)[O-]
REMARK SMILES IDX 12 1 11 2 10 3 9 4 8 5 7 6 6 7 5 8 4 9 3 10 2 11 1 12 13 13
REMARK SMILES IDX 14 14 15 15 16 16 17 17 18 18 19 19 20 20 21 21 22 22 23 23
REMARK SMILES IDX 24 24
REMARK H PARENT
REMARK Flexibility Score: inf
ROOT
ATOM      1  C   UNL     1      37.365   4.387  38.131  1.00  0.00     0.000 C 
ENDROOT
BRANCH   1   2
ATOM      2  C   UNL     1      38.176   5.334  39.043  1.00  0.00     0.000 C 
BRANCH   2   3
ATOM      3  C   UNL     1      37.364   6.559  39.494  1.00  0.00     0.000 C 
BRANCH   3   4
ATOM      4  C   UNL     1      37.641   6.950  40.956  1.00  0.00    -0.000 C 
BRANCH   4   5
ATOM      5  C   UNL     1      36.440   6.715  41.900  1.00  0.00    -0.000 C 
BRANCH   5   6
ATOM      6  C   UNL     1      35.136   6.333  41.172  1.00  0.00    -0.000 C 
BRANCH   6   7
ATOM      7  C   UNL     1      33.967   5.944  42.099  1.00  0.00    -0.000 C 
BRANCH   7   8
ATOM      8  C   UNL     1      32.615   6.501  41.628  1.00  0.00    -0.000 C 
BRANCH   8   9
ATOM      9  C   UNL     1      32.814   7.655  40.631  1.00  0.00    -0.000 C 
BRANCH   9  10
ATOM     10  C   UNL     1      32.210   7.354  39.250  1.00  0.00    -0.000 C 
BRANCH  10  11
ATOM     11  C   UNL     1      32.786   8.253  38.145  1.00  0.00    -0.003 C 
ATOM     12  C   UNL     1      34.305   8.130  38.073  1.00  0.00     0.004 C 
ENDBRANCH  10  11
ENDBRANCH   9  10
ENDBRANCH   8   9
ENDBRANCH   7   8
ENDBRANCH   6   7
ENDBRANCH   5   6
ENDBRANCH   4   5
ENDBRANCH   3   4
ENDBRANCH   2   3
ENDBRANCH   1   2
BRANCH   1  13
ATOM     13  C   UNL     1      35.892   4.801  37.954  1.00  0.00     0.000 C 
BRANCH  13  14
ATOM     14  C   UNL     1      34.860   3.748  38.405  1.00  0.00     0.000 C 
BRANCH  14  15
ATOM     15  C   UNL     1      35.419   2.325  38.594  1.00  0.00     0.000 C 
BRANCH  15  16
ATOM     16  C   UNL     1      34.834   1.609  39.824  1.00  0.00     0.000 C 
BRANCH  16  17
ATOM     17  C   UNL     1      34.642   2.560  41.018  1.00  0.00     0.000 C 
BRANCH  17  18
ATOM     18  C   UNL     1      35.683   2.332  42.124  1.00  0.00     0.000 C 
BRANCH  18  19
ATOM     19  C   UNL     1      36.947   3.169  41.868  1.00  0.00     0.000 C 
BRANCH  19  20
ATOM     20  C   UNL     1      38.232   2.320  41.867  1.00  0.00     0.006 C 
BRANCH  20  21
ATOM     21  C   UNL     1      38.650   1.808  40.478  1.00  0.00     0.053 C 
BRANCH  21  22
ATOM     22  C   UNL     1      40.095   2.079  40.190  1.00  0.00     0.041 C 
ATOM     23  O   UNL     1      40.439   2.591  39.092  1.00  0.00    -0.550 OA
ATOM     24  O   UNL     1      41.059   1.786  41.145  1.00  0.00    -0.550 OA
ENDBRANCH  21  22
ENDBRANCH  20  21
ENDBRANCH  19  20
ENDBRANCH  18  19
ENDBRANCH  17  18
ENDBRANCH  16  17
ENDBRANCH  15  16
ENDBRANCH  14  15
ENDBRANCH  13  14
ENDBRANCH   1  13
TORSDOF 20
ENDMDL
MODEL 5
REMARK VINA RESULT:    -0.701      2.161      3.475
REMARK INTER + INTRA:          -5.677
REMARK INTER:                  -1.678
REMARK INTRA:                  -4.000
REMARK UNBOUND:                -4.157
REMARK SMILES CCCCCCCCCCCCCCCCCCCCCC(=O)[O-]
REMARK SMILES IDX 12 1 11 2 10 3 9 4 8 5 7 6 6 7 5 8 4 9 3 10 2 11 1 12 13 13
REMARK SMILES IDX 14 14 15 15 16 16 17 17 18 18 19 19 20 20 21 21 22 22 23 23
REMARK SMILES IDX 24 24
REMARK H PARENT
REMARK Flexibility Score: inf
ROOT
ATOM      1  C   UNL     1      36.769   3.392  37.896  1.00  0.00     0.000 C 
ENDROOT
BRANCH   1   2
ATOM      2  C   UNL     1      36.611   1.881  38.180  1.00  0.00     0.000 C 
BRANCH   2   3
ATOM      3  C   UNL     1      35.538   1.588  39.241  1.00  0.00     0.000 C 
BRANCH   3   4
ATOM      4  C   UNL     1      34.829   2.861  39.736  1.00  0.00    -0.000 C 
BRANCH   4   5
ATOM      5  C   UNL     1      34.592   2.887  41.263  1.00  0.00    -0.000 C 
BRANCH   5   6
ATOM      6  C   UNL     1      35.869   2.665  42.098  1.00  0.00    -0.000 C 
BRANCH   6   7
ATOM      7  C   UNL     1      36.935   3.769  41.957  1.00  0.00    -0.000 C 
BRANCH   7   8
ATOM      8  C   UNL     1      38.338   3.217  41.661  1.00  0.00    -0.000 C 
BRANCH   8   9
ATOM      9  C   UNL     1      38.401   1.705  41.929  1.00  0.00    -0.000 C 
BRANCH   9  10
ATOM     10  C   UNL     1      38.918   0.910  40.721  1.00  0.00    -0.000 C 
BRANCH  10  11
ATOM     11  C   UNL     1      40.201   1.509  40.125  1.00  0.00    -0.003 C 
ATOM     12  C   UNL     1      41.393   1.287  41.051  1.00  0.00     0.004 C 
ENDBRANCH  10  11
ENDBRANCH   9  10
ENDBRANCH   8   9
ENDBRANCH   7   8
ENDBRANCH   6   7
ENDBRANCH   5   6
ENDBRANCH   4   5
ENDBRANCH   3   4
ENDBRANCH   2   3
ENDBRANCH   1   2
BRANCH   1  13
ATOM     13  C   UNL     1      38.208   3.911  38.071  1.00  0.00     0.000 C 
BRANCH  13  14
ATOM     14  C   UNL     1      39.211   3.422  37.008  1.00  0.00     0.000 C 
BRANCH  14  15
ATOM     15  C   UNL     1      39.971   4.536  36.264  1.00  0.00     0.000 C 
BRANCH  15  16
ATOM     16  C   UNL     1      41.495   4.462  36.466  1.00  0.00     0.000 C 
BRANCH  16  17
ATOM     17  C   UNL     1      41.878   3.684  37.736  1.00  0.00     0.000 C 
BRANCH  17  18
ATOM     18  C   UNL     1      42.980   4.384  38.545  1.00  0.00     0.000 C 
BRANCH  18  19
ATOM     19  C   UNL     1      42.505   4.681  39.976  1.00  0.00     0.000 C 
BRANCH  19  20
ATOM     20  C   UNL     1      41.076   5.253  40.023  1.00  0.00     0.006 C 
BRANCH  20  21
ATOM     21  C   UNL     1      40.724   5.968  41.338  1.00  0.00     0.053 C 
BRANCH  21  22
ATOM     22  C   UNL     1      39.486   6.802  41.211  1.00  0.00     0.041 C 
ATOM     23  O   UNL     1      38.659   6.575  40.289  1.00  0.00    -0.550 OA
ATOM     24  O   UNL     1      39.237   7.818  42.125  1.00  0.00    -0.550 OA
ENDBRANCH  21  22
ENDBRANCH  20  21
ENDBRANCH  19  20
ENDBRANCH  18  19
ENDBRANCH  17  18
ENDBRANCH  16  17
ENDBRANCH  15  16
ENDBRANCH  14  15
ENDBRANCH  13  14
ENDBRANCH   1  13
TORSDOF 20
ENDMDL
MODEL 6
REMARK VINA RESULT:    -0.692      2.806      5.030
REMARK INTER + INTRA:          -5.657
REMARK INTER:                  -1.254
REMARK INTRA:                  -4.403
REMARK UNBOUND:                -4.157
REMARK SMILES CCCCCCCCCCCCCCCCCCCCCC(=O)[O-]
REMARK SMILES IDX 12 1 11 2 10 3 9 4 8 5 7 6 6 7 5 8 4 9 3 10 2 11 1 12 13 13
REMARK SMILES IDX 14 14 15 15 16 16 17 17 18 18 19 19 20 20 21 21 22 22 23 23
REMARK SMILES IDX 24 24
REMARK H PARENT
REMARK Flexibility Score: inf
ROOT
ATOM      1  C   UNL     1      37.190   1.980  39.995  1.00  0.00     0.000 C 
ENDROOT
BRANCH   1   2
ATOM      2  C   UNL     1      36.954   1.811  41.512  1.00  0.00     0.000 C 
BRANCH   2   3
ATOM      3  C   UNL     1      36.178   2.988  42.125  1.00  0.00     0.000 C 
BRANCH   3   4
ATOM      4  C   UNL     1      36.987   4.297  42.125  1.00  0.00    -0.000 C 
BRANCH   4   5
ATOM      5  C   UNL     1      36.132   5.557  41.861  1.00  0.00    -0.000 C 
BRANCH   5   6
ATOM      6  C   UNL     1      35.104   5.389  40.724  1.00  0.00    -0.000 C 
BRANCH   6   7
ATOM      7  C   UNL     1      35.709   5.349  39.307  1.00  0.00    -0.000 C 
BRANCH   7   8
ATOM      8  C   UNL     1      34.982   4.373  38.370  1.00  0.00    -0.000 C 
BRANCH   8   9
ATOM      9  C   UNL     1      35.775   4.165  37.069  1.00  0.00    -0.000 C 
BRANCH   9  10
ATOM     10  C   UNL     1      37.283   4.396  37.252  1.00  0.00    -0.000 C 
BRANCH  10  11
ATOM     11  C   UNL     1      38.028   4.521  35.914  1.00  0.00    -0.003 C 
ATOM     12  C   UNL     1      39.538   4.583  36.130  1.00  0.00     0.004 C 
ENDBRANCH  10  11
ENDBRANCH   9  10
ENDBRANCH   8   9
ENDBRANCH   7   8
ENDBRANCH   6   7
ENDBRANCH   5   6
ENDBRANCH   4   5
ENDBRANCH   3   4
ENDBRANCH   2   3
ENDBRANCH   1   2
BRANCH   1  13
ATOM     13  C   UNL     1      38.508   1.359  39.496  1.00  0.00     0.000 C 
BRANCH  13  14
ATOM     14  C   UNL     1      39.663   2.358  39.291  1.00  0.00     0.000 C 
BRANCH  14  15
ATOM     15  C   UNL     1      40.416   2.758  40.574  1.00  0.00     0.000 C 
BRANCH  15  16
ATOM     16  C   UNL     1      40.279   4.254  40.909  1.00  0.00     0.000 C 
BRANCH  16  17
ATOM     17  C   UNL     1      40.050   5.115  39.656  1.00  0.00     0.000 C 
BRANCH  17  18
ATOM     18  C   UNL     1      39.246   6.389  39.956  1.00  0.00     0.000 C 
BRANCH  18  19
ATOM     19  C   UNL     1      39.222   7.324  38.737  1.00  0.00     0.000 C 
BRANCH  19  20
ATOM     20  C   UNL     1      37.891   8.086  38.596  1.00  0.00     0.006 C 
BRANCH  20  21
ATOM     21  C   UNL     1      37.290   8.053  37.181  1.00  0.00     0.053 C 
BRANCH  21  22
ATOM     22  C   UNL     1      38.206   8.668  36.167  1.00  0.00     0.041 C 
ATOM     23  O   UNL     1      38.585   9.862  36.295  1.00  0.00    -0.550 OA
ATOM     24  O   UNL     1      38.656   7.914  35.091  1.00  0.00    -0.550 OA
ENDBRANCH  21  22
ENDBRANCH  20  21
ENDBRANCH  19  20
ENDBRANCH  18  19
ENDBRANCH  17  18
ENDBRANCH  16  17
ENDBRANCH  15  16
ENDBRANCH  14  15
ENDBRANCH  13  14
ENDBRANCH   1  13
TORSDOF 20
ENDMDL
MODEL 7
REMARK VINA RESULT:    -0.670      1.487      2.863
REMARK INTER + INTRA:          -5.610
REMARK INTER:                  -1.703
REMARK INTRA:                  -3.906
REMARK UNBOUND:                -4.157
REMARK SMILES CCCCCCCCCCCCCCCCCCCCCC(=O)[O-]
REMARK SMILES IDX 12 1 11 2 10 3 9 4 8 5 7 6 6 7 5 8 4 9 3 10 2 11 1 12 13 13
REMARK SMILES IDX 14 14 15 15 16 16 17 17 18 18 19 19 20 20 21 21 22 22 23 23
REMARK SMILES IDX 24 24
REMARK H PARENT
REMARK Flexibility Score: inf
ROOT
ATOM      1  C   UNL     1      35.474   5.978  39.648  1.00  0.00     0.000 C 
ENDROOT
BRANCH   1   2
ATOM      2  C   UNL     1      34.852   6.158  41.051  1.00  0.00     0.000 C 
BRANCH   2   3
ATOM      3  C   UNL     1      35.530   5.279  42.115  1.00  0.00     0.000 C 
BRANCH   3   4
ATOM      4  C   UNL     1      37.065   5.318  42.027  1.00  0.00    -0.000 C 
BRANCH   4   5
ATOM      5  C   UNL     1      37.729   3.925  42.125  1.00  0.00    -0.000 C 
BRANCH   5   6
ATOM      6  C   UNL     1      36.774   2.753  41.820  1.00  0.00    -0.000 C 
BRANCH   6   7
ATOM      7  C   UNL     1      37.418   1.573  41.067  1.00  0.00    -0.000 C 
BRANCH   7   8
ATOM      8  C   UNL     1      38.909   1.394  41.393  1.00  0.00    -0.000 C 
BRANCH   8   9
ATOM      9  C   UNL     1      39.756   1.404  40.110  1.00  0.00    -0.000 C 
BRANCH   9  10
ATOM     10  C   UNL     1      41.202   0.943  40.352  1.00  0.00    -0.000 C 
BRANCH  10  11
ATOM     11  C   UNL     1      42.151   1.356  39.216  1.00  0.00    -0.003 C 
ATOM     12  C   UNL     1      41.384   1.603  37.921  1.00  0.00     0.004 C 
ENDBRANCH  10  11
ENDBRANCH   9  10
ENDBRANCH   8   9
ENDBRANCH   7   8
ENDBRANCH   6   7
ENDBRANCH   5   6
ENDBRANCH   4   5
ENDBRANCH   3   4
ENDBRANCH   2   3
ENDBRANCH   1   2
BRANCH   1  13
ATOM     13  C   UNL     1      35.215   4.594  39.024  1.00  0.00     0.000 C 
BRANCH  13  14
ATOM     14  C   UNL     1      35.898   4.354  37.663  1.00  0.00     0.000 C 
BRANCH  14  15
ATOM     15  C   UNL     1      37.164   3.478  37.712  1.00  0.00     0.000 C 
BRANCH  15  16
ATOM     16  C   UNL     1      38.302   4.112  38.530  1.00  0.00     0.000 C 
BRANCH  16  17
ATOM     17  C   UNL     1      39.408   4.698  37.637  1.00  0.00     0.000 C 
BRANCH  17  18
ATOM     18  C   UNL     1      40.569   5.290  38.450  1.00  0.00     0.000 C 
BRANCH  18  19
ATOM     19  C   UNL     1      40.186   5.429  39.932  1.00  0.00     0.000 C 
BRANCH  19  20
ATOM     20  C   UNL     1      41.185   4.730  40.873  1.00  0.00     0.006 C 
BRANCH  20  21
ATOM     21  C   UNL     1      42.656   4.858  40.443  1.00  0.00     0.053 C 
BRANCH  21  22
ATOM     22  C   UNL     1      43.588   4.226  41.431  1.00  0.00     0.041 C 
ATOM     23  O   UNL     1      43.240   3.194  42.063  1.00  0.00    -0.550 OA
ATOM     24  O   UNL     1      44.850   4.768  41.638  1.00  0.00    -0.550 OA
ENDBRANCH  21  22
ENDBRANCH  20  21
ENDBRANCH  19  20
ENDBRANCH  18  19
ENDBRANCH  17  18
ENDBRANCH  16  17
ENDBRANCH  15  16
ENDBRANCH  14  15
ENDBRANCH  13  14
ENDBRANCH   1  13
TORSDOF 20
ENDMDL
MODEL 8
REMARK VINA RESULT:    -0.664      3.731      6.445
REMARK INTER + INTRA:          -5.596
REMARK INTER:                  -1.023
REMARK INTRA:                  -4.573
REMARK UNBOUND:                -4.157
REMARK SMILES CCCCCCCCCCCCCCCCCCCCCC(=O)[O-]
REMARK SMILES IDX 12 1 11 2 10 3 9 4 8 5 7 6 6 7 5 8 4 9 3 10 2 11 1 12 13 13
REMARK SMILES IDX 14 14 15 15 16 16 17 17 18 18 19 19 20 20 21 21 22 22 23 23
REMARK SMILES IDX 24 24
REMARK H PARENT
REMARK Flexibility Score: inf
ROOT
ATOM      1  C   UNL     1      35.977   5.327  37.681  1.00  0.00     0.000 C 
ENDROOT
BRANCH   1   2
ATOM      2  C   UNL     1      36.415   3.849  37.592  1.00  0.00     0.000 C 
BRANCH   2   3
ATOM      3  C   UNL     1      37.606   3.529  38.510  1.00  0.00     0.000 C 
BRANCH   3   4
ATOM      4  C   UNL     1      37.603   2.070  39.000  1.00  0.00    -0.000 C 
BRANCH   4   5
ATOM      5  C   UNL     1      36.188   1.504  39.259  1.00  0.00    -0.000 C 
BRANCH   5   6
ATOM      6  C   UNL     1      35.571   1.948  40.600  1.00  0.00    -0.000 C 
BRANCH   6   7
ATOM      7  C   UNL     1      34.168   2.576  40.490  1.00  0.00    -0.000 C 
BRANCH   7   8
ATOM      8  C   UNL     1      33.950   3.738  41.471  1.00  0.00    -0.000 C 
BRANCH   8   9
ATOM      9  C   UNL     1      34.758   4.975  41.046  1.00  0.00    -0.000 C 
BRANCH   9  10
ATOM     10  C   UNL     1      35.750   5.435  42.125  1.00  0.00    -0.000 C 
BRANCH  10  11
ATOM     11  C   UNL     1      37.196   5.499  41.610  1.00  0.00    -0.003 C 
ATOM     12  C   UNL     1      38.012   4.314  42.116  1.00  0.00     0.004 C 
ENDBRANCH  10  11
ENDBRANCH   9  10
ENDBRANCH   8   9
ENDBRANCH   7   8
ENDBRANCH   6   7
ENDBRANCH   5   6
ENDBRANCH   4   5
ENDBRANCH   3   4
ENDBRANCH   2   3
ENDBRANCH   1   2
BRANCH   1  13
ATOM     13  C   UNL     1      34.565   5.594  37.126  1.00  0.00     0.000 C 
BRANCH  13  14
ATOM     14  C   UNL     1      33.496   4.565  37.544  1.00  0.00     0.000 C 
BRANCH  14  15
ATOM     15  C   UNL     1      32.437   4.250  36.472  1.00  0.00     0.000 C 
BRANCH  15  16
ATOM     16  C   UNL     1      32.383   2.758  36.100  1.00  0.00     0.000 C 
BRANCH  16  17
ATOM     17  C   UNL     1      33.383   1.917  36.912  1.00  0.00     0.000 C 
BRANCH  17  18
ATOM     18  C   UNL     1      34.352   1.130  36.017  1.00  0.00     0.000 C 
BRANCH  18  19
ATOM     19  C   UNL     1      34.398   1.726  34.601  1.00  0.00     0.000 C 
BRANCH  19  20
ATOM     20  C   UNL     1      35.675   2.547  34.341  1.00  0.00     0.006 C 
BRANCH  20  21
ATOM     21  C   UNL     1      35.417   3.980  33.849  1.00  0.00     0.053 C 
BRANCH  21  22
ATOM     22  C   UNL     1      36.618   4.859  34.020  1.00  0.00     0.041 C 
ATOM     23  O   UNL     1      36.498   6.112  33.987  1.00  0.00    -0.550 OA
ATOM     24  O   UNL     1      37.866   4.292  34.238  1.00  0.00    -0.550 OA
ENDBRANCH  21  22
ENDBRANCH  20  21
ENDBRANCH  19  20
ENDBRANCH  18  19
ENDBRANCH  17  18
ENDBRANCH  16  17
ENDBRANCH  15  16
ENDBRANCH  14  15
ENDBRANCH  13  14
ENDBRANCH   1  13
TORSDOF 20
ENDMDL
MODEL 9
REMARK VINA RESULT:    -0.656      3.267      5.744
REMARK INTER + INTRA:          -5.579
REMARK INTER:                  -1.300
REMARK INTRA:                  -4.279
REMARK UNBOUND:                -4.157
REMARK SMILES CCCCCCCCCCCCCCCCCCCCCC(=O)[O-]
REMARK SMILES IDX 12 1 11 2 10 3 9 4 8 5 7 6 6 7 5 8 4 9 3 10 2 11 1 12 13 13
REMARK SMILES IDX 14 14 15 15 16 16 17 17 18 18 19 19 20 20 21 21 22 22 23 23
REMARK SMILES IDX 24 24
REMARK H PARENT
REMARK Flexibility Score: inf
ROOT
ATOM      1  C   UNL     1      38.587   4.554  35.885  1.00  0.00     0.000 C 
ENDROOT
BRANCH   1   2
ATOM      2  C   UNL     1      38.873   6.049  35.623  1.00  0.00     0.000 C 
BRANCH   2   3
ATOM      3  C   UNL     1      38.028   6.977  36.510  1.00  0.00     0.000 C 
BRANCH   3   4
ATOM      4  C   UNL     1      36.959   6.218  37.316  1.00  0.00    -0.000 C 
BRANCH   4   5
ATOM      5  C   UNL     1      37.122   6.353  38.847  1.00  0.00    -0.000 C 
BRANCH   5   6
ATOM      6  C   UNL     1      37.895   5.188  39.499  1.00  0.00    -0.000 C 
BRANCH   6   7
ATOM      7  C   UNL     1      39.318   5.542  39.972  1.00  0.00    -0.000 C 
BRANCH   7   8
ATOM      8  C   UNL     1      40.399   4.642  39.352  1.00  0.00    -0.000 C 
BRANCH   8   9
ATOM      9  C   UNL     1      41.337   5.457  38.446  1.00  0.00    -0.000 C 
BRANCH   9  10
ATOM     10  C   UNL     1      41.107   6.971  38.563  1.00  0.00    -0.000 C 
BRANCH  10  11
ATOM     11  C   UNL     1      41.988   7.780  37.598  1.00  0.00    -0.003 C 
ATOM     12  C   UNL     1      41.169   8.834  36.860  1.00  0.00     0.004 C 
ENDBRANCH  10  11
ENDBRANCH   9  10
ENDBRANCH   8   9
ENDBRANCH   7   8
ENDBRANCH   6   7
ENDBRANCH   5   6
ENDBRANCH   4   5
ENDBRANCH   3   4
ENDBRANCH   2   3
ENDBRANCH   1   2
BRANCH   1  13
ATOM     13  C   UNL     1      39.798   3.635  35.637  1.00  0.00     0.000 C 
BRANCH  13  14
ATOM     14  C   UNL     1      39.817   2.342  36.474  1.00  0.00     0.000 C 
BRANCH  14  15
ATOM     15  C   UNL     1      38.600   2.142  37.397  1.00  0.00     0.000 C 
BRANCH  15  16
ATOM     16  C   UNL     1      38.900   1.227  38.597  1.00  0.00     0.000 C 
BRANCH  16  17
ATOM     17  C   UNL     1      38.013   1.547  39.812  1.00  0.00     0.000 C 
BRANCH  17  18
ATOM     18  C   UNL     1      38.832   1.800  41.087  1.00  0.00     0.000 C 
BRANCH  18  19
ATOM     19  C   UNL     1      38.006   2.576  42.125  1.00  0.00     0.000 C 
BRANCH  19  20
ATOM     20  C   UNL     1      36.494   2.306  42.007  1.00  0.00     0.006 C 
BRANCH  20  21
ATOM     21  C   UNL     1      35.616   3.562  42.125  1.00  0.00     0.053 C 
BRANCH  21  22
ATOM     22  C   UNL     1      34.738   3.749  40.926  1.00  0.00     0.041 C 
ATOM     23  O   UNL     1      34.368   2.755  40.248  1.00  0.00    -0.550 OA
ATOM     24  O   UNL     1      34.312   5.022  40.570  1.00  0.00    -0.550 OA
ENDBRANCH  21  22
ENDBRANCH  20  21
ENDBRANCH  19  20
ENDBRANCH  18  19
ENDBRANCH  17  18
ENDBRANCH  16  17
ENDBRANCH  15  16
ENDBRANCH  14  15
ENDBRANCH  13  14
ENDBRANCH   1  13
TORSDOF 20
ENDMDL
