MODEL 1
REMARK VINA RESULT:    -6.540      0.000      0.000
REMARK INTER + INTRA:          -8.102
REMARK INTER:                  -7.878
REMARK INTRA:                  -0.224
REMARK UNBOUND:                -0.224
REMARK SMILES O=c1c(O)c(-c2ccc(O)c(O)c2)oc2cc(O)cc(O)c12
REMARK SMILES IDX 5 1 3 2 2 3 1 4 22 5 20 6 19 7 17 8 16 9 15 10 14 11 6 12
REMARK SMILES IDX 7 13 8 14 9 15 13 16 11 17 10 18 12 20 4 22 21 24 18 26
REMARK H PARENT 10 19 12 21 4 23 21 25 18 27
REMARK Flexibility Score: inf
ROOT
ATOM      1  C   UNL     1     -21.059 -11.744  14.273  1.00  0.00     0.180 A 
ATOM      2  C   UNL     1     -19.924 -11.016  13.875  1.00  0.00     0.208 A 
ATOM      3  C   UNL     1     -19.518 -11.065  12.532  1.00  0.00     0.238 A 
ATOM      4  O   UNL     1     -18.534 -10.368  12.172  1.00  0.00    -0.285 OA
ATOM      5  C   UNL     1     -20.243 -11.854  11.607  1.00  0.00     0.111 A 
ATOM      6  C   UNL     1     -19.898 -12.009  10.230  1.00  0.00     0.134 A 
ATOM      7  C   UNL     1     -20.760 -12.709   9.376  1.00  0.00     0.093 A 
ATOM      8  C   UNL     1     -21.921 -13.315   9.865  1.00  0.00     0.123 A 
ATOM      9  C   UNL     1     -22.235 -13.219  11.218  1.00  0.00     0.094 A 
ATOM     10  C   UNL     1     -21.413 -12.497  12.086  1.00  0.00     0.146 A 
ATOM     11  O   UNL     1     -21.754 -12.422  13.367  1.00  0.00    -0.452 OA
ENDROOT
BRANCH   1  12
ATOM     12  C   UNL     1     -21.533 -11.762  15.675  1.00  0.00     0.025 A 
ATOM     13  C   UNL     1     -22.699 -11.077  16.062  1.00  0.00     0.016 A 
ATOM     14  C   UNL     1     -23.114 -11.088  17.396  1.00  0.00     0.051 A 
ATOM     15  C   UNL     1     -22.366 -11.771  18.365  1.00  0.00     0.157 A 
ATOM     16  C   UNL     1     -20.776 -12.427  16.653  1.00  0.00     0.062 A 
ATOM     17  C   UNL     1     -21.190 -12.441  17.990  1.00  0.00     0.158 A 
BRANCH  15  18
ATOM     18  O   UNL     1     -22.785 -11.782  19.694  1.00  0.00    -0.504 OA
ATOM     19  H   UNL     1     -23.440 -12.473  20.038  1.00  0.00     0.293 HD
ENDBRANCH  15  18
BRANCH  17  20
ATOM     20  O   UNL     1     -20.418 -13.123  18.930  1.00  0.00    -0.504 OA
ATOM     21  H   UNL     1     -20.777 -13.363  19.848  1.00  0.00     0.293 HD
ENDBRANCH  17  20
ENDBRANCH   1  12
BRANCH   2  22
ATOM     22  O   UNL     1     -19.236 -10.227  14.802  1.00  0.00    -0.502 OA
ATOM     23  H   UNL     1     -18.419  -9.682  14.552  1.00  0.00     0.293 HD
ENDBRANCH   2  22
BRANCH   6  24
ATOM     24  O   UNL     1     -18.717 -11.523   9.661  1.00  0.00    -0.507 OA
ATOM     25  H   UNL     1     -18.523 -11.500   8.672  1.00  0.00     0.293 HD
ENDBRANCH   6  24
BRANCH   8  26
ATOM     26  O   UNL     1     -22.765 -14.022   9.012  1.00  0.00    -0.508 OA
ATOM     27  H   UNL     1     -23.286 -13.558   8.276  1.00  0.00     0.293 HD
ENDBRANCH   8  26
TORSDOF 6
ENDMDL
MODEL 2
REMARK VINA RESULT:    -6.442      1.528      2.924
REMARK INTER + INTRA:          -7.984
REMARK INTER:                  -7.672
REMARK INTRA:                  -0.312
REMARK UNBOUND:                -0.224
REMARK SMILES O=c1c(O)c(-c2ccc(O)c(O)c2)oc2cc(O)cc(O)c12
REMARK SMILES IDX 5 1 3 2 2 3 1 4 22 5 20 6 19 7 17 8 16 9 15 10 14 11 6 12
REMARK SMILES IDX 7 13 8 14 9 15 13 16 11 17 10 18 12 20 4 22 21 24 18 26
REMARK H PARENT 10 19 12 21 4 23 21 25 18 27
REMARK Flexibility Score: inf
ROOT
ATOM      1  C   UNL     1     -21.521 -11.243  14.657  1.00  0.00     0.180 A 
ATOM      2  C   UNL     1     -22.603 -11.923  14.071  1.00  0.00     0.208 A 
ATOM      3  C   UNL     1     -22.523 -12.294  12.719  1.00  0.00     0.238 A 
ATOM      4  O   UNL     1     -23.471 -12.950  12.215  1.00  0.00    -0.285 OA
ATOM      5  C   UNL     1     -21.369 -11.967  11.966  1.00  0.00     0.111 A 
ATOM      6  C   UNL     1     -21.198 -12.259  10.579  1.00  0.00     0.134 A 
ATOM      7  C   UNL     1     -19.963 -12.006   9.968  1.00  0.00     0.093 A 
ATOM      8  C   UNL     1     -18.917 -11.411  10.678  1.00  0.00     0.123 A 
ATOM      9  C   UNL     1     -19.094 -11.069  12.016  1.00  0.00     0.094 A 
ATOM     10  C   UNL     1     -20.303 -11.342  12.662  1.00  0.00     0.146 A 
ATOM     11  O   UNL     1     -20.427 -11.008  13.941  1.00  0.00    -0.452 OA
ENDROOT
BRANCH   1  12
ATOM     12  C   UNL     1     -21.541 -10.797  16.068  1.00  0.00     0.025 A 
ATOM     13  C   UNL     1     -21.885  -9.477  16.414  1.00  0.00     0.016 A 
ATOM     14  C   UNL     1     -21.874  -9.072  17.751  1.00  0.00     0.051 A 
ATOM     15  C   UNL     1     -21.508  -9.972  18.760  1.00  0.00     0.157 A 
ATOM     16  C   UNL     1     -21.155 -11.689  17.081  1.00  0.00     0.062 A 
ATOM     17  C   UNL     1     -21.144 -11.286  18.422  1.00  0.00     0.158 A 
BRANCH  15  18
ATOM     18  O   UNL     1     -21.500  -9.565  20.093  1.00  0.00    -0.504 OA
ATOM     19  H   UNL     1     -22.360  -9.419  20.608  1.00  0.00     0.293 HD
ENDBRANCH  15  18
BRANCH  17  20
ATOM     20  O   UNL     1     -20.767 -12.204  19.402  1.00  0.00    -0.504 OA
ATOM     21  H   UNL     1     -21.395 -12.928  19.730  1.00  0.00     0.293 HD
ENDBRANCH  17  20
ENDBRANCH   1  12
BRANCH   2  22
ATOM     22  O   UNL     1     -23.723 -12.254  14.839  1.00  0.00    -0.502 OA
ATOM     23  H   UNL     1     -23.992 -13.214  15.020  1.00  0.00     0.293 HD
ENDBRANCH   2  22
BRANCH   6  24
ATOM     24  O   UNL     1     -22.208 -12.767   9.758  1.00  0.00    -0.507 OA
ATOM     25  H   UNL     1     -23.087 -12.306   9.576  1.00  0.00     0.293 HD
ENDBRANCH   6  24
BRANCH   8  26
ATOM     26  O   UNL     1     -17.697 -11.149  10.058  1.00  0.00    -0.508 OA
ATOM     27  H   UNL     1     -17.644 -10.623   9.192  1.00  0.00     0.293 HD
ENDBRANCH   8  26
TORSDOF 6
ENDMDL
MODEL 3
REMARK VINA RESULT:    -6.441      3.580      6.697
REMARK INTER + INTRA:          -7.983
REMARK INTER:                  -7.690
REMARK INTRA:                  -0.293
REMARK UNBOUND:                -0.224
REMARK SMILES O=c1c(O)c(-c2ccc(O)c(O)c2)oc2cc(O)cc(O)c12
REMARK SMILES IDX 5 1 3 2 2 3 1 4 22 5 20 6 19 7 17 8 16 9 15 10 14 11 6 12
REMARK SMILES IDX 7 13 8 14 9 15 13 16 11 17 10 18 12 20 4 22 21 24 18 26
REMARK H PARENT 10 19 12 21 4 23 21 25 18 27
REMARK Flexibility Score: inf
ROOT
ATOM      1  C   UNL     1     -22.718 -13.469  12.385  1.00  0.00     0.180 A 
ATOM      2  C   UNL     1     -23.850 -12.747  12.803  1.00  0.00     0.208 A 
ATOM      3  C   UNL     1     -24.906 -13.435  13.424  1.00  0.00     0.238 A 
ATOM      4  O   UNL     1     -25.891 -12.775  13.844  1.00  0.00    -0.285 OA
ATOM      5  C   UNL     1     -24.823 -14.836  13.605  1.00  0.00     0.111 A 
ATOM      6  C   UNL     1     -25.850 -15.639  14.186  1.00  0.00     0.134 A 
ATOM      7  C   UNL     1     -25.608 -16.996  14.436  1.00  0.00     0.093 A 
ATOM      8  C   UNL     1     -24.399 -17.592  14.064  1.00  0.00     0.123 A 
ATOM      9  C   UNL     1     -23.414 -16.829  13.443  1.00  0.00     0.094 A 
ATOM     10  C   UNL     1     -23.613 -15.465  13.214  1.00  0.00     0.146 A 
ATOM     11  O   UNL     1     -22.643 -14.772  12.628  1.00  0.00    -0.452 OA
ENDROOT
BRANCH   1  12
ATOM     12  C   UNL     1     -21.577 -12.819  11.701  1.00  0.00     0.025 A 
ATOM     13  C   UNL     1     -21.413 -12.909  10.307  1.00  0.00     0.016 A 
ATOM     14  C   UNL     1     -20.315 -12.308   9.685  1.00  0.00     0.051 A 
ATOM     15  C   UNL     1     -19.359 -11.621  10.447  1.00  0.00     0.157 A 
ATOM     16  C   UNL     1     -20.606 -12.148  12.461  1.00  0.00     0.062 A 
ATOM     17  C   UNL     1     -19.506 -11.545  11.841  1.00  0.00     0.158 A 
BRANCH  15  18
ATOM     18  O   UNL     1     -18.267 -11.021   9.823  1.00  0.00    -0.504 OA
ATOM     19  H   UNL     1     -17.355 -10.992  10.263  1.00  0.00     0.293 HD
ENDBRANCH  15  18
BRANCH  17  20
ATOM     20  O   UNL     1     -18.568 -10.876  12.629  1.00  0.00    -0.504 OA
ATOM     21  H   UNL     1     -17.717 -10.489  12.238  1.00  0.00     0.293 HD
ENDBRANCH  17  20
ENDBRANCH   1  12
BRANCH   2  22
ATOM     22  O   UNL     1     -23.901 -11.361  12.633  1.00  0.00    -0.502 OA
ATOM     23  H   UNL     1     -23.866 -10.716  13.414  1.00  0.00     0.293 HD
ENDBRANCH   2  22
BRANCH   6  24
ATOM     24  O   UNL     1     -27.125 -15.164  14.508  1.00  0.00    -0.507 OA
ATOM     25  H   UNL     1     -27.978 -15.691  14.401  1.00  0.00     0.293 HD
ENDBRANCH   6  24
BRANCH   8  26
ATOM     26  O   UNL     1     -24.172 -18.946  14.302  1.00  0.00    -0.508 OA
ATOM     27  H   UNL     1     -24.939 -19.597  14.433  1.00  0.00     0.293 HD
ENDBRANCH   8  26
TORSDOF 6
ENDMDL
MODEL 4
REMARK VINA RESULT:    -6.380      3.001      5.212
REMARK INTER + INTRA:          -7.909
REMARK INTER:                  -7.622
REMARK INTRA:                  -0.288
REMARK UNBOUND:                -0.224
REMARK SMILES O=c1c(O)c(-c2ccc(O)c(O)c2)oc2cc(O)cc(O)c12
REMARK SMILES IDX 5 1 3 2 2 3 1 4 22 5 20 6 19 7 17 8 16 9 15 10 14 11 6 12
REMARK SMILES IDX 7 13 8 14 9 15 13 16 11 17 10 18 12 20 4 22 21 24 18 26
REMARK H PARENT 10 19 12 21 4 23 21 25 18 27
REMARK Flexibility Score: inf
ROOT
ATOM      1  C   UNL     1     -22.791 -13.507  12.617  1.00  0.00     0.180 A 
ATOM      2  C   UNL     1     -22.533 -12.805  13.807  1.00  0.00     0.208 A 
ATOM      3  C   UNL     1     -21.429 -11.937  13.860  1.00  0.00     0.238 A 
ATOM      4  O   UNL     1     -21.235 -11.271  14.909  1.00  0.00    -0.285 OA
ATOM      5  C   UNL     1     -20.590 -11.796  12.729  1.00  0.00     0.111 A 
ATOM      6  C   UNL     1     -19.422 -10.975  12.685  1.00  0.00     0.134 A 
ATOM      7  C   UNL     1     -18.741 -10.809  11.473  1.00  0.00     0.093 A 
ATOM      8  C   UNL     1     -19.148 -11.486  10.319  1.00  0.00     0.123 A 
ATOM      9  C   UNL     1     -20.250 -12.334  10.367  1.00  0.00     0.094 A 
ATOM     10  C   UNL     1     -20.972 -12.492  11.554  1.00  0.00     0.146 A 
ATOM     11  O   UNL     1     -22.023 -13.303  11.553  1.00  0.00    -0.452 OA
ENDROOT
BRANCH   1  12
ATOM     12  C   UNL     1     -23.919 -14.458  12.492  1.00  0.00     0.025 A 
ATOM     13  C   UNL     1     -25.124 -14.086  11.868  1.00  0.00     0.016 A 
ATOM     14  C   UNL     1     -26.184 -14.993  11.783  1.00  0.00     0.051 A 
ATOM     15  C   UNL     1     -26.063 -16.277  12.330  1.00  0.00     0.157 A 
ATOM     16  C   UNL     1     -23.811 -15.739  13.057  1.00  0.00     0.062 A 
ATOM     17  C   UNL     1     -24.871 -16.649  12.972  1.00  0.00     0.158 A 
BRANCH  15  18
ATOM     18  O   UNL     1     -27.121 -17.179  12.241  1.00  0.00    -0.504 OA
ATOM     19  H   UNL     1     -27.952 -17.080  12.813  1.00  0.00     0.293 HD
ENDBRANCH  15  18
BRANCH  17  20
ATOM     20  O   UNL     1     -24.720 -17.917  13.534  1.00  0.00    -0.504 OA
ATOM     21  H   UNL     1     -24.686 -18.059  14.537  1.00  0.00     0.293 HD
ENDBRANCH  17  20
ENDBRANCH   1  12
BRANCH   2  22
ATOM     22  O   UNL     1     -23.387 -12.944  14.904  1.00  0.00    -0.502 OA
ATOM     23  H   UNL     1     -23.096 -12.728  15.851  1.00  0.00     0.293 HD
ENDBRANCH   2  22
BRANCH   6  24
ATOM     24  O   UNL     1     -18.879 -10.330  13.800  1.00  0.00    -0.507 OA
ATOM     25  H   UNL     1     -18.369 -10.791  14.538  1.00  0.00     0.293 HD
ENDBRANCH   6  24
BRANCH   8  26
ATOM     26  O   UNL     1     -18.455 -11.327   9.121  1.00  0.00    -0.508 OA
ATOM     27  H   UNL     1     -18.911 -11.455   8.224  1.00  0.00     0.293 HD
ENDBRANCH   8  26
TORSDOF 6
ENDMDL
MODEL 5
REMARK VINA RESULT:    -6.326      1.855      6.591
REMARK INTER + INTRA:          -7.845
REMARK INTER:                  -8.160
REMARK INTRA:                   0.314
REMARK UNBOUND:                -0.224
REMARK SMILES O=c1c(O)c(-c2ccc(O)c(O)c2)oc2cc(O)cc(O)c12
REMARK SMILES IDX 5 1 3 2 2 3 1 4 22 5 20 6 19 7 17 8 16 9 15 10 14 11 6 12
REMARK SMILES IDX 7 13 8 14 9 15 13 16 11 17 10 18 12 20 4 22 21 24 18 26
REMARK H PARENT 10 19 12 21 4 23 21 25 18 27
REMARK Flexibility Score: inf
ROOT
ATOM      1  C   UNL     1     -20.871 -11.107  13.552  1.00  0.00     0.180 A 
ATOM      2  C   UNL     1     -19.589 -10.572  13.771  1.00  0.00     0.208 A 
ATOM      3  C   UNL     1     -19.338  -9.868  14.959  1.00  0.00     0.238 A 
ATOM      4  O   UNL     1     -18.175  -9.439  15.173  1.00  0.00    -0.285 OA
ATOM      5  C   UNL     1     -20.376  -9.694  15.906  1.00  0.00     0.111 A 
ATOM      6  C   UNL     1     -20.243  -8.963  17.126  1.00  0.00     0.134 A 
ATOM      7  C   UNL     1     -21.296  -8.966  18.049  1.00  0.00     0.093 A 
ATOM      8  C   UNL     1     -22.500  -9.618  17.767  1.00  0.00     0.123 A 
ATOM      9  C   UNL     1     -22.659 -10.283  16.555  1.00  0.00     0.094 A 
ATOM     10  C   UNL     1     -21.613 -10.328  15.629  1.00  0.00     0.146 A 
ATOM     11  O   UNL     1     -21.803 -10.982  14.489  1.00  0.00    -0.452 OA
ENDROOT
BRANCH   1  12
ATOM     12  C   UNL     1     -21.219 -11.840  12.314  1.00  0.00     0.025 A 
ATOM     13  C   UNL     1     -20.509 -11.633  11.117  1.00  0.00     0.016 A 
ATOM     14  C   UNL     1     -20.871 -12.318   9.954  1.00  0.00     0.051 A 
ATOM     15  C   UNL     1     -21.953 -13.208   9.965  1.00  0.00     0.157 A 
ATOM     16  C   UNL     1     -22.316 -12.716  12.314  1.00  0.00     0.062 A 
ATOM     17  C   UNL     1     -22.680 -13.405  11.150  1.00  0.00     0.158 A 
BRANCH  15  18
ATOM     18  O   UNL     1     -22.310 -13.891   8.803  1.00  0.00    -0.504 OA
ATOM     19  H   UNL     1     -22.825 -14.762   8.837  1.00  0.00     0.293 HD
ENDBRANCH  15  18
BRANCH  17  20
ATOM     20  O   UNL     1     -23.767 -14.277  11.193  1.00  0.00    -0.504 OA
ATOM     21  H   UNL     1     -23.706 -15.230  10.852  1.00  0.00     0.293 HD
ENDBRANCH  17  20
ENDBRANCH   1  12
BRANCH   2  22
ATOM     22  O   UNL     1     -18.574 -10.775  12.831  1.00  0.00    -0.502 OA
ATOM     23  H   UNL     1     -17.872 -10.073  12.629  1.00  0.00     0.293 HD
ENDBRANCH   2  22
BRANCH   6  24
ATOM     24  O   UNL     1     -19.120  -8.203  17.463  1.00  0.00    -0.507 OA
ATOM     25  H   UNL     1     -18.343  -8.538  18.011  1.00  0.00     0.293 HD
ENDBRANCH   6  24
BRANCH   8  26
ATOM     26  O   UNL     1     -23.548  -9.602  18.685  1.00  0.00    -0.508 OA
ATOM     27  H   UNL     1     -24.500  -9.818  18.406  1.00  0.00     0.293 HD
ENDBRANCH   8  26
TORSDOF 6
ENDMDL
MODEL 6
REMARK VINA RESULT:    -6.281      1.050      1.637
REMARK INTER + INTRA:          -7.791
REMARK INTER:                  -7.487
REMARK INTRA:                  -0.303
REMARK UNBOUND:                -0.224
REMARK SMILES O=c1c(O)c(-c2ccc(O)c(O)c2)oc2cc(O)cc(O)c12
REMARK SMILES IDX 5 1 3 2 2 3 1 4 22 5 20 6 19 7 17 8 16 9 15 10 14 11 6 12
REMARK SMILES IDX 7 13 8 14 9 15 13 16 11 17 10 18 12 20 4 22 21 24 18 26
REMARK H PARENT 10 19 12 21 4 23 21 25 18 27
REMARK Flexibility Score: inf
ROOT
ATOM      1  C   UNL     1     -20.803 -11.323  14.337  1.00  0.00     0.180 A 
ATOM      2  C   UNL     1     -19.640 -10.763  13.782  1.00  0.00     0.208 A 
ATOM      3  C   UNL     1     -19.341 -11.011  12.432  1.00  0.00     0.238 A 
ATOM      4  O   UNL     1     -18.328 -10.462  11.927  1.00  0.00    -0.285 OA
ATOM      5  C   UNL     1     -20.201 -11.829  11.660  1.00  0.00     0.111 A 
ATOM      6  C   UNL     1     -19.975 -12.178  10.294  1.00  0.00     0.134 A 
ATOM      7  C   UNL     1     -20.958 -12.886   9.591  1.00  0.00     0.093 A 
ATOM      8  C   UNL     1     -22.129 -13.312  10.223  1.00  0.00     0.123 A 
ATOM      9  C   UNL     1     -22.332 -13.027  11.571  1.00  0.00     0.094 A 
ATOM     10  C   UNL     1     -21.385 -12.291  12.289  1.00  0.00     0.146 A 
ATOM     11  O   UNL     1     -21.622 -12.032  13.570  1.00  0.00    -0.452 OA
ENDROOT
BRANCH   1  12
ATOM     12  C   UNL     1     -21.171 -11.128  15.758  1.00  0.00     0.025 A 
ATOM     13  C   UNL     1     -20.895 -12.110  16.727  1.00  0.00     0.016 A 
ATOM     14  C   UNL     1     -21.273 -11.914  18.058  1.00  0.00     0.051 A 
ATOM     15  C   UNL     1     -21.944 -10.744  18.438  1.00  0.00     0.157 A 
ATOM     16  C   UNL     1     -21.862  -9.967  16.141  1.00  0.00     0.062 A 
ATOM     17  C   UNL     1     -22.241  -9.768  17.473  1.00  0.00     0.158 A 
BRANCH  15  18
ATOM     18  O   UNL     1     -22.318 -10.552  19.767  1.00  0.00    -0.504 OA
ATOM     19  H   UNL     1     -22.010 -11.179  20.501  1.00  0.00     0.293 HD
ENDBRANCH  15  18
BRANCH  17  20
ATOM     20  O   UNL     1     -22.914  -8.596  17.817  1.00  0.00    -0.504 OA
ATOM     21  H   UNL     1     -23.899  -8.463  17.618  1.00  0.00     0.293 HD
ENDBRANCH  17  20
ENDBRANCH   1  12
BRANCH   2  22
ATOM     22  O   UNL     1     -18.817  -9.941  14.557  1.00  0.00    -0.502 OA
ATOM     23  H   UNL     1     -19.175  -9.379  15.321  1.00  0.00     0.293 HD
ENDBRANCH   2  22
BRANCH   6  24
ATOM     24  O   UNL     1     -18.800 -11.882   9.597  1.00  0.00    -0.507 OA
ATOM     25  H   UNL     1     -17.868 -12.026   9.954  1.00  0.00     0.293 HD
ENDBRANCH   6  24
BRANCH   8  26
ATOM     26  O   UNL     1     -23.095 -14.029   9.521  1.00  0.00    -0.508 OA
ATOM     27  H   UNL     1     -23.987 -13.615   9.273  1.00  0.00     0.293 HD
ENDBRANCH   8  26
TORSDOF 6
ENDMDL
MODEL 7
REMARK VINA RESULT:    -6.154      4.688      7.563
REMARK INTER + INTRA:          -7.638
REMARK INTER:                  -7.318
REMARK INTRA:                  -0.320
REMARK UNBOUND:                -0.224
REMARK SMILES O=c1c(O)c(-c2ccc(O)c(O)c2)oc2cc(O)cc(O)c12
REMARK SMILES IDX 5 1 3 2 2 3 1 4 22 5 20 6 19 7 17 8 16 9 15 10 14 11 6 12
REMARK SMILES IDX 7 13 8 14 9 15 13 16 11 17 10 18 12 20 4 22 21 24 18 26
REMARK H PARENT 10 19 12 21 4 23 21 25 18 27
REMARK Flexibility Score: inf
ROOT
ATOM      1  C   UNL     1     -23.609 -15.057  12.484  1.00  0.00     0.180 A 
ATOM      2  C   UNL     1     -24.995 -15.084  12.249  1.00  0.00     0.208 A 
ATOM      3  C   UNL     1     -25.757 -16.134  12.786  1.00  0.00     0.238 A 
ATOM      4  O   UNL     1     -27.003 -16.123  12.619  1.00  0.00    -0.285 OA
ATOM      5  C   UNL     1     -25.121 -17.152  13.537  1.00  0.00     0.111 A 
ATOM      6  C   UNL     1     -25.789 -18.284  14.095  1.00  0.00     0.134 A 
ATOM      7  C   UNL     1     -25.084 -19.160  14.930  1.00  0.00     0.093 A 
ATOM      8  C   UNL     1     -23.720 -18.980  15.174  1.00  0.00     0.123 A 
ATOM      9  C   UNL     1     -23.046 -17.912  14.587  1.00  0.00     0.094 A 
ATOM     10  C   UNL     1     -23.732 -17.001  13.779  1.00  0.00     0.146 A 
ATOM     11  O   UNL     1     -23.053 -15.991  13.247  1.00  0.00    -0.452 OA
ENDROOT
BRANCH   1  12
ATOM     12  C   UNL     1     -22.736 -13.997  11.930  1.00  0.00     0.025 A 
ATOM     13  C   UNL     1     -22.262 -14.056  10.607  1.00  0.00     0.016 A 
ATOM     14  C   UNL     1     -21.420 -13.057  10.113  1.00  0.00     0.051 A 
ATOM     15  C   UNL     1     -21.028 -11.992  10.935  1.00  0.00     0.157 A 
ATOM     16  C   UNL     1     -22.323 -12.939  12.756  1.00  0.00     0.062 A 
ATOM     17  C   UNL     1     -21.480 -11.936  12.263  1.00  0.00     0.158 A 
BRANCH  15  18
ATOM     18  O   UNL     1     -20.189 -10.996  10.439  1.00  0.00    -0.504 OA
ATOM     19  H   UNL     1     -19.894 -10.215  11.013  1.00  0.00     0.293 HD
ENDBRANCH  15  18
BRANCH  17  20
ATOM     20  O   UNL     1     -21.102 -10.894  13.111  1.00  0.00    -0.504 OA
ATOM     21  H   UNL     1     -21.243  -9.921  12.862  1.00  0.00     0.293 HD
ENDBRANCH  17  20
ENDBRANCH   1  12
BRANCH   2  22
ATOM     22  O   UNL     1     -25.604 -14.057  11.522  1.00  0.00    -0.502 OA
ATOM     23  H   UNL     1     -26.118 -14.228  10.666  1.00  0.00     0.293 HD
ENDBRANCH   2  22
BRANCH   6  24
ATOM     24  O   UNL     1     -27.125 -18.606  13.838  1.00  0.00    -0.507 OA
ATOM     25  H   UNL     1     -27.859 -17.932  13.685  1.00  0.00     0.293 HD
ENDBRANCH   6  24
BRANCH   8  26
ATOM     26  O   UNL     1     -23.022 -19.864  15.994  1.00  0.00    -0.508 OA
ATOM     27  H   UNL     1     -22.573 -19.553  16.848  1.00  0.00     0.293 HD
ENDBRANCH   8  26
TORSDOF 6
ENDMDL
MODEL 8
REMARK VINA RESULT:    -5.879      2.017      7.414
REMARK INTER + INTRA:          -7.306
REMARK INTER:                  -7.413
REMARK INTRA:                   0.106
REMARK UNBOUND:                -0.224
REMARK SMILES O=c1c(O)c(-c2ccc(O)c(O)c2)oc2cc(O)cc(O)c12
REMARK SMILES IDX 5 1 3 2 2 3 1 4 22 5 20 6 19 7 17 8 16 9 15 10 14 11 6 12
REMARK SMILES IDX 7 13 8 14 9 15 13 16 11 17 10 18 12 20 4 22 21 24 18 26
REMARK H PARENT 10 19 12 21 4 23 21 25 18 27
REMARK Flexibility Score: inf
ROOT
ATOM      1  C   UNL     1     -20.738 -11.317  14.782  1.00  0.00     0.180 A 
ATOM      2  C   UNL     1     -21.360 -12.386  15.450  1.00  0.00     0.208 A 
ATOM      3  C   UNL     1     -21.653 -12.257  16.818  1.00  0.00     0.238 A 
ATOM      4  O   UNL     1     -22.259 -13.195  17.397  1.00  0.00    -0.285 OA
ATOM      5  C   UNL     1     -21.305 -11.068  17.503  1.00  0.00     0.111 A 
ATOM      6  C   UNL     1     -21.519 -10.845  18.897  1.00  0.00     0.134 A 
ATOM      7  C   UNL     1     -21.256  -9.583  19.443  1.00  0.00     0.093 A 
ATOM      8  C   UNL     1     -20.725  -8.556  18.657  1.00  0.00     0.123 A 
ATOM      9  C   UNL     1     -20.458  -8.782  17.310  1.00  0.00     0.094 A 
ATOM     10  C   UNL     1     -20.745 -10.020  16.729  1.00  0.00     0.146 A 
ATOM     11  O   UNL     1     -20.484 -10.190  15.438  1.00  0.00    -0.452 OA
ENDROOT
BRANCH   1  12
ATOM     12  C   UNL     1     -20.375 -11.387  13.349  1.00  0.00     0.025 A 
ATOM     13  C   UNL     1     -19.128 -10.929  12.886  1.00  0.00     0.016 A 
ATOM     14  C   UNL     1     -18.817 -10.983  11.525  1.00  0.00     0.051 A 
ATOM     15  C   UNL     1     -19.750 -11.481  10.605  1.00  0.00     0.157 A 
ATOM     16  C   UNL     1     -21.314 -11.865  12.420  1.00  0.00     0.062 A 
ATOM     17  C   UNL     1     -21.004 -11.921  11.056  1.00  0.00     0.158 A 
BRANCH  15  18
ATOM     18  O   UNL     1     -19.435 -11.535   9.248  1.00  0.00    -0.504 OA
ATOM     19  H   UNL     1     -18.643 -12.068   8.908  1.00  0.00     0.293 HD
ENDBRANCH  15  18
BRANCH  17  20
ATOM     20  O   UNL     1     -21.958 -12.415  10.166  1.00  0.00    -0.504 OA
ATOM     21  H   UNL     1     -22.913 -12.600  10.450  1.00  0.00     0.293 HD
ENDBRANCH  17  20
ENDBRANCH   1  12
BRANCH   2  22
ATOM     22  O   UNL     1     -21.714 -13.542  14.748  1.00  0.00    -0.502 OA
ATOM     23  H   UNL     1     -21.538 -13.650  13.756  1.00  0.00     0.293 HD
ENDBRANCH   2  22
BRANCH   6  24
ATOM     24  O   UNL     1     -21.957 -11.830  19.787  1.00  0.00    -0.507 OA
ATOM     25  H   UNL     1     -21.615 -12.779  19.808  1.00  0.00     0.293 HD
ENDBRANCH   6  24
BRANCH   8  26
ATOM     26  O   UNL     1     -20.451  -7.307  19.211  1.00  0.00    -0.508 OA
ATOM     27  H   UNL     1     -19.902  -7.212  20.059  1.00  0.00     0.293 HD
ENDBRANCH   8  26
TORSDOF 6
ENDMDL
MODEL 9
REMARK VINA RESULT:    -5.715      3.003      6.984
REMARK INTER + INTRA:          -7.109
REMARK INTER:                  -6.998
REMARK INTRA:                  -0.111
REMARK UNBOUND:                -0.224
REMARK SMILES O=c1c(O)c(-c2ccc(O)c(O)c2)oc2cc(O)cc(O)c12
REMARK SMILES IDX 5 1 3 2 2 3 1 4 22 5 20 6 19 7 17 8 16 9 15 10 14 11 6 12
REMARK SMILES IDX 7 13 8 14 9 15 13 16 11 17 10 18 12 20 4 22 21 24 18 26
REMARK H PARENT 10 19 12 21 4 23 21 25 18 27
REMARK Flexibility Score: inf
ROOT
ATOM      1  C   UNL     1     -22.917 -12.687  13.149  1.00  0.00     0.180 A 
ATOM      2  C   UNL     1     -23.289 -14.020  13.394  1.00  0.00     0.208 A 
ATOM      3  C   UNL     1     -24.360 -14.280  14.265  1.00  0.00     0.238 A 
ATOM      4  O   UNL     1     -24.722 -15.472  14.437  1.00  0.00    -0.285 OA
ATOM      5  C   UNL     1     -25.034 -13.204  14.891  1.00  0.00     0.111 A 
ATOM      6  C   UNL     1     -26.107 -13.354  15.822  1.00  0.00     0.134 A 
ATOM      7  C   UNL     1     -26.786 -12.218  16.280  1.00  0.00     0.093 A 
ATOM      8  C   UNL     1     -26.389 -10.936  15.891  1.00  0.00     0.123 A 
ATOM      9  C   UNL     1     -25.307 -10.778  15.030  1.00  0.00     0.094 A 
ATOM     10  C   UNL     1     -24.632 -11.894  14.528  1.00  0.00     0.146 A 
ATOM     11  O   UNL     1     -23.612 -11.699  13.701  1.00  0.00    -0.452 OA
ENDROOT
BRANCH   1  12
ATOM     12  C   UNL     1     -21.784 -12.334  12.264  1.00  0.00     0.025 A 
ATOM     13  C   UNL     1     -21.773 -12.704  10.906  1.00  0.00     0.016 A 
ATOM     14  C   UNL     1     -20.681 -12.381  10.096  1.00  0.00     0.051 A 
ATOM     15  C   UNL     1     -19.581 -11.697  10.630  1.00  0.00     0.157 A 
ATOM     16  C   UNL     1     -20.670 -11.668  12.799  1.00  0.00     0.062 A 
ATOM     17  C   UNL     1     -19.576 -11.342  11.989  1.00  0.00     0.158 A 
BRANCH  15  18
ATOM     18  O   UNL     1     -18.495 -11.375   9.818  1.00  0.00    -0.504 OA
ATOM     19  H   UNL     1     -18.302 -10.419   9.544  1.00  0.00     0.293 HD
ENDBRANCH  15  18
BRANCH  17  20
ATOM     20  O   UNL     1     -18.492 -10.668  12.554  1.00  0.00    -0.504 OA
ATOM     21  H   UNL     1     -17.691 -10.383  12.003  1.00  0.00     0.293 HD
ENDBRANCH  17  20
ENDBRANCH   1  12
BRANCH   2  22
ATOM     22  O   UNL     1     -22.623 -15.065  12.748  1.00  0.00    -0.502 OA
ATOM     23  H   UNL     1     -23.076 -15.655  12.060  1.00  0.00     0.293 HD
ENDBRANCH   2  22
BRANCH   6  24
ATOM     24  O   UNL     1     -26.521 -14.582  16.345  1.00  0.00    -0.507 OA
ATOM     25  H   UNL     1     -26.426 -14.856  17.311  1.00  0.00     0.293 HD
ENDBRANCH   6  24
BRANCH   8  26
ATOM     26  O   UNL     1     -27.061  -9.811  16.364  1.00  0.00    -0.508 OA
ATOM     27  H   UNL     1     -27.512  -9.805  17.272  1.00  0.00     0.293 HD
ENDBRANCH   8  26
TORSDOF 6
ENDMDL
