MODEL 1
REMARK VINA RESULT:    -6.025      0.000      0.000
REMARK INTER + INTRA:          -7.347
REMARK INTER:                  -7.081
REMARK INTRA:                  -0.265
REMARK UNBOUND:                -0.265
REMARK SMILES O=c1cc(-c2ccc(O)c(O)c2)oc2cc(O)cc(O)c12
REMARK SMILES IDX 4 1 3 2 2 3 1 4 21 5 19 6 18 7 16 8 15 9 14 10 13 11 5 12
REMARK SMILES IDX 6 13 7 14 8 15 12 16 10 17 9 18 11 20 20 22 17 24
REMARK H PARENT 9 19 11 21 20 23 17 25
REMARK Flexibility Score: inf
ROOT
ATOM      1  C   UNL     1      10.078 -25.508 -25.327  1.00  0.00     0.138 A 
ATOM      2  C   UNL     1      11.186 -25.051 -26.055  1.00  0.00     0.100 A 
ATOM      3  C   UNL     1      11.349 -25.447 -27.382  1.00  0.00     0.197 A 
ATOM      4  O   UNL     1      12.384 -25.071 -27.991  1.00  0.00    -0.289 OA
ATOM      5  C   UNL     1      10.382 -26.281 -27.993  1.00  0.00     0.107 A 
ATOM      6  C   UNL     1      10.423 -26.715 -29.351  1.00  0.00     0.134 A 
ATOM      7  C   UNL     1       9.472 -27.633 -29.812  1.00  0.00     0.093 A 
ATOM      8  C   UNL     1       8.447 -28.086 -28.982  1.00  0.00     0.123 A 
ATOM      9  C   UNL     1       8.364 -27.627 -27.666  1.00  0.00     0.094 A 
ATOM     10  C   UNL     1       9.319 -26.737 -27.168  1.00  0.00     0.146 A 
ATOM     11  O   UNL     1       9.213 -26.334 -25.906  1.00  0.00    -0.456 OA
ENDROOT
BRANCH   1  12
ATOM     12  C   UNL     1       9.855 -25.116 -23.912  1.00  0.00     0.021 A 
ATOM     13  C   UNL     1       9.382 -23.825 -23.619  1.00  0.00     0.016 A 
ATOM     14  C   UNL     1       9.171 -23.428 -22.296  1.00  0.00     0.051 A 
ATOM     15  C   UNL     1       9.440 -24.310 -21.243  1.00  0.00     0.157 A 
ATOM     16  C   UNL     1      10.136 -25.993 -22.846  1.00  0.00     0.062 A 
ATOM     17  C   UNL     1       9.928 -25.596 -21.520  1.00  0.00     0.158 A 
BRANCH  15  18
ATOM     18  O   UNL     1       9.228 -23.911 -19.924  1.00  0.00    -0.504 OA
ATOM     19  H   UNL     1       9.987 -23.869 -19.254  1.00  0.00     0.293 HD
ENDBRANCH  15  18
BRANCH  17  20
ATOM     20  O   UNL     1      10.216 -26.495 -20.492  1.00  0.00    -0.504 OA
ATOM     21  H   UNL     1      11.163 -26.786 -20.282  1.00  0.00     0.293 HD
ENDBRANCH  17  20
ENDBRANCH   1  12
BRANCH   6  22
ATOM     22  O   UNL     1      11.355 -26.260 -30.288  1.00  0.00    -0.507 OA
ATOM     23  H   UNL     1      11.780 -26.830 -31.004  1.00  0.00     0.293 HD
ENDBRANCH   6  22
BRANCH   8  24
ATOM     24  O   UNL     1       7.508 -28.989 -29.478  1.00  0.00    -0.508 OA
ATOM     25  H   UNL     1       7.702 -29.982 -29.526  1.00  0.00     0.293 HD
ENDBRANCH   8  24
TORSDOF 5
ENDMDL
MODEL 2
REMARK VINA RESULT:    -5.756      9.945     13.019
REMARK INTER + INTRA:          -7.031
REMARK INTER:                  -6.735
REMARK INTRA:                  -0.296
REMARK UNBOUND:                -0.265
REMARK SMILES O=c1cc(-c2ccc(O)c(O)c2)oc2cc(O)cc(O)c12
REMARK SMILES IDX 4 1 3 2 2 3 1 4 21 5 19 6 18 7 16 8 15 9 14 10 13 11 5 12
REMARK SMILES IDX 6 13 7 14 8 15 12 16 10 17 9 18 11 20 20 22 17 24
REMARK H PARENT 9 19 11 21 20 23 17 25
REMARK Flexibility Score: inf
ROOT
ATOM      1  C   UNL     1      19.886 -22.244 -28.125  1.00  0.00     0.138 A 
ATOM      2  C   UNL     1      18.675 -21.551 -28.267  1.00  0.00     0.100 A 
ATOM      3  C   UNL     1      18.636 -20.176 -28.036  1.00  0.00     0.197 A 
ATOM      4  O   UNL     1      17.524 -19.593 -28.111  1.00  0.00    -0.289 OA
ATOM      5  C   UNL     1      19.823 -19.487 -27.690  1.00  0.00     0.107 A 
ATOM      6  C   UNL     1      19.911 -18.080 -27.471  1.00  0.00     0.134 A 
ATOM      7  C   UNL     1      21.115 -17.525 -27.019  1.00  0.00     0.093 A 
ATOM      8  C   UNL     1      22.249 -18.317 -26.837  1.00  0.00     0.123 A 
ATOM      9  C   UNL     1      22.190 -19.686 -27.101  1.00  0.00     0.094 A 
ATOM     10  C   UNL     1      20.993 -20.274 -27.519  1.00  0.00     0.146 A 
ATOM     11  O   UNL     1      20.974 -21.583 -27.746  1.00  0.00    -0.456 OA
ENDROOT
BRANCH   1  12
ATOM     12  C   UNL     1      19.983 -23.707 -28.360  1.00  0.00     0.021 A 
ATOM     13  C   UNL     1      21.243 -24.329 -28.335  1.00  0.00     0.016 A 
ATOM     14  C   UNL     1      21.364 -25.702 -28.561  1.00  0.00     0.051 A 
ATOM     15  C   UNL     1      20.228 -26.476 -28.827  1.00  0.00     0.157 A 
ATOM     16  C   UNL     1      18.846 -24.490 -28.641  1.00  0.00     0.062 A 
ATOM     17  C   UNL     1      18.965 -25.866 -28.871  1.00  0.00     0.158 A 
BRANCH  15  18
ATOM     18  O   UNL     1      20.351 -27.847 -29.051  1.00  0.00    -0.504 OA
ATOM     19  H   UNL     1      20.837 -28.210 -29.863  1.00  0.00     0.293 HD
ENDBRANCH  15  18
BRANCH  17  20
ATOM     20  O   UNL     1      17.815 -26.608 -29.144  1.00  0.00    -0.504 OA
ATOM     21  H   UNL     1      16.893 -26.294 -28.865  1.00  0.00     0.293 HD
ENDBRANCH  17  20
ENDBRANCH   1  12
BRANCH   6  22
ATOM     22  O   UNL     1      18.862 -17.186 -27.703  1.00  0.00    -0.507 OA
ATOM     23  H   UNL     1      18.058 -17.072 -27.105  1.00  0.00     0.293 HD
ENDBRANCH   6  22
BRANCH   8  24
ATOM     24  O   UNL     1      23.435 -17.729 -26.401  1.00  0.00    -0.508 OA
ATOM     25  H   UNL     1      23.671 -17.679 -25.417  1.00  0.00     0.293 HD
ENDBRANCH   8  24
TORSDOF 5
ENDMDL
MODEL 3
REMARK VINA RESULT:    -5.755     10.808     12.362
REMARK INTER + INTRA:          -7.030
REMARK INTER:                  -6.712
REMARK INTRA:                  -0.318
REMARK UNBOUND:                -0.265
REMARK SMILES O=c1cc(-c2ccc(O)c(O)c2)oc2cc(O)cc(O)c12
REMARK SMILES IDX 4 1 3 2 2 3 1 4 21 5 19 6 18 7 16 8 15 9 14 10 13 11 5 12
REMARK SMILES IDX 6 13 7 14 8 15 12 16 10 17 9 18 11 20 20 22 17 24
REMARK H PARENT 9 19 11 21 20 23 17 25
REMARK Flexibility Score: inf
ROOT
ATOM      1  C   UNL     1      20.824 -22.380 -26.512  1.00  0.00     0.138 A 
ATOM      2  C   UNL     1      20.472 -23.053 -25.333  1.00  0.00     0.100 A 
ATOM      3  C   UNL     1      20.283 -24.435 -25.359  1.00  0.00     0.197 A 
ATOM      4  O   UNL     1      19.908 -25.003 -24.301  1.00  0.00    -0.289 OA
ATOM      5  C   UNL     1      20.479 -25.150 -26.564  1.00  0.00     0.107 A 
ATOM      6  C   UNL     1      20.356 -26.565 -26.700  1.00  0.00     0.134 A 
ATOM      7  C   UNL     1      20.459 -27.149 -27.969  1.00  0.00     0.093 A 
ATOM      8  C   UNL     1      20.740 -26.377 -29.096  1.00  0.00     0.123 A 
ATOM      9  C   UNL     1      20.917 -24.999 -28.968  1.00  0.00     0.094 A 
ATOM     10  C   UNL     1      20.786 -24.383 -27.720  1.00  0.00     0.146 A 
ATOM     11  O   UNL     1      20.948 -23.066 -27.642  1.00  0.00    -0.456 OA
ENDROOT
BRANCH   1  12
ATOM     12  C   UNL     1      21.037 -20.911 -26.540  1.00  0.00     0.021 A 
ATOM     13  C   UNL     1      20.808 -20.156 -25.376  1.00  0.00     0.016 A 
ATOM     14  C   UNL     1      20.993 -18.771 -25.378  1.00  0.00     0.051 A 
ATOM     15  C   UNL     1      21.402 -18.115 -26.545  1.00  0.00     0.157 A 
ATOM     16  C   UNL     1      21.436 -20.241 -27.714  1.00  0.00     0.062 A 
ATOM     17  C   UNL     1      21.620 -18.854 -27.718  1.00  0.00     0.158 A 
BRANCH  15  18
ATOM     18  O   UNL     1      21.588 -16.733 -26.543  1.00  0.00    -0.504 OA
ATOM     19  H   UNL     1      20.808 -16.093 -26.638  1.00  0.00     0.293 HD
ENDBRANCH  15  18
BRANCH  17  20
ATOM     20  O   UNL     1      22.018 -18.228 -28.901  1.00  0.00    -0.504 OA
ATOM     21  H   UNL     1      22.964 -17.895 -29.042  1.00  0.00     0.293 HD
ENDBRANCH  17  20
ENDBRANCH   1  12
BRANCH   6  22
ATOM     22  O   UNL     1      20.158 -27.438 -25.626  1.00  0.00    -0.507 OA
ATOM     23  H   UNL     1      19.567 -27.249 -24.831  1.00  0.00     0.293 HD
ENDBRANCH   6  22
BRANCH   8  24
ATOM     24  O   UNL     1      20.851 -26.994 -30.341  1.00  0.00    -0.508 OA
ATOM     25  H   UNL     1      20.476 -27.920 -30.508  1.00  0.00     0.293 HD
ENDBRANCH   8  24
TORSDOF 5
ENDMDL
MODEL 4
REMARK VINA RESULT:    -5.752      1.504      3.114
REMARK INTER + INTRA:          -7.026
REMARK INTER:                  -6.744
REMARK INTRA:                  -0.282
REMARK UNBOUND:                -0.265
REMARK SMILES O=c1cc(-c2ccc(O)c(O)c2)oc2cc(O)cc(O)c12
REMARK SMILES IDX 4 1 3 2 2 3 1 4 21 5 19 6 18 7 16 8 15 9 14 10 13 11 5 12
REMARK SMILES IDX 6 13 7 14 8 15 12 16 10 17 9 18 11 20 20 22 17 24
REMARK H PARENT 9 19 11 21 20 23 17 25
REMARK Flexibility Score: inf
ROOT
ATOM      1  C   UNL     1       9.858 -25.869 -26.005  1.00  0.00     0.138 A 
ATOM      2  C   UNL     1       9.090 -26.976 -26.394  1.00  0.00     0.100 A 
ATOM      3  C   UNL     1       9.086 -27.376 -27.730  1.00  0.00     0.197 A 
ATOM      4  O   UNL     1       8.340 -28.334 -28.061  1.00  0.00    -0.289 OA
ATOM      5  C   UNL     1       9.879 -26.683 -28.676  1.00  0.00     0.107 A 
ATOM      6  C   UNL     1       9.985 -27.026 -30.056  1.00  0.00     0.134 A 
ATOM      7  C   UNL     1      10.711 -26.197 -30.920  1.00  0.00     0.093 A 
ATOM      8  C   UNL     1      11.382 -25.071 -30.444  1.00  0.00     0.123 A 
ATOM      9  C   UNL     1      11.331 -24.755 -29.085  1.00  0.00     0.094 A 
ATOM     10  C   UNL     1      10.587 -25.544 -28.204  1.00  0.00     0.146 A 
ATOM     11  O   UNL     1      10.551 -25.202 -26.921  1.00  0.00    -0.456 OA
ENDROOT
BRANCH   1  12
ATOM     12  C   UNL     1       9.899 -25.402 -24.596  1.00  0.00     0.021 A 
ATOM     13  C   UNL     1      10.269 -26.300 -23.580  1.00  0.00     0.016 A 
ATOM     14  C   UNL     1      10.308 -25.889 -22.246  1.00  0.00     0.051 A 
ATOM     15  C   UNL     1       9.969 -24.575 -21.902  1.00  0.00     0.157 A 
ATOM     16  C   UNL     1       9.546 -24.085 -24.241  1.00  0.00     0.062 A 
ATOM     17  C   UNL     1       9.582 -23.671 -22.904  1.00  0.00     0.158 A 
BRANCH  15  18
ATOM     18  O   UNL     1      10.010 -24.167 -20.569  1.00  0.00    -0.504 OA
ATOM     19  H   UNL     1       9.416 -23.421 -20.224  1.00  0.00     0.293 HD
ENDBRANCH  15  18
BRANCH  17  20
ATOM     20  O   UNL     1       9.227 -22.358 -22.592  1.00  0.00    -0.504 OA
ATOM     21  H   UNL     1       8.346 -22.131 -22.148  1.00  0.00     0.293 HD
ENDBRANCH  17  20
ENDBRANCH   1  12
BRANCH   6  22
ATOM     22  O   UNL     1       9.423 -28.175 -30.620  1.00  0.00    -0.507 OA
ATOM     23  H   UNL     1       9.776 -28.647 -31.440  1.00  0.00     0.293 HD
ENDBRANCH   6  22
BRANCH   8  24
ATOM     24  O   UNL     1      12.107 -24.276 -31.330  1.00  0.00    -0.508 OA
ATOM     25  H   UNL     1      12.700 -24.684 -32.043  1.00  0.00     0.293 HD
ENDBRANCH   8  24
TORSDOF 5
ENDMDL
MODEL 5
REMARK VINA RESULT:    -5.715      9.669     11.758
REMARK INTER + INTRA:          -6.983
REMARK INTER:                  -6.716
REMARK INTRA:                  -0.267
REMARK UNBOUND:                -0.265
REMARK SMILES O=c1cc(-c2ccc(O)c(O)c2)oc2cc(O)cc(O)c12
REMARK SMILES IDX 4 1 3 2 2 3 1 4 21 5 19 6 18 7 16 8 15 9 14 10 13 11 5 12
REMARK SMILES IDX 6 13 7 14 8 15 12 16 10 17 9 18 11 20 20 22 17 24
REMARK H PARENT 9 19 11 21 20 23 17 25
REMARK Flexibility Score: inf
ROOT
ATOM      1  C   UNL     1      20.718 -22.625 -27.580  1.00  0.00     0.138 A 
ATOM      2  C   UNL     1      21.663 -23.535 -28.075  1.00  0.00     0.100 A 
ATOM      3  C   UNL     1      21.287 -24.856 -28.318  1.00  0.00     0.197 A 
ATOM      4  O   UNL     1      22.172 -25.664 -28.703  1.00  0.00    -0.289 OA
ATOM      5  C   UNL     1      19.949 -25.260 -28.094  1.00  0.00     0.107 A 
ATOM      6  C   UNL     1      19.442 -26.569 -28.346  1.00  0.00     0.134 A 
ATOM      7  C   UNL     1      18.129 -26.884 -27.976  1.00  0.00     0.093 A 
ATOM      8  C   UNL     1      17.287 -25.922 -27.420  1.00  0.00     0.123 A 
ATOM      9  C   UNL     1      17.754 -24.622 -27.219  1.00  0.00     0.094 A 
ATOM     10  C   UNL     1      19.071 -24.287 -27.546  1.00  0.00     0.146 A 
ATOM     11  O   UNL     1      19.482 -23.043 -27.326  1.00  0.00    -0.456 OA
ENDROOT
BRANCH   1  12
ATOM     12  C   UNL     1      21.064 -21.208 -27.305  1.00  0.00     0.021 A 
ATOM     13  C   UNL     1      21.064 -20.741 -25.979  1.00  0.00     0.016 A 
ATOM     14  C   UNL     1      21.379 -19.410 -25.694  1.00  0.00     0.051 A 
ATOM     15  C   UNL     1      21.690 -18.520 -26.729  1.00  0.00     0.157 A 
ATOM     16  C   UNL     1      21.365 -20.303 -28.343  1.00  0.00     0.062 A 
ATOM     17  C   UNL     1      21.679 -18.969 -28.058  1.00  0.00     0.158 A 
BRANCH  15  18
ATOM     18  O   UNL     1      22.004 -17.193 -26.440  1.00  0.00    -0.504 OA
ATOM     19  H   UNL     1      22.961 -16.895 -26.289  1.00  0.00     0.293 HD
ENDBRANCH  15  18
BRANCH  17  20
ATOM     20  O   UNL     1      21.973 -18.104 -29.113  1.00  0.00    -0.504 OA
ATOM     21  H   UNL     1      21.428 -18.091 -29.966  1.00  0.00     0.293 HD
ENDBRANCH  17  20
ENDBRANCH   1  12
BRANCH   6  22
ATOM     22  O   UNL     1      20.173 -27.582 -28.974  1.00  0.00    -0.507 OA
ATOM     23  H   UNL     1      21.168 -27.560 -29.136  1.00  0.00     0.293 HD
ENDBRANCH   6  22
BRANCH   8  24
ATOM     24  O   UNL     1      15.981 -26.267 -27.077  1.00  0.00    -0.508 OA
ATOM     25  H   UNL     1      15.684 -27.234 -27.027  1.00  0.00     0.293 HD
ENDBRANCH   8  24
TORSDOF 5
ENDMDL
MODEL 6
REMARK VINA RESULT:    -5.690      1.480      2.553
REMARK INTER + INTRA:          -6.954
REMARK INTER:                  -6.687
REMARK INTRA:                  -0.266
REMARK UNBOUND:                -0.265
REMARK SMILES O=c1cc(-c2ccc(O)c(O)c2)oc2cc(O)cc(O)c12
REMARK SMILES IDX 4 1 3 2 2 3 1 4 21 5 19 6 18 7 16 8 15 9 14 10 13 11 5 12
REMARK SMILES IDX 6 13 7 14 8 15 12 16 10 17 9 18 11 20 20 22 17 24
REMARK H PARENT 9 19 11 21 20 23 17 25
REMARK Flexibility Score: inf
ROOT
ATOM      1  C   UNL     1      10.430 -25.616 -23.379  1.00  0.00     0.138 A 
ATOM      2  C   UNL     1      11.683 -25.121 -23.768  1.00  0.00     0.100 A 
ATOM      3  C   UNL     1      12.030 -25.105 -25.119  1.00  0.00     0.197 A 
ATOM      4  O   UNL     1      13.184 -24.713 -25.431  1.00  0.00    -0.289 OA
ATOM      5  C   UNL     1      11.104 -25.558 -26.088  1.00  0.00     0.107 A 
ATOM      6  C   UNL     1      11.332 -25.550 -27.497  1.00  0.00     0.134 A 
ATOM      7  C   UNL     1      10.388 -26.132 -28.352  1.00  0.00     0.093 A 
ATOM      8  C   UNL     1       9.199 -26.666 -27.857  1.00  0.00     0.123 A 
ATOM      9  C   UNL     1       8.940 -26.631 -26.486  1.00  0.00     0.094 A 
ATOM     10  C   UNL     1       9.878 -26.088 -25.603  1.00  0.00     0.146 A 
ATOM     11  O   UNL     1       9.601 -26.087 -24.304  1.00  0.00    -0.456 OA
ENDROOT
BRANCH   1  12
ATOM     12  C   UNL     1      10.011 -25.654 -21.956  1.00  0.00     0.021 A 
ATOM     13  C   UNL     1      10.124 -26.855 -21.234  1.00  0.00     0.016 A 
ATOM     14  C   UNL     1       9.729 -26.921 -19.895  1.00  0.00     0.051 A 
ATOM     15  C   UNL     1       9.205 -25.790 -19.257  1.00  0.00     0.157 A 
ATOM     16  C   UNL     1       9.471 -24.524 -21.311  1.00  0.00     0.062 A 
ATOM     17  C   UNL     1       9.073 -24.588 -19.970  1.00  0.00     0.158 A 
BRANCH  15  18
ATOM     18  O   UNL     1       8.813 -25.858 -17.921  1.00  0.00    -0.504 OA
ATOM     19  H   UNL     1       9.054 -25.130 -17.259  1.00  0.00     0.293 HD
ENDBRANCH  15  18
BRANCH  17  20
ATOM     20  O   UNL     1       8.544 -23.447 -19.366  1.00  0.00    -0.504 OA
ATOM     21  H   UNL     1       7.914 -22.823 -19.855  1.00  0.00     0.293 HD
ENDBRANCH  17  20
ENDBRANCH   1  12
BRANCH   6  22
ATOM     22  O   UNL     1      12.447 -24.967 -28.104  1.00  0.00    -0.507 OA
ATOM     23  H   UNL     1      13.370 -25.374 -28.128  1.00  0.00     0.293 HD
ENDBRANCH   6  22
BRANCH   8  24
ATOM     24  O   UNL     1       8.275 -27.224 -28.739  1.00  0.00    -0.508 OA
ATOM     25  H   UNL     1       7.359 -27.524 -28.427  1.00  0.00     0.293 HD
ENDBRANCH   8  24
TORSDOF 5
ENDMDL
MODEL 7
REMARK VINA RESULT:    -5.583     10.770     13.190
REMARK INTER + INTRA:          -6.827
REMARK INTER:                  -6.510
REMARK INTRA:                  -0.318
REMARK UNBOUND:                -0.265
REMARK SMILES O=c1cc(-c2ccc(O)c(O)c2)oc2cc(O)cc(O)c12
REMARK SMILES IDX 4 1 3 2 2 3 1 4 21 5 19 6 18 7 16 8 15 9 14 10 13 11 5 12
REMARK SMILES IDX 6 13 7 14 8 15 12 16 10 17 9 18 11 20 20 22 17 24
REMARK H PARENT 9 19 11 21 20 23 17 25
REMARK Flexibility Score: inf
ROOT
ATOM      1  C   UNL     1      20.613 -23.015 -26.931  1.00  0.00     0.138 A 
ATOM      2  C   UNL     1      20.371 -22.605 -25.612  1.00  0.00     0.100 A 
ATOM      3  C   UNL     1      20.497 -21.257 -25.276  1.00  0.00     0.197 A 
ATOM      4  O   UNL     1      20.333 -20.928 -24.072  1.00  0.00    -0.289 OA
ATOM      5  C   UNL     1      20.836 -20.311 -26.272  1.00  0.00     0.107 A 
ATOM      6  C   UNL     1      20.952 -18.906 -26.054  1.00  0.00     0.134 A 
ATOM      7  C   UNL     1      21.407 -18.081 -27.090  1.00  0.00     0.093 A 
ATOM      8  C   UNL     1      21.693 -18.602 -28.352  1.00  0.00     0.123 A 
ATOM      9  C   UNL     1      21.532 -19.967 -28.593  1.00  0.00     0.094 A 
ATOM     10  C   UNL     1      21.112 -20.820 -27.569  1.00  0.00     0.146 A 
ATOM     11  O   UNL     1      20.984 -22.116 -27.835  1.00  0.00    -0.456 OA
ENDROOT
BRANCH   1  12
ATOM     12  C   UNL     1      20.493 -24.436 -27.343  1.00  0.00     0.021 A 
ATOM     13  C   UNL     1      20.009 -25.384 -26.424  1.00  0.00     0.016 A 
ATOM     14  C   UNL     1      19.894 -26.729 -26.783  1.00  0.00     0.051 A 
ATOM     15  C   UNL     1      20.268 -27.153 -28.064  1.00  0.00     0.157 A 
ATOM     16  C   UNL     1      20.880 -24.872 -28.626  1.00  0.00     0.062 A 
ATOM     17  C   UNL     1      20.767 -26.220 -28.987  1.00  0.00     0.158 A 
BRANCH  15  18
ATOM     18  O   UNL     1      20.151 -28.495 -28.420  1.00  0.00    -0.504 OA
ATOM     19  H   UNL     1      20.937 -29.017 -28.791  1.00  0.00     0.293 HD
ENDBRANCH  15  18
BRANCH  17  20
ATOM     20  O   UNL     1      21.159 -26.612 -30.267  1.00  0.00    -0.504 OA
ATOM     21  H   UNL     1      22.083 -26.412 -30.632  1.00  0.00     0.293 HD
ENDBRANCH  17  20
ENDBRANCH   1  12
BRANCH   6  22
ATOM     22  O   UNL     1      20.611 -18.271 -24.856  1.00  0.00    -0.507 OA
ATOM     23  H   UNL     1      21.119 -18.363 -23.989  1.00  0.00     0.293 HD
ENDBRANCH   6  22
BRANCH   8  24
ATOM     24  O   UNL     1      22.130 -17.749 -29.364  1.00  0.00    -0.508 OA
ATOM     25  H   UNL     1      21.502 -17.092 -29.811  1.00  0.00     0.293 HD
ENDBRANCH   8  24
TORSDOF 5
ENDMDL
MODEL 8
REMARK VINA RESULT:    -5.488      3.856      7.424
REMARK INTER + INTRA:          -6.715
REMARK INTER:                  -6.417
REMARK INTRA:                  -0.298
REMARK UNBOUND:                -0.265
REMARK SMILES O=c1cc(-c2ccc(O)c(O)c2)oc2cc(O)cc(O)c12
REMARK SMILES IDX 4 1 3 2 2 3 1 4 21 5 19 6 18 7 16 8 15 9 14 10 13 11 5 12
REMARK SMILES IDX 6 13 7 14 8 15 12 16 10 17 9 18 11 20 20 22 17 24
REMARK H PARENT 9 19 11 21 20 23 17 25
REMARK Flexibility Score: inf
ROOT
ATOM      1  C   UNL     1      11.736 -24.326 -30.570  1.00  0.00     0.138 A 
ATOM      2  C   UNL     1      11.335 -25.340 -31.452  1.00  0.00     0.100 A 
ATOM      3  C   UNL     1      10.574 -26.407 -30.977  1.00  0.00     0.197 A 
ATOM      4  O   UNL     1      10.282 -27.332 -31.778  1.00  0.00    -0.289 OA
ATOM      5  C   UNL     1      10.185 -26.443 -29.616  1.00  0.00     0.107 A 
ATOM      6  C   UNL     1       9.375 -27.460 -29.029  1.00  0.00     0.134 A 
ATOM      7  C   UNL     1       9.151 -27.452 -27.646  1.00  0.00     0.093 A 
ATOM      8  C   UNL     1       9.658 -26.433 -26.841  1.00  0.00     0.123 A 
ATOM      9  C   UNL     1      10.407 -25.403 -27.412  1.00  0.00     0.094 A 
ATOM     10  C   UNL     1      10.676 -25.402 -28.783  1.00  0.00     0.146 A 
ATOM     11  O   UNL     1      11.405 -24.412 -29.286  1.00  0.00    -0.456 OA
ENDROOT
BRANCH   1  12
ATOM     12  C   UNL     1      12.546 -23.168 -31.024  1.00  0.00     0.021 A 
ATOM     13  C   UNL     1      12.284 -22.590 -32.279  1.00  0.00     0.016 A 
ATOM     14  C   UNL     1      13.037 -21.505 -32.733  1.00  0.00     0.051 A 
ATOM     15  C   UNL     1      14.071 -20.983 -31.947  1.00  0.00     0.157 A 
ATOM     16  C   UNL     1      13.597 -22.646 -30.244  1.00  0.00     0.062 A 
ATOM     17  C   UNL     1      14.353 -21.560 -30.698  1.00  0.00     0.158 A 
BRANCH  15  18
ATOM     18  O   UNL     1      14.820 -19.899 -32.403  1.00  0.00    -0.504 OA
ATOM     19  H   UNL     1      15.766 -19.735 -32.080  1.00  0.00     0.293 HD
ENDBRANCH  15  18
BRANCH  17  20
ATOM     20  O   UNL     1      15.385 -21.070 -29.896  1.00  0.00    -0.504 OA
ATOM     21  H   UNL     1      15.773 -20.144 -30.024  1.00  0.00     0.293 HD
ENDBRANCH  17  20
ENDBRANCH   1  12
BRANCH   6  22
ATOM     22  O   UNL     1       8.750 -28.477 -29.756  1.00  0.00    -0.507 OA
ATOM     23  H   UNL     1       7.901 -28.947 -29.478  1.00  0.00     0.293 HD
ENDBRANCH   6  22
BRANCH   8  24
ATOM     24  O   UNL     1       9.404 -26.450 -25.471  1.00  0.00    -0.508 OA
ATOM     25  H   UNL     1       9.840 -25.785 -24.842  1.00  0.00     0.293 HD
ENDBRANCH   8  24
TORSDOF 5
ENDMDL
MODEL 9
REMARK VINA RESULT:    -5.423     10.643     13.003
REMARK INTER + INTRA:          -6.639
REMARK INTER:                  -6.376
REMARK INTRA:                  -0.263
REMARK UNBOUND:                -0.265
REMARK SMILES O=c1cc(-c2ccc(O)c(O)c2)oc2cc(O)cc(O)c12
REMARK SMILES IDX 4 1 3 2 2 3 1 4 21 5 19 6 18 7 16 8 15 9 14 10 13 11 5 12
REMARK SMILES IDX 6 13 7 14 8 15 12 16 10 17 9 18 11 20 20 22 17 24
REMARK H PARENT 9 19 11 21 20 23 17 25
REMARK Flexibility Score: inf
ROOT
ATOM      1  C   UNL     1      20.679 -20.804 -28.061  1.00  0.00     0.138 A 
ATOM      2  C   UNL     1      19.298 -20.747 -28.295  1.00  0.00     0.100 A 
ATOM      3  C   UNL     1      18.567 -21.931 -28.393  1.00  0.00     0.197 A 
ATOM      4  O   UNL     1      17.340 -21.850 -28.665  1.00  0.00    -0.289 OA
ATOM      5  C   UNL     1      19.217 -23.176 -28.224  1.00  0.00     0.107 A 
ATOM      6  C   UNL     1      18.565 -24.445 -28.262  1.00  0.00     0.134 A 
ATOM      7  C   UNL     1      19.331 -25.616 -28.198  1.00  0.00     0.093 A 
ATOM      8  C   UNL     1      20.715 -25.564 -28.037  1.00  0.00     0.123 A 
ATOM      9  C   UNL     1      21.358 -24.329 -27.944  1.00  0.00     0.094 A 
ATOM     10  C   UNL     1      20.625 -23.143 -28.040  1.00  0.00     0.146 A 
ATOM     11  O   UNL     1      21.275 -21.987 -27.961  1.00  0.00    -0.456 OA
ENDROOT
BRANCH   1  12
ATOM     12  C   UNL     1      21.505 -19.575 -27.947  1.00  0.00     0.021 A 
ATOM     13  C   UNL     1      21.911 -19.130 -26.677  1.00  0.00     0.016 A 
ATOM     14  C   UNL     1      22.682 -17.973 -26.541  1.00  0.00     0.051 A 
ATOM     15  C   UNL     1      23.051 -17.234 -27.671  1.00  0.00     0.157 A 
ATOM     16  C   UNL     1      21.869 -18.819 -29.079  1.00  0.00     0.062 A 
ATOM     17  C   UNL     1      22.640 -17.658 -28.945  1.00  0.00     0.158 A 
BRANCH  15  18
ATOM     18  O   UNL     1      23.821 -16.080 -27.533  1.00  0.00    -0.504 OA
ATOM     19  H   UNL     1      23.394 -15.167 -27.428  1.00  0.00     0.293 HD
ENDBRANCH  15  18
BRANCH  17  20
ATOM     20  O   UNL     1      22.982 -16.937 -30.090  1.00  0.00    -0.504 OA
ATOM     21  H   UNL     1      22.797 -15.945 -30.176  1.00  0.00     0.293 HD
ENDBRANCH  17  20
ENDBRANCH   1  12
BRANCH   6  22
ATOM     22  O   UNL     1      17.179 -24.610 -28.336  1.00  0.00    -0.507 OA
ATOM     23  H   UNL     1      16.673 -25.407 -27.981  1.00  0.00     0.293 HD
ENDBRANCH   6  22
BRANCH   8  24
ATOM     24  O   UNL     1      21.443 -26.750 -27.962  1.00  0.00    -0.508 OA
ATOM     25  H   UNL     1      22.344 -26.849 -28.416  1.00  0.00     0.293 HD
ENDBRANCH   8  24
TORSDOF 5
ENDMDL
