MODEL 1
REMARK VINA RESULT:    -6.361      0.000      0.000
REMARK INTER + INTRA:          -7.966
REMARK INTER:                  -7.662
REMARK INTRA:                  -0.304
REMARK UNBOUND:                -0.304
REMARK SMILES O=c1c(O)c(-c2ccc(O)c(O)c2)oc2cc(O)cc(O)c12
REMARK SMILES IDX 5 1 3 2 2 3 1 4 22 5 20 6 19 7 17 8 16 9 15 10 14 11 6 12
REMARK SMILES IDX 7 13 8 14 9 15 13 16 11 17 10 18 12 20 4 22 21 24 18 26
REMARK H PARENT 10 19 12 21 4 23 21 25 18 27
REMARK Flexibility Score: inf
ROOT
ATOM      1  C   UNL     1      20.530  30.816  20.502  1.00  0.00     0.180 A 
ATOM      2  C   UNL     1      20.861  30.702  21.863  1.00  0.00     0.208 A 
ATOM      3  C   UNL     1      21.770  31.615  22.422  1.00  0.00     0.238 A 
ATOM      4  O   UNL     1      22.119  31.459  23.621  1.00  0.00    -0.285 OA
ATOM      5  C   UNL     1      22.293  32.665  21.630  1.00  0.00     0.111 A 
ATOM      6  C   UNL     1      23.186  33.673  22.104  1.00  0.00     0.134 A 
ATOM      7  C   UNL     1      23.721  34.601  21.202  1.00  0.00     0.093 A 
ATOM      8  C   UNL     1      23.346  34.597  19.855  1.00  0.00     0.123 A 
ATOM      9  C   UNL     1      22.434  33.651  19.395  1.00  0.00     0.094 A 
ATOM     10  C   UNL     1      21.912  32.689  20.262  1.00  0.00     0.146 A 
ATOM     11  O   UNL     1      21.062  31.793  19.775  1.00  0.00    -0.452 OA
ENDROOT
BRANCH   1  12
ATOM     12  C   UNL     1      19.592  29.884  19.837  1.00  0.00     0.025 A 
ATOM     13  C   UNL     1      18.200  30.037  19.956  1.00  0.00     0.016 A 
ATOM     14  C   UNL     1      17.334  29.130  19.340  1.00  0.00     0.051 A 
ATOM     15  C   UNL     1      17.845  28.051  18.609  1.00  0.00     0.157 A 
ATOM     16  C   UNL     1      20.100  28.788  19.119  1.00  0.00     0.062 A 
ATOM     17  C   UNL     1      19.231  27.878  18.501  1.00  0.00     0.158 A 
BRANCH  15  18
ATOM     18  O   UNL     1      16.985  27.145  17.991  1.00  0.00    -0.504 OA
ATOM     19  H   UNL     1      16.352  27.434  17.254  1.00  0.00     0.293 HD
ENDBRANCH  15  18
BRANCH  17  20
ATOM     20  O   UNL     1      19.737  26.799  17.777  1.00  0.00    -0.504 OA
ATOM     21  H   UNL     1      19.375  25.861  17.902  1.00  0.00     0.293 HD
ENDBRANCH  17  20
ENDBRANCH   1  12
BRANCH   2  22
ATOM     22  O   UNL     1      20.277  29.704  22.647  1.00  0.00    -0.502 OA
ATOM     23  H   UNL     1      19.273  29.597  22.731  1.00  0.00     0.293 HD
ENDBRANCH   2  22
BRANCH   6  24
ATOM     24  O   UNL     1      23.557  33.824  23.443  1.00  0.00    -0.507 OA
ATOM     25  H   UNL     1      23.128  33.344  24.219  1.00  0.00     0.293 HD
ENDBRANCH   6  24
BRANCH   8  26
ATOM     26  O   UNL     1      23.871  35.535  18.969  1.00  0.00    -0.508 OA
ATOM     27  H   UNL     1      23.765  35.434  17.966  1.00  0.00     0.293 HD
ENDBRANCH   8  26
TORSDOF 6
ENDMDL
MODEL 2
REMARK VINA RESULT:    -6.292      3.981      7.486
REMARK INTER + INTRA:          -7.883
REMARK INTER:                  -7.784
REMARK INTRA:                  -0.099
REMARK UNBOUND:                -0.304
REMARK SMILES O=c1c(O)c(-c2ccc(O)c(O)c2)oc2cc(O)cc(O)c12
REMARK SMILES IDX 5 1 3 2 2 3 1 4 22 5 20 6 19 7 17 8 16 9 15 10 14 11 6 12
REMARK SMILES IDX 7 13 8 14 9 15 13 16 11 17 10 18 12 20 4 22 21 24 18 26
REMARK H PARENT 10 19 12 21 4 23 21 25 18 27
REMARK Flexibility Score: inf
ROOT
ATOM      1  C   UNL     1      21.487  32.801  25.219  1.00  0.00     0.180 A 
ATOM      2  C   UNL     1      22.232  33.835  24.627  1.00  0.00     0.208 A 
ATOM      3  C   UNL     1      22.452  33.808  23.240  1.00  0.00     0.238 A 
ATOM      4  O   UNL     1      23.182  34.696  22.728  1.00  0.00    -0.285 OA
ATOM      5  C   UNL     1      21.877  32.780  22.454  1.00  0.00     0.111 A 
ATOM      6  C   UNL     1      21.997  32.679  21.035  1.00  0.00     0.134 A 
ATOM      7  C   UNL     1      21.474  31.559  20.376  1.00  0.00     0.093 A 
ATOM      8  C   UNL     1      20.781  30.568  21.076  1.00  0.00     0.123 A 
ATOM      9  C   UNL     1      20.612  30.686  22.454  1.00  0.00     0.094 A 
ATOM     10  C   UNL     1      21.154  31.772  23.145  1.00  0.00     0.146 A 
ATOM     11  O   UNL     1      20.988  31.832  24.461  1.00  0.00    -0.452 OA
ENDROOT
BRANCH   1  12
ATOM     12  C   UNL     1      21.225  32.752  26.676  1.00  0.00     0.025 A 
ATOM     13  C   UNL     1      20.562  33.800  27.336  1.00  0.00     0.016 A 
ATOM     14  C   UNL     1      20.348  33.743  28.716  1.00  0.00     0.051 A 
ATOM     15  C   UNL     1      20.805  32.646  29.456  1.00  0.00     0.157 A 
ATOM     16  C   UNL     1      21.700  31.663  27.426  1.00  0.00     0.062 A 
ATOM     17  C   UNL     1      21.485  31.605  28.810  1.00  0.00     0.158 A 
BRANCH  15  18
ATOM     18  O   UNL     1      20.592  32.584  30.832  1.00  0.00    -0.504 OA
ATOM     19  H   UNL     1      21.272  32.947  31.489  1.00  0.00     0.293 HD
ENDBRANCH  15  18
BRANCH  17  20
ATOM     20  O   UNL     1      21.946  30.517  29.551  1.00  0.00    -0.504 OA
ATOM     21  H   UNL     1      21.369  30.076  30.259  1.00  0.00     0.293 HD
ENDBRANCH  17  20
ENDBRANCH   1  12
BRANCH   2  22
ATOM     22  O   UNL     1      22.727  34.882  25.409  1.00  0.00    -0.502 OA
ATOM     23  H   UNL     1      23.710  34.971  25.638  1.00  0.00     0.293 HD
ENDBRANCH   2  22
BRANCH   6  24
ATOM     24  O   UNL     1      22.591  33.653  20.227  1.00  0.00    -0.507 OA
ATOM     25  H   UNL     1      23.560  33.929  20.272  1.00  0.00     0.293 HD
ENDBRANCH   6  24
BRANCH   8  26
ATOM     26  O   UNL     1      20.250  29.467  20.410  1.00  0.00    -0.508 OA
ATOM     27  H   UNL     1      20.532  28.520  20.640  1.00  0.00     0.293 HD
ENDBRANCH   8  26
TORSDOF 6
ENDMDL
MODEL 3
REMARK VINA RESULT:    -6.126      3.199      5.150
REMARK INTER + INTRA:          -7.684
REMARK INTER:                  -7.400
REMARK INTRA:                  -0.284
REMARK UNBOUND:                -0.304
REMARK SMILES O=c1c(O)c(-c2ccc(O)c(O)c2)oc2cc(O)cc(O)c12
REMARK SMILES IDX 5 1 3 2 2 3 1 4 22 5 20 6 19 7 17 8 16 9 15 10 14 11 6 12
REMARK SMILES IDX 7 13 8 14 9 15 13 16 11 17 10 18 12 20 4 22 21 24 18 26
REMARK H PARENT 10 19 12 21 4 23 21 25 18 27
REMARK Flexibility Score: inf
ROOT
ATOM      1  C   UNL     1      21.295  32.395  22.505  1.00  0.00     0.180 A 
ATOM      2  C   UNL     1      21.316  31.092  23.033  1.00  0.00     0.208 A 
ATOM      3  C   UNL     1      21.456  30.921  24.420  1.00  0.00     0.238 A 
ATOM      4  O   UNL     1      21.549  29.752  24.875  1.00  0.00    -0.285 OA
ATOM      5  C   UNL     1      21.515  32.053  25.268  1.00  0.00     0.111 A 
ATOM      6  C   UNL     1      21.611  31.997  26.691  1.00  0.00     0.134 A 
ATOM      7  C   UNL     1      21.770  33.182  27.420  1.00  0.00     0.093 A 
ATOM      8  C   UNL     1      21.773  34.426  26.782  1.00  0.00     0.123 A 
ATOM      9  C   UNL     1      21.625  34.493  25.399  1.00  0.00     0.094 A 
ATOM     10  C   UNL     1      21.502  33.327  24.641  1.00  0.00     0.146 A 
ATOM     11  O   UNL     1      21.386  33.438  23.323  1.00  0.00    -0.452 OA
ENDROOT
BRANCH   1  12
ATOM     12  C   UNL     1      21.165  32.657  21.054  1.00  0.00     0.025 A 
ATOM     13  C   UNL     1      19.927  32.548  20.398  1.00  0.00     0.016 A 
ATOM     14  C   UNL     1      19.834  32.775  19.023  1.00  0.00     0.051 A 
ATOM     15  C   UNL     1      20.976  33.101  18.282  1.00  0.00     0.157 A 
ATOM     16  C   UNL     1      22.312  32.963  20.303  1.00  0.00     0.062 A 
ATOM     17  C   UNL     1      22.219  33.192  18.922  1.00  0.00     0.158 A 
BRANCH  15  18
ATOM     18  O   UNL     1      20.887  33.330  16.910  1.00  0.00    -0.504 OA
ATOM     19  H   UNL     1      20.005  33.563  16.468  1.00  0.00     0.293 HD
ENDBRANCH  15  18
BRANCH  17  20
ATOM     20  O   UNL     1      23.356  33.509  18.181  1.00  0.00    -0.504 OA
ATOM     21  H   UNL     1      23.292  33.813  17.216  1.00  0.00     0.293 HD
ENDBRANCH  17  20
ENDBRANCH   1  12
BRANCH   2  22
ATOM     22  O   UNL     1      21.180  29.989  22.186  1.00  0.00    -0.502 OA
ATOM     23  H   UNL     1      21.239  30.067  21.178  1.00  0.00     0.293 HD
ENDBRANCH   2  22
BRANCH   6  24
ATOM     24  O   UNL     1      21.531  30.816  27.436  1.00  0.00    -0.507 OA
ATOM     25  H   UNL     1      21.222  29.926  27.077  1.00  0.00     0.293 HD
ENDBRANCH   6  24
BRANCH   8  26
ATOM     26  O   UNL     1      21.915  35.600  27.517  1.00  0.00    -0.508 OA
ATOM     27  H   UNL     1      21.455  36.460  27.238  1.00  0.00     0.293 HD
ENDBRANCH   8  26
TORSDOF 6
ENDMDL
MODEL 4
REMARK VINA RESULT:    -6.081      7.484      9.819
REMARK INTER + INTRA:          -7.630
REMARK INTER:                  -7.315
REMARK INTRA:                  -0.315
REMARK UNBOUND:                -0.304
REMARK SMILES O=c1c(O)c(-c2ccc(O)c(O)c2)oc2cc(O)cc(O)c12
REMARK SMILES IDX 5 1 3 2 2 3 1 4 22 5 20 6 19 7 17 8 16 9 15 10 14 11 6 12
REMARK SMILES IDX 7 13 8 14 9 15 13 16 11 17 10 18 12 20 4 22 21 24 18 26
REMARK H PARENT 10 19 12 21 4 23 21 25 18 27
REMARK Flexibility Score: inf
ROOT
ATOM      1  C   UNL     1      21.043  32.828  28.714  1.00  0.00     0.180 A 
ATOM      2  C   UNL     1      19.732  32.922  29.210  1.00  0.00     0.208 A 
ATOM      3  C   UNL     1      19.536  33.110  30.588  1.00  0.00     0.238 A 
ATOM      4  O   UNL     1      18.360  33.118  31.034  1.00  0.00    -0.285 OA
ATOM      5  C   UNL     1      20.654  33.260  31.445  1.00  0.00     0.111 A 
ATOM      6  C   UNL     1      20.573  33.501  32.849  1.00  0.00     0.134 A 
ATOM      7  C   UNL     1      21.746  33.527  33.614  1.00  0.00     0.093 A 
ATOM      8  C   UNL     1      23.001  33.384  33.015  1.00  0.00     0.123 A 
ATOM      9  C   UNL     1      23.092  33.203  31.637  1.00  0.00     0.094 A 
ATOM     10  C   UNL     1      21.938  33.135  30.853  1.00  0.00     0.146 A 
ATOM     11  O   UNL     1      22.072  32.940  29.547  1.00  0.00    -0.452 OA
ENDROOT
BRANCH   1  12
ATOM     12  C   UNL     1      21.330  32.615  27.277  1.00  0.00     0.025 A 
ATOM     13  C   UNL     1      21.556  33.696  26.407  1.00  0.00     0.016 A 
ATOM     14  C   UNL     1      21.799  33.471  25.050  1.00  0.00     0.051 A 
ATOM     15  C   UNL     1      21.808  32.167  24.540  1.00  0.00     0.157 A 
ATOM     16  C   UNL     1      21.318  31.310  26.757  1.00  0.00     0.062 A 
ATOM     17  C   UNL     1      21.563  31.084  25.394  1.00  0.00     0.158 A 
BRANCH  15  18
ATOM     18  O   UNL     1      22.052  31.939  23.187  1.00  0.00    -0.504 OA
ATOM     19  H   UNL     1      22.987  31.996  22.801  1.00  0.00     0.293 HD
ENDBRANCH  15  18
BRANCH  17  20
ATOM     20  O   UNL     1      21.565  29.787  24.883  1.00  0.00    -0.504 OA
ATOM     21  H   UNL     1      22.300  29.462  24.266  1.00  0.00     0.293 HD
ENDBRANCH  17  20
ENDBRANCH   1  12
BRANCH   2  22
ATOM     22  O   UNL     1      18.643  32.847  28.337  1.00  0.00    -0.502 OA
ATOM     23  H   UNL     1      18.241  31.965  28.044  1.00  0.00     0.293 HD
ENDBRANCH   2  22
BRANCH   6  24
ATOM     24  O   UNL     1      19.380  33.745  33.536  1.00  0.00    -0.507 OA
ATOM     25  H   UNL     1      19.293  33.812  34.538  1.00  0.00     0.293 HD
ENDBRANCH   6  24
BRANCH   8  26
ATOM     26  O   UNL     1      24.163  33.427  33.781  1.00  0.00    -0.508 OA
ATOM     27  H   UNL     1      24.130  33.514  34.791  1.00  0.00     0.293 HD
ENDBRANCH   8  26
TORSDOF 6
ENDMDL
MODEL 5
REMARK VINA RESULT:    -5.945     15.402     17.483
REMARK INTER + INTRA:          -7.465
REMARK INTER:                  -7.145
REMARK INTRA:                  -0.320
REMARK UNBOUND:                -0.304
REMARK SMILES O=c1c(O)c(-c2ccc(O)c(O)c2)oc2cc(O)cc(O)c12
REMARK SMILES IDX 5 1 3 2 2 3 1 4 22 5 20 6 19 7 17 8 16 9 15 10 14 11 6 12
REMARK SMILES IDX 7 13 8 14 9 15 13 16 11 17 10 18 12 20 4 22 21 24 18 26
REMARK H PARENT 10 19 12 21 4 23 21 25 18 27
REMARK Flexibility Score: inf
ROOT
ATOM      1  C   UNL     1      19.407  18.478  30.554  1.00  0.00     0.180 A 
ATOM      2  C   UNL     1      18.665  19.654  30.756  1.00  0.00     0.208 A 
ATOM      3  C   UNL     1      18.060  19.871  32.005  1.00  0.00     0.238 A 
ATOM      4  O   UNL     1      17.334  20.888  32.154  1.00  0.00    -0.285 OA
ATOM      5  C   UNL     1      18.252  18.939  33.054  1.00  0.00     0.111 A 
ATOM      6  C   UNL     1      17.723  19.080  34.372  1.00  0.00     0.134 A 
ATOM      7  C   UNL     1      17.890  18.043  35.298  1.00  0.00     0.093 A 
ATOM      8  C   UNL     1      18.620  16.896  34.972  1.00  0.00     0.123 A 
ATOM      9  C   UNL     1      19.185  16.774  33.706  1.00  0.00     0.094 A 
ATOM     10  C   UNL     1      19.005  17.775  32.749  1.00  0.00     0.146 A 
ATOM     11  O   UNL     1      19.543  17.606  31.547  1.00  0.00    -0.452 OA
ENDROOT
BRANCH   1  12
ATOM     12  C   UNL     1      20.062  18.171  29.262  1.00  0.00     0.025 A 
ATOM     13  C   UNL     1      21.390  18.553  29.005  1.00  0.00     0.016 A 
ATOM     14  C   UNL     1      21.979  18.274  27.769  1.00  0.00     0.051 A 
ATOM     15  C   UNL     1      21.247  17.623  26.769  1.00  0.00     0.157 A 
ATOM     16  C   UNL     1      19.325  17.537  28.248  1.00  0.00     0.062 A 
ATOM     17  C   UNL     1      19.916  17.256  27.008  1.00  0.00     0.158 A 
BRANCH  15  18
ATOM     18  O   UNL     1      21.831  17.342  25.535  1.00  0.00    -0.504 OA
ATOM     19  H   UNL     1      21.828  18.019  24.782  1.00  0.00     0.293 HD
ENDBRANCH  15  18
BRANCH  17  20
ATOM     20  O   UNL     1      19.187  16.614  26.007  1.00  0.00    -0.504 OA
ATOM     21  H   UNL     1      19.604  15.899  25.424  1.00  0.00     0.293 HD
ENDBRANCH  17  20
ENDBRANCH   1  12
BRANCH   2  22
ATOM     22  O   UNL     1      18.550  20.597  29.732  1.00  0.00    -0.502 OA
ATOM     23  H   UNL     1      18.285  21.560  29.907  1.00  0.00     0.293 HD
ENDBRANCH   2  22
BRANCH   6  24
ATOM     24  O   UNL     1      17.055  20.220  34.831  1.00  0.00    -0.507 OA
ATOM     25  H   UNL     1      16.882  20.437  35.801  1.00  0.00     0.293 HD
ENDBRANCH   6  24
BRANCH   8  26
ATOM     26  O   UNL     1      18.794  15.877  35.905  1.00  0.00    -0.508 OA
ATOM     27  H   UNL     1      18.252  15.021  35.863  1.00  0.00     0.293 HD
ENDBRANCH   8  26
TORSDOF 6
ENDMDL
MODEL 6
REMARK VINA RESULT:    -5.944      3.910      6.702
REMARK INTER + INTRA:          -7.464
REMARK INTER:                  -7.231
REMARK INTRA:                  -0.233
REMARK UNBOUND:                -0.304
REMARK SMILES O=c1c(O)c(-c2ccc(O)c(O)c2)oc2cc(O)cc(O)c12
REMARK SMILES IDX 5 1 3 2 2 3 1 4 22 5 20 6 19 7 17 8 16 9 15 10 14 11 6 12
REMARK SMILES IDX 7 13 8 14 9 15 13 16 11 17 10 18 12 20 4 22 21 24 18 26
REMARK H PARENT 10 19 12 21 4 23 21 25 18 27
REMARK Flexibility Score: inf
ROOT
ATOM      1  C   UNL     1      21.624  33.186  24.350  1.00  0.00     0.180 A 
ATOM      2  C   UNL     1      20.531  32.899  23.514  1.00  0.00     0.208 A 
ATOM      3  C   UNL     1      20.650  33.130  22.134  1.00  0.00     0.238 A 
ATOM      4  O   UNL     1      19.644  32.942  21.403  1.00  0.00    -0.285 OA
ATOM      5  C   UNL     1      21.878  33.591  21.599  1.00  0.00     0.111 A 
ATOM      6  C   UNL     1      22.125  33.817  20.211  1.00  0.00     0.134 A 
ATOM      7  C   UNL     1      23.345  34.374  19.809  1.00  0.00     0.093 A 
ATOM      8  C   UNL     1      24.350  34.656  20.738  1.00  0.00     0.123 A 
ATOM      9  C   UNL     1      24.138  34.388  22.088  1.00  0.00     0.094 A 
ATOM     10  C   UNL     1      22.918  33.867  22.525  1.00  0.00     0.146 A 
ATOM     11  O   UNL     1      22.752  33.648  23.823  1.00  0.00    -0.452 OA
ENDROOT
BRANCH   1  12
ATOM     12  C   UNL     1      21.570  32.983  25.816  1.00  0.00     0.025 A 
ATOM     13  C   UNL     1      21.542  34.070  26.705  1.00  0.00     0.016 A 
ATOM     14  C   UNL     1      21.518  33.853  28.085  1.00  0.00     0.051 A 
ATOM     15  C   UNL     1      21.533  32.550  28.596  1.00  0.00     0.157 A 
ATOM     16  C   UNL     1      21.607  31.677  26.333  1.00  0.00     0.062 A 
ATOM     17  C   UNL     1      21.582  31.459  27.718  1.00  0.00     0.158 A 
BRANCH  15  18
ATOM     18  O   UNL     1      21.507  32.330  29.972  1.00  0.00    -0.504 OA
ATOM     19  H   UNL     1      20.740  32.660  30.546  1.00  0.00     0.293 HD
ENDBRANCH  15  18
BRANCH  17  20
ATOM     20  O   UNL     1      21.605  30.162  28.229  1.00  0.00    -0.504 OA
ATOM     21  H   UNL     1      21.088  29.913  29.065  1.00  0.00     0.293 HD
ENDBRANCH  17  20
ENDBRANCH   1  12
BRANCH   2  22
ATOM     22  O   UNL     1      19.354  32.373  24.052  1.00  0.00    -0.502 OA
ATOM     23  H   UNL     1      19.275  31.407  24.348  1.00  0.00     0.293 HD
ENDBRANCH   2  22
BRANCH   6  24
ATOM     24  O   UNL     1      21.226  33.490  19.191  1.00  0.00    -0.507 OA
ATOM     25  H   UNL     1      20.592  34.138  18.750  1.00  0.00     0.293 HD
ENDBRANCH   6  24
BRANCH   8  26
ATOM     26  O   UNL     1      25.567  35.195  20.326  1.00  0.00    -0.508 OA
ATOM     27  H   UNL     1      26.433  34.981  20.808  1.00  0.00     0.293 HD
ENDBRANCH   8  26
TORSDOF 6
ENDMDL
MODEL 7
REMARK VINA RESULT:    -5.858      1.945      7.212
REMARK INTER + INTRA:          -7.360
REMARK INTER:                  -7.030
REMARK INTRA:                  -0.331
REMARK UNBOUND:                -0.304
REMARK SMILES O=c1c(O)c(-c2ccc(O)c(O)c2)oc2cc(O)cc(O)c12
REMARK SMILES IDX 5 1 3 2 2 3 1 4 22 5 20 6 19 7 17 8 16 9 15 10 14 11 6 12
REMARK SMILES IDX 7 13 8 14 9 15 13 16 11 17 10 18 12 20 4 22 21 24 18 26
REMARK H PARENT 10 19 12 21 4 23 21 25 18 27
REMARK Flexibility Score: inf
ROOT
ATOM      1  C   UNL     1      19.549  29.661  19.942  1.00  0.00     0.180 A 
ATOM      2  C   UNL     1      18.144  29.691  19.920  1.00  0.00     0.208 A 
ATOM      3  C   UNL     1      17.457  28.812  19.067  1.00  0.00     0.238 A 
ATOM      4  O   UNL     1      16.204  28.897  18.997  1.00  0.00    -0.285 OA
ATOM      5  C   UNL     1      18.179  27.874  18.290  1.00  0.00     0.111 A 
ATOM      6  C   UNL     1      17.585  26.906  17.426  1.00  0.00     0.134 A 
ATOM      7  C   UNL     1      18.403  26.100  16.625  1.00  0.00     0.093 A 
ATOM      8  C   UNL     1      19.796  26.183  16.703  1.00  0.00     0.123 A 
ATOM      9  C   UNL     1      20.385  27.087  17.584  1.00  0.00     0.094 A 
ATOM     10  C   UNL     1      19.596  27.931  18.368  1.00  0.00     0.146 A 
ATOM     11  O   UNL     1      20.201  28.793  19.177  1.00  0.00    -0.452 OA
ENDROOT
BRANCH   1  12
ATOM     12  C   UNL     1      20.345  30.566  20.802  1.00  0.00     0.025 A 
ATOM     13  C   UNL     1      20.746  31.837  20.355  1.00  0.00     0.016 A 
ATOM     14  C   UNL     1      21.517  32.663  21.176  1.00  0.00     0.051 A 
ATOM     15  C   UNL     1      21.909  32.228  22.448  1.00  0.00     0.157 A 
ATOM     16  C   UNL     1      20.758  30.126  22.071  1.00  0.00     0.062 A 
ATOM     17  C   UNL     1      21.532  30.956  22.895  1.00  0.00     0.158 A 
BRANCH  15  18
ATOM     18  O   UNL     1      22.677  33.051  23.270  1.00  0.00    -0.504 OA
ATOM     19  H   UNL     1      22.924  32.773  24.213  1.00  0.00     0.293 HD
ENDBRANCH  15  18
BRANCH  17  20
ATOM     20  O   UNL     1      21.929  30.522  24.159  1.00  0.00    -0.504 OA
ATOM     21  H   UNL     1      21.608  30.983  25.002  1.00  0.00     0.293 HD
ENDBRANCH  17  20
ENDBRANCH   1  12
BRANCH   2  22
ATOM     22  O   UNL     1      17.447  30.572  20.750  1.00  0.00    -0.502 OA
ATOM     23  H   UNL     1      17.915  31.265  21.323  1.00  0.00     0.293 HD
ENDBRANCH   2  22
BRANCH   6  24
ATOM     24  O   UNL     1      16.208  26.677  17.335  1.00  0.00    -0.507 OA
ATOM     25  H   UNL     1      15.537  27.332  16.964  1.00  0.00     0.293 HD
ENDBRANCH   6  24
BRANCH   8  26
ATOM     26  O   UNL     1      20.602  25.366  15.915  1.00  0.00    -0.508 OA
ATOM     27  H   UNL     1      21.572  25.596  15.729  1.00  0.00     0.293 HD
ENDBRANCH   8  26
TORSDOF 6
ENDMDL
MODEL 8
REMARK VINA RESULT:    -5.763      6.841     10.276
REMARK INTER + INTRA:          -7.246
REMARK INTER:                  -7.148
REMARK INTRA:                  -0.098
REMARK UNBOUND:                -0.304
REMARK SMILES O=c1c(O)c(-c2ccc(O)c(O)c2)oc2cc(O)cc(O)c12
REMARK SMILES IDX 5 1 3 2 2 3 1 4 22 5 20 6 19 7 17 8 16 9 15 10 14 11 6 12
REMARK SMILES IDX 7 13 8 14 9 15 13 16 11 17 10 18 12 20 4 22 21 24 18 26
REMARK H PARENT 10 19 12 21 4 23 21 25 18 27
REMARK Flexibility Score: inf
ROOT
ATOM      1  C   UNL     1      21.560  33.012  28.937  1.00  0.00     0.180 A 
ATOM      2  C   UNL     1      21.573  31.607  28.891  1.00  0.00     0.208 A 
ATOM      3  C   UNL     1      21.516  30.966  27.642  1.00  0.00     0.238 A 
ATOM      4  O   UNL     1      21.452  29.710  27.612  1.00  0.00    -0.285 OA
ATOM      5  C   UNL     1      21.505  31.736  26.454  1.00  0.00     0.111 A 
ATOM      6  C   UNL     1      21.494  31.193  25.134  1.00  0.00     0.134 A 
ATOM      7  C   UNL     1      21.377  32.052  24.034  1.00  0.00     0.093 A 
ATOM      8  C   UNL     1      21.334  33.438  24.203  1.00  0.00     0.123 A 
ATOM      9  C   UNL     1      21.399  33.980  25.485  1.00  0.00     0.094 A 
ATOM     10  C   UNL     1      21.478  33.148  26.604  1.00  0.00     0.146 A 
ATOM     11  O   UNL     1      21.516  33.707  27.807  1.00  0.00    -0.452 OA
ENDROOT
BRANCH   1  12
ATOM     12  C   UNL     1      21.602  33.759  30.215  1.00  0.00     0.025 A 
ATOM     13  C   UNL     1      20.587  34.665  30.567  1.00  0.00     0.016 A 
ATOM     14  C   UNL     1      20.661  35.377  31.767  1.00  0.00     0.051 A 
ATOM     15  C   UNL     1      21.755  35.205  32.624  1.00  0.00     0.157 A 
ATOM     16  C   UNL     1      22.707  33.606  31.068  1.00  0.00     0.062 A 
ATOM     17  C   UNL     1      22.782  34.320  32.272  1.00  0.00     0.158 A 
BRANCH  15  18
ATOM     18  O   UNL     1      21.832  35.913  33.822  1.00  0.00    -0.504 OA
ATOM     19  H   UNL     1      22.524  35.687  34.527  1.00  0.00     0.293 HD
ENDBRANCH  15  18
BRANCH  17  20
ATOM     20  O   UNL     1      23.874  34.156  33.124  1.00  0.00    -0.504 OA
ATOM     21  H   UNL     1      24.439  34.944  33.418  1.00  0.00     0.293 HD
ENDBRANCH  17  20
ENDBRANCH   1  12
BRANCH   2  22
ATOM     22  O   UNL     1      21.660  30.865  30.072  1.00  0.00    -0.502 OA
ATOM     23  H   UNL     1      22.426  30.228  30.258  1.00  0.00     0.293 HD
ENDBRANCH   2  22
BRANCH   6  24
ATOM     24  O   UNL     1      21.621  29.830  24.847  1.00  0.00    -0.507 OA
ATOM     25  H   UNL     1      20.913  29.265  24.403  1.00  0.00     0.293 HD
ENDBRANCH   6  24
BRANCH   8  26
ATOM     26  O   UNL     1      21.233  34.285  23.103  1.00  0.00    -0.508 OA
ATOM     27  H   UNL     1      20.724  34.014  22.269  1.00  0.00     0.293 HD
ENDBRANCH   8  26
TORSDOF 6
ENDMDL
MODEL 9
REMARK VINA RESULT:    -5.718      7.305     10.562
REMARK INTER + INTRA:          -7.192
REMARK INTER:                  -6.862
REMARK INTRA:                  -0.330
REMARK UNBOUND:                -0.304
REMARK SMILES O=c1c(O)c(-c2ccc(O)c(O)c2)oc2cc(O)cc(O)c12
REMARK SMILES IDX 5 1 3 2 2 3 1 4 22 5 20 6 19 7 17 8 16 9 15 10 14 11 6 12
REMARK SMILES IDX 7 13 8 14 9 15 13 16 11 17 10 18 12 20 4 22 21 24 18 26
REMARK H PARENT 10 19 12 21 4 23 21 25 18 27
REMARK Flexibility Score: inf
ROOT
ATOM      1  C   UNL     1      21.210  33.341  29.385  1.00  0.00     0.180 A 
ATOM      2  C   UNL     1      19.807  33.323  29.303  1.00  0.00     0.208 A 
ATOM      3  C   UNL     1      19.199  33.331  28.037  1.00  0.00     0.238 A 
ATOM      4  O   UNL     1      17.944  33.391  27.972  1.00  0.00    -0.285 OA
ATOM      5  C   UNL     1      19.999  33.299  26.869  1.00  0.00     0.111 A 
ATOM      6  C   UNL     1      19.490  33.259  25.536  1.00  0.00     0.134 A 
ATOM      7  C   UNL     1      20.377  33.336  24.456  1.00  0.00     0.093 A 
ATOM      8  C   UNL     1      21.759  33.389  24.659  1.00  0.00     0.123 A 
ATOM      9  C   UNL     1      22.267  33.373  25.955  1.00  0.00     0.094 A 
ATOM     10  C   UNL     1      21.406  33.334  27.054  1.00  0.00     0.146 A 
ATOM     11  O   UNL     1      21.934  33.343  28.272  1.00  0.00    -0.452 OA
ENDROOT
BRANCH   1  12
ATOM     12  C   UNL     1      21.924  33.348  30.683  1.00  0.00     0.025 A 
ATOM     13  C   UNL     1      22.291  34.551  31.310  1.00  0.00     0.016 A 
ATOM     14  C   UNL     1      22.986  34.532  32.521  1.00  0.00     0.051 A 
ATOM     15  C   UNL     1      23.336  33.314  33.116  1.00  0.00     0.157 A 
ATOM     16  C   UNL     1      22.295  32.129  31.273  1.00  0.00     0.062 A 
ATOM     17  C   UNL     1      22.992  32.110  32.489  1.00  0.00     0.158 A 
BRANCH  15  18
ATOM     18  O   UNL     1      24.028  33.292  34.326  1.00  0.00    -0.504 OA
ATOM     19  H   UNL     1      24.790  32.644  34.487  1.00  0.00     0.293 HD
ENDBRANCH  15  18
BRANCH  17  20
ATOM     20  O   UNL     1      23.348  30.898  33.081  1.00  0.00    -0.504 OA
ATOM     21  H   UNL     1      23.208  30.730  34.070  1.00  0.00     0.293 HD
ENDBRANCH  17  20
ENDBRANCH   1  12
BRANCH   2  22
ATOM     22  O   UNL     1      19.035  33.278  30.467  1.00  0.00    -0.502 OA
ATOM     23  H   UNL     1      19.359  33.656  31.349  1.00  0.00     0.293 HD
ENDBRANCH   2  22
BRANCH   6  24
ATOM     24  O   UNL     1      18.135  33.119  25.219  1.00  0.00    -0.507 OA
ATOM     25  H   UNL     1      17.667  33.593  24.462  1.00  0.00     0.293 HD
ENDBRANCH   6  24
BRANCH   8  26
ATOM     26  O   UNL     1      22.634  33.449  23.577  1.00  0.00    -0.508 OA
ATOM     27  H   UNL     1      23.059  34.322  23.287  1.00  0.00     0.293 HD
ENDBRANCH   8  26
TORSDOF 6
ENDMDL
