MODEL 1
REMARK VINA RESULT:    -3.333      0.000      0.000
REMARK INTER + INTRA:          -8.405
REMARK INTER:                  -6.450
REMARK INTRA:                  -1.955
REMARK UNBOUND:                -1.955
REMARK SMILES CCCCCCCCCCCCCCCCCC(=O)[O-]
REMARK SMILES IDX 10 1 11 2 12 3 13 4 14 5 15 6 16 7 17 8 18 9 19 10 20 11
REMARK SMILES IDX 9 12 8 13 7 14 6 15 5 16 4 17 3 18 2 19 1 20
REMARK H PARENT
REMARK Flexibility Score: inf
ROOT
ATOM      1  C   UNL     1      -3.344   7.808  -5.747  1.00  0.00     0.000 C 
ENDROOT
BRANCH   1   2
ATOM      2  C   UNL     1      -4.744   8.451  -5.720  1.00  0.00     0.000 C 
BRANCH   2   3
ATOM      3  C   UNL     1      -4.841   9.607  -4.708  1.00  0.00     0.000 C 
BRANCH   3   4
ATOM      4  C   UNL     1      -3.510   9.876  -3.989  1.00  0.00     0.000 C 
BRANCH   4   5
ATOM      5  C   UNL     1      -3.306  11.361  -3.651  1.00  0.00     0.000 C 
BRANCH   5   6
ATOM      6  C   UNL     1      -4.656  12.081  -3.511  1.00  0.00     0.000 C 
BRANCH   6   7
ATOM      7  C   UNL     1      -4.742  12.946  -2.240  1.00  0.00     0.006 C 
BRANCH   7   8
ATOM      8  C   UNL     1      -3.860  12.456  -1.080  1.00  0.00     0.053 C 
BRANCH   8   9
ATOM      9  C   UNL     1      -2.879  13.499  -0.640  1.00  0.00     0.041 C 
ATOM     10  O   UNL     1      -2.334  14.253  -1.488  1.00  0.00    -0.550 OA
ATOM     11  O   UNL     1      -2.593  13.661   0.710  1.00  0.00    -0.550 OA
ENDBRANCH   8   9
ENDBRANCH   7   8
ENDBRANCH   6   7
ENDBRANCH   5   6
ENDBRANCH   4   5
ENDBRANCH   3   4
ENDBRANCH   2   3
ENDBRANCH   1   2
BRANCH   1  12
ATOM     12  C   UNL     1      -2.793   7.553  -7.164  1.00  0.00     0.000 C 
BRANCH  12  13
ATOM     13  C   UNL     1      -1.644   8.509  -7.530  1.00  0.00    -0.000 C 
BRANCH  13  14
ATOM     14  C   UNL     1      -2.115   9.961  -7.708  1.00  0.00    -0.000 C 
BRANCH  14  15
ATOM     15  C   UNL     1      -1.326  10.952  -6.835  1.00  0.00    -0.000 C 
BRANCH  15  16
ATOM     16  C   UNL     1      -0.441  10.246  -5.794  1.00  0.00    -0.000 C 
BRANCH  16  17
ATOM     17  C   UNL     1       0.814  11.057  -5.429  1.00  0.00    -0.000 C 
BRANCH  17  18
ATOM     18  C   UNL     1       2.064  10.571  -6.194  1.00  0.00    -0.000 C 
BRANCH  18  19
ATOM     19  C   UNL     1       3.044   9.767  -5.324  1.00  0.00    -0.003 C 
ATOM     20  C   UNL     1       3.221   8.326  -5.799  1.00  0.00     0.004 C 
ENDBRANCH  18  19
ENDBRANCH  17  18
ENDBRANCH  16  17
ENDBRANCH  15  16
ENDBRANCH  14  15
ENDBRANCH  13  14
ENDBRANCH  12  13
ENDBRANCH   1  12
TORSDOF 16
ENDMDL
MODEL 2
REMARK VINA RESULT:    -3.314      4.014      6.644
REMARK INTER + INTRA:          -8.370
REMARK INTER:                  -5.432
REMARK INTRA:                  -2.938
REMARK UNBOUND:                -1.955
REMARK SMILES CCCCCCCCCCCCCCCCCC(=O)[O-]
REMARK SMILES IDX 10 1 11 2 12 3 13 4 14 5 15 6 16 7 17 8 18 9 19 10 20 11
REMARK SMILES IDX 9 12 8 13 7 14 6 15 5 16 4 17 3 18 2 19 1 20
REMARK H PARENT
REMARK Flexibility Score: inf
ROOT
ATOM      1  C   UNL     1      -5.341   8.938  -4.871  1.00  0.00     0.000 C 
ENDROOT
BRANCH   1   2
ATOM      2  C   UNL     1      -6.051   9.365  -6.171  1.00  0.00     0.000 C 
BRANCH   2   3
ATOM      3  C   UNL     1      -6.556  10.818  -6.115  1.00  0.00     0.000 C 
BRANCH   3   4
ATOM      4  C   UNL     1      -5.761  11.756  -7.037  1.00  0.00     0.000 C 
BRANCH   4   5
ATOM      5  C   UNL     1      -4.847  10.997  -8.012  1.00  0.00     0.000 C 
BRANCH   5   6
ATOM      6  C   UNL     1      -3.408  11.530  -7.941  1.00  0.00     0.000 C 
BRANCH   6   7
ATOM      7  C   UNL     1      -2.355  10.407  -7.919  1.00  0.00     0.006 C 
BRANCH   7   8
ATOM      8  C   UNL     1      -2.864   9.052  -8.440  1.00  0.00     0.053 C 
BRANCH   8   9
ATOM      9  C   UNL     1      -2.034   7.910  -7.942  1.00  0.00     0.041 C 
ATOM     10  O   UNL     1      -0.797   7.878  -8.172  1.00  0.00    -0.550 OA
ATOM     11  O   UNL     1      -2.621   6.899  -7.190  1.00  0.00    -0.550 OA
ENDBRANCH   8   9
ENDBRANCH   7   8
ENDBRANCH   6   7
ENDBRANCH   5   6
ENDBRANCH   4   5
ENDBRANCH   3   4
ENDBRANCH   2   3
ENDBRANCH   1   2
BRANCH   1  12
ATOM     12  C   UNL     1      -3.831   9.240  -4.849  1.00  0.00     0.000 C 
BRANCH  12  13
ATOM     13  C   UNL     1      -3.445  10.233  -3.737  1.00  0.00    -0.000 C 
BRANCH  13  14
ATOM     14  C   UNL     1      -2.852  11.540  -4.291  1.00  0.00    -0.000 C 
BRANCH  14  15
ATOM     15  C   UNL     1      -3.809  12.735  -4.138  1.00  0.00    -0.000 C 
BRANCH  15  16
ATOM     16  C   UNL     1      -4.980  12.437  -3.187  1.00  0.00    -0.000 C 
BRANCH  16  17
ATOM     17  C   UNL     1      -5.552  13.705  -2.530  1.00  0.00    -0.000 C 
BRANCH  17  18
ATOM     18  C   UNL     1      -5.199  13.792  -1.030  1.00  0.00    -0.000 C 
BRANCH  18  19
ATOM     19  C   UNL     1      -4.340  12.619  -0.530  1.00  0.00    -0.003 C 
ATOM     20  C   UNL     1      -2.885  13.008  -0.277  1.00  0.00     0.004 C 
ENDBRANCH  18  19
ENDBRANCH  17  18
ENDBRANCH  16  17
ENDBRANCH  15  16
ENDBRANCH  14  15
ENDBRANCH  13  14
ENDBRANCH  12  13
ENDBRANCH   1  12
TORSDOF 16
ENDMDL
MODEL 3
REMARK VINA RESULT:    -3.251      2.038      2.775
REMARK INTER + INTRA:          -8.247
REMARK INTER:                  -5.691
REMARK INTRA:                  -2.555
REMARK UNBOUND:                -1.955
REMARK SMILES CCCCCCCCCCCCCCCCCC(=O)[O-]
REMARK SMILES IDX 10 1 11 2 12 3 13 4 14 5 15 6 16 7 17 8 18 9 19 10 20 11
REMARK SMILES IDX 9 12 8 13 7 14 6 15 5 16 4 17 3 18 2 19 1 20
REMARK H PARENT
REMARK Flexibility Score: inf
ROOT
ATOM      1  C   UNL     1      -3.462   7.546  -5.698  1.00  0.00     0.000 C 
ENDROOT
BRANCH   1   2
ATOM      2  C   UNL     1      -4.631   8.543  -5.587  1.00  0.00     0.000 C 
BRANCH   2   3
ATOM      3  C   UNL     1      -4.358   9.659  -4.562  1.00  0.00     0.000 C 
BRANCH   3   4
ATOM      4  C   UNL     1      -4.861  11.032  -5.036  1.00  0.00     0.000 C 
BRANCH   4   5
ATOM      5  C   UNL     1      -4.646  12.138  -3.991  1.00  0.00     0.000 C 
BRANCH   5   6
ATOM      6  C   UNL     1      -3.705  11.659  -2.875  1.00  0.00     0.000 C 
BRANCH   6   7
ATOM      7  C   UNL     1      -3.452  12.737  -1.804  1.00  0.00     0.006 C 
BRANCH   7   8
ATOM      8  C   UNL     1      -4.016  12.393  -0.415  1.00  0.00     0.053 C 
BRANCH   8   9
ATOM      9  C   UNL     1      -5.131  13.309  -0.017  1.00  0.00     0.041 C 
ATOM     10  O   UNL     1      -5.122  13.866   1.112  1.00  0.00    -0.550 OA
ATOM     11  O   UNL     1      -6.163  13.577  -0.908  1.00  0.00    -0.550 OA
ENDBRANCH   8   9
ENDBRANCH   7   8
ENDBRANCH   6   7
ENDBRANCH   5   6
ENDBRANCH   4   5
ENDBRANCH   3   4
ENDBRANCH   2   3
ENDBRANCH   1   2
BRANCH   1  12
ATOM     12  C   UNL     1      -2.856   7.438  -7.111  1.00  0.00     0.000 C 
BRANCH  12  13
ATOM     13  C   UNL     1      -3.501   8.422  -8.105  1.00  0.00    -0.000 C 
BRANCH  13  14
ATOM     14  C   UNL     1      -2.513   9.489  -8.606  1.00  0.00    -0.000 C 
BRANCH  14  15
ATOM     15  C   UNL     1      -2.274  10.605  -7.576  1.00  0.00    -0.000 C 
BRANCH  15  16
ATOM     16  C   UNL     1      -0.921  10.466  -6.858  1.00  0.00    -0.000 C 
BRANCH  16  17
ATOM     17  C   UNL     1      -0.989  10.865  -5.373  1.00  0.00    -0.000 C 
BRANCH  17  18
ATOM     18  C   UNL     1      -0.180  12.145  -5.077  1.00  0.00    -0.000 C 
BRANCH  18  19
ATOM     19  C   UNL     1      -1.040  13.313  -4.567  1.00  0.00    -0.003 C 
ATOM     20  C   UNL     1      -1.637  14.153  -5.694  1.00  0.00     0.004 C 
ENDBRANCH  18  19
ENDBRANCH  17  18
ENDBRANCH  16  17
ENDBRANCH  15  16
ENDBRANCH  14  15
ENDBRANCH  13  14
ENDBRANCH  12  13
ENDBRANCH   1  12
TORSDOF 16
ENDMDL
MODEL 4
REMARK VINA RESULT:    -3.236      2.277      4.963
REMARK INTER + INTRA:          -8.218
REMARK INTER:                  -5.820
REMARK INTRA:                  -2.398
REMARK UNBOUND:                -1.955
REMARK SMILES CCCCCCCCCCCCCCCCCC(=O)[O-]
REMARK SMILES IDX 10 1 11 2 12 3 13 4 14 5 15 6 16 7 17 8 18 9 19 10 20 11
REMARK SMILES IDX 9 12 8 13 7 14 6 15 5 16 4 17 3 18 2 19 1 20
REMARK H PARENT
REMARK Flexibility Score: inf
ROOT
ATOM      1  C   UNL     1      -1.467  10.466  -5.391  1.00  0.00     0.000 C 
ENDROOT
BRANCH   1   2
ATOM      2  C   UNL     1      -2.074  11.454  -4.377  1.00  0.00     0.000 C 
BRANCH   2   3
ATOM      3  C   UNL     1      -3.276  10.858  -3.622  1.00  0.00     0.000 C 
BRANCH   3   4
ATOM      4  C   UNL     1      -4.441  11.851  -3.490  1.00  0.00     0.000 C 
BRANCH   4   5
ATOM      5  C   UNL     1      -4.002  13.312  -3.676  1.00  0.00     0.000 C 
BRANCH   5   6
ATOM      6  C   UNL     1      -4.683  14.224  -2.645  1.00  0.00     0.000 C 
BRANCH   6   7
ATOM      7  C   UNL     1      -5.799  13.509  -1.859  1.00  0.00     0.006 C 
BRANCH   7   8
ATOM      8  C   UNL     1      -6.225  14.229  -0.569  1.00  0.00     0.053 C 
BRANCH   8   9
ATOM      9  C   UNL     1      -5.489  13.716   0.630  1.00  0.00     0.041 C 
ATOM     10  O   UNL     1      -4.232  13.649   0.621  1.00  0.00    -0.550 OA
ATOM     11  O   UNL     1      -6.190  13.346   1.772  1.00  0.00    -0.550 OA
ENDBRANCH   8   9
ENDBRANCH   7   8
ENDBRANCH   6   7
ENDBRANCH   5   6
ENDBRANCH   4   5
ENDBRANCH   3   4
ENDBRANCH   2   3
ENDBRANCH   1   2
BRANCH   1  12
ATOM     12  C   UNL     1      -2.446  10.006  -6.488  1.00  0.00     0.000 C 
BRANCH  12  13
ATOM     13  C   UNL     1      -2.487   8.474  -6.637  1.00  0.00    -0.000 C 
BRANCH  13  14
ATOM     14  C   UNL     1      -3.505   7.814  -5.693  1.00  0.00    -0.000 C 
BRANCH  14  15
ATOM     15  C   UNL     1      -4.961   8.075  -6.116  1.00  0.00    -0.000 C 
BRANCH  15  16
ATOM     16  C   UNL     1      -5.795   8.718  -4.996  1.00  0.00    -0.000 C 
BRANCH  16  17
ATOM     17  C   UNL     1      -6.767   9.792  -5.516  1.00  0.00    -0.000 C 
BRANCH  17  18
ATOM     18  C   UNL     1      -6.370  10.308  -6.915  1.00  0.00    -0.000 C 
BRANCH  18  19
ATOM     19  C   UNL     1      -5.687  11.685  -6.892  1.00  0.00    -0.003 C 
ATOM     20  C   UNL     1      -6.607  12.800  -6.400  1.00  0.00     0.004 C 
ENDBRANCH  18  19
ENDBRANCH  17  18
ENDBRANCH  16  17
ENDBRANCH  15  16
ENDBRANCH  14  15
ENDBRANCH  13  14
ENDBRANCH  12  13
ENDBRANCH   1  12
TORSDOF 16
ENDMDL
MODEL 5
REMARK VINA RESULT:    -3.236      2.531      6.701
REMARK INTER + INTRA:          -8.218
REMARK INTER:                  -5.976
REMARK INTRA:                  -2.242
REMARK UNBOUND:                -1.955
REMARK SMILES CCCCCCCCCCCCCCCCCC(=O)[O-]
REMARK SMILES IDX 10 1 11 2 12 3 13 4 14 5 15 6 16 7 17 8 18 9 19 10 20 11
REMARK SMILES IDX 9 12 8 13 7 14 6 15 5 16 4 17 3 18 2 19 1 20
REMARK H PARENT
REMARK Flexibility Score: inf
ROOT
ATOM      1  C   UNL     1      -4.455  11.103  -3.896  1.00  0.00     0.000 C 
ENDROOT
BRANCH   1   2
ATOM      2  C   UNL     1      -3.766   9.772  -4.252  1.00  0.00     0.000 C 
BRANCH   2   3
ATOM      3  C   UNL     1      -4.036   9.339  -5.705  1.00  0.00     0.000 C 
BRANCH   3   4
ATOM      4  C   UNL     1      -3.092   8.221  -6.174  1.00  0.00     0.000 C 
BRANCH   4   5
ATOM      5  C   UNL     1      -1.858   8.756  -6.915  1.00  0.00     0.000 C 
BRANCH   5   6
ATOM      6  C   UNL     1      -2.074  10.212  -7.356  1.00  0.00     0.000 C 
BRANCH   6   7
ATOM      7  C   UNL     1      -1.079  11.189  -6.701  1.00  0.00     0.006 C 
BRANCH   7   8
ATOM      8  C   UNL     1      -0.441  10.666  -5.403  1.00  0.00     0.053 C 
BRANCH   8   9
ATOM      9  C   UNL     1       1.054  10.644  -5.481  1.00  0.00     0.041 C 
ATOM     10  O   UNL     1       1.634   9.901  -6.315  1.00  0.00    -0.550 OA
ATOM     11  O   UNL     1       1.806  11.473  -4.657  1.00  0.00    -0.550 OA
ENDBRANCH   8   9
ENDBRANCH   7   8
ENDBRANCH   6   7
ENDBRANCH   5   6
ENDBRANCH   4   5
ENDBRANCH   3   4
ENDBRANCH   2   3
ENDBRANCH   1   2
BRANCH   1  12
ATOM     12  C   UNL     1      -3.558  12.344  -4.068  1.00  0.00     0.000 C 
BRANCH  12  13
ATOM     13  C   UNL     1      -4.365  13.655  -4.092  1.00  0.00    -0.000 C 
BRANCH  13  14
ATOM     14  C   UNL     1      -5.880  13.415  -4.203  1.00  0.00    -0.000 C 
BRANCH  14  15
ATOM     15  C   UNL     1      -6.694  14.330  -3.272  1.00  0.00    -0.000 C 
BRANCH  15  16
ATOM     16  C   UNL     1      -5.934  14.690  -1.985  1.00  0.00    -0.000 C 
BRANCH  16  17
ATOM     17  C   UNL     1      -6.436  13.912  -0.757  1.00  0.00    -0.000 C 
BRANCH  17  18
ATOM     18  C   UNL     1      -5.289  13.539   0.205  1.00  0.00    -0.000 C 
BRANCH  18  19
ATOM     19  C   UNL     1      -4.249  12.592  -0.415  1.00  0.00    -0.003 C 
ATOM     20  C   UNL     1      -2.822  13.129  -0.327  1.00  0.00     0.004 C 
ENDBRANCH  18  19
ENDBRANCH  17  18
ENDBRANCH  16  17
ENDBRANCH  15  16
ENDBRANCH  14  15
ENDBRANCH  13  14
ENDBRANCH  12  13
ENDBRANCH   1  12
TORSDOF 16
ENDMDL
MODEL 6
REMARK VINA RESULT:    -3.233      2.199      5.643
REMARK INTER + INTRA:          -8.212
REMARK INTER:                  -6.151
REMARK INTRA:                  -2.061
REMARK UNBOUND:                -1.955
REMARK SMILES CCCCCCCCCCCCCCCCCC(=O)[O-]
REMARK SMILES IDX 10 1 11 2 12 3 13 4 14 5 15 6 16 7 17 8 18 9 19 10 20 11
REMARK SMILES IDX 9 12 8 13 7 14 6 15 5 16 4 17 3 18 2 19 1 20
REMARK H PARENT
REMARK Flexibility Score: inf
ROOT
ATOM      1  C   UNL     1      -4.840   8.039  -6.045  1.00  0.00     0.000 C 
ENDROOT
BRANCH   1   2
ATOM      2  C   UNL     1      -3.338   7.855  -5.755  1.00  0.00     0.000 C 
BRANCH   2   3
ATOM      3  C   UNL     1      -2.463   8.111  -6.996  1.00  0.00     0.000 C 
BRANCH   3   4
ATOM      4  C   UNL     1      -2.142   9.600  -7.196  1.00  0.00     0.000 C 
BRANCH   4   5
ATOM      5  C   UNL     1      -0.647   9.914  -7.025  1.00  0.00     0.000 C 
BRANCH   5   6
ATOM      6  C   UNL     1      -0.339  10.339  -5.580  1.00  0.00     0.000 C 
BRANCH   6   7
ATOM      7  C   UNL     1      -1.504  11.102  -4.921  1.00  0.00     0.006 C 
BRANCH   7   8
ATOM      8  C   UNL     1      -1.185  12.567  -4.577  1.00  0.00     0.053 C 
BRANCH   8   9
ATOM      9  C   UNL     1      -1.853  13.523  -5.516  1.00  0.00     0.041 C 
ATOM     10  O   UNL     1      -1.977  13.232  -6.734  1.00  0.00    -0.550 OA
ATOM     11  O   UNL     1      -2.370  14.721  -5.038  1.00  0.00    -0.550 OA
ENDBRANCH   8   9
ENDBRANCH   7   8
ENDBRANCH   6   7
ENDBRANCH   5   6
ENDBRANCH   4   5
ENDBRANCH   3   4
ENDBRANCH   2   3
ENDBRANCH   1   2
BRANCH   1  12
ATOM     12  C   UNL     1      -5.600   8.829  -4.962  1.00  0.00     0.000 C 
BRANCH  12  13
ATOM     13  C   UNL     1      -4.923  10.171  -4.627  1.00  0.00    -0.000 C 
BRANCH  13  14
ATOM     14  C   UNL     1      -5.629  11.369  -5.283  1.00  0.00    -0.000 C 
BRANCH  14  15
ATOM     15  C   UNL     1      -5.276  12.706  -4.609  1.00  0.00    -0.000 C 
BRANCH  15  16
ATOM     16  C   UNL     1      -4.861  12.535  -3.139  1.00  0.00    -0.000 C 
BRANCH  16  17
ATOM     17  C   UNL     1      -5.538  13.552  -2.204  1.00  0.00    -0.000 C 
BRANCH  17  18
ATOM     18  C   UNL     1      -5.226  13.275  -0.718  1.00  0.00    -0.000 C 
BRANCH  18  19
ATOM     19  C   UNL     1      -3.970  12.415  -0.503  1.00  0.00    -0.003 C 
ATOM     20  C   UNL     1      -2.767  13.223  -0.020  1.00  0.00     0.004 C 
ENDBRANCH  18  19
ENDBRANCH  17  18
ENDBRANCH  16  17
ENDBRANCH  15  16
ENDBRANCH  14  15
ENDBRANCH  13  14
ENDBRANCH  12  13
ENDBRANCH   1  12
TORSDOF 16
ENDMDL
MODEL 7
REMARK VINA RESULT:    -3.190      3.373      6.958
REMARK INTER + INTRA:          -8.128
REMARK INTER:                  -6.352
REMARK INTRA:                  -1.776
REMARK UNBOUND:                -1.955
REMARK SMILES CCCCCCCCCCCCCCCCCC(=O)[O-]
REMARK SMILES IDX 10 1 11 2 12 3 13 4 14 5 15 6 16 7 17 8 18 9 19 10 20 11
REMARK SMILES IDX 9 12 8 13 7 14 6 15 5 16 4 17 3 18 2 19 1 20
REMARK H PARENT
REMARK Flexibility Score: inf
ROOT
ATOM      1  C   UNL     1      -3.089   8.256  -5.832  1.00  0.00     0.000 C 
ENDROOT
BRANCH   1   2
ATOM      2  C   UNL     1      -2.880   8.819  -7.251  1.00  0.00     0.000 C 
BRANCH   2   3
ATOM      3  C   UNL     1      -1.769   9.883  -7.306  1.00  0.00     0.000 C 
BRANCH   3   4
ATOM      4  C   UNL     1      -0.923   9.919  -6.023  1.00  0.00     0.000 C 
BRANCH   4   5
ATOM      5  C   UNL     1      -0.437  11.333  -5.671  1.00  0.00     0.000 C 
BRANCH   5   6
ATOM      6  C   UNL     1       1.087  11.355  -5.475  1.00  0.00     0.000 C 
BRANCH   6   7
ATOM      7  C   UNL     1       1.697   9.944  -5.379  1.00  0.00     0.006 C 
BRANCH   7   8
ATOM      8  C   UNL     1       3.222   9.900  -5.573  1.00  0.00     0.053 C 
BRANCH   8   9
ATOM      9  C   UNL     1       3.735   8.497  -5.676  1.00  0.00     0.041 C 
ATOM     10  O   UNL     1       4.612   8.082  -4.874  1.00  0.00    -0.550 OA
ATOM     11  O   UNL     1       3.219   7.635  -6.637  1.00  0.00    -0.550 OA
ENDBRANCH   8   9
ENDBRANCH   7   8
ENDBRANCH   6   7
ENDBRANCH   5   6
ENDBRANCH   4   5
ENDBRANCH   3   4
ENDBRANCH   2   3
ENDBRANCH   1   2
BRANCH   1  12
ATOM     12  C   UNL     1      -4.555   8.260  -5.361  1.00  0.00     0.000 C 
BRANCH  12  13
ATOM     13  C   UNL     1      -4.946   9.577  -4.664  1.00  0.00    -0.000 C 
BRANCH  13  14
ATOM     14  C   UNL     1      -3.820  10.135  -3.779  1.00  0.00    -0.000 C 
BRANCH  14  15
ATOM     15  C   UNL     1      -3.744  11.671  -3.815  1.00  0.00    -0.000 C 
BRANCH  15  16
ATOM     16  C   UNL     1      -4.909  12.302  -4.596  1.00  0.00    -0.000 C 
BRANCH  16  17
ATOM     17  C   UNL     1      -5.807  13.188  -3.716  1.00  0.00    -0.000 C 
BRANCH  17  18
ATOM     18  C   UNL     1      -5.030  13.820  -2.542  1.00  0.00    -0.000 C 
BRANCH  18  19
ATOM     19  C   UNL     1      -5.633  13.504  -1.163  1.00  0.00    -0.003 C 
ATOM     20  C   UNL     1      -4.636  12.844  -0.212  1.00  0.00     0.004 C 
ENDBRANCH  18  19
ENDBRANCH  17  18
ENDBRANCH  16  17
ENDBRANCH  15  16
ENDBRANCH  14  15
ENDBRANCH  13  14
ENDBRANCH  12  13
ENDBRANCH   1  12
TORSDOF 16
ENDMDL
MODEL 8
REMARK VINA RESULT:    -3.171      8.923     12.973
REMARK INTER + INTRA:          -8.093
REMARK INTER:                  -6.400
REMARK INTRA:                  -1.693
REMARK UNBOUND:                -1.955
REMARK SMILES CCCCCCCCCCCCCCCCCC(=O)[O-]
REMARK SMILES IDX 10 1 11 2 12 3 13 4 14 5 15 6 16 7 17 8 18 9 19 10 20 11
REMARK SMILES IDX 9 12 8 13 7 14 6 15 5 16 4 17 3 18 2 19 1 20
REMARK H PARENT
REMARK Flexibility Score: inf
ROOT
ATOM      1  C   UNL     1       7.753  10.264   1.909  1.00  0.00     0.000 C 
ENDROOT
BRANCH   1   2
ATOM      2  C   UNL     1       7.043   8.979   2.379  1.00  0.00     0.000 C 
BRANCH   2   3
ATOM      3  C   UNL     1       7.607   7.715   1.705  1.00  0.00     0.000 C 
BRANCH   3   4
ATOM      4  C   UNL     1       9.136   7.754   1.563  1.00  0.00     0.000 C 
BRANCH   4   5
ATOM      5  C   UNL     1       9.614   7.331   0.165  1.00  0.00     0.000 C 
BRANCH   5   6
ATOM      6  C   UNL     1       9.667   5.800   0.045  1.00  0.00     0.000 C 
BRANCH   6   7
ATOM      7  C   UNL     1      10.261   5.123   1.295  1.00  0.00     0.006 C 
BRANCH   7   8
ATOM      8  C   UNL     1      10.870   3.735   1.033  1.00  0.00     0.053 C 
BRANCH   8   9
ATOM      9  C   UNL     1       9.851   2.761   0.529  1.00  0.00     0.041 C 
ATOM     10  O   UNL     1       8.814   2.523   1.202  1.00  0.00    -0.550 OA
ATOM     11  O   UNL     1      10.030   2.141  -0.702  1.00  0.00    -0.550 OA
ENDBRANCH   8   9
ENDBRANCH   7   8
ENDBRANCH   6   7
ENDBRANCH   5   6
ENDBRANCH   4   5
ENDBRANCH   3   4
ENDBRANCH   2   3
ENDBRANCH   1   2
BRANCH   1  12
ATOM     12  C   UNL     1       6.869  11.200   1.063  1.00  0.00     0.000 C 
BRANCH  12  13
ATOM     13  C   UNL     1       6.231  10.482  -0.139  1.00  0.00    -0.000 C 
BRANCH  13  14
ATOM     14  C   UNL     1       7.241  10.199  -1.264  1.00  0.00    -0.000 C 
BRANCH  14  15
ATOM     15  C   UNL     1       7.069   8.798  -1.876  1.00  0.00    -0.000 C 
BRANCH  15  16
ATOM     16  C   UNL     1       7.983   8.569  -3.092  1.00  0.00    -0.000 C 
BRANCH  16  17
ATOM     17  C   UNL     1       7.226   8.014  -4.311  1.00  0.00    -0.000 C 
BRANCH  17  18
ATOM     18  C   UNL     1       5.697   8.025  -4.101  1.00  0.00    -0.000 C 
BRANCH  18  19
ATOM     19  C   UNL     1       4.919   8.652  -5.270  1.00  0.00    -0.003 C 
ATOM     20  C   UNL     1       3.511   8.083  -5.425  1.00  0.00     0.004 C 
ENDBRANCH  18  19
ENDBRANCH  17  18
ENDBRANCH  16  17
ENDBRANCH  15  16
ENDBRANCH  14  15
ENDBRANCH  13  14
ENDBRANCH  12  13
ENDBRANCH   1  12
TORSDOF 16
ENDMDL
MODEL 9
REMARK VINA RESULT:    -3.161      2.538      3.650
REMARK INTER + INTRA:          -8.072
REMARK INTER:                  -5.045
REMARK INTRA:                  -3.026
REMARK UNBOUND:                -1.955
REMARK SMILES CCCCCCCCCCCCCCCCCC(=O)[O-]
REMARK SMILES IDX 10 1 11 2 12 3 13 4 14 5 15 6 16 7 17 8 18 9 19 10 20 11
REMARK SMILES IDX 9 12 8 13 7 14 6 15 5 16 4 17 3 18 2 19 1 20
REMARK H PARENT
REMARK Flexibility Score: inf
ROOT
ATOM      1  C   UNL     1      -6.916  10.136  -6.035  1.00  0.00     0.000 C 
ENDROOT
BRANCH   1   2
ATOM      2  C   UNL     1      -5.976  11.005  -6.893  1.00  0.00     0.000 C 
BRANCH   2   3
ATOM      3  C   UNL     1      -5.726  12.391  -6.273  1.00  0.00     0.000 C 
BRANCH   3   4
ATOM      4  C   UNL     1      -5.964  12.411  -4.755  1.00  0.00     0.000 C 
BRANCH   4   5
ATOM      5  C   UNL     1      -5.906  13.827  -4.162  1.00  0.00     0.000 C 
BRANCH   5   6
ATOM      6  C   UNL     1      -4.798  13.930  -3.102  1.00  0.00     0.000 C 
BRANCH   6   7
ATOM      7  C   UNL     1      -4.631  12.636  -2.283  1.00  0.00     0.006 C 
BRANCH   7   8
ATOM      8  C   UNL     1      -3.321  12.559  -1.481  1.00  0.00     0.053 C 
BRANCH   8   9
ATOM      9  C   UNL     1      -3.465  13.149  -0.113  1.00  0.00     0.041 C 
ATOM     10  O   UNL     1      -2.474  13.678   0.456  1.00  0.00    -0.550 OA
ATOM     11  O   UNL     1      -4.702  13.146   0.521  1.00  0.00    -0.550 OA
ENDBRANCH   8   9
ENDBRANCH   7   8
ENDBRANCH   6   7
ENDBRANCH   5   6
ENDBRANCH   4   5
ENDBRANCH   3   4
ENDBRANCH   2   3
ENDBRANCH   1   2
BRANCH   1  12
ATOM     12  C   UNL     1      -6.474   8.666  -5.906  1.00  0.00     0.000 C 
BRANCH  12  13
ATOM     13  C   UNL     1      -5.309   8.486  -4.915  1.00  0.00    -0.000 C 
BRANCH  13  14
ATOM     14  C   UNL     1      -4.014   8.021  -5.602  1.00  0.00    -0.000 C 
BRANCH  14  15
ATOM     15  C   UNL     1      -2.962   9.139  -5.702  1.00  0.00    -0.000 C 
BRANCH  15  16
ATOM     16  C   UNL     1      -3.034  10.125  -4.525  1.00  0.00    -0.000 C 
BRANCH  16  17
ATOM     17  C   UNL     1      -1.985  11.247  -4.620  1.00  0.00    -0.000 C 
BRANCH  17  18
ATOM     18  C   UNL     1      -2.199  12.140  -5.860  1.00  0.00    -0.000 C 
BRANCH  18  19
ATOM     19  C   UNL     1      -2.029  13.641  -5.575  1.00  0.00    -0.003 C 
ATOM     20  C   UNL     1      -1.265  13.921  -4.282  1.00  0.00     0.004 C 
ENDBRANCH  18  19
ENDBRANCH  17  18
ENDBRANCH  16  17
ENDBRANCH  15  16
ENDBRANCH  14  15
ENDBRANCH  13  14
ENDBRANCH  12  13
ENDBRANCH   1  12
TORSDOF 16
ENDMDL
