MODEL 1
REMARK VINA RESULT:     3.422      0.000      0.000
REMARK INTER + INTRA:           6.869
REMARK INTER:                   7.824
REMARK INTRA:                  -0.955
REMARK UNBOUND:                -0.955
REMARK SMILES CCCCCCCCCCCCCCCCCCCCCCCC(=O)[O-]
REMARK SMILES IDX 13 1 14 2 15 3 16 4 17 5 18 6 19 7 20 8 21 9 22 10 23 11
REMARK SMILES IDX 24 12 25 13 26 14 12 15 11 16 10 17 9 18 8 19 7 20 6 21 5 22
REMARK SMILES IDX 4 23 3 24 2 25 1 26
REMARK H PARENT
REMARK Flexibility Score: inf
ROOT
ATOM      1  C   UNL     1      -7.161  47.443  -1.243  1.00  0.00     0.000 C 
ENDROOT
BRANCH   1   2
ATOM      2  C   UNL     1      -7.657  48.353  -2.383  1.00  0.00     0.000 C 
BRANCH   2   3
ATOM      3  C   UNL     1      -8.161  49.739  -1.942  1.00  0.00     0.000 C 
BRANCH   3   4
ATOM      4  C   UNL     1      -8.912  50.485  -3.055  1.00  0.00     0.000 C 
BRANCH   4   5
ATOM      5  C   UNL     1      -7.980  51.456  -3.787  1.00  0.00     0.000 C 
BRANCH   5   6
ATOM      6  C   UNL     1      -8.497  51.763  -5.201  1.00  0.00     0.000 C 
BRANCH   6   7
ATOM      7  C   UNL     1      -7.349  51.994  -6.208  1.00  0.00     0.000 C 
BRANCH   7   8
ATOM      8  C   UNL     1      -7.511  51.217  -7.529  1.00  0.00     0.000 C 
BRANCH   8   9
ATOM      9  C   UNL     1      -6.911  51.905  -8.768  1.00  0.00     0.000 C 
BRANCH   9  10
ATOM     10  C   UNL     1      -5.576  51.281  -9.211  1.00  0.00     0.006 C 
BRANCH  10  11
ATOM     11  C   UNL     1      -4.371  52.124  -8.774  1.00  0.00     0.053 C 
BRANCH  11  12
ATOM     12  C   UNL     1      -3.432  51.344  -7.907  1.00  0.00     0.041 C 
ATOM     13  O   UNL     1      -3.875  50.636  -6.964  1.00  0.00    -0.550 OA
ATOM     14  O   UNL     1      -2.064  51.388  -8.149  1.00  0.00    -0.550 OA
ENDBRANCH  11  12
ENDBRANCH  10  11
ENDBRANCH   9  10
ENDBRANCH   8   9
ENDBRANCH   7   8
ENDBRANCH   6   7
ENDBRANCH   5   6
ENDBRANCH   4   5
ENDBRANCH   3   4
ENDBRANCH   2   3
ENDBRANCH   1   2
BRANCH   1  15
ATOM     15  C   UNL     1      -7.415  45.935  -1.437  1.00  0.00     0.000 C 
BRANCH  15  16
ATOM     16  C   UNL     1      -6.480  45.263  -2.466  1.00  0.00     0.000 C 
BRANCH  16  17
ATOM     17  C   UNL     1      -5.546  44.219  -1.834  1.00  0.00     0.000 C 
BRANCH  17  18
ATOM     18  C   UNL     1      -5.973  42.795  -2.210  1.00  0.00    -0.000 C 
BRANCH  18  19
ATOM     19  C   UNL     1      -5.397  41.770  -1.225  1.00  0.00    -0.000 C 
BRANCH  19  20
ATOM     20  C   UNL     1      -4.531  42.458  -0.160  1.00  0.00    -0.000 C 
BRANCH  20  21
ATOM     21  C   UNL     1      -3.084  41.935  -0.137  1.00  0.00    -0.000 C 
BRANCH  21  22
ATOM     22  C   UNL     1      -2.121  42.633  -1.119  1.00  0.00    -0.000 C 
BRANCH  22  23
ATOM     23  C   UNL     1      -2.553  44.042  -1.571  1.00  0.00    -0.000 C 
BRANCH  23  24
ATOM     24  C   UNL     1      -1.401  45.051  -1.734  1.00  0.00    -0.000 C 
BRANCH  24  25
ATOM     25  C   UNL     1      -0.090  44.389  -2.184  1.00  0.00    -0.003 C 
ATOM     26  C   UNL     1      -0.011  44.309  -3.706  1.00  0.00     0.004 C 
ENDBRANCH  24  25
ENDBRANCH  23  24
ENDBRANCH  22  23
ENDBRANCH  21  22
ENDBRANCH  20  21
ENDBRANCH  19  20
ENDBRANCH  18  19
ENDBRANCH  17  18
ENDBRANCH  16  17
ENDBRANCH  15  16
ENDBRANCH   1  15
TORSDOF 22
ENDMDL
MODEL 2
REMARK VINA RESULT:     4.754      5.124      8.182
REMARK INTER + INTRA:           9.914
REMARK INTER:                   8.860
REMARK INTRA:                   1.054
REMARK UNBOUND:                -0.955
REMARK SMILES CCCCCCCCCCCCCCCCCCCCCCCC(=O)[O-]
REMARK SMILES IDX 13 1 14 2 15 3 16 4 17 5 18 6 19 7 20 8 21 9 22 10 23 11
REMARK SMILES IDX 24 12 25 13 26 14 12 15 11 16 10 17 9 18 8 19 7 20 6 21 5 22
REMARK SMILES IDX 4 23 3 24 2 25 1 26
REMARK H PARENT
REMARK Flexibility Score: inf
ROOT
ATOM      1  C   UNL     1      -6.442  50.608  -0.876  1.00  0.00     0.000 C 
ENDROOT
BRANCH   1   2
ATOM      2  C   UNL     1      -5.495  51.274   0.141  1.00  0.00     0.000 C 
BRANCH   2   3
ATOM      3  C   UNL     1      -4.341  52.087  -0.474  1.00  0.00     0.000 C 
BRANCH   3   4
ATOM      4  C   UNL     1      -3.077  52.087   0.399  1.00  0.00     0.000 C 
BRANCH   4   5
ATOM      5  C   UNL     1      -1.931  51.346  -0.298  1.00  0.00     0.000 C 
BRANCH   5   6
ATOM      6  C   UNL     1      -1.676  51.916  -1.702  1.00  0.00     0.000 C 
BRANCH   6   7
ATOM      7  C   UNL     1      -0.406  51.325  -2.353  1.00  0.00     0.000 C 
BRANCH   7   8
ATOM      8  C   UNL     1      -0.603  50.874  -3.813  1.00  0.00     0.000 C 
BRANCH   8   9
ATOM      9  C   UNL     1      -0.856  52.012  -4.818  1.00  0.00     0.000 C 
BRANCH   9  10
ATOM     10  C   UNL     1      -0.803  51.540  -6.282  1.00  0.00     0.006 C 
BRANCH  10  11
ATOM     11  C   UNL     1      -1.953  52.118  -7.116  1.00  0.00     0.053 C 
BRANCH  11  12
ATOM     12  C   UNL     1      -3.116  51.176  -7.187  1.00  0.00     0.041 C 
ATOM     13  O   UNL     1      -2.939  49.935  -7.058  1.00  0.00    -0.550 OA
ATOM     14  O   UNL     1      -4.400  51.670  -7.383  1.00  0.00    -0.550 OA
ENDBRANCH  11  12
ENDBRANCH  10  11
ENDBRANCH   9  10
ENDBRANCH   8   9
ENDBRANCH   7   8
ENDBRANCH   6   7
ENDBRANCH   5   6
ENDBRANCH   4   5
ENDBRANCH   3   4
ENDBRANCH   2   3
ENDBRANCH   1   2
BRANCH   1  15
ATOM     15  C   UNL     1      -7.945  50.702  -0.545  1.00  0.00     0.000 C 
BRANCH  15  16
ATOM     16  C   UNL     1      -8.870  50.123  -1.637  1.00  0.00     0.000 C 
BRANCH  16  17
ATOM     17  C   UNL     1      -8.767  50.879  -2.971  1.00  0.00     0.000 C 
BRANCH  17  18
ATOM     18  C   UNL     1      -7.333  51.360  -3.225  1.00  0.00    -0.000 C 
BRANCH  18  19
ATOM     19  C   UNL     1      -7.078  51.561  -4.725  1.00  0.00    -0.000 C 
BRANCH  19  20
ATOM     20  C   UNL     1      -8.331  52.106  -5.427  1.00  0.00    -0.000 C 
BRANCH  20  21
ATOM     21  C   UNL     1      -8.199  52.116  -6.960  1.00  0.00    -0.000 C 
BRANCH  21  22
ATOM     22  C   UNL     1      -6.879  51.534  -7.506  1.00  0.00    -0.000 C 
BRANCH  22  23
ATOM     23  C   UNL     1      -6.590  51.839  -8.989  1.00  0.00    -0.000 C 
BRANCH  23  24
ATOM     24  C   UNL     1      -6.914  50.690  -9.961  1.00  0.00    -0.000 C 
BRANCH  24  25
ATOM     25  C   UNL     1      -8.407  50.325  -9.974  1.00  0.00    -0.003 C 
ATOM     26  C   UNL     1      -8.639  48.947  -9.361  1.00  0.00     0.004 C 
ENDBRANCH  24  25
ENDBRANCH  23  24
ENDBRANCH  22  23
ENDBRANCH  21  22
ENDBRANCH  20  21
ENDBRANCH  19  20
ENDBRANCH  18  19
ENDBRANCH  17  18
ENDBRANCH  16  17
ENDBRANCH  15  16
ENDBRANCH   1  15
TORSDOF 22
ENDMDL
MODEL 3
REMARK VINA RESULT:     5.015      2.559      9.495
REMARK INTER + INTRA:          10.510
REMARK INTER:                   9.758
REMARK INTRA:                   0.752
REMARK UNBOUND:                -0.955
REMARK SMILES CCCCCCCCCCCCCCCCCCCCCCCC(=O)[O-]
REMARK SMILES IDX 13 1 14 2 15 3 16 4 17 5 18 6 19 7 20 8 21 9 22 10 23 11
REMARK SMILES IDX 24 12 25 13 26 14 12 15 11 16 10 17 9 18 8 19 7 20 6 21 5 22
REMARK SMILES IDX 4 23 3 24 2 25 1 26
REMARK H PARENT
REMARK Flexibility Score: inf
ROOT
ATOM      1  C   UNL     1      -7.539  48.038  -1.077  1.00  0.00     0.000 C 
ENDROOT
BRANCH   1   2
ATOM      2  C   UNL     1      -7.523  46.510  -1.279  1.00  0.00     0.000 C 
BRANCH   2   3
ATOM      3  C   UNL     1      -6.155  45.916  -1.661  1.00  0.00     0.000 C 
BRANCH   3   4
ATOM      4  C   UNL     1      -6.259  44.805  -2.717  1.00  0.00     0.000 C 
BRANCH   4   5
ATOM      5  C   UNL     1      -5.430  43.582  -2.307  1.00  0.00     0.000 C 
BRANCH   5   6
ATOM      6  C   UNL     1      -6.184  42.719  -1.284  1.00  0.00     0.000 C 
BRANCH   6   7
ATOM      7  C   UNL     1      -5.276  42.255  -0.124  1.00  0.00     0.000 C 
BRANCH   7   8
ATOM      8  C   UNL     1      -3.772  42.284  -0.457  1.00  0.00     0.000 C 
BRANCH   8   9
ATOM      9  C   UNL     1      -3.209  43.673  -0.809  1.00  0.00     0.000 C 
BRANCH   9  10
ATOM     10  C   UNL     1      -2.085  43.614  -1.859  1.00  0.00     0.006 C 
BRANCH  10  11
ATOM     11  C   UNL     1      -1.381  44.966  -2.026  1.00  0.00     0.053 C 
BRANCH  11  12
ATOM     12  C   UNL     1       0.048  44.800  -2.445  1.00  0.00     0.041 C 
ATOM     13  O   UNL     1       0.980  44.987  -1.619  1.00  0.00    -0.550 OA
ATOM     14  O   UNL     1       0.350  44.425  -3.749  1.00  0.00    -0.550 OA
ENDBRANCH  11  12
ENDBRANCH  10  11
ENDBRANCH   9  10
ENDBRANCH   8   9
ENDBRANCH   7   8
ENDBRANCH   6   7
ENDBRANCH   5   6
ENDBRANCH   4   5
ENDBRANCH   3   4
ENDBRANCH   2   3
ENDBRANCH   1   2
BRANCH   1  15
ATOM     15  C   UNL     1      -7.928  48.868  -2.317  1.00  0.00     0.000 C 
BRANCH  15  16
ATOM     16  C   UNL     1      -9.013  49.933  -2.050  1.00  0.00     0.000 C 
BRANCH  16  17
ATOM     17  C   UNL     1      -8.426  51.313  -1.713  1.00  0.00     0.000 C 
BRANCH  17  18
ATOM     18  C   UNL     1      -8.086  52.095  -2.988  1.00  0.00    -0.000 C 
BRANCH  18  19
ATOM     19  C   UNL     1      -8.490  51.307  -4.241  1.00  0.00    -0.000 C 
BRANCH  19  20
ATOM     20  C   UNL     1      -8.211  52.119  -5.514  1.00  0.00    -0.000 C 
BRANCH  20  21
ATOM     21  C   UNL     1      -6.771  51.945  -6.030  1.00  0.00    -0.000 C 
BRANCH  21  22
ATOM     22  C   UNL     1      -6.609  52.053  -7.560  1.00  0.00    -0.000 C 
BRANCH  22  23
ATOM     23  C   UNL     1      -7.455  51.061  -8.383  1.00  0.00    -0.000 C 
BRANCH  23  24
ATOM     24  C   UNL     1      -6.784  50.551  -9.672  1.00  0.00    -0.000 C 
BRANCH  24  25
ATOM     25  C   UNL     1      -5.545  51.371 -10.061  1.00  0.00    -0.003 C 
ATOM     26  C   UNL     1      -4.400  51.132  -9.080  1.00  0.00     0.004 C 
ENDBRANCH  24  25
ENDBRANCH  23  24
ENDBRANCH  22  23
ENDBRANCH  21  22
ENDBRANCH  20  21
ENDBRANCH  19  20
ENDBRANCH  18  19
ENDBRANCH  17  18
ENDBRANCH  16  17
ENDBRANCH  15  16
ENDBRANCH   1  15
TORSDOF 22
ENDMDL
MODEL 4
REMARK VINA RESULT:     5.035      5.172      7.076
REMARK INTER + INTRA:          10.555
REMARK INTER:                  11.699
REMARK INTRA:                  -1.144
REMARK UNBOUND:                -0.955
REMARK SMILES CCCCCCCCCCCCCCCCCCCCCCCC(=O)[O-]
REMARK SMILES IDX 13 1 14 2 15 3 16 4 17 5 18 6 19 7 20 8 21 9 22 10 23 11
REMARK SMILES IDX 24 12 25 13 26 14 12 15 11 16 10 17 9 18 8 19 7 20 6 21 5 22
REMARK SMILES IDX 4 23 3 24 2 25 1 26
REMARK H PARENT
REMARK Flexibility Score: inf
ROOT
ATOM      1  C   UNL     1      -4.474  50.620   0.140  1.00  0.00     0.000 C 
ENDROOT
BRANCH   1   2
ATOM      2  C   UNL     1      -5.885  50.461   0.739  1.00  0.00     0.000 C 
BRANCH   2   3
ATOM      3  C   UNL     1      -6.683  51.769   0.890  1.00  0.00     0.000 C 
BRANCH   3   4
ATOM      4  C   UNL     1      -8.119  51.659   0.356  1.00  0.00     0.000 C 
BRANCH   4   5
ATOM      5  C   UNL     1      -8.196  52.124  -1.102  1.00  0.00     0.000 C 
BRANCH   5   6
ATOM      6  C   UNL     1      -8.334  50.929  -2.058  1.00  0.00     0.000 C 
BRANCH   6   7
ATOM      7  C   UNL     1      -7.923  51.284  -3.504  1.00  0.00     0.000 C 
BRANCH   7   8
ATOM      8  C   UNL     1      -9.087  51.246  -4.512  1.00  0.00     0.000 C 
BRANCH   8   9
ATOM      9  C   UNL     1      -8.676  51.395  -5.988  1.00  0.00     0.000 C 
BRANCH   9  10
ATOM     10  C   UNL     1      -7.177  51.698  -6.164  1.00  0.00     0.006 C 
BRANCH  10  11
ATOM     11  C   UNL     1      -6.787  51.839  -7.641  1.00  0.00     0.053 C 
BRANCH  11  12
ATOM     12  C   UNL     1      -7.759  51.142  -8.542  1.00  0.00     0.041 C 
ATOM     13  O   UNL     1      -8.626  51.802  -9.174  1.00  0.00    -0.550 OA
ATOM     14  O   UNL     1      -7.699  49.762  -8.695  1.00  0.00    -0.550 OA
ENDBRANCH  11  12
ENDBRANCH  10  11
ENDBRANCH   9  10
ENDBRANCH   8   9
ENDBRANCH   7   8
ENDBRANCH   6   7
ENDBRANCH   5   6
ENDBRANCH   4   5
ENDBRANCH   3   4
ENDBRANCH   2   3
ENDBRANCH   1   2
BRANCH   1  15
ATOM     15  C   UNL     1      -3.736  51.922   0.513  1.00  0.00     0.000 C 
BRANCH  15  16
ATOM     16  C   UNL     1      -2.388  52.114  -0.213  1.00  0.00     0.000 C 
BRANCH  16  17
ATOM     17  C   UNL     1      -1.573  50.816  -0.318  1.00  0.00     0.000 C 
BRANCH  17  18
ATOM     18  C   UNL     1      -1.370  50.407  -1.782  1.00  0.00    -0.000 C 
BRANCH  18  19
ATOM     19  C   UNL     1      -0.242  51.222  -2.428  1.00  0.00    -0.000 C 
BRANCH  19  20
ATOM     20  C   UNL     1       0.089  50.686  -3.829  1.00  0.00    -0.000 C 
BRANCH  20  21
ATOM     21  C   UNL     1      -0.052  51.757  -4.926  1.00  0.00    -0.000 C 
BRANCH  21  22
ATOM     22  C   UNL     1      -1.503  52.108  -5.313  1.00  0.00    -0.000 C 
BRANCH  22  23
ATOM     23  C   UNL     1      -1.824  52.009  -6.818  1.00  0.00    -0.000 C 
BRANCH  23  24
ATOM     24  C   UNL     1      -3.102  51.221  -7.157  1.00  0.00    -0.000 C 
BRANCH  24  25
ATOM     25  C   UNL     1      -3.734  51.656  -8.488  1.00  0.00    -0.003 C 
ATOM     26  C   UNL     1      -2.661  51.970  -9.526  1.00  0.00     0.004 C 
ENDBRANCH  24  25
ENDBRANCH  23  24
ENDBRANCH  22  23
ENDBRANCH  21  22
ENDBRANCH  20  21
ENDBRANCH  19  20
ENDBRANCH  18  19
ENDBRANCH  17  18
ENDBRANCH  16  17
ENDBRANCH  15  16
ENDBRANCH   1  15
TORSDOF 22
ENDMDL
MODEL 5
REMARK VINA RESULT:     5.951      3.423      4.899
REMARK INTER + INTRA:          12.650
REMARK INTER:                  12.516
REMARK INTRA:                   0.134
REMARK UNBOUND:                -0.955
REMARK SMILES CCCCCCCCCCCCCCCCCCCCCCCC(=O)[O-]
REMARK SMILES IDX 13 1 14 2 15 3 16 4 17 5 18 6 19 7 20 8 21 9 22 10 23 11
REMARK SMILES IDX 24 12 25 13 26 14 12 15 11 16 10 17 9 18 8 19 7 20 6 21 5 22
REMARK SMILES IDX 4 23 3 24 2 25 1 26
REMARK H PARENT
REMARK Flexibility Score: inf
ROOT
ATOM      1  C   UNL     1      -8.117  48.368  -1.451  1.00  0.00     0.000 C 
ENDROOT
BRANCH   1   2
ATOM      2  C   UNL     1      -8.992  48.924  -2.591  1.00  0.00     0.000 C 
BRANCH   2   3
ATOM      3  C   UNL     1      -8.330  50.017  -3.451  1.00  0.00     0.000 C 
BRANCH   3   4
ATOM      4  C   UNL     1      -8.603  51.436  -2.930  1.00  0.00     0.000 C 
BRANCH   4   5
ATOM      5  C   UNL     1      -9.081  51.400  -1.474  1.00  0.00     0.000 C 
BRANCH   5   6
ATOM      6  C   UNL     1      -7.972  50.896  -0.538  1.00  0.00     0.000 C 
BRANCH   6   7
ATOM      7  C   UNL     1      -7.782  51.809   0.693  1.00  0.00     0.000 C 
BRANCH   7   8
ATOM      8  C   UNL     1      -6.308  52.125   1.015  1.00  0.00     0.000 C 
BRANCH   8   9
ATOM      9  C   UNL     1      -5.283  51.176   0.371  1.00  0.00     0.000 C 
BRANCH   9  10
ATOM     10  C   UNL     1      -3.828  51.630   0.588  1.00  0.00     0.006 C 
BRANCH  10  11
ATOM     11  C   UNL     1      -2.877  51.045  -0.464  1.00  0.00     0.053 C 
BRANCH  11  12
ATOM     12  C   UNL     1      -1.543  51.724  -0.446  1.00  0.00     0.041 C 
ATOM     13  O   UNL     1      -0.976  51.986   0.648  1.00  0.00    -0.550 OA
ATOM     14  O   UNL     1      -0.916  52.058  -1.641  1.00  0.00    -0.550 OA
ENDBRANCH  11  12
ENDBRANCH  10  11
ENDBRANCH   9  10
ENDBRANCH   8   9
ENDBRANCH   7   8
ENDBRANCH   6   7
ENDBRANCH   5   6
ENDBRANCH   4   5
ENDBRANCH   3   4
ENDBRANCH   2   3
ENDBRANCH   1   2
BRANCH   1  15
ATOM     15  C   UNL     1      -6.982  47.419  -1.885  1.00  0.00     0.000 C 
BRANCH  15  16
ATOM     16  C   UNL     1      -7.215  45.941  -1.506  1.00  0.00     0.000 C 
BRANCH  16  17
ATOM     17  C   UNL     1      -6.502  44.961  -2.450  1.00  0.00     0.000 C 
BRANCH  17  18
ATOM     18  C   UNL     1      -6.121  43.667  -1.720  1.00  0.00    -0.000 C 
BRANCH  18  19
ATOM     19  C   UNL     1      -4.936  43.899  -0.774  1.00  0.00    -0.000 C 
BRANCH  19  20
ATOM     20  C   UNL     1      -3.921  42.750  -0.872  1.00  0.00    -0.000 C 
BRANCH  20  21
ATOM     21  C   UNL     1      -2.589  43.183  -1.509  1.00  0.00    -0.000 C 
BRANCH  21  22
ATOM     22  C   UNL     1      -2.433  44.702  -1.727  1.00  0.00    -0.000 C 
BRANCH  22  23
ATOM     23  C   UNL     1      -0.979  45.206  -1.821  1.00  0.00    -0.000 C 
BRANCH  23  24
ATOM     24  C   UNL     1       0.046  44.147  -2.270  1.00  0.00    -0.000 C 
BRANCH  24  25
ATOM     25  C   UNL     1       0.358  44.223  -3.773  1.00  0.00    -0.003 C 
ATOM     26  C   UNL     1       0.187  42.859  -4.437  1.00  0.00     0.004 C 
ENDBRANCH  24  25
ENDBRANCH  23  24
ENDBRANCH  22  23
ENDBRANCH  21  22
ENDBRANCH  20  21
ENDBRANCH  19  20
ENDBRANCH  18  19
ENDBRANCH  17  18
ENDBRANCH  16  17
ENDBRANCH  15  16
ENDBRANCH   1  15
TORSDOF 22
ENDMDL
MODEL 6
REMARK VINA RESULT:     6.327      3.945      8.619
REMARK INTER + INTRA:          13.510
REMARK INTER:                  14.414
REMARK INTRA:                  -0.904
REMARK UNBOUND:                -0.955
REMARK SMILES CCCCCCCCCCCCCCCCCCCCCCCC(=O)[O-]
REMARK SMILES IDX 13 1 14 2 15 3 16 4 17 5 18 6 19 7 20 8 21 9 22 10 23 11
REMARK SMILES IDX 24 12 25 13 26 14 12 15 11 16 10 17 9 18 8 19 7 20 6 21 5 22
REMARK SMILES IDX 4 23 3 24 2 25 1 26
REMARK H PARENT
REMARK Flexibility Score: inf
ROOT
ATOM      1  C   UNL     1      -6.836  47.023  -2.214  1.00  0.00     0.000 C 
ENDROOT
BRANCH   1   2
ATOM      2  C   UNL     1      -6.908  45.693  -1.440  1.00  0.00     0.000 C 
BRANCH   2   3
ATOM      3  C   UNL     1      -6.254  44.490  -2.143  1.00  0.00     0.000 C 
BRANCH   3   4
ATOM      4  C   UNL     1      -6.651  43.143  -1.519  1.00  0.00     0.000 C 
BRANCH   4   5
ATOM      5  C   UNL     1      -5.443  42.205  -1.431  1.00  0.00     0.000 C 
BRANCH   5   6
ATOM      6  C   UNL     1      -4.361  42.780  -0.504  1.00  0.00     0.000 C 
BRANCH   6   7
ATOM      7  C   UNL     1      -3.053  43.105  -1.258  1.00  0.00     0.000 C 
BRANCH   7   8
ATOM      8  C   UNL     1      -2.855  44.605  -1.549  1.00  0.00     0.000 C 
BRANCH   8   9
ATOM      9  C   UNL     1      -1.486  45.174  -1.138  1.00  0.00     0.000 C 
BRANCH   9  10
ATOM     10  C   UNL     1      -0.404  44.967  -2.214  1.00  0.00     0.006 C 
BRANCH  10  11
ATOM     11  C   UNL     1      -0.562  43.626  -2.941  1.00  0.00     0.053 C 
BRANCH  11  12
ATOM     12  C   UNL     1       0.359  43.519  -4.117  1.00  0.00     0.041 C 
ATOM     13  O   UNL     1       0.950  44.541  -4.557  1.00  0.00    -0.550 OA
ATOM     14  O   UNL     1       0.577  42.286  -4.720  1.00  0.00    -0.550 OA
ENDBRANCH  11  12
ENDBRANCH  10  11
ENDBRANCH   9  10
ENDBRANCH   8   9
ENDBRANCH   7   8
ENDBRANCH   6   7
ENDBRANCH   5   6
ENDBRANCH   4   5
ENDBRANCH   3   4
ENDBRANCH   2   3
ENDBRANCH   1   2
BRANCH   1  15
ATOM     15  C   UNL     1      -7.946  48.043  -1.891  1.00  0.00     0.000 C 
BRANCH  15  16
ATOM     16  C   UNL     1      -8.056  49.200  -2.905  1.00  0.00     0.000 C 
BRANCH  16  17
ATOM     17  C   UNL     1      -9.052  50.287  -2.469  1.00  0.00     0.000 C 
BRANCH  17  18
ATOM     18  C   UNL     1      -8.325  51.585  -2.096  1.00  0.00    -0.000 C 
BRANCH  18  19
ATOM     19  C   UNL     1      -8.048  51.645  -0.588  1.00  0.00    -0.000 C 
BRANCH  19  20
ATOM     20  C   UNL     1      -6.614  52.121  -0.312  1.00  0.00    -0.000 C 
BRANCH  20  21
ATOM     21  C   UNL     1      -5.707  51.002   0.229  1.00  0.00    -0.000 C 
BRANCH  21  22
ATOM     22  C   UNL     1      -4.321  51.466   0.721  1.00  0.00    -0.000 C 
BRANCH  22  23
ATOM     23  C   UNL     1      -3.188  50.431   0.568  1.00  0.00    -0.000 C 
BRANCH  23  24
ATOM     24  C   UNL     1      -2.163  50.752  -0.536  1.00  0.00    -0.000 C 
BRANCH  24  25
ATOM     25  C   UNL     1      -1.499  52.125  -0.349  1.00  0.00    -0.003 C 
ATOM     26  C   UNL     1      -0.574  52.125   0.865  1.00  0.00     0.004 C 
ENDBRANCH  24  25
ENDBRANCH  23  24
ENDBRANCH  22  23
ENDBRANCH  21  22
ENDBRANCH  20  21
ENDBRANCH  19  20
ENDBRANCH  18  19
ENDBRANCH  17  18
ENDBRANCH  16  17
ENDBRANCH  15  16
ENDBRANCH   1  15
TORSDOF 22
ENDMDL
MODEL 7
REMARK VINA RESULT:     6.363      3.002      9.473
REMARK INTER + INTRA:          13.591
REMARK INTER:                  14.746
REMARK INTRA:                  -1.155
REMARK UNBOUND:                -0.955
REMARK SMILES CCCCCCCCCCCCCCCCCCCCCCCC(=O)[O-]
REMARK SMILES IDX 13 1 14 2 15 3 16 4 17 5 18 6 19 7 20 8 21 9 22 10 23 11
REMARK SMILES IDX 24 12 25 13 26 14 12 15 11 16 10 17 9 18 8 19 7 20 6 21 5 22
REMARK SMILES IDX 4 23 3 24 2 25 1 26
REMARK H PARENT
REMARK Flexibility Score: inf
ROOT
ATOM      1  C   UNL     1      -6.177  45.704  -1.848  1.00  0.00     0.000 C 
ENDROOT
BRANCH   1   2
ATOM      2  C   UNL     1      -6.583  44.238  -1.602  1.00  0.00     0.000 C 
BRANCH   2   3
ATOM      3  C   UNL     1      -5.552  43.189  -2.057  1.00  0.00     0.000 C 
BRANCH   3   4
ATOM      4  C   UNL     1      -5.450  41.995  -1.096  1.00  0.00     0.000 C 
BRANCH   4   5
ATOM      5  C   UNL     1      -4.014  41.822  -0.591  1.00  0.00     0.000 C 
BRANCH   5   6
ATOM      6  C   UNL     1      -3.317  43.181  -0.424  1.00  0.00     0.000 C 
BRANCH   6   7
ATOM      7  C   UNL     1      -1.971  43.247  -1.178  1.00  0.00     0.000 C 
BRANCH   7   8
ATOM      8  C   UNL     1      -1.807  44.503  -2.055  1.00  0.00     0.000 C 
BRANCH   8   9
ATOM      9  C   UNL     1      -0.354  44.863  -2.413  1.00  0.00     0.000 C 
BRANCH   9  10
ATOM     10  C   UNL     1       0.099  44.262  -3.755  1.00  0.00     0.006 C 
BRANCH  10  11
ATOM     11  C   UNL     1       0.702  42.862  -3.586  1.00  0.00     0.053 C 
BRANCH  11  12
ATOM     12  C   UNL     1       0.332  41.956  -4.721  1.00  0.00     0.041 C 
ATOM     13  O   UNL     1       0.042  42.436  -5.849  1.00  0.00    -0.550 OA
ATOM     14  O   UNL     1       0.322  40.579  -4.536  1.00  0.00    -0.550 OA
ENDBRANCH  11  12
ENDBRANCH  10  11
ENDBRANCH   9  10
ENDBRANCH   8   9
ENDBRANCH   7   8
ENDBRANCH   6   7
ENDBRANCH   5   6
ENDBRANCH   4   5
ENDBRANCH   3   4
ENDBRANCH   2   3
ENDBRANCH   1   2
BRANCH   1  15
ATOM     15  C   UNL     1      -6.955  46.756  -1.030  1.00  0.00     0.000 C 
BRANCH  15  16
ATOM     16  C   UNL     1      -7.286  48.045  -1.811  1.00  0.00     0.000 C 
BRANCH  16  17
ATOM     17  C   UNL     1      -7.822  49.169  -0.911  1.00  0.00     0.000 C 
BRANCH  17  18
ATOM     18  C   UNL     1      -8.896  49.991  -1.634  1.00  0.00    -0.000 C 
BRANCH  18  19
ATOM     19  C   UNL     1      -8.262  51.109  -2.472  1.00  0.00    -0.000 C 
BRANCH  19  20
ATOM     20  C   UNL     1      -9.059  51.348  -3.763  1.00  0.00    -0.000 C 
BRANCH  20  21
ATOM     21  C   UNL     1      -8.322  50.854  -5.020  1.00  0.00    -0.000 C 
BRANCH  21  22
ATOM     22  C   UNL     1      -7.998  51.949  -6.058  1.00  0.00    -0.000 C 
BRANCH  22  23
ATOM     23  C   UNL     1      -6.500  52.124  -6.380  1.00  0.00    -0.000 C 
BRANCH  23  24
ATOM     24  C   UNL     1      -6.084  51.670  -7.791  1.00  0.00    -0.000 C 
BRANCH  24  25
ATOM     25  C   UNL     1      -4.607  51.960  -8.097  1.00  0.00    -0.003 C 
ATOM     26  C   UNL     1      -3.693  50.971  -7.379  1.00  0.00     0.004 C 
ENDBRANCH  24  25
ENDBRANCH  23  24
ENDBRANCH  22  23
ENDBRANCH  21  22
ENDBRANCH  20  21
ENDBRANCH  19  20
ENDBRANCH  18  19
ENDBRANCH  17  18
ENDBRANCH  16  17
ENDBRANCH  15  16
ENDBRANCH   1  15
TORSDOF 22
ENDMDL
