MODEL 1
REMARK VINA RESULT:    -3.337      0.000      0.000
REMARK INTER + INTRA:          -8.561
REMARK INTER:                  -6.459
REMARK INTRA:                  -2.102
REMARK UNBOUND:                -2.102
REMARK SMILES CCCCCCCCCCCCCCCCCC(=O)[O-]
REMARK SMILES IDX 10 1 11 2 12 3 13 4 14 5 15 6 16 7 17 8 18 9 19 10 20 11
REMARK SMILES IDX 9 12 8 13 7 14 6 15 5 16 4 17 3 18 2 19 1 20
REMARK H PARENT
REMARK Flexibility Score: inf
ROOT
ATOM      1  C   UNL     1       0.637   9.940   6.185  1.00  0.00     0.000 C 
ENDROOT
BRANCH   1   2
ATOM      2  C   UNL     1       2.149   9.674   6.090  1.00  0.00     0.000 C 
BRANCH   2   3
ATOM      3  C   UNL     1       2.575   8.384   6.813  1.00  0.00     0.000 C 
BRANCH   3   4
ATOM      4  C   UNL     1       3.017   7.283   5.826  1.00  0.00     0.000 C 
BRANCH   4   5
ATOM      5  C   UNL     1       2.504   5.881   6.197  1.00  0.00     0.000 C 
BRANCH   5   6
ATOM      6  C   UNL     1       1.768   5.189   5.041  1.00  0.00     0.000 C 
BRANCH   6   7
ATOM      7  C   UNL     1       1.451   3.729   5.388  1.00  0.00     0.006 C 
BRANCH   7   8
ATOM      8  C   UNL     1       1.254   3.555   6.897  1.00  0.00     0.053 C 
BRANCH   8   9
ATOM      9  C   UNL     1       2.054   2.395   7.400  1.00  0.00     0.041 C 
ATOM     10  O   UNL     1       1.665   1.216   7.185  1.00  0.00    -0.550 OA
ATOM     11  O   UNL     1       3.203   2.615   8.149  1.00  0.00    -0.550 OA
ENDBRANCH   8   9
ENDBRANCH   7   8
ENDBRANCH   6   7
ENDBRANCH   5   6
ENDBRANCH   4   5
ENDBRANCH   3   4
ENDBRANCH   2   3
ENDBRANCH   1   2
BRANCH   1  12
ATOM     12  C   UNL     1      -0.164   9.189   5.108  1.00  0.00     0.000 C 
BRANCH  12  13
ATOM     13  C   UNL     1       0.491   9.263   3.716  1.00  0.00    -0.000 C 
BRANCH  13  14
ATOM     14  C   UNL     1       0.594   7.919   2.965  1.00  0.00    -0.000 C 
BRANCH  14  15
ATOM     15  C   UNL     1      -0.607   7.582   2.064  1.00  0.00    -0.000 C 
BRANCH  15  16
ATOM     16  C   UNL     1      -1.677   6.748   2.783  1.00  0.00    -0.000 C 
BRANCH  16  17
ATOM     17  C   UNL     1      -2.861   7.624   3.212  1.00  0.00    -0.000 C 
BRANCH  17  18
ATOM     18  C   UNL     1      -2.940   8.898   2.359  1.00  0.00    -0.000 C 
BRANCH  18  19
ATOM     19  C   UNL     1      -3.391  10.123   3.168  1.00  0.00    -0.003 C 
ATOM     20  C   UNL     1      -3.678   9.794   4.632  1.00  0.00     0.004 C 
ENDBRANCH  18  19
ENDBRANCH  17  18
ENDBRANCH  16  17
ENDBRANCH  15  16
ENDBRANCH  14  15
ENDBRANCH  13  14
ENDBRANCH  12  13
ENDBRANCH   1  12
TORSDOF 16
ENDMDL
MODEL 2
REMARK VINA RESULT:    -3.276     14.526     16.826
REMARK INTER + INTRA:          -8.443
REMARK INTER:                  -6.225
REMARK INTRA:                  -2.218
REMARK UNBOUND:                -2.102
REMARK SMILES CCCCCCCCCCCCCCCCCC(=O)[O-]
REMARK SMILES IDX 10 1 11 2 12 3 13 4 14 5 15 6 16 7 17 8 18 9 19 10 20 11
REMARK SMILES IDX 9 12 8 13 7 14 6 15 5 16 4 17 3 18 2 19 1 20
REMARK H PARENT
REMARK Flexibility Score: inf
ROOT
ATOM      1  C   UNL     1      -5.312  -6.691  -2.464  1.00  0.00     0.000 C 
ENDROOT
BRANCH   1   2
ATOM      2  C   UNL     1      -5.650  -5.779  -3.655  1.00  0.00     0.000 C 
BRANCH   2   3
ATOM      3  C   UNL     1      -5.977  -4.337  -3.230  1.00  0.00     0.000 C 
BRANCH   3   4
ATOM      4  C   UNL     1      -4.708  -3.465  -3.109  1.00  0.00     0.000 C 
BRANCH   4   5
ATOM      5  C   UNL     1      -4.232  -2.882  -4.450  1.00  0.00     0.000 C 
BRANCH   5   6
ATOM      6  C   UNL     1      -2.810  -3.322  -4.822  1.00  0.00     0.000 C 
BRANCH   6   7
ATOM      7  C   UNL     1      -1.992  -2.140  -5.359  1.00  0.00     0.006 C 
BRANCH   7   8
ATOM      8  C   UNL     1      -0.491  -2.390  -5.185  1.00  0.00     0.053 C 
BRANCH   8   9
ATOM      9  C   UNL     1       0.013  -1.716  -3.948  1.00  0.00     0.041 C 
ATOM     10  O   UNL     1       0.646  -2.375  -3.081  1.00  0.00    -0.550 OA
ATOM     11  O   UNL     1      -0.259  -0.372  -3.728  1.00  0.00    -0.550 OA
ENDBRANCH   8   9
ENDBRANCH   7   8
ENDBRANCH   6   7
ENDBRANCH   5   6
ENDBRANCH   4   5
ENDBRANCH   3   4
ENDBRANCH   2   3
ENDBRANCH   1   2
BRANCH   1  12
ATOM     12  C   UNL     1      -5.620  -8.171  -2.746  1.00  0.00     0.000 C 
BRANCH  12  13
ATOM     13  C   UNL     1      -6.439  -8.376  -4.034  1.00  0.00    -0.000 C 
BRANCH  13  14
ATOM     14  C   UNL     1      -7.897  -8.833  -3.822  1.00  0.00    -0.000 C 
BRANCH  14  15
ATOM     15  C   UNL     1      -8.956  -8.013  -4.580  1.00  0.00    -0.000 C 
BRANCH  15  16
ATOM     16  C   UNL     1      -9.273  -6.674  -3.899  1.00  0.00    -0.000 C 
BRANCH  16  17
ATOM     17  C   UNL     1      -9.718  -6.887  -2.447  1.00  0.00    -0.000 C 
BRANCH  17  18
ATOM     18  C   UNL     1      -9.070  -5.852  -1.516  1.00  0.00    -0.000 C 
BRANCH  18  19
ATOM     19  C   UNL     1      -8.256  -6.501  -0.386  1.00  0.00    -0.003 C 
ATOM     20  C   UNL     1      -8.491  -8.007  -0.276  1.00  0.00     0.004 C 
ENDBRANCH  18  19
ENDBRANCH  17  18
ENDBRANCH  16  17
ENDBRANCH  15  16
ENDBRANCH  14  15
ENDBRANCH  13  14
ENDBRANCH  12  13
ENDBRANCH   1  12
TORSDOF 16
ENDMDL
MODEL 3
REMARK VINA RESULT:    -3.269     15.396     17.851
REMARK INTER + INTRA:          -8.429
REMARK INTER:                  -5.261
REMARK INTRA:                  -3.168
REMARK UNBOUND:                -2.102
REMARK SMILES CCCCCCCCCCCCCCCCCC(=O)[O-]
REMARK SMILES IDX 10 1 11 2 12 3 13 4 14 5 15 6 16 7 17 8 18 9 19 10 20 11
REMARK SMILES IDX 9 12 8 13 7 14 6 15 5 16 4 17 3 18 2 19 1 20
REMARK H PARENT
REMARK Flexibility Score: inf
ROOT
ATOM      1  C   UNL     1      -8.708  -5.337   2.485  1.00  0.00     0.000 C 
ENDROOT
BRANCH   1   2
ATOM      2  C   UNL     1      -8.702  -4.692   1.089  1.00  0.00     0.000 C 
BRANCH   2   3
ATOM      3  C   UNL     1      -9.727  -5.327   0.133  1.00  0.00     0.000 C 
BRANCH   3   4
ATOM      4  C   UNL     1      -9.222  -5.356  -1.325  1.00  0.00     0.000 C 
BRANCH   4   5
ATOM      5  C   UNL     1      -9.976  -6.358  -2.217  1.00  0.00     0.000 C 
BRANCH   5   6
ATOM      6  C   UNL     1      -9.293  -6.582  -3.573  1.00  0.00     0.000 C 
BRANCH   6   7
ATOM      7  C   UNL     1      -7.766  -6.555  -3.431  1.00  0.00     0.006 C 
BRANCH   7   8
ATOM      8  C   UNL     1      -7.156  -7.902  -3.827  1.00  0.00     0.053 C 
BRANCH   8   9
ATOM      9  C   UNL     1      -5.663  -7.848  -3.738  1.00  0.00     0.041 C 
ATOM     10  O   UNL     1      -5.019  -7.003  -4.415  1.00  0.00    -0.550 OA
ATOM     11  O   UNL     1      -4.980  -8.763  -2.948  1.00  0.00    -0.550 OA
ENDBRANCH   8   9
ENDBRANCH   7   8
ENDBRANCH   6   7
ENDBRANCH   5   6
ENDBRANCH   4   5
ENDBRANCH   3   4
ENDBRANCH   2   3
ENDBRANCH   1   2
BRANCH   1  12
ATOM     12  C   UNL     1      -9.430  -6.695   2.506  1.00  0.00     0.000 C 
BRANCH  12  13
ATOM     13  C   UNL     1      -8.573  -7.817   3.121  1.00  0.00    -0.000 C 
BRANCH  13  14
ATOM     14  C   UNL     1      -8.203  -8.966   2.160  1.00  0.00    -0.000 C 
BRANCH  14  15
ATOM     15  C   UNL     1      -8.603  -8.742   0.691  1.00  0.00    -0.000 C 
BRANCH  15  16
ATOM     16  C   UNL     1      -7.403  -8.423  -0.212  1.00  0.00    -0.000 C 
BRANCH  16  17
ATOM     17  C   UNL     1      -6.080  -8.649   0.532  1.00  0.00    -0.000 C 
BRANCH  17  18
ATOM     18  C   UNL     1      -5.198  -7.393   0.480  1.00  0.00    -0.000 C 
BRANCH  18  19
ATOM     19  C   UNL     1      -5.806  -6.279  -0.386  1.00  0.00    -0.003 C 
ATOM     20  C   UNL     1      -4.749  -5.367  -1.007  1.00  0.00     0.004 C 
ENDBRANCH  18  19
ENDBRANCH  17  18
ENDBRANCH  16  17
ENDBRANCH  15  16
ENDBRANCH  14  15
ENDBRANCH  13  14
ENDBRANCH  12  13
ENDBRANCH   1  12
TORSDOF 16
ENDMDL
MODEL 4
REMARK VINA RESULT:    -3.259      9.397     12.258
REMARK INTER + INTRA:          -8.410
REMARK INTER:                  -6.240
REMARK INTRA:                  -2.171
REMARK UNBOUND:                -2.102
REMARK SMILES CCCCCCCCCCCCCCCCCC(=O)[O-]
REMARK SMILES IDX 10 1 11 2 12 3 13 4 14 5 15 6 16 7 17 8 18 9 19 10 20 11
REMARK SMILES IDX 9 12 8 13 7 14 6 15 5 16 4 17 3 18 2 19 1 20
REMARK H PARENT
REMARK Flexibility Score: inf
ROOT
ATOM      1  C   UNL     1      -7.645   0.850  12.014  1.00  0.00     0.000 C 
ENDROOT
BRANCH   1   2
ATOM      2  C   UNL     1      -9.175   0.988  11.966  1.00  0.00     0.000 C 
BRANCH   2   3
ATOM      3  C   UNL     1      -9.897  -0.371  11.922  1.00  0.00     0.000 C 
BRANCH   3   4
ATOM      4  C   UNL     1      -8.920  -1.540  11.678  1.00  0.00     0.000 C 
BRANCH   4   5
ATOM      5  C   UNL     1      -9.144  -2.259  10.336  1.00  0.00     0.000 C 
BRANCH   5   6
ATOM      6  C   UNL     1      -7.912  -2.216   9.423  1.00  0.00     0.000 C 
BRANCH   6   7
ATOM      7  C   UNL     1      -8.298  -1.796   7.999  1.00  0.00     0.006 C 
BRANCH   7   8
ATOM      8  C   UNL     1      -8.886  -0.382   7.986  1.00  0.00     0.053 C 
BRANCH   8   9
ATOM      9  C   UNL     1      -8.018   0.540   7.188  1.00  0.00     0.041 C 
ATOM     10  O   UNL     1      -6.771   0.550   7.369  1.00  0.00    -0.550 OA
ATOM     11  O   UNL     1      -8.590   1.422   6.281  1.00  0.00    -0.550 OA
ENDBRANCH   8   9
ENDBRANCH   7   8
ENDBRANCH   6   7
ENDBRANCH   5   6
ENDBRANCH   4   5
ENDBRANCH   3   4
ENDBRANCH   2   3
ENDBRANCH   1   2
BRANCH   1  12
ATOM     12  C   UNL     1      -6.967   1.338  10.723  1.00  0.00     0.000 C 
BRANCH  12  13
ATOM     13  C   UNL     1      -5.447   1.086  10.714  1.00  0.00    -0.000 C 
BRANCH  13  14
ATOM     14  C   UNL     1      -4.997  -0.248  11.346  1.00  0.00    -0.000 C 
BRANCH  14  15
ATOM     15  C   UNL     1      -4.528  -1.318  10.345  1.00  0.00    -0.000 C 
BRANCH  15  16
ATOM     16  C   UNL     1      -3.950  -0.718   9.056  1.00  0.00    -0.000 C 
BRANCH  16  17
ATOM     17  C   UNL     1      -2.471  -0.350   9.235  1.00  0.00    -0.000 C 
BRANCH  17  18
ATOM     18  C   UNL     1      -2.163   1.014   8.601  1.00  0.00    -0.000 C 
BRANCH  18  19
ATOM     19  C   UNL     1      -0.944   0.969   7.668  1.00  0.00    -0.003 C 
ATOM     20  C   UNL     1      -0.255   2.326   7.529  1.00  0.00     0.004 C 
ENDBRANCH  18  19
ENDBRANCH  17  18
ENDBRANCH  16  17
ENDBRANCH  15  16
ENDBRANCH  14  15
ENDBRANCH  13  14
ENDBRANCH  12  13
ENDBRANCH   1  12
TORSDOF 16
ENDMDL
MODEL 5
REMARK VINA RESULT:    -3.220     12.548     14.206
REMARK INTER + INTRA:          -8.334
REMARK INTER:                  -6.597
REMARK INTRA:                  -1.736
REMARK UNBOUND:                -2.102
REMARK SMILES CCCCCCCCCCCCCCCCCC(=O)[O-]
REMARK SMILES IDX 10 1 11 2 12 3 13 4 14 5 15 6 16 7 17 8 18 9 19 10 20 11
REMARK SMILES IDX 9 12 8 13 7 14 6 15 5 16 4 17 3 18 2 19 1 20
REMARK H PARENT
REMARK Flexibility Score: inf
ROOT
ATOM      1  C   UNL     1       4.839   0.386  -7.120  1.00  0.00     0.000 C 
ENDROOT
BRANCH   1   2
ATOM      2  C   UNL     1       6.313   0.787  -7.292  1.00  0.00     0.000 C 
BRANCH   2   3
ATOM      3  C   UNL     1       7.207  -0.390  -7.720  1.00  0.00     0.000 C 
BRANCH   3   4
ATOM      4  C   UNL     1       8.511  -0.459  -6.898  1.00  0.00     0.000 C 
BRANCH   4   5
ATOM      5  C   UNL     1       8.391   0.171  -5.500  1.00  0.00     0.000 C 
BRANCH   5   6
ATOM      6  C   UNL     1       8.218  -0.871  -4.387  1.00  0.00     0.000 C 
BRANCH   6   7
ATOM      7  C   UNL     1       6.900  -0.657  -3.633  1.00  0.00     0.006 C 
BRANCH   7   8
ATOM      8  C   UNL     1       6.583   0.835  -3.497  1.00  0.00     0.053 C 
BRANCH   8   9
ATOM      9  C   UNL     1       5.109   1.070  -3.609  1.00  0.00     0.041 C 
ATOM     10  O   UNL     1       4.667   2.232  -3.813  1.00  0.00    -0.550 OA
ATOM     11  O   UNL     1       4.221   0.017  -3.437  1.00  0.00    -0.550 OA
ENDBRANCH   8   9
ENDBRANCH   7   8
ENDBRANCH   6   7
ENDBRANCH   5   6
ENDBRANCH   4   5
ENDBRANCH   3   4
ENDBRANCH   2   3
ENDBRANCH   1   2
BRANCH   1  12
ATOM     12  C   UNL     1       4.651  -1.135  -6.991  1.00  0.00     0.000 C 
BRANCH  12  13
ATOM     13  C   UNL     1       3.187  -1.537  -6.735  1.00  0.00    -0.000 C 
BRANCH  13  14
ATOM     14  C   UNL     1       2.964  -2.488  -5.540  1.00  0.00    -0.000 C 
BRANCH  14  15
ATOM     15  C   UNL     1       1.624  -2.310  -4.804  1.00  0.00    -0.000 C 
BRANCH  15  16
ATOM     16  C   UNL     1       0.468  -1.950  -5.748  1.00  0.00    -0.000 C 
BRANCH  16  17
ATOM     17  C   UNL     1      -0.865  -1.900  -4.991  1.00  0.00    -0.000 C 
BRANCH  17  18
ATOM     18  C   UNL     1      -1.214  -3.274  -4.402  1.00  0.00    -0.000 C 
BRANCH  18  19
ATOM     19  C   UNL     1      -2.627  -3.740  -4.785  1.00  0.00    -0.003 C 
ATOM     20  C   UNL     1      -3.550  -2.582  -5.162  1.00  0.00     0.004 C 
ENDBRANCH  18  19
ENDBRANCH  17  18
ENDBRANCH  16  17
ENDBRANCH  15  16
ENDBRANCH  14  15
ENDBRANCH  13  14
ENDBRANCH  12  13
ENDBRANCH   1  12
TORSDOF 16
ENDMDL
MODEL 6
REMARK VINA RESULT:    -3.194      9.932     12.159
REMARK INTER + INTRA:          -8.283
REMARK INTER:                  -5.685
REMARK INTRA:                  -2.598
REMARK UNBOUND:                -2.102
REMARK SMILES CCCCCCCCCCCCCCCCCC(=O)[O-]
REMARK SMILES IDX 10 1 11 2 12 3 13 4 14 5 15 6 16 7 17 8 18 9 19 10 20 11
REMARK SMILES IDX 9 12 8 13 7 14 6 15 5 16 4 17 3 18 2 19 1 20
REMARK H PARENT
REMARK Flexibility Score: inf
ROOT
ATOM      1  C   UNL     1      -9.238  -2.017   9.816  1.00  0.00     0.000 C 
ENDROOT
BRANCH   1   2
ATOM      2  C   UNL     1      -9.669  -2.088  11.290  1.00  0.00     0.000 C 
BRANCH   2   3
ATOM      3  C   UNL     1      -9.666  -0.712  11.980  1.00  0.00     0.000 C 
BRANCH   3   4
ATOM      4  C   UNL     1      -9.090   0.393  11.071  1.00  0.00     0.000 C 
BRANCH   4   5
ATOM      5  C   UNL     1      -7.912   1.156  11.701  1.00  0.00     0.000 C 
BRANCH   5   6
ATOM      6  C   UNL     1      -6.620   0.330  11.746  1.00  0.00     0.000 C 
BRANCH   6   7
ATOM      7  C   UNL     1      -5.414   1.171  11.311  1.00  0.00     0.006 C 
BRANCH   7   8
ATOM      8  C   UNL     1      -4.272   0.278  10.816  1.00  0.00     0.053 C 
BRANCH   8   9
ATOM      9  C   UNL     1      -3.534   0.942   9.696  1.00  0.00     0.041 C 
ATOM     10  O   UNL     1      -2.835   0.256   8.904  1.00  0.00    -0.550 OA
ATOM     11  O   UNL     1      -3.577   2.323   9.557  1.00  0.00    -0.550 OA
ENDBRANCH   8   9
ENDBRANCH   7   8
ENDBRANCH   6   7
ENDBRANCH   5   6
ENDBRANCH   4   5
ENDBRANCH   3   4
ENDBRANCH   2   3
ENDBRANCH   1   2
BRANCH   1  12
ATOM     12  C   UNL     1      -7.959  -2.825   9.535  1.00  0.00     0.000 C 
BRANCH  12  13
ATOM     13  C   UNL     1      -7.259  -2.400   8.231  1.00  0.00    -0.000 C 
BRANCH  13  14
ATOM     14  C   UNL     1      -6.279  -1.216   8.365  1.00  0.00    -0.000 C 
BRANCH  14  15
ATOM     15  C   UNL     1      -6.558  -0.027   7.429  1.00  0.00    -0.000 C 
BRANCH  15  16
ATOM     16  C   UNL     1      -7.934   0.611   7.670  1.00  0.00    -0.000 C 
BRANCH  16  17
ATOM     17  C   UNL     1      -8.857   0.400   6.463  1.00  0.00    -0.000 C 
BRANCH  17  18
ATOM     18  C   UNL     1      -8.045   0.079   5.199  1.00  0.00    -0.000 C 
BRANCH  18  19
ATOM     19  C   UNL     1      -8.717  -0.985   4.319  1.00  0.00    -0.003 C 
ATOM     20  C   UNL     1      -8.712  -2.373   4.960  1.00  0.00     0.004 C 
ENDBRANCH  18  19
ENDBRANCH  17  18
ENDBRANCH  16  17
ENDBRANCH  15  16
ENDBRANCH  14  15
ENDBRANCH  13  14
ENDBRANCH  12  13
ENDBRANCH   1  12
TORSDOF 16
ENDMDL
MODEL 7
REMARK VINA RESULT:    -3.176     14.259     16.580
REMARK INTER + INTRA:          -8.249
REMARK INTER:                  -5.961
REMARK INTRA:                  -2.288
REMARK UNBOUND:                -2.102
REMARK SMILES CCCCCCCCCCCCCCCCCC(=O)[O-]
REMARK SMILES IDX 10 1 11 2 12 3 13 4 14 5 15 6 16 7 17 8 18 9 19 10 20 11
REMARK SMILES IDX 9 12 8 13 7 14 6 15 5 16 4 17 3 18 2 19 1 20
REMARK H PARENT
REMARK Flexibility Score: inf
ROOT
ATOM      1  C   UNL     1      -6.367  -6.585  -3.617  1.00  0.00     0.000 C 
ENDROOT
BRANCH   1   2
ATOM      2  C   UNL     1      -5.952  -5.366  -2.778  1.00  0.00     0.000 C 
BRANCH   2   3
ATOM      3  C   UNL     1      -6.077  -4.039  -3.548  1.00  0.00     0.000 C 
BRANCH   3   4
ATOM      4  C   UNL     1      -4.703  -3.490  -3.987  1.00  0.00     0.000 C 
BRANCH   4   5
ATOM      5  C   UNL     1      -3.515  -4.318  -3.469  1.00  0.00     0.000 C 
BRANCH   5   6
ATOM      6  C   UNL     1      -2.164  -3.822  -4.000  1.00  0.00     0.000 C 
BRANCH   6   7
ATOM      7  C   UNL     1      -2.358  -2.832  -5.156  1.00  0.00     0.006 C 
BRANCH   7   8
ATOM      8  C   UNL     1      -1.083  -2.019  -5.400  1.00  0.00     0.053 C 
BRANCH   8   9
ATOM      9  C   UNL     1      -0.871  -1.031  -4.296  1.00  0.00     0.041 C 
ATOM     10  O   UNL     1      -1.824  -0.306  -3.905  1.00  0.00    -0.550 OA
ATOM     11  O   UNL     1       0.389  -0.875  -3.734  1.00  0.00    -0.550 OA
ENDBRANCH   8   9
ENDBRANCH   7   8
ENDBRANCH   6   7
ENDBRANCH   5   6
ENDBRANCH   4   5
ENDBRANCH   3   4
ENDBRANCH   2   3
ENDBRANCH   1   2
BRANCH   1  12
ATOM     12  C   UNL     1      -6.508  -7.864  -2.774  1.00  0.00     0.000 C 
BRANCH  12  13
ATOM     13  C   UNL     1      -6.153  -7.643  -1.291  1.00  0.00    -0.000 C 
BRANCH  13  14
ATOM     14  C   UNL     1      -7.286  -7.950  -0.290  1.00  0.00    -0.000 C 
BRANCH  14  15
ATOM     15  C   UNL     1      -8.702  -7.589  -0.774  1.00  0.00    -0.000 C 
BRANCH  15  16
ATOM     16  C   UNL     1      -9.018  -6.094  -0.631  1.00  0.00    -0.000 C 
BRANCH  16  17
ATOM     17  C   UNL     1      -9.635  -5.536  -1.920  1.00  0.00    -0.000 C 
BRANCH  17  18
ATOM     18  C   UNL     1     -10.088  -6.672  -2.849  1.00  0.00    -0.000 C 
BRANCH  18  19
ATOM     19  C   UNL     1      -9.924  -6.321  -4.335  1.00  0.00    -0.003 C 
ATOM     20  C   UNL     1      -9.555  -4.856  -4.560  1.00  0.00     0.004 C 
ENDBRANCH  18  19
ENDBRANCH  17  18
ENDBRANCH  16  17
ENDBRANCH  15  16
ENDBRANCH  14  15
ENDBRANCH  13  14
ENDBRANCH  12  13
ENDBRANCH   1  12
TORSDOF 16
ENDMDL
MODEL 8
REMARK VINA RESULT:    -3.162     16.564     17.980
REMARK INTER + INTRA:          -8.222
REMARK INTER:                  -5.644
REMARK INTRA:                  -2.577
REMARK UNBOUND:                -2.102
REMARK SMILES CCCCCCCCCCCCCCCCCC(=O)[O-]
REMARK SMILES IDX 10 1 11 2 12 3 13 4 14 5 15 6 16 7 17 8 18 9 19 10 20 11
REMARK SMILES IDX 9 12 8 13 7 14 6 15 5 16 4 17 3 18 2 19 1 20
REMARK H PARENT
REMARK Flexibility Score: inf
ROOT
ATOM      1  C   UNL     1      -5.794  -7.506  -3.921  1.00  0.00     0.000 C 
ENDROOT
BRANCH   1   2
ATOM      2  C   UNL     1      -5.899  -6.793  -2.564  1.00  0.00     0.000 C 
BRANCH   2   3
ATOM      3  C   UNL     1      -5.048  -7.461  -1.470  1.00  0.00     0.000 C 
BRANCH   3   4
ATOM      4  C   UNL     1      -5.911  -8.007  -0.313  1.00  0.00     0.000 C 
BRANCH   4   5
ATOM      5  C   UNL     1      -7.365  -7.503  -0.339  1.00  0.00     0.000 C 
BRANCH   5   6
ATOM      6  C   UNL     1      -8.391  -8.630  -0.164  1.00  0.00     0.000 C 
BRANCH   6   7
ATOM      7  C   UNL     1      -8.257  -9.286   1.216  1.00  0.00     0.006 C 
BRANCH   7   8
ATOM      8  C   UNL     1      -8.831  -8.381   2.311  1.00  0.00     0.053 C 
BRANCH   8   9
ATOM      9  C   UNL     1      -7.917  -8.346   3.495  1.00  0.00     0.041 C 
ATOM     10  O   UNL     1      -6.762  -8.842   3.418  1.00  0.00    -0.550 OA
ATOM     11  O   UNL     1      -8.358  -7.812   4.699  1.00  0.00    -0.550 OA
ENDBRANCH   8   9
ENDBRANCH   7   8
ENDBRANCH   6   7
ENDBRANCH   5   6
ENDBRANCH   4   5
ENDBRANCH   3   4
ENDBRANCH   2   3
ENDBRANCH   1   2
BRANCH   1  12
ATOM     12  C   UNL     1      -6.375  -8.930  -3.887  1.00  0.00     0.000 C 
BRANCH  12  13
ATOM     13  C   UNL     1      -7.910  -8.947  -3.769  1.00  0.00    -0.000 C 
BRANCH  13  14
ATOM     14  C   UNL     1      -8.671  -8.419  -5.003  1.00  0.00    -0.000 C 
BRANCH  14  15
ATOM     15  C   UNL     1      -9.755  -7.368  -4.702  1.00  0.00    -0.000 C 
BRANCH  15  16
ATOM     16  C   UNL     1      -9.722  -6.876  -3.248  1.00  0.00    -0.000 C 
BRANCH  16  17
ATOM     17  C   UNL     1      -9.868  -5.351  -3.181  1.00  0.00    -0.000 C 
BRANCH  17  18
ATOM     18  C   UNL     1      -9.149  -4.784  -1.948  1.00  0.00    -0.000 C 
BRANCH  18  19
ATOM     19  C   UNL     1     -10.125  -4.338  -0.848  1.00  0.00    -0.003 C 
ATOM     20  C   UNL     1     -10.089  -5.248   0.380  1.00  0.00     0.004 C 
ENDBRANCH  18  19
ENDBRANCH  17  18
ENDBRANCH  16  17
ENDBRANCH  15  16
ENDBRANCH  14  15
ENDBRANCH  13  14
ENDBRANCH  12  13
ENDBRANCH   1  12
TORSDOF 16
ENDMDL
MODEL 9
REMARK VINA RESULT:    -3.149     15.800     18.253
REMARK INTER + INTRA:          -8.196
REMARK INTER:                  -5.846
REMARK INTRA:                  -2.350
REMARK UNBOUND:                -2.102
REMARK SMILES CCCCCCCCCCCCCCCCCC(=O)[O-]
REMARK SMILES IDX 10 1 11 2 12 3 13 4 14 5 15 6 16 7 17 8 18 9 19 10 20 11
REMARK SMILES IDX 9 12 8 13 7 14 6 15 5 16 4 17 3 18 2 19 1 20
REMARK H PARENT
REMARK Flexibility Score: inf
ROOT
ATOM      1  C   UNL     1      -8.542  -7.760  -0.103  1.00  0.00     0.000 C 
ENDROOT
BRANCH   1   2
ATOM      2  C   UNL     1      -8.580  -6.225  -0.172  1.00  0.00     0.000 C 
BRANCH   2   3
ATOM      3  C   UNL     1      -9.977  -5.677  -0.516  1.00  0.00     0.000 C 
BRANCH   3   4
ATOM      4  C   UNL     1      -9.956  -4.778  -1.771  1.00  0.00     0.000 C 
BRANCH   4   5
ATOM      5  C   UNL     1      -9.160  -5.376  -2.943  1.00  0.00     0.000 C 
BRANCH   5   6
ATOM      6  C   UNL     1      -9.944  -6.446  -3.714  1.00  0.00     0.000 C 
BRANCH   6   7
ATOM      7  C   UNL     1      -9.107  -7.719  -3.893  1.00  0.00     0.006 C 
BRANCH   7   8
ATOM      8  C   UNL     1      -7.619  -7.431  -3.677  1.00  0.00     0.053 C 
BRANCH   8   9
ATOM      9  C   UNL     1      -6.788  -8.582  -4.149  1.00  0.00     0.041 C 
ATOM     10  O   UNL     1      -7.137  -9.240  -5.165  1.00  0.00    -0.550 OA
ATOM     11  O   UNL     1      -5.656  -8.961  -3.439  1.00  0.00    -0.550 OA
ENDBRANCH   8   9
ENDBRANCH   7   8
ENDBRANCH   6   7
ENDBRANCH   5   6
ENDBRANCH   4   5
ENDBRANCH   3   4
ENDBRANCH   2   3
ENDBRANCH   1   2
BRANCH   1  12
ATOM     12  C   UNL     1      -7.260  -8.290   0.562  1.00  0.00     0.000 C 
BRANCH  12  13
ATOM     13  C   UNL     1      -7.530  -9.442   1.548  1.00  0.00    -0.000 C 
BRANCH  13  14
ATOM     14  C   UNL     1      -8.900  -9.394   2.257  1.00  0.00    -0.000 C 
BRANCH  14  15
ATOM     15  C   UNL     1      -8.948  -8.527   3.527  1.00  0.00    -0.000 C 
BRANCH  15  16
ATOM     16  C   UNL     1      -9.899  -7.329   3.396  1.00  0.00    -0.000 C 
BRANCH  16  17
ATOM     17  C   UNL     1      -9.374  -6.121   4.181  1.00  0.00    -0.000 C 
BRANCH  17  18
ATOM     18  C   UNL     1      -8.271  -5.393   3.399  1.00  0.00    -0.000 C 
BRANCH  18  19
ATOM     19  C   UNL     1      -8.474  -3.871   3.369  1.00  0.00    -0.003 C 
ATOM     20  C   UNL     1      -9.519  -3.432   2.344  1.00  0.00     0.004 C 
ENDBRANCH  18  19
ENDBRANCH  17  18
ENDBRANCH  16  17
ENDBRANCH  15  16
ENDBRANCH  14  15
ENDBRANCH  13  14
ENDBRANCH  12  13
ENDBRANCH   1  12
TORSDOF 16
ENDMDL
