MODEL 1
REMARK VINA RESULT:    -5.921      0.000      0.000
REMARK INTER + INTRA:         -19.870
REMARK INTER:                 -15.614
REMARK INTRA:                  -4.256
REMARK UNBOUND:                -4.256
REMARK SMILES CCCCCCCCCCCCCCCCCCCCCCCCCCCCCC(=O)[O-]
REMARK SMILES IDX 16 1 17 2 18 3 19 4 20 5 21 6 22 7 23 8 24 9 25 10 26 11
REMARK SMILES IDX 27 12 28 13 29 14 30 15 31 16 32 17 15 18 14 19 13 20 12 21
REMARK SMILES IDX 11 22 10 23 9 24 8 25 7 26 6 27 5 28 4 29 3 30 2 31 1 32
REMARK H PARENT
REMARK Flexibility Score: inf
ROOT
ATOM      1  C   UNL     1     118.504 179.423 126.531  1.00  0.00     0.000 C 
ENDROOT
BRANCH   1   2
ATOM      2  C   UNL     1     118.407 178.399 125.381  1.00  0.00     0.000 C 
BRANCH   2   3
ATOM      3  C   UNL     1     117.701 178.911 124.113  1.00  0.00     0.000 C 
BRANCH   3   4
ATOM      4  C   UNL     1     118.645 179.004 122.902  1.00  0.00     0.000 C 
BRANCH   4   5
ATOM      5  C   UNL     1     120.084 179.378 123.306  1.00  0.00     0.000 C 
BRANCH   5   6
ATOM      6  C   UNL     1     121.071 179.367 122.124  1.00  0.00     0.000 C 
BRANCH   6   7
ATOM      7  C   UNL     1     122.145 178.268 122.267  1.00  0.00     0.000 C 
BRANCH   7   8
ATOM      8  C   UNL     1     122.268 177.745 123.711  1.00  0.00     0.000 C 
BRANCH   8   9
ATOM      9  C   UNL     1     123.415 176.730 123.919  1.00  0.00     0.000 C 
BRANCH   9  10
ATOM     10  C   UNL     1     124.742 177.352 124.389  1.00  0.00     0.000 C 
BRANCH  10  11
ATOM     11  C   UNL     1     125.713 177.636 123.230  1.00  0.00     0.000 C 
BRANCH  11  12
ATOM     12  C   UNL     1     125.414 176.752 122.000  1.00  0.00     0.000 C 
BRANCH  12  13
ATOM     13  C   UNL     1     126.672 176.132 121.368  1.00  0.00     0.006 C 
BRANCH  13  14
ATOM     14  C   UNL     1     127.411 175.179 122.315  1.00  0.00     0.053 C 
BRANCH  14  15
ATOM     15  C   UNL     1     127.705 173.883 121.629  1.00  0.00     0.041 C 
ATOM     16  O   UNL     1     126.792 173.268 121.017  1.00  0.00    -0.550 OA
ATOM     17  O   UNL     1     128.997 173.374 121.629  1.00  0.00    -0.550 OA
ENDBRANCH  14  15
ENDBRANCH  13  14
ENDBRANCH  12  13
ENDBRANCH  11  12
ENDBRANCH  10  11
ENDBRANCH   9  10
ENDBRANCH   8   9
ENDBRANCH   7   8
ENDBRANCH   6   7
ENDBRANCH   5   6
ENDBRANCH   4   5
ENDBRANCH   3   4
ENDBRANCH   2   3
ENDBRANCH   1   2
BRANCH   1  18
ATOM     18  C   UNL     1     119.894 180.060 126.727  1.00  0.00     0.000 C 
BRANCH  18  19
ATOM     19  C   UNL     1     121.032 179.063 127.026  1.00  0.00     0.000 C 
BRANCH  19  20
ATOM     20  C   UNL     1     122.450 179.611 126.792  1.00  0.00     0.000 C 
BRANCH  20  21
ATOM     21  C   UNL     1     123.535 178.764 127.473  1.00  0.00     0.000 C 
BRANCH  21  22
ATOM     22  C   UNL     1     123.931 179.369 128.830  1.00  0.00     0.000 C 
BRANCH  22  23
ATOM     23  C   UNL     1     123.098 178.813 129.996  1.00  0.00     0.000 C 
BRANCH  23  24
ATOM     24  C   UNL     1     123.540 177.404 130.420  1.00  0.00    -0.000 C 
BRANCH  24  25
ATOM     25  C   UNL     1     122.439 176.371 130.151  1.00  0.00    -0.000 C 
BRANCH  25  26
ATOM     26  C   UNL     1     121.122 176.788 130.822  1.00  0.00    -0.000 C 
BRANCH  26  27
ATOM     27  C   UNL     1     120.106 175.638 130.916  1.00  0.00    -0.000 C 
BRANCH  27  28
ATOM     28  C   UNL     1     118.883 175.817 129.992  1.00  0.00    -0.000 C 
BRANCH  28  29
ATOM     29  C   UNL     1     119.242 176.542 128.683  1.00  0.00    -0.000 C 
BRANCH  29  30
ATOM     30  C   UNL     1     119.556 175.554 127.539  1.00  0.00    -0.000 C 
BRANCH  30  31
ATOM     31  C   UNL     1     120.928 175.788 126.885  1.00  0.00    -0.003 C 
ATOM     32  C   UNL     1     121.537 174.512 126.303  1.00  0.00     0.004 C 
ENDBRANCH  30  31
ENDBRANCH  29  30
ENDBRANCH  28  29
ENDBRANCH  27  28
ENDBRANCH  26  27
ENDBRANCH  25  26
ENDBRANCH  24  25
ENDBRANCH  23  24
ENDBRANCH  22  23
ENDBRANCH  21  22
ENDBRANCH  20  21
ENDBRANCH  19  20
ENDBRANCH  18  19
ENDBRANCH   1  18
TORSDOF 28
ENDMDL
MODEL 2
REMARK VINA RESULT:    -5.917      1.654      5.549
REMARK INTER + INTRA:         -19.858
REMARK INTER:                 -15.281
REMARK INTRA:                  -4.577
REMARK UNBOUND:                -4.256
REMARK SMILES CCCCCCCCCCCCCCCCCCCCCCCCCCCCCC(=O)[O-]
REMARK SMILES IDX 16 1 17 2 18 3 19 4 20 5 21 6 22 7 23 8 24 9 25 10 26 11
REMARK SMILES IDX 27 12 28 13 29 14 30 15 31 16 32 17 15 18 14 19 13 20 12 21
REMARK SMILES IDX 11 22 10 23 9 24 8 25 7 26 6 27 5 28 4 29 3 30 2 31 1 32
REMARK H PARENT
REMARK Flexibility Score: inf
ROOT
ATOM      1  C   UNL     1     122.116 173.900 127.073  1.00  0.00     0.000 C 
ENDROOT
BRANCH   1   2
ATOM      2  C   UNL     1     121.966 175.273 127.761  1.00  0.00     0.000 C 
BRANCH   2   3
ATOM      3  C   UNL     1     122.555 175.356 129.180  1.00  0.00     0.000 C 
BRANCH   3   4
ATOM      4  C   UNL     1     122.398 176.751 129.810  1.00  0.00     0.000 C 
BRANCH   4   5
ATOM      5  C   UNL     1     123.751 177.465 130.001  1.00  0.00     0.000 C 
BRANCH   5   6
ATOM      6  C   UNL     1     123.972 178.624 129.010  1.00  0.00     0.000 C 
BRANCH   6   7
ATOM      7  C   UNL     1     122.684 178.997 128.247  1.00  0.00     0.000 C 
BRANCH   7   8
ATOM      8  C   UNL     1     122.949 179.336 126.768  1.00  0.00     0.000 C 
BRANCH   8   9
ATOM      9  C   UNL     1     123.746 178.253 126.005  1.00  0.00     0.000 C 
BRANCH   9  10
ATOM     10  C   UNL     1     122.932 177.488 124.946  1.00  0.00     0.000 C 
BRANCH  10  11
ATOM     11  C   UNL     1     123.798 176.548 124.090  1.00  0.00     0.000 C 
BRANCH  11  12
ATOM     12  C   UNL     1     124.041 177.120 122.676  1.00  0.00     0.000 C 
BRANCH  12  13
ATOM     13  C   UNL     1     125.508 177.498 122.410  1.00  0.00     0.006 C 
BRANCH  13  14
ATOM     14  C   UNL     1     126.495 176.397 122.820  1.00  0.00     0.053 C 
BRANCH  14  15
ATOM     15  C   UNL     1     126.777 175.490 121.665  1.00  0.00     0.041 C 
ATOM     16  O   UNL     1     126.924 175.964 120.507  1.00  0.00    -0.550 OA
ATOM     17  O   UNL     1     126.920 174.124 121.873  1.00  0.00    -0.550 OA
ENDBRANCH  14  15
ENDBRANCH  13  14
ENDBRANCH  12  13
ENDBRANCH  11  12
ENDBRANCH  10  11
ENDBRANCH   9  10
ENDBRANCH   8   9
ENDBRANCH   7   8
ENDBRANCH   6   7
ENDBRANCH   5   6
ENDBRANCH   4   5
ENDBRANCH   3   4
ENDBRANCH   2   3
ENDBRANCH   1   2
BRANCH   1  18
ATOM     18  C   UNL     1     122.632 172.765 127.978  1.00  0.00     0.000 C 
BRANCH  18  19
ATOM     19  C   UNL     1     121.595 171.674 128.312  1.00  0.00     0.000 C 
BRANCH  19  20
ATOM     20  C   UNL     1     120.205 172.202 128.708  1.00  0.00     0.000 C 
BRANCH  20  21
ATOM     21  C   UNL     1     120.042 172.369 130.226  1.00  0.00     0.000 C 
BRANCH  21  22
ATOM     22  C   UNL     1     119.603 173.800 130.575  1.00  0.00     0.000 C 
BRANCH  22  23
ATOM     23  C   UNL     1     118.879 174.501 129.414  1.00  0.00     0.000 C 
BRANCH  23  24
ATOM     24  C   UNL     1     118.358 175.895 129.798  1.00  0.00    -0.000 C 
BRANCH  24  25
ATOM     25  C   UNL     1     119.035 176.990 128.965  1.00  0.00    -0.000 C 
BRANCH  25  26
ATOM     26  C   UNL     1     118.729 176.809 127.471  1.00  0.00    -0.000 C 
BRANCH  26  27
ATOM     27  C   UNL     1     119.562 177.736 126.571  1.00  0.00    -0.000 C 
BRANCH  27  28
ATOM     28  C   UNL     1     119.165 179.223 126.678  1.00  0.00    -0.000 C 
BRANCH  28  29
ATOM     29  C   UNL     1     117.995 179.584 125.746  1.00  0.00    -0.000 C 
BRANCH  29  30
ATOM     30  C   UNL     1     118.169 178.981 124.336  1.00  0.00    -0.000 C 
BRANCH  30  31
ATOM     31  C   UNL     1     116.894 179.047 123.477  1.00  0.00    -0.003 C 
ATOM     32  C   UNL     1     117.149 178.732 122.003  1.00  0.00     0.004 C 
ENDBRANCH  30  31
ENDBRANCH  29  30
ENDBRANCH  28  29
ENDBRANCH  27  28
ENDBRANCH  26  27
ENDBRANCH  25  26
ENDBRANCH  24  25
ENDBRANCH  23  24
ENDBRANCH  22  23
ENDBRANCH  21  22
ENDBRANCH  20  21
ENDBRANCH  19  20
ENDBRANCH  18  19
ENDBRANCH   1  18
TORSDOF 28
ENDMDL
MODEL 3
REMARK VINA RESULT:    -5.831      5.500      8.429
REMARK INTER + INTRA:         -19.631
REMARK INTER:                 -16.093
REMARK INTRA:                  -3.538
REMARK UNBOUND:                -4.256
REMARK SMILES CCCCCCCCCCCCCCCCCCCCCCCCCCCCCC(=O)[O-]
REMARK SMILES IDX 16 1 17 2 18 3 19 4 20 5 21 6 22 7 23 8 24 9 25 10 26 11
REMARK SMILES IDX 27 12 28 13 29 14 30 15 31 16 32 17 15 18 14 19 13 20 12 21
REMARK SMILES IDX 11 22 10 23 9 24 8 25 7 26 6 27 5 28 4 29 3 30 2 31 1 32
REMARK H PARENT
REMARK Flexibility Score: inf
ROOT
ATOM      1  C   UNL     1     120.236 176.266 131.064  1.00  0.00     0.000 C 
ENDROOT
BRANCH   1   2
ATOM      2  C   UNL     1     119.123 176.179 129.999  1.00  0.00     0.000 C 
BRANCH   2   3
ATOM      3  C   UNL     1     118.708 174.750 129.607  1.00  0.00     0.000 C 
BRANCH   3   4
ATOM      4  C   UNL     1     119.859 173.737 129.741  1.00  0.00     0.000 C 
BRANCH   4   5
ATOM      5  C   UNL     1     119.454 172.323 129.281  1.00  0.00     0.000 C 
BRANCH   5   6
ATOM      6  C   UNL     1     118.955 171.428 130.431  1.00  0.00     0.000 C 
BRANCH   6   7
ATOM      7  C   UNL     1     119.999 170.369 130.844  1.00  0.00     0.000 C 
BRANCH   7   8
ATOM      8  C   UNL     1     121.327 170.516 130.079  1.00  0.00     0.000 C 
BRANCH   8   9
ATOM      9  C   UNL     1     121.932 169.177 129.599  1.00  0.00     0.000 C 
BRANCH   9  10
ATOM     10  C   UNL     1     123.427 169.242 129.241  1.00  0.00     0.000 C 
BRANCH  10  11
ATOM     11  C   UNL     1     124.243 168.098 129.867  1.00  0.00     0.000 C 
BRANCH  11  12
ATOM     12  C   UNL     1     124.195 166.819 129.004  1.00  0.00     0.000 C 
BRANCH  12  13
ATOM     13  C   UNL     1     123.924 165.540 129.815  1.00  0.00     0.006 C 
BRANCH  13  14
ATOM     14  C   UNL     1     125.197 164.931 130.417  1.00  0.00     0.053 C 
BRANCH  14  15
ATOM     15  C   UNL     1     126.063 164.358 129.341  1.00  0.00     0.041 C 
ATOM     16  O   UNL     1     127.200 164.853 129.112  1.00  0.00    -0.550 OA
ATOM     17  O   UNL     1     125.635 163.252 128.619  1.00  0.00    -0.550 OA
ENDBRANCH  14  15
ENDBRANCH  13  14
ENDBRANCH  12  13
ENDBRANCH  11  12
ENDBRANCH  10  11
ENDBRANCH   9  10
ENDBRANCH   8   9
ENDBRANCH   7   8
ENDBRANCH   6   7
ENDBRANCH   5   6
ENDBRANCH   4   5
ENDBRANCH   3   4
ENDBRANCH   2   3
ENDBRANCH   1   2
BRANCH   1  18
ATOM     18  C   UNL     1     121.424 177.176 130.696  1.00  0.00     0.000 C 
BRANCH  18  19
ATOM     19  C   UNL     1     122.617 176.456 130.035  1.00  0.00     0.000 C 
BRANCH  19  20
ATOM     20  C   UNL     1     123.916 177.278 129.972  1.00  0.00     0.000 C 
BRANCH  20  21
ATOM     21  C   UNL     1     123.712 178.665 129.345  1.00  0.00     0.000 C 
BRANCH  21  22
ATOM     22  C   UNL     1     123.905 178.611 127.821  1.00  0.00     0.000 C 
BRANCH  22  23
ATOM     23  C   UNL     1     122.972 179.573 127.068  1.00  0.00     0.000 C 
BRANCH  23  24
ATOM     24  C   UNL     1     121.493 179.177 127.187  1.00  0.00    -0.000 C 
BRANCH  24  25
ATOM     25  C   UNL     1     120.671 179.741 126.022  1.00  0.00    -0.000 C 
BRANCH  25  26
ATOM     26  C   UNL     1     120.428 178.665 124.953  1.00  0.00    -0.000 C 
BRANCH  26  27
ATOM     27  C   UNL     1     121.194 178.933 123.647  1.00  0.00    -0.000 C 
BRANCH  27  28
ATOM     28  C   UNL     1     122.112 177.769 123.219  1.00  0.00    -0.000 C 
BRANCH  28  29
ATOM     29  C   UNL     1     123.000 177.270 124.373  1.00  0.00    -0.000 C 
BRANCH  29  30
ATOM     30  C   UNL     1     122.676 175.814 124.767  1.00  0.00    -0.000 C 
BRANCH  30  31
ATOM     31  C   UNL     1     122.444 175.623 126.276  1.00  0.00    -0.003 C 
ATOM     32  C   UNL     1     120.964 175.531 126.647  1.00  0.00     0.004 C 
ENDBRANCH  30  31
ENDBRANCH  29  30
ENDBRANCH  28  29
ENDBRANCH  27  28
ENDBRANCH  26  27
ENDBRANCH  25  26
ENDBRANCH  24  25
ENDBRANCH  23  24
ENDBRANCH  22  23
ENDBRANCH  21  22
ENDBRANCH  20  21
ENDBRANCH  19  20
ENDBRANCH  18  19
ENDBRANCH   1  18
TORSDOF 28
ENDMDL
MODEL 4
REMARK VINA RESULT:    -5.811      1.153      4.077
REMARK INTER + INTRA:         -19.580
REMARK INTER:                 -15.272
REMARK INTRA:                  -4.308
REMARK UNBOUND:                -4.256
REMARK SMILES CCCCCCCCCCCCCCCCCCCCCCCCCCCCCC(=O)[O-]
REMARK SMILES IDX 16 1 17 2 18 3 19 4 20 5 21 6 22 7 23 8 24 9 25 10 26 11
REMARK SMILES IDX 27 12 28 13 29 14 30 15 31 16 32 17 15 18 14 19 13 20 12 21
REMARK SMILES IDX 11 22 10 23 9 24 8 25 7 26 6 27 5 28 4 29 3 30 2 31 1 32
REMARK H PARENT
REMARK Flexibility Score: inf
ROOT
ATOM      1  C   UNL     1     118.891 176.555 128.187  1.00  0.00     0.000 C 
ENDROOT
BRANCH   1   2
ATOM      2  C   UNL     1     119.587 175.856 127.001  1.00  0.00     0.000 C 
BRANCH   2   3
ATOM      3  C   UNL     1     120.922 175.170 127.342  1.00  0.00     0.000 C 
BRANCH   3   4
ATOM      4  C   UNL     1     121.727 174.776 126.092  1.00  0.00     0.000 C 
BRANCH   4   5
ATOM      5  C   UNL     1     122.818 175.809 125.747  1.00  0.00     0.000 C 
BRANCH   5   6
ATOM      6  C   UNL     1     122.642 176.438 124.352  1.00  0.00     0.000 C 
BRANCH   6   7
ATOM      7  C   UNL     1     123.442 177.749 124.195  1.00  0.00     0.000 C 
BRANCH   7   8
ATOM      8  C   UNL     1     124.863 177.649 124.779  1.00  0.00     0.000 C 
BRANCH   8   9
ATOM      9  C   UNL     1     125.973 177.480 123.717  1.00  0.00     0.000 C 
BRANCH   9  10
ATOM     10  C   UNL     1     125.718 176.352 122.701  1.00  0.00     0.000 C 
BRANCH  10  11
ATOM     11  C   UNL     1     126.436 176.581 121.360  1.00  0.00     0.000 C 
BRANCH  11  12
ATOM     12  C   UNL     1     126.945 175.258 120.748  1.00  0.00     0.000 C 
BRANCH  12  13
ATOM     13  C   UNL     1     127.913 174.489 121.665  1.00  0.00     0.006 C 
BRANCH  13  14
ATOM     14  C   UNL     1     128.229 173.078 121.154  1.00  0.00     0.053 C 
BRANCH  14  15
ATOM     15  C   UNL     1     129.387 172.497 121.901  1.00  0.00     0.041 C 
ATOM     16  O   UNL     1     130.125 173.239 122.604  1.00  0.00    -0.550 OA
ATOM     17  O   UNL     1     129.628 171.131 121.858  1.00  0.00    -0.550 OA
ENDBRANCH  14  15
ENDBRANCH  13  14
ENDBRANCH  12  13
ENDBRANCH  11  12
ENDBRANCH  10  11
ENDBRANCH   9  10
ENDBRANCH   8   9
ENDBRANCH   7   8
ENDBRANCH   6   7
ENDBRANCH   5   6
ENDBRANCH   4   5
ENDBRANCH   3   4
ENDBRANCH   2   3
ENDBRANCH   1   2
BRANCH   1  18
ATOM     18  C   UNL     1     118.472 175.625 129.342  1.00  0.00     0.000 C 
BRANCH  18  19
ATOM     19  C   UNL     1     118.962 176.059 130.738  1.00  0.00     0.000 C 
BRANCH  19  20
ATOM     20  C   UNL     1     120.422 175.690 131.055  1.00  0.00     0.000 C 
BRANCH  20  21
ATOM     21  C   UNL     1     121.376 176.887 130.937  1.00  0.00     0.000 C 
BRANCH  21  22
ATOM     22  C   UNL     1     122.644 176.503 130.158  1.00  0.00     0.000 C 
BRANCH  22  23
ATOM     23  C   UNL     1     123.695 177.624 130.137  1.00  0.00     0.000 C 
BRANCH  23  24
ATOM     24  C   UNL     1     124.173 177.961 128.716  1.00  0.00    -0.000 C 
BRANCH  24  25
ATOM     25  C   UNL     1     123.771 179.386 128.318  1.00  0.00    -0.000 C 
BRANCH  25  26
ATOM     26  C   UNL     1     122.700 179.366 127.217  1.00  0.00    -0.000 C 
BRANCH  26  27
ATOM     27  C   UNL     1     121.300 179.013 127.749  1.00  0.00    -0.000 C 
BRANCH  27  28
ATOM     28  C   UNL     1     120.155 179.715 126.988  1.00  0.00    -0.000 C 
BRANCH  28  29
ATOM     29  C   UNL     1     120.459 179.868 125.488  1.00  0.00    -0.000 C 
BRANCH  29  30
ATOM     30  C   UNL     1     119.783 178.766 124.644  1.00  0.00    -0.000 C 
BRANCH  30  31
ATOM     31  C   UNL     1     119.523 179.181 123.186  1.00  0.00    -0.003 C 
ATOM     32  C   UNL     1     120.808 179.441 122.400  1.00  0.00     0.004 C 
ENDBRANCH  30  31
ENDBRANCH  29  30
ENDBRANCH  28  29
ENDBRANCH  27  28
ENDBRANCH  26  27
ENDBRANCH  25  26
ENDBRANCH  24  25
ENDBRANCH  23  24
ENDBRANCH  22  23
ENDBRANCH  21  22
ENDBRANCH  20  21
ENDBRANCH  19  20
ENDBRANCH  18  19
ENDBRANCH   1  18
TORSDOF 28
ENDMDL
MODEL 5
REMARK VINA RESULT:    -5.753      1.761      5.529
REMARK INTER + INTRA:         -19.426
REMARK INTER:                 -14.859
REMARK INTRA:                  -4.567
REMARK UNBOUND:                -4.256
REMARK SMILES CCCCCCCCCCCCCCCCCCCCCCCCCCCCCC(=O)[O-]
REMARK SMILES IDX 16 1 17 2 18 3 19 4 20 5 21 6 22 7 23 8 24 9 25 10 26 11
REMARK SMILES IDX 27 12 28 13 29 14 30 15 31 16 32 17 15 18 14 19 13 20 12 21
REMARK SMILES IDX 11 22 10 23 9 24 8 25 7 26 6 27 5 28 4 29 3 30 2 31 1 32
REMARK H PARENT
REMARK Flexibility Score: inf
ROOT
ATOM      1  C   UNL     1     119.196 174.551 130.085  1.00  0.00     0.000 C 
ENDROOT
BRANCH   1   2
ATOM      2  C   UNL     1     119.827 175.919 130.415  1.00  0.00     0.000 C 
BRANCH   2   3
ATOM      3  C   UNL     1     121.360 175.974 130.293  1.00  0.00     0.000 C 
BRANCH   3   4
ATOM      4  C   UNL     1     121.912 177.409 130.357  1.00  0.00     0.000 C 
BRANCH   4   5
ATOM      5  C   UNL     1     123.402 177.484 129.966  1.00  0.00     0.000 C 
BRANCH   5   6
ATOM      6  C   UNL     1     123.728 178.665 129.033  1.00  0.00     0.000 C 
BRANCH   6   7
ATOM      7  C   UNL     1     122.545 179.029 128.112  1.00  0.00     0.000 C 
BRANCH   7   8
ATOM      8  C   UNL     1     123.002 179.514 126.724  1.00  0.00     0.000 C 
BRANCH   8   9
ATOM      9  C   UNL     1     123.221 178.379 125.698  1.00  0.00     0.000 C 
BRANCH   9  10
ATOM     10  C   UNL     1     122.132 178.278 124.615  1.00  0.00     0.000 C 
BRANCH  10  11
ATOM     11  C   UNL     1     122.600 177.517 123.364  1.00  0.00     0.000 C 
BRANCH  11  12
ATOM     12  C   UNL     1     123.932 176.774 123.608  1.00  0.00     0.000 C 
BRANCH  12  13
ATOM     13  C   UNL     1     124.986 177.027 122.516  1.00  0.00     0.006 C 
BRANCH  13  14
ATOM     14  C   UNL     1     126.353 176.418 122.850  1.00  0.00     0.053 C 
BRANCH  14  15
ATOM     15  C   UNL     1     126.882 175.645 121.684  1.00  0.00     0.041 C 
ATOM     16  O   UNL     1     126.244 175.621 120.598  1.00  0.00    -0.550 OA
ATOM     17  O   UNL     1     128.101 174.988 121.781  1.00  0.00    -0.550 OA
ENDBRANCH  14  15
ENDBRANCH  13  14
ENDBRANCH  12  13
ENDBRANCH  11  12
ENDBRANCH  10  11
ENDBRANCH   9  10
ENDBRANCH   8   9
ENDBRANCH   7   8
ENDBRANCH   6   7
ENDBRANCH   5   6
ENDBRANCH   4   5
ENDBRANCH   3   4
ENDBRANCH   2   3
ENDBRANCH   1   2
BRANCH   1  18
ATOM     18  C   UNL     1     119.678 173.377 130.960  1.00  0.00     0.000 C 
BRANCH  18  19
ATOM     19  C   UNL     1     119.510 171.981 130.329  1.00  0.00     0.000 C 
BRANCH  19  20
ATOM     20  C   UNL     1     120.825 171.281 129.944  1.00  0.00     0.000 C 
BRANCH  20  21
ATOM     21  C   UNL     1     121.050 171.231 128.425  1.00  0.00     0.000 C 
BRANCH  21  22
ATOM     22  C   UNL     1     121.965 172.379 127.970  1.00  0.00     0.000 C 
BRANCH  22  23
ATOM     23  C   UNL     1     121.327 173.254 126.879  1.00  0.00     0.000 C 
BRANCH  23  24
ATOM     24  C   UNL     1     122.122 174.542 126.613  1.00  0.00    -0.000 C 
BRANCH  24  25
ATOM     25  C   UNL     1     121.258 175.786 126.850  1.00  0.00    -0.000 C 
BRANCH  25  26
ATOM     26  C   UNL     1     119.766 175.452 126.707  1.00  0.00    -0.000 C 
BRANCH  26  27
ATOM     27  C   UNL     1     118.894 176.693 126.454  1.00  0.00    -0.000 C 
BRANCH  27  28
ATOM     28  C   UNL     1     119.266 177.901 127.339  1.00  0.00    -0.000 C 
BRANCH  28  29
ATOM     29  C   UNL     1     118.855 179.240 126.702  1.00  0.00    -0.000 C 
BRANCH  29  30
ATOM     30  C   UNL     1     118.819 179.163 125.161  1.00  0.00    -0.000 C 
BRANCH  30  31
ATOM     31  C   UNL     1     117.423 179.411 124.565  1.00  0.00    -0.003 C 
ATOM     32  C   UNL     1     117.195 178.671 123.247  1.00  0.00     0.004 C 
ENDBRANCH  30  31
ENDBRANCH  29  30
ENDBRANCH  28  29
ENDBRANCH  27  28
ENDBRANCH  26  27
ENDBRANCH  25  26
ENDBRANCH  24  25
ENDBRANCH  23  24
ENDBRANCH  22  23
ENDBRANCH  21  22
ENDBRANCH  20  21
ENDBRANCH  19  20
ENDBRANCH  18  19
ENDBRANCH   1  18
TORSDOF 28
ENDMDL
MODEL 6
REMARK VINA RESULT:    -5.719      2.559      7.725
REMARK INTER + INTRA:         -19.337
REMARK INTER:                 -14.772
REMARK INTRA:                  -4.565
REMARK UNBOUND:                -4.256
REMARK SMILES CCCCCCCCCCCCCCCCCCCCCCCCCCCCCC(=O)[O-]
REMARK SMILES IDX 16 1 17 2 18 3 19 4 20 5 21 6 22 7 23 8 24 9 25 10 26 11
REMARK SMILES IDX 27 12 28 13 29 14 30 15 31 16 32 17 15 18 14 19 13 20 12 21
REMARK SMILES IDX 11 22 10 23 9 24 8 25 7 26 6 27 5 28 4 29 3 30 2 31 1 32
REMARK H PARENT
REMARK Flexibility Score: inf
ROOT
ATOM      1  C   UNL     1     118.908 177.907 126.785  1.00  0.00     0.000 C 
ENDROOT
BRANCH   1   2
ATOM      2  C   UNL     1     119.874 176.713 126.637  1.00  0.00     0.000 C 
BRANCH   2   3
ATOM      3  C   UNL     1     121.356 177.041 126.889  1.00  0.00     0.000 C 
BRANCH   3   4
ATOM      4  C   UNL     1     121.568 178.462 127.438  1.00  0.00     0.000 C 
BRANCH   4   5
ATOM      5  C   UNL     1     123.057 178.786 127.674  1.00  0.00     0.000 C 
BRANCH   5   6
ATOM      6  C   UNL     1     123.400 179.032 129.155  1.00  0.00     0.000 C 
BRANCH   6   7
ATOM      7  C   UNL     1     122.244 178.637 130.098  1.00  0.00     0.000 C 
BRANCH   7   8
ATOM      8  C   UNL     1     122.513 177.317 130.844  1.00  0.00     0.000 C 
BRANCH   8   9
ATOM      9  C   UNL     1     121.527 176.179 130.492  1.00  0.00     0.000 C 
BRANCH   9  10
ATOM     10  C   UNL     1     120.059 176.623 130.365  1.00  0.00     0.000 C 
BRANCH  10  11
ATOM     11  C   UNL     1     119.114 175.466 129.995  1.00  0.00     0.000 C 
BRANCH  11  12
ATOM     12  C   UNL     1     119.604 174.119 130.568  1.00  0.00     0.000 C 
BRANCH  12  13
ATOM     13  C   UNL     1     119.535 172.960 129.558  1.00  0.00     0.006 C 
BRANCH  13  14
ATOM     14  C   UNL     1     120.252 173.272 128.238  1.00  0.00     0.053 C 
BRANCH  14  15
ATOM     15  C   UNL     1     121.715 172.986 128.356  1.00  0.00     0.041 C 
ATOM     16  O   UNL     1     122.560 173.842 127.981  1.00  0.00    -0.550 OA
ATOM     17  O   UNL     1     122.146 171.792 128.919  1.00  0.00    -0.550 OA
ENDBRANCH  14  15
ENDBRANCH  13  14
ENDBRANCH  12  13
ENDBRANCH  11  12
ENDBRANCH  10  11
ENDBRANCH   9  10
ENDBRANCH   8   9
ENDBRANCH   7   8
ENDBRANCH   6   7
ENDBRANCH   5   6
ENDBRANCH   4   5
ENDBRANCH   3   4
ENDBRANCH   2   3
ENDBRANCH   1   2
BRANCH   1  18
ATOM     18  C   UNL     1     118.430 178.531 125.459  1.00  0.00     0.000 C 
BRANCH  18  19
ATOM     19  C   UNL     1     119.044 179.906 125.127  1.00  0.00     0.000 C 
BRANCH  19  20
ATOM     20  C   UNL     1     120.391 179.852 124.385  1.00  0.00     0.000 C 
BRANCH  20  21
ATOM     21  C   UNL     1     120.250 179.382 122.930  1.00  0.00     0.000 C 
BRANCH  21  22
ATOM     22  C   UNL     1     121.509 178.625 122.475  1.00  0.00     0.000 C 
BRANCH  22  23
ATOM     23  C   UNL     1     122.232 177.920 123.634  1.00  0.00     0.000 C 
BRANCH  23  24
ATOM     24  C   UNL     1     123.379 177.017 123.154  1.00  0.00    -0.000 C 
BRANCH  24  25
ATOM     25  C   UNL     1     124.615 177.166 124.048  1.00  0.00    -0.000 C 
BRANCH  25  26
ATOM     26  C   UNL     1     125.905 177.043 123.222  1.00  0.00    -0.000 C 
BRANCH  26  27
ATOM     27  C   UNL     1     125.650 176.588 121.776  1.00  0.00    -0.000 C 
BRANCH  27  28
ATOM     28  C   UNL     1     126.652 175.525 121.276  1.00  0.00    -0.000 C 
BRANCH  28  29
ATOM     29  C   UNL     1     127.626 175.077 122.380  1.00  0.00    -0.000 C 
BRANCH  29  30
ATOM     30  C   UNL     1     127.826 173.547 122.392  1.00  0.00    -0.000 C 
BRANCH  30  31
ATOM     31  C   UNL     1     126.727 172.790 123.158  1.00  0.00    -0.003 C 
ATOM     32  C   UNL     1     126.329 173.475 124.465  1.00  0.00     0.004 C 
ENDBRANCH  30  31
ENDBRANCH  29  30
ENDBRANCH  28  29
ENDBRANCH  27  28
ENDBRANCH  26  27
ENDBRANCH  25  26
ENDBRANCH  24  25
ENDBRANCH  23  24
ENDBRANCH  22  23
ENDBRANCH  21  22
ENDBRANCH  20  21
ENDBRANCH  19  20
ENDBRANCH  18  19
ENDBRANCH   1  18
TORSDOF 28
ENDMDL
MODEL 7
REMARK VINA RESULT:    -5.718      1.813      3.217
REMARK INTER + INTRA:         -19.334
REMARK INTER:                 -14.408
REMARK INTRA:                  -4.926
REMARK UNBOUND:                -4.256
REMARK SMILES CCCCCCCCCCCCCCCCCCCCCCCCCCCCCC(=O)[O-]
REMARK SMILES IDX 16 1 17 2 18 3 19 4 20 5 21 6 22 7 23 8 24 9 25 10 26 11
REMARK SMILES IDX 27 12 28 13 29 14 30 15 31 16 32 17 15 18 14 19 13 20 12 21
REMARK SMILES IDX 11 22 10 23 9 24 8 25 7 26 6 27 5 28 4 29 3 30 2 31 1 32
REMARK H PARENT
REMARK Flexibility Score: inf
ROOT
ATOM      1  C   UNL     1     119.225 177.124 127.443  1.00  0.00     0.000 C 
ENDROOT
BRANCH   1   2
ATOM      2  C   UNL     1     119.821 175.866 126.779  1.00  0.00     0.000 C 
BRANCH   2   3
ATOM      3  C   UNL     1     121.344 175.708 126.933  1.00  0.00     0.000 C 
BRANCH   3   4
ATOM      4  C   UNL     1     122.002 175.050 125.708  1.00  0.00     0.000 C 
BRANCH   4   5
ATOM      5  C   UNL     1     122.571 176.086 124.719  1.00  0.00     0.000 C 
BRANCH   5   6
ATOM      6  C   UNL     1     124.108 176.181 124.753  1.00  0.00     0.000 C 
BRANCH   6   7
ATOM      7  C   UNL     1     124.627 177.497 124.135  1.00  0.00     0.000 C 
BRANCH   7   8
ATOM      8  C   UNL     1     125.885 177.289 123.272  1.00  0.00     0.000 C 
BRANCH   8   9
ATOM      9  C   UNL     1     125.593 176.785 121.840  1.00  0.00     0.000 C 
BRANCH   9  10
ATOM     10  C   UNL     1     126.801 176.153 121.126  1.00  0.00     0.000 C 
BRANCH  10  11
ATOM     11  C   UNL     1     126.711 174.620 121.041  1.00  0.00     0.000 C 
BRANCH  11  12
ATOM     12  C   UNL     1     127.874 173.934 121.789  1.00  0.00     0.000 C 
BRANCH  12  13
ATOM     13  C   UNL     1     127.881 174.213 123.303  1.00  0.00     0.006 C 
BRANCH  13  14
ATOM     14  C   UNL     1     126.681 173.595 124.031  1.00  0.00     0.053 C 
BRANCH  14  15
ATOM     15  C   UNL     1     126.876 172.122 124.205  1.00  0.00     0.041 C 
ATOM     16  O   UNL     1     127.799 171.688 124.946  1.00  0.00    -0.550 OA
ATOM     17  O   UNL     1     126.013 171.229 123.585  1.00  0.00    -0.550 OA
ENDBRANCH  14  15
ENDBRANCH  13  14
ENDBRANCH  12  13
ENDBRANCH  11  12
ENDBRANCH  10  11
ENDBRANCH   9  10
ENDBRANCH   8   9
ENDBRANCH   7   8
ENDBRANCH   6   7
ENDBRANCH   5   6
ENDBRANCH   4   5
ENDBRANCH   3   4
ENDBRANCH   2   3
ENDBRANCH   1   2
BRANCH   1  18
ATOM     18  C   UNL     1     119.202 178.385 126.557  1.00  0.00     0.000 C 
BRANCH  18  19
ATOM     19  C   UNL     1     120.332 179.398 126.835  1.00  0.00     0.000 C 
BRANCH  19  20
ATOM     20  C   UNL     1     121.538 179.298 125.885  1.00  0.00     0.000 C 
BRANCH  20  21
ATOM     21  C   UNL     1     122.863 179.672 126.565  1.00  0.00     0.000 C 
BRANCH  21  22
ATOM     22  C   UNL     1     123.270 178.607 127.597  1.00  0.00     0.000 C 
BRANCH  22  23
ATOM     23  C   UNL     1     123.817 179.216 128.898  1.00  0.00     0.000 C 
BRANCH  23  24
ATOM     24  C   UNL     1     123.260 178.527 130.153  1.00  0.00    -0.000 C 
BRANCH  24  25
ATOM     25  C   UNL     1     121.866 177.944 129.894  1.00  0.00    -0.000 C 
BRANCH  25  26
ATOM     26  C   UNL     1     121.662 176.642 130.683  1.00  0.00    -0.000 C 
BRANCH  26  27
ATOM     27  C   UNL     1     120.180 176.267 130.849  1.00  0.00    -0.000 C 
BRANCH  27  28
ATOM     28  C   UNL     1     119.944 174.756 131.057  1.00  0.00    -0.000 C 
BRANCH  28  29
ATOM     29  C   UNL     1     119.139 174.128 129.906  1.00  0.00    -0.000 C 
BRANCH  29  30
ATOM     30  C   UNL     1     119.632 172.707 129.561  1.00  0.00    -0.000 C 
BRANCH  30  31
ATOM     31  C   UNL     1     121.015 172.682 128.889  1.00  0.00    -0.003 C 
ATOM     32  C   UNL     1     121.050 171.829 127.621  1.00  0.00     0.004 C 
ENDBRANCH  30  31
ENDBRANCH  29  30
ENDBRANCH  28  29
ENDBRANCH  27  28
ENDBRANCH  26  27
ENDBRANCH  25  26
ENDBRANCH  24  25
ENDBRANCH  23  24
ENDBRANCH  22  23
ENDBRANCH  21  22
ENDBRANCH  20  21
ENDBRANCH  19  20
ENDBRANCH  18  19
ENDBRANCH   1  18
TORSDOF 28
ENDMDL
MODEL 8
REMARK VINA RESULT:    -5.670      2.426      7.522
REMARK INTER + INTRA:         -19.207
REMARK INTER:                 -15.035
REMARK INTRA:                  -4.172
REMARK UNBOUND:                -4.256
REMARK SMILES CCCCCCCCCCCCCCCCCCCCCCCCCCCCCC(=O)[O-]
REMARK SMILES IDX 16 1 17 2 18 3 19 4 20 5 21 6 22 7 23 8 24 9 25 10 26 11
REMARK SMILES IDX 27 12 28 13 29 14 30 15 31 16 32 17 15 18 14 19 13 20 12 21
REMARK SMILES IDX 11 22 10 23 9 24 8 25 7 26 6 27 5 28 4 29 3 30 2 31 1 32
REMARK H PARENT
REMARK Flexibility Score: inf
ROOT
ATOM      1  C   UNL     1     120.863 179.372 127.401  1.00  0.00     0.000 C 
ENDROOT
BRANCH   1   2
ATOM      2  C   UNL     1     122.350 179.383 126.989  1.00  0.00     0.000 C 
BRANCH   2   3
ATOM      3  C   UNL     1     123.203 178.259 127.603  1.00  0.00     0.000 C 
BRANCH   3   4
ATOM      4  C   UNL     1     123.411 178.428 129.118  1.00  0.00     0.000 C 
BRANCH   4   5
ATOM      5  C   UNL     1     123.107 177.135 129.901  1.00  0.00     0.000 C 
BRANCH   5   6
ATOM      6  C   UNL     1     121.745 177.163 130.617  1.00  0.00     0.000 C 
BRANCH   6   7
ATOM      7  C   UNL     1     120.963 175.844 130.441  1.00  0.00     0.000 C 
BRANCH   7   8
ATOM      8  C   UNL     1     119.473 175.985 130.804  1.00  0.00     0.000 C 
BRANCH   8   9
ATOM      9  C   UNL     1     118.525 176.008 129.583  1.00  0.00     0.000 C 
BRANCH   9  10
ATOM     10  C   UNL     1     119.174 176.506 128.279  1.00  0.00     0.000 C 
BRANCH  10  11
ATOM     11  C   UNL     1     119.649 175.360 127.370  1.00  0.00     0.000 C 
BRANCH  11  12
ATOM     12  C   UNL     1     120.968 175.710 126.647  1.00  0.00     0.000 C 
BRANCH  12  13
ATOM     13  C   UNL     1     121.871 174.490 126.391  1.00  0.00     0.006 C 
BRANCH  13  14
ATOM     14  C   UNL     1     122.329 173.802 127.683  1.00  0.00     0.053 C 
BRANCH  14  15
ATOM     15  C   UNL     1     122.314 172.316 127.519  1.00  0.00     0.041 C 
ATOM     16  O   UNL     1     123.387 171.659 127.597  1.00  0.00    -0.550 OA
ATOM     17  O   UNL     1     121.112 171.651 127.323  1.00  0.00    -0.550 OA
ENDBRANCH  14  15
ENDBRANCH  13  14
ENDBRANCH  12  13
ENDBRANCH  11  12
ENDBRANCH  10  11
ENDBRANCH   9  10
ENDBRANCH   8   9
ENDBRANCH   7   8
ENDBRANCH   6   7
ENDBRANCH   5   6
ENDBRANCH   4   5
ENDBRANCH   3   4
ENDBRANCH   2   3
ENDBRANCH   1   2
BRANCH   1  18
ATOM     18  C   UNL     1     119.860 179.519 126.240  1.00  0.00     0.000 C 
BRANCH  18  19
ATOM     19  C   UNL     1     120.449 180.101 124.940  1.00  0.00     0.000 C 
BRANCH  19  20
ATOM     20  C   UNL     1     119.997 179.393 123.650  1.00  0.00     0.000 C 
BRANCH  20  21
ATOM     21  C   UNL     1     121.168 178.791 122.861  1.00  0.00     0.000 C 
BRANCH  21  22
ATOM     22  C   UNL     1     122.041 177.906 123.766  1.00  0.00     0.000 C 
BRANCH  22  23
ATOM     23  C   UNL     1     123.201 177.240 123.008  1.00  0.00     0.000 C 
BRANCH  23  24
ATOM     24  C   UNL     1     124.351 176.821 123.938  1.00  0.00    -0.000 C 
BRANCH  24  25
ATOM     25  C   UNL     1     125.713 177.175 123.330  1.00  0.00    -0.000 C 
BRANCH  25  26
ATOM     26  C   UNL     1     125.668 177.088 121.798  1.00  0.00    -0.000 C 
BRANCH  26  27
ATOM     27  C   UNL     1     126.642 176.044 121.227  1.00  0.00    -0.000 C 
BRANCH  27  28
ATOM     28  C   UNL     1     127.455 175.301 122.308  1.00  0.00    -0.000 C 
BRANCH  28  29
ATOM     29  C   UNL     1     127.087 173.809 122.392  1.00  0.00    -0.000 C 
BRANCH  29  30
ATOM     30  C   UNL     1     127.684 173.134 123.644  1.00  0.00    -0.000 C 
BRANCH  30  31
ATOM     31  C   UNL     1     126.757 172.082 124.276  1.00  0.00    -0.003 C 
ATOM     32  C   UNL     1     125.654 172.696 125.137  1.00  0.00     0.004 C 
ENDBRANCH  30  31
ENDBRANCH  29  30
ENDBRANCH  28  29
ENDBRANCH  27  28
ENDBRANCH  26  27
ENDBRANCH  25  26
ENDBRANCH  24  25
ENDBRANCH  23  24
ENDBRANCH  22  23
ENDBRANCH  21  22
ENDBRANCH  20  21
ENDBRANCH  19  20
ENDBRANCH  18  19
ENDBRANCH   1  18
TORSDOF 28
ENDMDL
MODEL 9
REMARK VINA RESULT:    -5.656      2.094      5.328
REMARK INTER + INTRA:         -19.170
REMARK INTER:                 -15.083
REMARK INTRA:                  -4.087
REMARK UNBOUND:                -4.256
REMARK SMILES CCCCCCCCCCCCCCCCCCCCCCCCCCCCCC(=O)[O-]
REMARK SMILES IDX 16 1 17 2 18 3 19 4 20 5 21 6 22 7 23 8 24 9 25 10 26 11
REMARK SMILES IDX 27 12 28 13 29 14 30 15 31 16 32 17 15 18 14 19 13 20 12 21
REMARK SMILES IDX 11 22 10 23 9 24 8 25 7 26 6 27 5 28 4 29 3 30 2 31 1 32
REMARK H PARENT
REMARK Flexibility Score: inf
ROOT
ATOM      1  C   UNL     1     120.548 170.719 128.545  1.00  0.00     0.000 C 
ENDROOT
BRANCH   1   2
ATOM      2  C   UNL     1     121.330 171.673 127.618  1.00  0.00     0.000 C 
BRANCH   2   3
ATOM      3  C   UNL     1     120.617 172.029 126.302  1.00  0.00     0.000 C 
BRANCH   3   4
ATOM      4  C   UNL     1     120.412 173.544 126.125  1.00  0.00     0.000 C 
BRANCH   4   5
ATOM      5  C   UNL     1     121.568 174.367 126.727  1.00  0.00     0.000 C 
BRANCH   5   6
ATOM      6  C   UNL     1     121.765 175.732 126.042  1.00  0.00     0.000 C 
BRANCH   6   7
ATOM      7  C   UNL     1     122.962 175.732 125.069  1.00  0.00     0.000 C 
BRANCH   7   8
ATOM      8  C   UNL     1     123.221 177.118 124.448  1.00  0.00     0.000 C 
BRANCH   8   9
ATOM      9  C   UNL     1     123.060 177.161 122.911  1.00  0.00     0.000 C 
BRANCH   9  10
ATOM     10  C   UNL     1     124.386 177.161 122.129  1.00  0.00     0.000 C 
BRANCH  10  11
ATOM     11  C   UNL     1     125.620 177.236 123.044  1.00  0.00     0.000 C 
BRANCH  11  12
ATOM     12  C   UNL     1     126.377 175.891 123.098  1.00  0.00     0.000 C 
BRANCH  12  13
ATOM     13  C   UNL     1     127.024 175.495 121.760  1.00  0.00     0.006 C 
BRANCH  13  14
ATOM     14  C   UNL     1     127.275 173.987 121.638  1.00  0.00     0.053 C 
BRANCH  14  15
ATOM     15  C   UNL     1     128.561 173.726 120.920  1.00  0.00     0.041 C 
ATOM     16  O   UNL     1     128.988 172.547 120.793  1.00  0.00    -0.550 OA
ATOM     17  O   UNL     1     129.267 174.779 120.354  1.00  0.00    -0.550 OA
ENDBRANCH  14  15
ENDBRANCH  13  14
ENDBRANCH  12  13
ENDBRANCH  11  12
ENDBRANCH  10  11
ENDBRANCH   9  10
ENDBRANCH   8   9
ENDBRANCH   7   8
ENDBRANCH   6   7
ENDBRANCH   5   6
ENDBRANCH   4   5
ENDBRANCH   3   4
ENDBRANCH   2   3
ENDBRANCH   1   2
BRANCH   1  18
ATOM     18  C   UNL     1     121.245 170.385 129.879  1.00  0.00     0.000 C 
BRANCH  18  19
ATOM     19  C   UNL     1     120.618 171.042 131.125  1.00  0.00     0.000 C 
BRANCH  19  20
ATOM     20  C   UNL     1     119.362 171.887 130.848  1.00  0.00     0.000 C 
BRANCH  20  21
ATOM     21  C   UNL     1     119.619 173.395 130.976  1.00  0.00     0.000 C 
BRANCH  21  22
ATOM     22  C   UNL     1     119.326 174.115 129.649  1.00  0.00     0.000 C 
BRANCH  22  23
ATOM     23  C   UNL     1     118.857 175.565 129.848  1.00  0.00     0.000 C 
BRANCH  23  24
ATOM     24  C   UNL     1     119.855 176.591 129.288  1.00  0.00    -0.000 C 
BRANCH  24  25
ATOM     25  C   UNL     1     121.066 176.751 130.215  1.00  0.00    -0.000 C 
BRANCH  25  26
ATOM     26  C   UNL     1     122.254 177.369 129.462  1.00  0.00    -0.000 C 
BRANCH  26  27
ATOM     27  C   UNL     1     121.920 178.730 128.829  1.00  0.00    -0.000 C 
BRANCH  27  28
ATOM     28  C   UNL     1     122.679 179.004 127.514  1.00  0.00    -0.000 C 
BRANCH  28  29
ATOM     29  C   UNL     1     121.771 179.611 126.431  1.00  0.00    -0.000 C 
BRANCH  29  30
ATOM     30  C   UNL     1     120.298 179.184 126.601  1.00  0.00    -0.000 C 
BRANCH  30  31
ATOM     31  C   UNL     1     119.636 178.723 125.292  1.00  0.00    -0.003 C 
ATOM     32  C   UNL     1     120.254 179.366 124.050  1.00  0.00     0.004 C 
ENDBRANCH  30  31
ENDBRANCH  29  30
ENDBRANCH  28  29
ENDBRANCH  27  28
ENDBRANCH  26  27
ENDBRANCH  25  26
ENDBRANCH  24  25
ENDBRANCH  23  24
ENDBRANCH  22  23
ENDBRANCH  21  22
ENDBRANCH  20  21
ENDBRANCH  19  20
ENDBRANCH  18  19
ENDBRANCH   1  18
TORSDOF 28
ENDMDL
