MODEL 1
REMARK VINA RESULT:    -4.184      0.000      0.000
REMARK INTER + INTRA:          -7.412
REMARK INTER:                  -6.630
REMARK INTRA:                  -0.782
REMARK UNBOUND:                -0.782
REMARK SMILES CCCCCCCCCCCC(=O)[O-]
REMARK SMILES IDX 7 1 8 2 9 3 10 4 11 5 12 6 13 7 14 8 6 9 5 10 4 11 3 12 2 13
REMARK SMILES IDX 1 14
REMARK H PARENT
REMARK Flexibility Score: inf
ROOT
ATOM      1  C   UNL     1      -3.413 -36.380  45.093  1.00  0.00     0.000 C 
ENDROOT
BRANCH   1   2
ATOM      2  C   UNL     1      -4.944 -36.247  45.088  1.00  0.00     0.000 C 
BRANCH   2   3
ATOM      3  C   UNL     1      -5.443 -35.173  44.107  1.00  0.00     0.000 C 
BRANCH   3   4
ATOM      4  C   UNL     1      -6.276 -34.082  44.799  1.00  0.00     0.006 C 
BRANCH   4   5
ATOM      5  C   UNL     1      -6.732 -34.504  46.202  1.00  0.00     0.053 C 
BRANCH   5   6
ATOM      6  C   UNL     1      -6.215 -33.575  47.258  1.00  0.00     0.041 C 
ATOM      7  O   UNL     1      -5.211 -33.896  47.947  1.00  0.00    -0.550 OA
ATOM      8  O   UNL     1      -6.824 -32.343  47.462  1.00  0.00    -0.550 OA
ENDBRANCH   5   6
ENDBRANCH   4   5
ENDBRANCH   3   4
ENDBRANCH   2   3
ENDBRANCH   1   2
BRANCH   1   9
ATOM      9  C   UNL     1      -2.803 -35.664  46.304  1.00  0.00     0.000 C 
BRANCH   9  10
ATOM     10  C   UNL     1      -2.268 -34.278  45.912  1.00  0.00    -0.000 C 
BRANCH  10  11
ATOM     11  C   UNL     1      -0.747 -34.153  46.095  1.00  0.00    -0.000 C 
BRANCH  11  12
ATOM     12  C   UNL     1       0.034 -35.188  45.267  1.00  0.00    -0.000 C 
BRANCH  12  13
ATOM     13  C   UNL     1       1.006 -34.533  44.272  1.00  0.00    -0.003 C 
ATOM     14  C   UNL     1       2.444 -34.490  44.790  1.00  0.00     0.004 C 
ENDBRANCH  12  13
ENDBRANCH  11  12
ENDBRANCH  10  11
ENDBRANCH   9  10
ENDBRANCH   1   9
TORSDOF 10
ENDMDL
MODEL 2
REMARK VINA RESULT:    -4.046     14.279     16.144
REMARK INTER + INTRA:          -7.194
REMARK INTER:                  -5.917
REMARK INTRA:                  -1.277
REMARK UNBOUND:                -0.782
REMARK SMILES CCCCCCCCCCCC(=O)[O-]
REMARK SMILES IDX 7 1 8 2 9 3 10 4 11 5 12 6 13 7 14 8 6 9 5 10 4 11 3 12 2 13
REMARK SMILES IDX 1 14
REMARK H PARENT
REMARK Flexibility Score: inf
ROOT
ATOM      1  C   UNL     1       6.283 -22.858  46.691  1.00  0.00     0.000 C 
ENDROOT
BRANCH   1   2
ATOM      2  C   UNL     1       4.761 -22.759  46.510  1.00  0.00     0.000 C 
BRANCH   2   3
ATOM      3  C   UNL     1       3.992 -22.962  47.826  1.00  0.00     0.000 C 
BRANCH   3   4
ATOM      4  C   UNL     1       3.185 -21.719  48.237  1.00  0.00     0.006 C 
BRANCH   4   5
ATOM      5  C   UNL     1       3.312 -20.582  47.214  1.00  0.00     0.053 C 
BRANCH   5   6
ATOM      6  C   UNL     1       2.189 -20.597  46.223  1.00  0.00     0.041 C 
ATOM      7  O   UNL     1       1.199 -21.354  46.398  1.00  0.00    -0.550 OA
ATOM      8  O   UNL     1       2.222 -19.752  45.120  1.00  0.00    -0.550 OA
ENDBRANCH   5   6
ENDBRANCH   4   5
ENDBRANCH   3   4
ENDBRANCH   2   3
ENDBRANCH   1   2
BRANCH   1   9
ATOM      9  C   UNL     1       6.643 -23.191  48.145  1.00  0.00     0.000 C 
BRANCH   9  10
ATOM     10  C   UNL     1       7.540 -22.102  48.753  1.00  0.00    -0.000 C 
BRANCH  10  11
ATOM     11  C   UNL     1       6.824 -20.748  48.884  1.00  0.00    -0.000 C 
BRANCH  11  12
ATOM     12  C   UNL     1       7.478 -19.650  48.027  1.00  0.00    -0.000 C 
BRANCH  12  13
ATOM     13  C   UNL     1       6.447 -18.679  47.429  1.00  0.00    -0.003 C 
ATOM     14  C   UNL     1       6.312 -18.819  45.912  1.00  0.00     0.004 C 
ENDBRANCH  12  13
ENDBRANCH  11  12
ENDBRANCH  10  11
ENDBRANCH   9  10
ENDBRANCH   1   9
TORSDOF 10
ENDMDL
MODEL 3
REMARK VINA RESULT:    -4.043      3.120      6.666
REMARK INTER + INTRA:          -7.189
REMARK INTER:                  -6.516
REMARK INTRA:                  -0.673
REMARK UNBOUND:                -0.782
REMARK SMILES CCCCCCCCCCCC(=O)[O-]
REMARK SMILES IDX 7 1 8 2 9 3 10 4 11 5 12 6 13 7 14 8 6 9 5 10 4 11 3 12 2 13
REMARK SMILES IDX 1 14
REMARK H PARENT
REMARK Flexibility Score: inf
ROOT
ATOM      1  C   UNL     1      -2.891 -35.395  45.801  1.00  0.00     0.000 C 
ENDROOT
BRANCH   1   2
ATOM      2  C   UNL     1      -1.372 -35.621  45.873  1.00  0.00     0.000 C 
BRANCH   2   3
ATOM      3  C   UNL     1      -0.841 -36.465  44.704  1.00  0.00     0.000 C 
BRANCH   3   4
ATOM      4  C   UNL     1       0.677 -36.318  44.510  1.00  0.00     0.006 C 
BRANCH   4   5
ATOM      5  C   UNL     1       1.102 -34.851  44.360  1.00  0.00     0.053 C 
BRANCH   5   6
ATOM      6  C   UNL     1       2.041 -34.428  45.448  1.00  0.00     0.041 C 
ATOM      7  O   UNL     1       3.269 -34.692  45.363  1.00  0.00    -0.550 OA
ATOM      8  O   UNL     1       1.564 -33.715  46.542  1.00  0.00    -0.550 OA
ENDBRANCH   5   6
ENDBRANCH   4   5
ENDBRANCH   3   4
ENDBRANCH   2   3
ENDBRANCH   1   2
BRANCH   1   9
ATOM      9  C   UNL     1      -3.624 -36.699  45.461  1.00  0.00     0.000 C 
BRANCH   9  10
ATOM     10  C   UNL     1      -5.119 -36.442  45.220  1.00  0.00    -0.000 C 
BRANCH  10  11
ATOM     11  C   UNL     1      -5.374 -35.309  44.213  1.00  0.00    -0.000 C 
BRANCH  11  12
ATOM     12  C   UNL     1      -6.166 -34.142  44.825  1.00  0.00    -0.000 C 
BRANCH  12  13
ATOM     13  C   UNL     1      -6.878 -34.534  46.129  1.00  0.00    -0.003 C 
ATOM     14  C   UNL     1      -6.852 -33.420  47.177  1.00  0.00     0.004 C 
ENDBRANCH  12  13
ENDBRANCH  11  12
ENDBRANCH  10  11
ENDBRANCH   9  10
ENDBRANCH   1   9
TORSDOF 10
ENDMDL
MODEL 4
REMARK VINA RESULT:    -3.996      3.217      6.815
REMARK INTER + INTRA:          -7.114
REMARK INTER:                  -6.325
REMARK INTRA:                  -0.788
REMARK UNBOUND:                -0.782
REMARK SMILES CCCCCCCCCCCC(=O)[O-]
REMARK SMILES IDX 7 1 8 2 9 3 10 4 11 5 12 6 13 7 14 8 6 9 5 10 4 11 3 12 2 13
REMARK SMILES IDX 1 14
REMARK H PARENT
REMARK Flexibility Score: inf
ROOT
ATOM      1  C   UNL     1      -1.079 -34.411  45.724  1.00  0.00     0.000 C 
ENDROOT
BRANCH   1   2
ATOM      2  C   UNL     1      -0.510 -35.827  45.545  1.00  0.00     0.000 C 
BRANCH   2   3
ATOM      3  C   UNL     1       0.663 -35.875  44.553  1.00  0.00     0.000 C 
BRANCH   3   4
ATOM      4  C   UNL     1       1.326 -34.502  44.353  1.00  0.00     0.006 C 
BRANCH   4   5
ATOM      5  C   UNL     1       2.772 -34.477  44.865  1.00  0.00     0.053 C 
BRANCH   5   6
ATOM      6  C   UNL     1       2.834 -34.320  46.354  1.00  0.00     0.041 C 
ATOM      7  O   UNL     1       3.581 -35.067  47.039  1.00  0.00    -0.550 OA
ATOM      8  O   UNL     1       2.090 -33.328  46.981  1.00  0.00    -0.550 OA
ENDBRANCH   5   6
ENDBRANCH   4   5
ENDBRANCH   3   4
ENDBRANCH   2   3
ENDBRANCH   1   2
BRANCH   1   9
ATOM      9  C   UNL     1      -2.587 -34.456  46.000  1.00  0.00     0.000 C 
BRANCH   9  10
ATOM     10  C   UNL     1      -3.142 -35.873  45.792  1.00  0.00    -0.000 C 
BRANCH  10  11
ATOM     11  C   UNL     1      -4.524 -35.878  45.120  1.00  0.00    -0.000 C 
BRANCH  11  12
ATOM     12  C   UNL     1      -5.650 -35.460  46.081  1.00  0.00    -0.000 C 
BRANCH  12  13
ATOM     13  C   UNL     1      -6.489 -34.294  45.533  1.00  0.00    -0.003 C 
ATOM     14  C   UNL     1      -6.160 -33.960  44.078  1.00  0.00     0.004 C 
ENDBRANCH  12  13
ENDBRANCH  11  12
ENDBRANCH  10  11
ENDBRANCH   9  10
ENDBRANCH   1   9
TORSDOF 10
ENDMDL
MODEL 5
REMARK VINA RESULT:    -3.995     15.007     17.275
REMARK INTER + INTRA:          -7.112
REMARK INTER:                  -6.034
REMARK INTRA:                  -1.078
REMARK UNBOUND:                -0.782
REMARK SMILES CCCCCCCCCCCC(=O)[O-]
REMARK SMILES IDX 7 1 8 2 9 3 10 4 11 5 12 6 13 7 14 8 6 9 5 10 4 11 3 12 2 13
REMARK SMILES IDX 1 14
REMARK H PARENT
REMARK Flexibility Score: inf
ROOT
ATOM      1  C   UNL     1       6.258 -22.755  46.792  1.00  0.00     0.000 C 
ENDROOT
BRANCH   1   2
ATOM      2  C   UNL     1       6.582 -22.610  48.287  1.00  0.00     0.000 C 
BRANCH   2   3
ATOM      3  C   UNL     1       7.389 -21.340  48.600  1.00  0.00     0.000 C 
BRANCH   3   4
ATOM      4  C   UNL     1       6.618 -20.052  48.266  1.00  0.00     0.006 C 
BRANCH   4   5
ATOM      5  C   UNL     1       7.510 -19.002  47.590  1.00  0.00     0.053 C 
BRANCH   5   6
ATOM      6  C   UNL     1       6.933 -18.534  46.289  1.00  0.00     0.041 C 
ATOM      7  O   UNL     1       5.931 -19.116  45.795  1.00  0.00    -0.550 OA
ATOM      8  O   UNL     1       7.482 -17.437  45.638  1.00  0.00    -0.550 OA
ENDBRANCH   5   6
ENDBRANCH   4   5
ENDBRANCH   3   4
ENDBRANCH   2   3
ENDBRANCH   1   2
BRANCH   1   9
ATOM      9  C   UNL     1       4.742 -22.817  46.562  1.00  0.00     0.000 C 
BRANCH   9  10
ATOM     10  C   UNL     1       3.997 -23.078  47.880  1.00  0.00    -0.000 C 
BRANCH  10  11
ATOM     11  C   UNL     1       2.924 -22.017  48.176  1.00  0.00    -0.000 C 
BRANCH  11  12
ATOM     12  C   UNL     1       3.100 -20.747  47.327  1.00  0.00    -0.000 C 
BRANCH  12  13
ATOM     13  C   UNL     1       2.060 -20.644  46.200  1.00  0.00    -0.003 C 
ATOM     14  C   UNL     1       2.522 -19.753  45.046  1.00  0.00     0.004 C 
ENDBRANCH  12  13
ENDBRANCH  11  12
ENDBRANCH  10  11
ENDBRANCH   9  10
ENDBRANCH   1   9
TORSDOF 10
ENDMDL
MODEL 6
REMARK VINA RESULT:    -3.961      1.793      2.703
REMARK INTER + INTRA:          -7.060
REMARK INTER:                  -6.328
REMARK INTRA:                  -0.732
REMARK UNBOUND:                -0.782
REMARK SMILES CCCCCCCCCCCC(=O)[O-]
REMARK SMILES IDX 7 1 8 2 9 3 10 4 11 5 12 6 13 7 14 8 6 9 5 10 4 11 3 12 2 13
REMARK SMILES IDX 1 14
REMARK H PARENT
REMARK Flexibility Score: inf
ROOT
ATOM      1  C   UNL     1      -3.060 -33.939  47.565  1.00  0.00     0.000 C 
ENDROOT
BRANCH   1   2
ATOM      2  C   UNL     1      -4.509 -34.420  47.743  1.00  0.00     0.000 C 
BRANCH   2   3
ATOM      3  C   UNL     1      -5.532 -33.278  47.630  1.00  0.00     0.000 C 
BRANCH   3   4
ATOM      4  C   UNL     1      -6.725 -33.640  46.729  1.00  0.00     0.006 C 
BRANCH   4   5
ATOM      5  C   UNL     1      -6.499 -34.954  45.970  1.00  0.00     0.053 C 
BRANCH   5   6
ATOM      6  C   UNL     1      -5.999 -34.716  44.578  1.00  0.00     0.041 C 
ATOM      7  O   UNL     1      -6.347 -33.683  43.949  1.00  0.00    -0.550 OA
ATOM      8  O   UNL     1      -5.126 -35.621  43.987  1.00  0.00    -0.550 OA
ENDBRANCH   5   6
ENDBRANCH   4   5
ENDBRANCH   3   4
ENDBRANCH   2   3
ENDBRANCH   1   2
BRANCH   1   9
ATOM      9  C   UNL     1      -2.596 -34.118  46.115  1.00  0.00     0.000 C 
BRANCH   9  10
ATOM     10  C   UNL     1      -2.134 -35.561  45.860  1.00  0.00    -0.000 C 
BRANCH  10  11
ATOM     11  C   UNL     1      -0.608 -35.681  45.717  1.00  0.00    -0.000 C 
BRANCH  11  12
ATOM     12  C   UNL     1       0.057 -34.345  45.344  1.00  0.00    -0.000 C 
BRANCH  12  13
ATOM     13  C   UNL     1       1.229 -34.525  44.366  1.00  0.00    -0.003 C 
ATOM     14  C   UNL     1       2.581 -34.624  45.073  1.00  0.00     0.004 C 
ENDBRANCH  12  13
ENDBRANCH  11  12
ENDBRANCH  10  11
ENDBRANCH   9  10
ENDBRANCH   1   9
TORSDOF 10
ENDMDL
MODEL 7
REMARK VINA RESULT:    -3.944      1.226      2.429
REMARK INTER + INTRA:          -7.032
REMARK INTER:                  -6.166
REMARK INTRA:                  -0.866
REMARK UNBOUND:                -0.782
REMARK SMILES CCCCCCCCCCCC(=O)[O-]
REMARK SMILES IDX 7 1 8 2 9 3 10 4 11 5 12 6 13 7 14 8 6 9 5 10 4 11 3 12 2 13
REMARK SMILES IDX 1 14
REMARK H PARENT
REMARK Flexibility Score: inf
ROOT
ATOM      1  C   UNL     1      -1.317 -34.368  45.807  1.00  0.00     0.000 C 
ENDROOT
BRANCH   1   2
ATOM      2  C   UNL     1      -2.844 -34.288  45.955  1.00  0.00     0.000 C 
BRANCH   2   3
ATOM      3  C   UNL     1      -3.525 -35.661  45.845  1.00  0.00     0.000 C 
BRANCH   3   4
ATOM      4  C   UNL     1      -4.789 -35.627  44.971  1.00  0.00     0.006 C 
BRANCH   4   5
ATOM      5  C   UNL     1      -5.501 -34.269  45.036  1.00  0.00     0.053 C 
BRANCH   5   6
ATOM      6  C   UNL     1      -6.465 -34.199  46.181  1.00  0.00     0.041 C 
ATOM      7  O   UNL     1      -7.158 -35.205  46.487  1.00  0.00    -0.550 OA
ATOM      8  O   UNL     1      -6.576 -33.033  46.928  1.00  0.00    -0.550 OA
ENDBRANCH   5   6
ENDBRANCH   4   5
ENDBRANCH   3   4
ENDBRANCH   2   3
ENDBRANCH   1   2
BRANCH   1   9
ATOM      9  C   UNL     1      -0.854 -35.824  45.668  1.00  0.00     0.000 C 
BRANCH   9  10
ATOM     10  C   UNL     1       0.346 -35.931  44.715  1.00  0.00    -0.000 C 
BRANCH  10  11
ATOM     11  C   UNL     1       0.914 -34.559  44.317  1.00  0.00    -0.000 C 
BRANCH  11  12
ATOM     12  C   UNL     1       2.425 -34.447  44.579  1.00  0.00    -0.000 C 
BRANCH  12  13
ATOM     13  C   UNL     1       2.781 -34.643  46.062  1.00  0.00    -0.003 C 
ATOM     14  C   UNL     1       2.178 -33.565  46.963  1.00  0.00     0.004 C 
ENDBRANCH  12  13
ENDBRANCH  11  12
ENDBRANCH  10  11
ENDBRANCH   9  10
ENDBRANCH   1   9
TORSDOF 10
ENDMDL
MODEL 8
REMARK VINA RESULT:    -3.898      2.007      3.459
REMARK INTER + INTRA:          -6.960
REMARK INTER:                  -5.800
REMARK INTRA:                  -1.160
REMARK UNBOUND:                -0.782
REMARK SMILES CCCCCCCCCCCC(=O)[O-]
REMARK SMILES IDX 7 1 8 2 9 3 10 4 11 5 12 6 13 7 14 8 6 9 5 10 4 11 3 12 2 13
REMARK SMILES IDX 1 14
REMARK H PARENT
REMARK Flexibility Score: inf
ROOT
ATOM      1  C   UNL     1      -1.186 -35.598  45.641  1.00  0.00     0.000 C 
ENDROOT
BRANCH   1   2
ATOM      2  C   UNL     1      -1.464 -34.092  45.768  1.00  0.00     0.000 C 
BRANCH   2   3
ATOM      3  C   UNL     1      -2.568 -33.777  46.791  1.00  0.00     0.000 C 
BRANCH   3   4
ATOM      4  C   UNL     1      -3.605 -34.906  46.908  1.00  0.00     0.006 C 
BRANCH   4   5
ATOM      5  C   UNL     1      -4.997 -34.465  46.437  1.00  0.00     0.053 C 
BRANCH   5   6
ATOM      6  C   UNL     1      -5.198 -34.721  44.974  1.00  0.00     0.041 C 
ATOM      7  O   UNL     1      -5.780 -33.867  44.256  1.00  0.00    -0.550 OA
ATOM      8  O   UNL     1      -4.716 -35.890  44.399  1.00  0.00    -0.550 OA
ENDBRANCH   5   6
ENDBRANCH   4   5
ENDBRANCH   3   4
ENDBRANCH   2   3
ENDBRANCH   1   2
BRANCH   1   9
ATOM      9  C   UNL     1       0.108 -35.853  44.857  1.00  0.00     0.000 C 
BRANCH   9  10
ATOM     10  C   UNL     1       0.773 -34.530  44.449  1.00  0.00    -0.000 C 
BRANCH  10  11
ATOM     11  C   UNL     1       2.306 -34.579  44.552  1.00  0.00    -0.000 C 
BRANCH  11  12
ATOM     12  C   UNL     1       2.799 -34.641  46.007  1.00  0.00    -0.000 C 
BRANCH  12  13
ATOM     13  C   UNL     1       2.111 -33.601  46.906  1.00  0.00    -0.003 C 
ATOM     14  C   UNL     1       1.448 -34.225  48.134  1.00  0.00     0.004 C 
ENDBRANCH  12  13
ENDBRANCH  11  12
ENDBRANCH  10  11
ENDBRANCH   9  10
ENDBRANCH   1   9
TORSDOF 10
ENDMDL
MODEL 9
REMARK VINA RESULT:    -3.785      3.172      6.415
REMARK INTER + INTRA:          -6.781
REMARK INTER:                  -5.995
REMARK INTRA:                  -0.786
REMARK UNBOUND:                -0.782
REMARK SMILES CCCCCCCCCCCC(=O)[O-]
REMARK SMILES IDX 7 1 8 2 9 3 10 4 11 5 12 6 13 7 14 8 6 9 5 10 4 11 3 12 2 13
REMARK SMILES IDX 1 14
REMARK H PARENT
REMARK Flexibility Score: inf
ROOT
ATOM      1  C   UNL     1      -3.200 -33.306  47.635  1.00  0.00     0.000 C 
ENDROOT
BRANCH   1   2
ATOM      2  C   UNL     1      -2.123 -34.328  47.239  1.00  0.00     0.000 C 
BRANCH   2   3
ATOM      3  C   UNL     1      -1.640 -34.151  45.791  1.00  0.00     0.000 C 
BRANCH   3   4
ATOM      4  C   UNL     1      -0.550 -35.164  45.402  1.00  0.00     0.006 C 
BRANCH   4   5
ATOM      5  C   UNL     1       0.655 -34.490  44.733  1.00  0.00     0.053 C 
BRANCH   5   6
ATOM      6  C   UNL     1       1.814 -34.359  45.674  1.00  0.00     0.041 C 
ATOM      7  O   UNL     1       2.908 -34.923  45.413  1.00  0.00    -0.550 OA
ATOM      8  O   UNL     1       1.693 -33.589  46.824  1.00  0.00    -0.550 OA
ENDBRANCH   5   6
ENDBRANCH   4   5
ENDBRANCH   3   4
ENDBRANCH   2   3
ENDBRANCH   1   2
BRANCH   1   9
ATOM      9  C   UNL     1      -4.504 -34.009  48.035  1.00  0.00     0.000 C 
BRANCH   9  10
ATOM     10  C   UNL     1      -5.724 -33.140  47.695  1.00  0.00    -0.000 C 
BRANCH  10  11
ATOM     11  C   UNL     1      -6.645 -33.789  46.650  1.00  0.00    -0.000 C 
BRANCH  11  12
ATOM     12  C   UNL     1      -6.118 -35.150  46.163  1.00  0.00    -0.000 C 
BRANCH  12  13
ATOM     13  C   UNL     1      -5.610 -35.099  44.714  1.00  0.00    -0.003 C 
ATOM     14  C   UNL     1      -6.198 -33.933  43.920  1.00  0.00     0.004 C 
ENDBRANCH  12  13
ENDBRANCH  11  12
ENDBRANCH  10  11
ENDBRANCH   9  10
ENDBRANCH   1   9
TORSDOF 10
ENDMDL
