MODEL 1
REMARK VINA RESULT:    -4.406      0.000      0.000
REMARK INTER + INTRA:          -4.663
REMARK INTER:                  -4.663
REMARK INTRA:                   0.000
REMARK UNBOUND:                 0.000
REMARK SMILES O=c1ccc2cc(O)c(O)cc2o1
REMARK SMILES IDX 4 1 3 2 2 3 1 4 13 5 12 6 11 7 9 8 7 9 6 10 5 11 8 12 10 14
REMARK H PARENT 8 13 10 15
REMARK Flexibility Score: inf
ROOT
ATOM      1  C   UNL     1      -5.124   1.228  15.170  1.00  0.00     0.019 A 
ATOM      2  C   UNL     1      -5.862   2.068  14.337  1.00  0.00     0.094 A 
ATOM      3  C   UNL     1      -6.193   3.352  14.787  1.00  0.00     0.336 A 
ATOM      4  O   UNL     1      -6.858   4.125  14.051  1.00  0.00    -0.246 OA
ATOM      5  O   UNL     1      -5.807   3.761  15.994  1.00  0.00    -0.423 OA
ATOM      6  C   UNL     1      -5.103   2.992  16.820  1.00  0.00     0.142 A 
ATOM      7  C   UNL     1      -4.725   3.476  18.076  1.00  0.00     0.098 A 
ATOM      8  C   UNL     1      -3.983   2.668  18.951  1.00  0.00     0.161 A 
ATOM      9  C   UNL     1      -3.615   1.371  18.566  1.00  0.00     0.158 A 
ATOM     10  C   UNL     1      -3.991   0.880  17.306  1.00  0.00     0.062 A 
ATOM     11  C   UNL     1      -4.733   1.685  16.432  1.00  0.00     0.022 A 
ENDROOT
BRANCH   9  12
ATOM     12  O   UNL     1      -2.877   0.576  19.441  1.00  0.00    -0.504 OA
ATOM     13  H   UNL     1      -2.932   0.701  20.446  1.00  0.00     0.293 HD
ENDBRANCH   9  12
BRANCH   8  14
ATOM     14  O   UNL     1      -3.606   3.149  20.204  1.00  0.00    -0.504 OA
ATOM     15  H   UNL     1      -2.651   3.427  20.399  1.00  0.00     0.293 HD
ENDBRANCH   8  14
TORSDOF 2
ENDMDL
MODEL 2
REMARK VINA RESULT:    -4.306      1.098      2.262
REMARK INTER + INTRA:          -4.558
REMARK INTER:                  -4.558
REMARK INTRA:                   0.000
REMARK UNBOUND:                 0.000
REMARK SMILES O=c1ccc2cc(O)c(O)cc2o1
REMARK SMILES IDX 4 1 3 2 2 3 1 4 13 5 12 6 11 7 9 8 7 9 6 10 5 11 8 12 10 14
REMARK H PARENT 8 13 10 15
REMARK Flexibility Score: inf
ROOT
ATOM      1  C   UNL     1      -5.583   4.125  16.958  1.00  0.00     0.019 A 
ATOM      2  C   UNL     1      -6.234   4.051  15.727  1.00  0.00     0.094 A 
ATOM      3  C   UNL     1      -6.187   2.854  15.004  1.00  0.00     0.336 A 
ATOM      4  O   UNL     1      -6.769   2.768  13.891  1.00  0.00    -0.246 OA
ATOM      5  O   UNL     1      -5.530   1.802  15.487  1.00  0.00    -0.423 OA
ATOM      6  C   UNL     1      -4.895   1.829  16.656  1.00  0.00     0.142 A 
ATOM      7  C   UNL     1      -4.220   0.693  17.112  1.00  0.00     0.098 A 
ATOM      8  C   UNL     1      -3.549   0.717  18.344  1.00  0.00     0.161 A 
ATOM      9  C   UNL     1      -3.555   1.883  19.123  1.00  0.00     0.158 A 
ATOM     10  C   UNL     1      -4.230   3.026  18.671  1.00  0.00     0.062 A 
ATOM     11  C   UNL     1      -4.901   3.004  17.440  1.00  0.00     0.022 A 
ENDROOT
BRANCH   9  12
ATOM     12  O   UNL     1      -2.886   1.897  20.346  1.00  0.00    -0.504 OA
ATOM     13  H   UNL     1      -1.909   1.635  20.419  1.00  0.00     0.293 HD
ENDBRANCH   9  12
BRANCH   8  14
ATOM     14  O   UNL     1      -2.876  -0.415  18.801  1.00  0.00    -0.504 OA
ATOM     15  H   UNL     1      -2.028  -0.341  19.352  1.00  0.00     0.293 HD
ENDBRANCH   8  14
TORSDOF 2
ENDMDL
MODEL 3
REMARK VINA RESULT:    -3.781      1.647      5.117
REMARK INTER + INTRA:          -4.002
REMARK INTER:                  -4.002
REMARK INTRA:                   0.000
REMARK UNBOUND:                 0.000
REMARK SMILES O=c1ccc2cc(O)c(O)cc2o1
REMARK SMILES IDX 4 1 3 2 2 3 1 4 13 5 12 6 11 7 9 8 7 9 6 10 5 11 8 12 10 14
REMARK H PARENT 8 13 10 15
REMARK Flexibility Score: inf
ROOT
ATOM      1  C   UNL     1      -3.186   2.453  19.033  1.00  0.00     0.019 A 
ATOM      2  C   UNL     1      -2.877   1.363  19.845  1.00  0.00     0.094 A 
ATOM      3  C   UNL     1      -3.147   0.071  19.381  1.00  0.00     0.336 A 
ATOM      4  O   UNL     1      -2.875  -0.926  20.099  1.00  0.00    -0.246 OA
ATOM      5  O   UNL     1      -3.691  -0.112  18.180  1.00  0.00    -0.423 OA
ATOM      6  C   UNL     1      -4.003   0.899  17.374  1.00  0.00     0.142 A 
ATOM      7  C   UNL     1      -4.574   0.646  16.122  1.00  0.00     0.098 A 
ATOM      8  C   UNL     1      -4.904   1.709  15.268  1.00  0.00     0.161 A 
ATOM      9  C   UNL     1      -4.660   3.031  15.668  1.00  0.00     0.158 A 
ATOM     10  C   UNL     1      -4.088   3.291  16.922  1.00  0.00     0.062 A 
ATOM     11  C   UNL     1      -3.758   2.231  17.776  1.00  0.00     0.022 A 
ENDROOT
BRANCH   9  12
ATOM     12  O   UNL     1      -4.991   4.081  14.812  1.00  0.00    -0.504 OA
ATOM     13  H   UNL     1      -5.162   3.926  13.825  1.00  0.00     0.293 HD
ENDBRANCH   9  12
BRANCH   8  14
ATOM     14  O   UNL     1      -5.472   1.459  14.021  1.00  0.00    -0.504 OA
ATOM     15  H   UNL     1      -5.600   2.199  13.338  1.00  0.00     0.293 HD
ENDBRANCH   8  14
TORSDOF 2
ENDMDL
MODEL 4
REMARK VINA RESULT:    -3.280      1.424      4.440
REMARK INTER + INTRA:          -3.472
REMARK INTER:                  -3.472
REMARK INTRA:                   0.000
REMARK UNBOUND:                 0.000
REMARK SMILES O=c1ccc2cc(O)c(O)cc2o1
REMARK SMILES IDX 4 1 3 2 2 3 1 4 13 5 12 6 11 7 9 8 7 9 6 10 5 11 8 12 10 14
REMARK H PARENT 8 13 10 15
REMARK Flexibility Score: inf
ROOT
ATOM      1  C   UNL     1      -3.307   0.967  18.139  1.00  0.00     0.019 A 
ATOM      2  C   UNL     1      -2.997   1.777  19.231  1.00  0.00     0.094 A 
ATOM      3  C   UNL     1      -3.504   3.080  19.276  1.00  0.00     0.336 A 
ATOM      4  O   UNL     1      -3.236   3.826  20.253  1.00  0.00    -0.246 OA
ATOM      5  O   UNL     1      -4.271   3.538  18.289  1.00  0.00    -0.423 OA
ATOM      6  C   UNL     1      -4.590   2.800  17.229  1.00  0.00     0.142 A 
ATOM      7  C   UNL     1      -5.400   3.335  16.222  1.00  0.00     0.098 A 
ATOM      8  C   UNL     1      -5.740   2.560  15.102  1.00  0.00     0.161 A 
ATOM      9  C   UNL     1      -5.268   1.244  14.991  1.00  0.00     0.158 A 
ATOM     10  C   UNL     1      -4.455   0.703  15.998  1.00  0.00     0.062 A 
ATOM     11  C   UNL     1      -4.115   1.475  17.117  1.00  0.00     0.022 A 
ENDROOT
BRANCH   9  12
ATOM     12  O   UNL     1      -5.611   0.482  13.875  1.00  0.00    -0.504 OA
ATOM     13  H   UNL     1      -5.515   0.848  12.934  1.00  0.00     0.293 HD
ENDBRANCH   9  12
BRANCH   8  14
ATOM     14  O   UNL     1      -6.546   3.091  14.098  1.00  0.00    -0.504 OA
ATOM     15  H   UNL     1      -6.404   4.030  13.744  1.00  0.00     0.293 HD
ENDBRANCH   8  14
TORSDOF 2
ENDMDL
MODEL 5
REMARK VINA RESULT:    -2.885      2.078      3.302
REMARK INTER + INTRA:          -3.054
REMARK INTER:                  -3.054
REMARK INTRA:                   0.000
REMARK UNBOUND:                 0.000
REMARK SMILES O=c1ccc2cc(O)c(O)cc2o1
REMARK SMILES IDX 4 1 3 2 2 3 1 4 13 5 12 6 11 7 9 8 7 9 6 10 5 11 8 12 10 14
REMARK H PARENT 8 13 10 15
REMARK Flexibility Score: inf
ROOT
ATOM      1  C   UNL     1      -3.742   3.407  17.965  1.00  0.00     0.019 A 
ATOM      2  C   UNL     1      -3.954   3.347  16.588  1.00  0.00     0.094 A 
ATOM      3  C   UNL     1      -3.946   2.099  15.953  1.00  0.00     0.336 A 
ATOM      4  O   UNL     1      -4.136   2.023  14.712  1.00  0.00    -0.246 OA
ATOM      5  O   UNL     1      -3.738   0.989  16.657  1.00  0.00    -0.423 OA
ATOM      6  C   UNL     1      -3.530   1.001  17.971  1.00  0.00     0.142 A 
ATOM      7  C   UNL     1      -3.317  -0.198  18.658  1.00  0.00     0.098 A 
ATOM      8  C   UNL     1      -3.097  -0.190  20.044  1.00  0.00     0.161 A 
ATOM      9  C   UNL     1      -3.093   1.024  20.745  1.00  0.00     0.158 A 
ATOM     10  C   UNL     1      -3.307   2.231  20.062  1.00  0.00     0.062 A 
ATOM     11  C   UNL     1      -3.526   2.224  18.678  1.00  0.00     0.022 A 
ENDROOT
BRANCH   9  12
ATOM     12  O   UNL     1      -2.875   1.023  22.122  1.00  0.00    -0.504 OA
ATOM     13  H   UNL     1      -1.995   0.713  22.519  1.00  0.00     0.293 HD
ENDBRANCH   9  12
BRANCH   8  14
ATOM     14  O   UNL     1      -2.885  -1.384  20.730  1.00  0.00    -0.504 OA
ATOM     15  H   UNL     1      -2.330  -2.133  20.331  1.00  0.00     0.293 HD
ENDBRANCH   8  14
TORSDOF 2
ENDMDL
MODEL 6
REMARK VINA RESULT:    -1.504      3.399      6.473
REMARK INTER + INTRA:          -1.592
REMARK INTER:                  -1.592
REMARK INTRA:                   0.000
REMARK UNBOUND:                 0.000
REMARK SMILES O=c1ccc2cc(O)c(O)cc2o1
REMARK SMILES IDX 4 1 3 2 2 3 1 4 13 5 12 6 11 7 9 8 7 9 6 10 5 11 8 12 10 14
REMARK H PARENT 8 13 10 15
REMARK Flexibility Score: inf
ROOT
ATOM      1  C   UNL     1      -2.875   0.663  22.478  1.00  0.00     0.019 A 
ATOM      2  C   UNL     1      -2.879  -0.646  22.957  1.00  0.00     0.094 A 
ATOM      3  C   UNL     1      -2.888  -1.705  22.042  1.00  0.00     0.336 A 
ATOM      4  O   UNL     1      -2.891  -2.894  22.455  1.00  0.00    -0.246 OA
ATOM      5  O   UNL     1      -2.892  -1.462  20.734  1.00  0.00    -0.423 OA
ATOM      6  C   UNL     1      -2.889  -0.230  20.234  1.00  0.00     0.142 A 
ATOM      7  C   UNL     1      -2.895  -0.037  18.848  1.00  0.00     0.098 A 
ATOM      8  C   UNL     1      -2.892   1.262  18.316  1.00  0.00     0.161 A 
ATOM      9  C   UNL     1      -2.882   2.371  19.174  1.00  0.00     0.158 A 
ATOM     10  C   UNL     1      -2.876   2.183  20.565  1.00  0.00     0.062 A 
ATOM     11  C   UNL     1      -2.880   0.888  21.098  1.00  0.00     0.022 A 
ENDROOT
BRANCH   9  12
ATOM     12  O   UNL     1      -2.879   3.657  18.637  1.00  0.00    -0.504 OA
ATOM     13  H   UNL     1      -2.832   3.813  17.636  1.00  0.00     0.293 HD
ENDBRANCH   9  12
BRANCH   8  14
ATOM     14  O   UNL     1      -2.897   1.457  16.937  1.00  0.00    -0.504 OA
ATOM     15  H   UNL     1      -2.054   1.354  16.384  1.00  0.00     0.293 HD
ENDBRANCH   8  14
TORSDOF 2
ENDMDL
