MODEL 1
REMARK VINA RESULT:    -1.355      0.000      0.000
REMARK INTER + INTRA:          -1.927
REMARK INTER:                  -1.633
REMARK INTRA:                  -0.294
REMARK UNBOUND:                -0.294
REMARK SMILES Oc1cc(O)c2cc(O)c(-c3ccc(O)c(O)c3)[o+]c2c1.[Cl-]
REMARK SMILES IDX 10 1 19 2 20 3 21 4 2 5 3 6 4 7 6 8 7 9 8 10 11 11 12 12
REMARK SMILES IDX 13 13 14 14 18 15 16 16 15 17 17 19 9 21 1 23 5 25
REMARK H PARENT 15 18 17 20 9 22 1 24 5 26
REMARK Flexibility Score: inf
ROOT
ATOM      1  C   UNL     1      -0.289  22.052  49.891  1.00  0.00     0.402 A 
ATOM      2  O   UNL     1      -0.499  23.230  49.308  1.00  0.00    -0.202 OA
ATOM      3  C   UNL     1      -0.732  23.370  48.007  1.00  0.00     0.368 A 
ATOM      4  C   UNL     1      -0.946  24.651  47.490  1.00  0.00     0.162 A 
ATOM      5  C   UNL     1      -1.195  24.828  46.129  1.00  0.00     0.128 A 
ATOM      6  C   UNL     1      -1.234  23.718  45.277  1.00  0.00     0.093 A 
ATOM      7  C   UNL     1      -1.025  22.425  45.772  1.00  0.00     0.136 A 
ATOM      8  C   UNL     1      -0.768  22.240  47.155  1.00  0.00     0.125 A 
ATOM      9  C   UNL     1      -0.532  20.984  47.736  1.00  0.00     0.078 A 
ATOM     10  C   UNL     1      -0.280  20.882  49.108  1.00  0.00     0.223 A 
ENDROOT
BRANCH   1  11
ATOM     11  C   UNL     1      -0.050  22.025  51.352  1.00  0.00     0.087 A 
ATOM     12  C   UNL     1       1.150  22.540  51.865  1.00  0.00     0.022 A 
ATOM     13  C   UNL     1       1.388  22.544  53.241  1.00  0.00     0.051 A 
ATOM     14  C   UNL     1       0.427  22.047  54.125  1.00  0.00     0.157 A 
ATOM     15  C   UNL     1      -1.025  21.544  52.244  1.00  0.00     0.068 A 
ATOM     16  C   UNL     1      -0.788  21.549  53.627  1.00  0.00     0.158 A 
BRANCH  14  17
ATOM     17  O   UNL     1       0.694  22.060  55.495  1.00  0.00    -0.504 OA
ATOM     18  H   UNL     1       1.434  22.624  55.894  1.00  0.00     0.293 HD
ENDBRANCH  14  17
BRANCH  16  19
ATOM     19  O   UNL     1      -1.757  21.064  54.505  1.00  0.00    -0.504 OA
ATOM     20  H   UNL     1      -2.299  20.235  54.293  1.00  0.00     0.293 HD
ENDBRANCH  16  19
ENDBRANCH   1  11
BRANCH  10  21
ATOM     21  O   UNL     1       0.001  19.640  49.677  1.00  0.00    -0.500 OA
ATOM     22  H   UNL     1       0.375  19.556  50.614  1.00  0.00     0.294 HD
ENDBRANCH  10  21
BRANCH   5  23
ATOM     23  O   UNL     1      -1.405  26.112  45.631  1.00  0.00    -0.507 OA
ATOM     24  H   UNL     1      -1.823  26.266  44.720  1.00  0.00     0.293 HD
ENDBRANCH   5  23
BRANCH   7  25
ATOM     25  O   UNL     1      -1.082  21.369  44.858  1.00  0.00    -0.507 OA
ATOM     26  H   UNL     1      -1.919  21.077  44.375  1.00  0.00     0.293 HD
ENDBRANCH   7  25
TORSDOF 6
ENDMDL
MODEL 2
REMARK VINA RESULT:    -1.061      1.130      1.320
REMARK INTER + INTRA:          -1.573
REMARK INTER:                  -1.229
REMARK INTRA:                  -0.344
REMARK UNBOUND:                -0.294
REMARK SMILES Oc1cc(O)c2cc(O)c(-c3ccc(O)c(O)c3)[o+]c2c1.[Cl-]
REMARK SMILES IDX 10 1 19 2 20 3 21 4 2 5 3 6 4 7 6 8 7 9 8 10 11 11 12 12
REMARK SMILES IDX 13 13 14 14 18 15 16 16 15 17 17 19 9 21 1 23 5 25
REMARK H PARENT 15 18 17 20 9 22 1 24 5 26
REMARK Flexibility Score: inf
ROOT
ATOM      1  C   UNL     1       0.130  21.326  49.919  1.00  0.00     0.402 A 
ATOM      2  O   UNL     1      -0.516  22.203  49.155  1.00  0.00    -0.202 OA
ATOM      3  C   UNL     1      -0.653  22.064  47.840  1.00  0.00     0.368 A 
ATOM      4  C   UNL     1      -1.354  23.038  47.123  1.00  0.00     0.162 A 
ATOM      5  C   UNL     1      -1.516  22.916  45.743  1.00  0.00     0.128 A 
ATOM      6  C   UNL     1      -0.976  21.813  45.071  1.00  0.00     0.093 A 
ATOM      7  C   UNL     1      -0.271  20.824  45.768  1.00  0.00     0.136 A 
ATOM      8  C   UNL     1      -0.101  20.945  47.172  1.00  0.00     0.125 A 
ATOM      9  C   UNL     1       0.602  20.010  47.948  1.00  0.00     0.078 A 
ATOM     10  C   UNL     1       0.732  20.200  49.328  1.00  0.00     0.223 A 
ENDROOT
BRANCH   1  11
ATOM     11  C   UNL     1       0.206  21.588  51.374  1.00  0.00     0.087 A 
ATOM     12  C   UNL     1       1.301  22.295  51.893  1.00  0.00     0.022 A 
ATOM     13  C   UNL     1       1.384  22.571  53.259  1.00  0.00     0.051 A 
ATOM     14  C   UNL     1       0.369  22.158  54.126  1.00  0.00     0.157 A 
ATOM     15  C   UNL     1      -0.825  21.190  52.245  1.00  0.00     0.068 A 
ATOM     16  C   UNL     1      -0.745  21.468  53.618  1.00  0.00     0.158 A 
BRANCH  14  17
ATOM     17  O   UNL     1       0.480  22.444  55.487  1.00  0.00    -0.504 OA
ATOM     18  H   UNL     1       1.034  23.218  55.831  1.00  0.00     0.293 HD
ENDBRANCH  14  17
BRANCH  16  19
ATOM     19  O   UNL     1      -1.768  21.065  54.475  1.00  0.00    -0.504 OA
ATOM     20  H   UNL     1      -1.617  20.360  55.187  1.00  0.00     0.293 HD
ENDBRANCH  16  19
ENDBRANCH   1  11
BRANCH  10  21
ATOM     21  O   UNL     1       1.471  19.297  50.091  1.00  0.00    -0.500 OA
ATOM     22  H   UNL     1       2.429  19.486  50.360  1.00  0.00     0.294 HD
ENDBRANCH  10  21
BRANCH   5  23
ATOM     23  O   UNL     1      -2.217  23.898  45.045  1.00  0.00    -0.507 OA
ATOM     24  H   UNL     1      -2.454  23.785  44.066  1.00  0.00     0.293 HD
ENDBRANCH   5  23
BRANCH   7  25
ATOM     25  O   UNL     1       0.235  19.752  45.027  1.00  0.00    -0.507 OA
ATOM     26  H   UNL     1       1.217  19.542  44.926  1.00  0.00     0.293 HD
ENDBRANCH   7  25
TORSDOF 6
ENDMDL
MODEL 3
REMARK VINA RESULT:    -0.156      1.732      7.249
REMARK INTER + INTRA:          -0.483
REMARK INTER:                  -0.968
REMARK INTRA:                   0.486
REMARK UNBOUND:                -0.294
REMARK SMILES Oc1cc(O)c2cc(O)c(-c3ccc(O)c(O)c3)[o+]c2c1.[Cl-]
REMARK SMILES IDX 10 1 19 2 20 3 21 4 2 5 3 6 4 7 6 8 7 9 8 10 11 11 12 12
REMARK SMILES IDX 13 13 14 14 18 15 16 16 15 17 17 19 9 21 1 23 5 25
REMARK H PARENT 15 18 17 20 9 22 1 24 5 26
REMARK Flexibility Score: inf
ROOT
ATOM      1  C   UNL     1       0.015  24.278  49.159  1.00  0.00     0.402 A 
ATOM      2  O   UNL     1      -0.567  23.221  49.717  1.00  0.00    -0.202 OA
ATOM      3  C   UNL     1      -0.303  22.810  50.953  1.00  0.00     0.368 A 
ATOM      4  C   UNL     1      -0.971  21.688  51.454  1.00  0.00     0.162 A 
ATOM      5  C   UNL     1      -0.716  21.236  52.748  1.00  0.00     0.128 A 
ATOM      6  C   UNL     1       0.212  21.908  53.552  1.00  0.00     0.093 A 
ATOM      7  C   UNL     1       0.892  23.035  53.074  1.00  0.00     0.136 A 
ATOM      8  C   UNL     1       0.638  23.497  51.756  1.00  0.00     0.125 A 
ATOM      9  C   UNL     1       1.283  24.608  51.189  1.00  0.00     0.078 A 
ATOM     10  C   UNL     1       0.984  25.001  49.881  1.00  0.00     0.223 A 
ENDROOT
BRANCH   1  11
ATOM     11  C   UNL     1      -0.371  24.643  47.776  1.00  0.00     0.087 A 
ATOM     12  C   UNL     1       0.201  25.774  47.175  1.00  0.00     0.022 A 
ATOM     13  C   UNL     1      -0.133  26.125  45.866  1.00  0.00     0.051 A 
ATOM     14  C   UNL     1      -1.031  25.346  45.132  1.00  0.00     0.157 A 
ATOM     15  C   UNL     1      -1.260  23.847  47.031  1.00  0.00     0.068 A 
ATOM     16  C   UNL     1      -1.595  24.198  45.714  1.00  0.00     0.158 A 
BRANCH  14  17
ATOM     17  O   UNL     1      -1.350  25.723  43.827  1.00  0.00    -0.504 OA
ATOM     18  H   UNL     1      -2.209  26.210  43.601  1.00  0.00     0.293 HD
ENDBRANCH  14  17
BRANCH  16  19
ATOM     19  O   UNL     1      -2.482  23.408  44.983  1.00  0.00    -0.504 OA
ATOM     20  H   UNL     1      -2.328  23.205  44.002  1.00  0.00     0.293 HD
ENDBRANCH  16  19
ENDBRANCH   1  11
BRANCH  10  21
ATOM     21  O   UNL     1       1.660  26.074  49.301  1.00  0.00    -0.500 OA
ATOM     22  H   UNL     1       1.180  26.761  48.733  1.00  0.00     0.294 HD
ENDBRANCH  10  21
BRANCH   5  23
ATOM     23  O   UNL     1      -1.391  20.115  53.229  1.00  0.00    -0.507 OA
ATOM     24  H   UNL     1      -2.034  20.179  54.010  1.00  0.00     0.293 HD
ENDBRANCH   5  23
BRANCH   7  25
ATOM     25  O   UNL     1       1.801  23.653  53.938  1.00  0.00    -0.507 OA
ATOM     26  H   UNL     1       2.801  23.525  53.901  1.00  0.00     0.293 HD
ENDBRANCH   7  25
TORSDOF 6
ENDMDL
MODEL 4
REMARK VINA RESULT:     0.270      2.079      7.304
REMARK INTER + INTRA:           0.031
REMARK INTER:                   0.384
REMARK INTRA:                  -0.353
REMARK UNBOUND:                -0.294
REMARK SMILES Oc1cc(O)c2cc(O)c(-c3ccc(O)c(O)c3)[o+]c2c1.[Cl-]
REMARK SMILES IDX 10 1 19 2 20 3 21 4 2 5 3 6 4 7 6 8 7 9 8 10 11 11 12 12
REMARK SMILES IDX 13 13 14 14 18 15 16 16 15 17 17 19 9 21 1 23 5 25
REMARK H PARENT 15 18 17 20 9 22 1 24 5 26
REMARK Flexibility Score: inf
ROOT
ATOM      1  C   UNL     1       0.535  21.356  50.804  1.00  0.00     0.402 A 
ATOM      2  O   UNL     1      -0.309  20.787  51.661  1.00  0.00    -0.202 OA
ATOM      3  C   UNL     1      -0.351  21.089  52.954  1.00  0.00     0.368 A 
ATOM      4  C   UNL     1      -1.277  20.438  53.774  1.00  0.00     0.162 A 
ATOM      5  C   UNL     1      -1.345  20.738  55.135  1.00  0.00     0.128 A 
ATOM      6  C   UNL     1      -0.484  21.696  55.683  1.00  0.00     0.093 A 
ATOM      7  C   UNL     1       0.451  22.362  54.881  1.00  0.00     0.136 A 
ATOM      8  C   UNL     1       0.526  22.059  53.497  1.00  0.00     0.125 A 
ATOM      9  C   UNL     1       1.440  22.666  52.621  1.00  0.00     0.078 A 
ATOM     10  C   UNL     1       1.458  22.311  51.269  1.00  0.00     0.223 A 
ENDROOT
BRANCH   1  11
ATOM     11  C   UNL     1       0.477  20.941  49.383  1.00  0.00     0.087 A 
ATOM     12  C   UNL     1       1.141  19.773  48.978  1.00  0.00     0.022 A 
ATOM     13  C   UNL     1       1.084  19.352  47.648  1.00  0.00     0.051 A 
ATOM     14  C   UNL     1       0.353  20.081  46.706  1.00  0.00     0.157 A 
ATOM     15  C   UNL     1      -0.275  21.663  48.439  1.00  0.00     0.068 A 
ATOM     16  C   UNL     1      -0.335  21.240  47.102  1.00  0.00     0.158 A 
BRANCH  14  17
ATOM     17  O   UNL     1       0.317  19.638  45.384  1.00  0.00    -0.504 OA
ATOM     18  H   UNL     1       0.003  20.232  44.626  1.00  0.00     0.293 HD
ENDBRANCH  14  17
BRANCH  16  19
ATOM     19  O   UNL     1      -1.078  21.965  46.171  1.00  0.00    -0.504 OA
ATOM     20  H   UNL     1      -0.632  22.570  45.493  1.00  0.00     0.293 HD
ENDBRANCH  16  19
ENDBRANCH   1  11
BRANCH  10  21
ATOM     21  O   UNL     1       2.399  22.878  50.409  1.00  0.00    -0.500 OA
ATOM     22  H   UNL     1       2.835  23.770  50.611  1.00  0.00     0.294 HD
ENDBRANCH  10  21
BRANCH   5  23
ATOM     23  O   UNL     1      -2.274  20.077  55.937  1.00  0.00    -0.507 OA
ATOM     24  H   UNL     1      -3.264  20.287  55.884  1.00  0.00     0.293 HD
ENDBRANCH   5  23
BRANCH   7  25
ATOM     25  O   UNL     1       1.273  23.307  55.502  1.00  0.00    -0.507 OA
ATOM     26  H   UNL     1       1.533  24.193  55.093  1.00  0.00     0.293 HD
ENDBRANCH   7  25
TORSDOF 6
ENDMDL
MODEL 5
REMARK VINA RESULT:     0.504      1.411      3.031
REMARK INTER + INTRA:           0.312
REMARK INTER:                   0.598
REMARK INTRA:                  -0.286
REMARK UNBOUND:                -0.294
REMARK SMILES Oc1cc(O)c2cc(O)c(-c3ccc(O)c(O)c3)[o+]c2c1.[Cl-]
REMARK SMILES IDX 10 1 19 2 20 3 21 4 2 5 3 6 4 7 6 8 7 9 8 10 11 11 12 12
REMARK SMILES IDX 13 13 14 14 18 15 16 16 15 17 17 19 9 21 1 23 5 25
REMARK H PARENT 15 18 17 20 9 22 1 24 5 26
REMARK Flexibility Score: inf
ROOT
ATOM      1  C   UNL     1      -0.131  21.992  50.460  1.00  0.00     0.402 A 
ATOM      2  O   UNL     1       0.122  20.866  49.798  1.00  0.00    -0.202 OA
ATOM      3  C   UNL     1       0.012  20.755  48.479  1.00  0.00     0.368 A 
ATOM      4  C   UNL     1       0.304  19.529  47.874  1.00  0.00     0.162 A 
ATOM      5  C   UNL     1       0.200  19.384  46.490  1.00  0.00     0.128 A 
ATOM      6  C   UNL     1      -0.196  20.471  45.702  1.00  0.00     0.093 A 
ATOM      7  C   UNL     1      -0.492  21.709  46.285  1.00  0.00     0.136 A 
ATOM      8  C   UNL     1      -0.391  21.861  47.692  1.00  0.00     0.125 A 
ATOM      9  C   UNL     1      -0.682  23.059  48.363  1.00  0.00     0.078 A 
ATOM     10  C   UNL     1      -0.564  23.131  49.755  1.00  0.00     0.223 A 
ENDROOT
BRANCH   1  11
ATOM     11  C   UNL     1       0.038  21.993  51.932  1.00  0.00     0.087 A 
ATOM     12  C   UNL     1       1.134  22.660  52.500  1.00  0.00     0.022 A 
ATOM     13  C   UNL     1       1.302  22.691  53.886  1.00  0.00     0.051 A 
ATOM     14  C   UNL     1       0.373  22.071  54.725  1.00  0.00     0.157 A 
ATOM     15  C   UNL     1      -0.908  21.386  52.778  1.00  0.00     0.068 A 
ATOM     16  C   UNL     1      -0.741  21.418  54.171  1.00  0.00     0.158 A 
BRANCH  14  17
ATOM     17  O   UNL     1       0.568  22.115  56.106  1.00  0.00    -0.504 OA
ATOM     18  H   UNL     1      -0.131  21.786  56.760  1.00  0.00     0.293 HD
ENDBRANCH  14  17
BRANCH  16  19
ATOM     19  O   UNL     1      -1.680  20.809  55.002  1.00  0.00    -0.504 OA
ATOM     20  H   UNL     1      -2.365  21.351  55.516  1.00  0.00     0.293 HD
ENDBRANCH  16  19
ENDBRANCH   1  11
BRANCH  10  21
ATOM     21  O   UNL     1      -0.899  24.307  50.426  1.00  0.00    -0.500 OA
ATOM     22  H   UNL     1      -0.600  25.215  50.091  1.00  0.00     0.294 HD
ENDBRANCH  10  21
BRANCH   5  23
ATOM     23  O   UNL     1       0.494  18.154  45.906  1.00  0.00    -0.507 OA
ATOM     24  H   UNL     1       0.193  17.929  44.964  1.00  0.00     0.293 HD
ENDBRANCH   5  23
BRANCH   7  25
ATOM     25  O   UNL     1      -0.878  22.746  45.431  1.00  0.00    -0.507 OA
ATOM     26  H   UNL     1      -1.445  22.624  44.605  1.00  0.00     0.293 HD
ENDBRANCH   7  25
TORSDOF 6
ENDMDL
MODEL 6
REMARK VINA RESULT:     0.890      1.501      2.804
REMARK INTER + INTRA:           0.778
REMARK INTER:                   0.469
REMARK INTRA:                   0.309
REMARK UNBOUND:                -0.294
REMARK SMILES Oc1cc(O)c2cc(O)c(-c3ccc(O)c(O)c3)[o+]c2c1.[Cl-]
REMARK SMILES IDX 10 1 19 2 20 3 21 4 2 5 3 6 4 7 6 8 7 9 8 10 11 11 12 12
REMARK SMILES IDX 13 13 14 14 18 15 16 16 15 17 17 19 9 21 1 23 5 25
REMARK H PARENT 15 18 17 20 9 22 1 24 5 26
REMARK Flexibility Score: inf
ROOT
ATOM      1  C   UNL     1      -0.086  23.791  49.339  1.00  0.00     0.402 A 
ATOM      2  O   UNL     1      -0.780  23.005  48.520  1.00  0.00    -0.202 OA
ATOM      3  C   UNL     1      -1.091  23.343  47.273  1.00  0.00     0.368 A 
ATOM      4  C   UNL     1      -1.822  22.447  46.488  1.00  0.00     0.162 A 
ATOM      5  C   UNL     1      -2.159  22.774  45.175  1.00  0.00     0.128 A 
ATOM      6  C   UNL     1      -1.764  24.005  44.639  1.00  0.00     0.093 A 
ATOM      7  C   UNL     1      -1.030  24.919  45.404  1.00  0.00     0.136 A 
ATOM      8  C   UNL     1      -0.687  24.592  46.742  1.00  0.00     0.125 A 
ATOM      9  C   UNL     1       0.033  25.451  47.587  1.00  0.00     0.078 A 
ATOM     10  C   UNL     1       0.330  25.061  48.897  1.00  0.00     0.223 A 
ENDROOT
BRANCH   1  11
ATOM     11  C   UNL     1       0.206  23.297  50.704  1.00  0.00     0.087 A 
ATOM     12  C   UNL     1       1.321  23.796  51.395  1.00  0.00     0.022 A 
ATOM     13  C   UNL     1       1.604  23.359  52.691  1.00  0.00     0.051 A 
ATOM     14  C   UNL     1       0.773  22.430  53.322  1.00  0.00     0.157 A 
ATOM     15  C   UNL     1      -0.642  22.377  51.347  1.00  0.00     0.068 A 
ATOM     16  C   UNL     1      -0.360  21.938  52.650  1.00  0.00     0.158 A 
BRANCH  14  17
ATOM     17  O   UNL     1       1.082  22.009  54.615  1.00  0.00    -0.504 OA
ATOM     18  H   UNL     1       1.846  22.413  55.145  1.00  0.00     0.293 HD
ENDBRANCH  14  17
BRANCH  16  19
ATOM     19  O   UNL     1      -1.201  21.022  53.278  1.00  0.00    -0.504 OA
ATOM     20  H   UNL     1      -2.172  20.920  53.006  1.00  0.00     0.293 HD
ENDBRANCH  16  19
ENDBRANCH   1  11
BRANCH  10  21
ATOM     21  O   UNL     1       1.003  25.934  49.751  1.00  0.00    -0.500 OA
ATOM     22  H   UNL     1       0.511  26.486  50.444  1.00  0.00     0.294 HD
ENDBRANCH  10  21
BRANCH   5  23
ATOM     23  O   UNL     1      -2.889  21.867  44.408  1.00  0.00    -0.507 OA
ATOM     24  H   UNL     1      -3.902  21.901  44.368  1.00  0.00     0.293 HD
ENDBRANCH   5  23
BRANCH   7  25
ATOM     25  O   UNL     1      -0.670  26.125  44.797  1.00  0.00    -0.507 OA
ATOM     26  H   UNL     1       0.270  26.365  44.517  1.00  0.00     0.293 HD
ENDBRANCH   7  25
TORSDOF 6
ENDMDL
MODEL 7
REMARK VINA RESULT:     1.096      1.400      7.297
REMARK INTER + INTRA:           1.026
REMARK INTER:                   1.207
REMARK INTRA:                  -0.182
REMARK UNBOUND:                -0.294
REMARK SMILES Oc1cc(O)c2cc(O)c(-c3ccc(O)c(O)c3)[o+]c2c1.[Cl-]
REMARK SMILES IDX 10 1 19 2 20 3 21 4 2 5 3 6 4 7 6 8 7 9 8 10 11 11 12 12
REMARK SMILES IDX 13 13 14 14 18 15 16 16 15 17 17 19 9 21 1 23 5 25
REMARK H PARENT 15 18 17 20 9 22 1 24 5 26
REMARK Flexibility Score: inf
ROOT
ATOM      1  C   UNL     1       0.088  22.168  50.581  1.00  0.00     0.402 A 
ATOM      2  O   UNL     1      -0.655  21.435  51.406  1.00  0.00    -0.202 OA
ATOM      3  C   UNL     1      -0.536  21.477  52.729  1.00  0.00     0.368 A 
ATOM      4  C   UNL     1      -1.366  20.671  53.512  1.00  0.00     0.162 A 
ATOM      5  C   UNL     1      -1.265  20.697  54.903  1.00  0.00     0.128 A 
ATOM      6  C   UNL     1      -0.328  21.535  55.519  1.00  0.00     0.093 A 
ATOM      7  C   UNL     1       0.514  22.352  54.756  1.00  0.00     0.136 A 
ATOM      8  C   UNL     1       0.416  22.328  53.340  1.00  0.00     0.125 A 
ATOM      9  C   UNL     1       1.229  23.101  52.496  1.00  0.00     0.078 A 
ATOM     10  C   UNL     1       1.077  23.019  51.108  1.00  0.00     0.223 A 
ENDROOT
BRANCH   1  11
ATOM     11  C   UNL     1      -0.147  22.039  49.124  1.00  0.00     0.087 A 
ATOM     12  C   UNL     1      -0.037  20.780  48.516  1.00  0.00     0.022 A 
ATOM     13  C   UNL     1      -0.274  20.632  47.148  1.00  0.00     0.051 A 
ATOM     14  C   UNL     1      -0.638  21.734  46.370  1.00  0.00     0.157 A 
ATOM     15  C   UNL     1      -0.533  23.145  48.345  1.00  0.00     0.068 A 
ATOM     16  C   UNL     1      -0.773  22.997  46.970  1.00  0.00     0.158 A 
BRANCH  14  17
ATOM     17  O   UNL     1      -0.865  21.557  45.005  1.00  0.00    -0.504 OA
ATOM     18  H   UNL     1      -0.197  21.855  44.304  1.00  0.00     0.293 HD
ENDBRANCH  14  17
BRANCH  16  19
ATOM     19  O   UNL     1      -1.150  24.099  46.203  1.00  0.00    -0.504 OA
ATOM     20  H   UNL     1      -1.231  25.024  46.607  1.00  0.00     0.293 HD
ENDBRANCH  16  19
ENDBRANCH   1  11
BRANCH  10  21
ATOM     21  O   UNL     1       1.917  23.751  50.268  1.00  0.00    -0.500 OA
ATOM     22  H   UNL     1       2.857  24.004  50.545  1.00  0.00     0.294 HD
ENDBRANCH  10  21
BRANCH   5  23
ATOM     23  O   UNL     1      -2.101  19.885  55.667  1.00  0.00    -0.507 OA
ATOM     24  H   UNL     1      -2.117  18.878  55.546  1.00  0.00     0.293 HD
ENDBRANCH   5  23
BRANCH   7  25
ATOM     25  O   UNL     1       1.420  23.163  55.445  1.00  0.00    -0.507 OA
ATOM     26  H   UNL     1       2.031  23.837  55.006  1.00  0.00     0.293 HD
ENDBRANCH   7  25
TORSDOF 6
ENDMDL
