MODEL 1
REMARK VINA RESULT:    -4.836      0.000      0.000
REMARK INTER + INTRA:          -9.022
REMARK INTER:                  -8.229
REMARK INTRA:                  -0.793
REMARK UNBOUND:                -0.793
REMARK SMILES CCCCCCCCCCCCCC(=O)[O-]
REMARK SMILES IDX 8 1 9 2 10 3 11 4 12 5 13 6 14 7 15 8 16 9 7 10 6 11 5 12
REMARK SMILES IDX 4 13 3 14 2 15 1 16
REMARK H PARENT
REMARK Flexibility Score: inf
ROOT
ATOM      1  C   UNL     1      40.476 117.851  11.751  1.00  0.00     0.000 C 
ENDROOT
BRANCH   1   2
ATOM      2  C   UNL     1      41.519 116.733  11.908  1.00  0.00     0.000 C 
BRANCH   2   3
ATOM      3  C   UNL     1      42.753 117.010  11.042  1.00  0.00     0.000 C 
BRANCH   3   4
ATOM      4  C   UNL     1      42.346 117.481   9.637  1.00  0.00     0.000 C 
BRANCH   4   5
ATOM      5  C   UNL     1      42.863 116.552   8.524  1.00  0.00     0.006 C 
BRANCH   5   6
ATOM      6  C   UNL     1      44.334 116.137   8.679  1.00  0.00     0.053 C 
BRANCH   6   7
ATOM      7  C   UNL     1      44.488 114.653   8.805  1.00  0.00     0.041 C 
ATOM      8  O   UNL     1      43.969 114.042   9.776  1.00  0.00    -0.550 OA
ATOM      9  O   UNL     1      45.178 113.939   7.833  1.00  0.00    -0.550 OA
ENDBRANCH   6   7
ENDBRANCH   5   6
ENDBRANCH   4   5
ENDBRANCH   3   4
ENDBRANCH   2   3
ENDBRANCH   1   2
BRANCH   1  10
ATOM     10  C   UNL     1      39.176 117.562  12.518  1.00  0.00     0.000 C 
BRANCH  10  11
ATOM     11  C   UNL     1      38.995 118.482  13.739  1.00  0.00    -0.000 C 
BRANCH  11  12
ATOM     12  C   UNL     1      38.666 119.933  13.347  1.00  0.00    -0.000 C 
BRANCH  12  13
ATOM     13  C   UNL     1      37.260 120.415  13.751  1.00  0.00    -0.000 C 
BRANCH  13  14
ATOM     14  C   UNL     1      36.552 119.495  14.768  1.00  0.00    -0.000 C 
BRANCH  14  15
ATOM     15  C   UNL     1      35.241 118.916  14.216  1.00  0.00    -0.003 C 
ATOM     16  C   UNL     1      35.302 118.763  12.699  1.00  0.00     0.004 C 
ENDBRANCH  14  15
ENDBRANCH  13  14
ENDBRANCH  12  13
ENDBRANCH  11  12
ENDBRANCH  10  11
ENDBRANCH   1  10
TORSDOF 12
ENDMDL
MODEL 2
REMARK VINA RESULT:    -4.821      3.690      8.135
REMARK INTER + INTRA:          -8.996
REMARK INTER:                  -8.057
REMARK INTRA:                  -0.939
REMARK UNBOUND:                -0.793
REMARK SMILES CCCCCCCCCCCCCC(=O)[O-]
REMARK SMILES IDX 8 1 9 2 10 3 11 4 12 5 13 6 14 7 15 8 16 9 7 10 6 11 5 12
REMARK SMILES IDX 4 13 3 14 2 15 1 16
REMARK H PARENT
REMARK Flexibility Score: inf
ROOT
ATOM      1  C   UNL     1      39.665 117.526  12.224  1.00  0.00     0.000 C 
ENDROOT
BRANCH   1   2
ATOM      2  C   UNL     1      39.353 118.368  13.471  1.00  0.00     0.000 C 
BRANCH   2   3
ATOM      3  C   UNL     1      38.979 119.803  13.084  1.00  0.00     0.000 C 
BRANCH   3   4
ATOM      4  C   UNL     1      37.716 120.262  13.828  1.00  0.00     0.000 C 
BRANCH   4   5
ATOM      5  C   UNL     1      37.072 119.138  14.660  1.00  0.00     0.006 C 
BRANCH   5   6
ATOM      6  C   UNL     1      35.564 118.960  14.422  1.00  0.00     0.053 C 
BRANCH   6   7
ATOM      7  C   UNL     1      35.256 118.636  12.993  1.00  0.00     0.041 C 
ATOM      8  O   UNL     1      34.251 119.145  12.430  1.00  0.00    -0.550 OA
ATOM      9  O   UNL     1      36.097 117.797  12.273  1.00  0.00    -0.550 OA
ENDBRANCH   6   7
ENDBRANCH   5   6
ENDBRANCH   4   5
ENDBRANCH   3   4
ENDBRANCH   2   3
ENDBRANCH   1   2
BRANCH   1  10
ATOM     10  C   UNL     1      40.935 116.674  12.384  1.00  0.00     0.000 C 
BRANCH  10  11
ATOM     11  C   UNL     1      42.074 117.135  11.459  1.00  0.00    -0.000 C 
BRANCH  11  12
ATOM     12  C   UNL     1      41.572 117.590  10.077  1.00  0.00    -0.000 C 
BRANCH  12  13
ATOM     13  C   UNL     1      42.523 117.283   8.904  1.00  0.00    -0.000 C 
BRANCH  13  14
ATOM     14  C   UNL     1      43.817 116.554   9.324  1.00  0.00    -0.000 C 
BRANCH  14  15
ATOM     15  C   UNL     1      43.816 115.077   8.903  1.00  0.00    -0.003 C 
ATOM     16  C   UNL     1      43.939 114.159  10.116  1.00  0.00     0.004 C 
ENDBRANCH  14  15
ENDBRANCH  13  14
ENDBRANCH  12  13
ENDBRANCH  11  12
ENDBRANCH  10  11
ENDBRANCH   1  10
TORSDOF 12
ENDMDL
MODEL 3
REMARK VINA RESULT:    -4.814      1.480      2.511
REMARK INTER + INTRA:          -8.983
REMARK INTER:                  -7.889
REMARK INTRA:                  -1.095
REMARK UNBOUND:                -0.793
REMARK SMILES CCCCCCCCCCCCCC(=O)[O-]
REMARK SMILES IDX 8 1 9 2 10 3 11 4 12 5 13 6 14 7 15 8 16 9 7 10 6 11 5 12
REMARK SMILES IDX 4 13 3 14 2 15 1 16
REMARK H PARENT
REMARK Flexibility Score: inf
ROOT
ATOM      1  C   UNL     1      39.953 118.371  14.105  1.00  0.00     0.000 C 
ENDROOT
BRANCH   1   2
ATOM      2  C   UNL     1      39.994 118.761  12.619  1.00  0.00     0.000 C 
BRANCH   2   3
ATOM      3  C   UNL     1      40.034 117.515  11.726  1.00  0.00     0.000 C 
BRANCH   3   4
ATOM      4  C   UNL     1      41.482 117.124  11.393  1.00  0.00     0.000 C 
BRANCH   4   5
ATOM      5  C   UNL     1      42.043 117.891  10.181  1.00  0.00     0.006 C 
BRANCH   5   6
ATOM      6  C   UNL     1      42.585 116.991   9.060  1.00  0.00     0.053 C 
BRANCH   6   7
ATOM      7  C   UNL     1      43.969 116.499   9.354  1.00  0.00     0.041 C 
ATOM      8  O   UNL     1      44.558 116.856  10.409  1.00  0.00    -0.550 OA
ATOM      9  O   UNL     1      44.596 115.620   8.481  1.00  0.00    -0.550 OA
ENDBRANCH   6   7
ENDBRANCH   5   6
ENDBRANCH   4   5
ENDBRANCH   3   4
ENDBRANCH   2   3
ENDBRANCH   1   2
BRANCH   1  10
ATOM     10  C   UNL     1      39.205 117.050  14.351  1.00  0.00     0.000 C 
BRANCH  10  11
ATOM     11  C   UNL     1      37.886 117.254  15.117  1.00  0.00    -0.000 C 
BRANCH  11  12
ATOM     12  C   UNL     1      36.674 117.415  14.182  1.00  0.00    -0.000 C 
BRANCH  12  13
ATOM     13  C   UNL     1      35.888 118.729  14.352  1.00  0.00    -0.000 C 
BRANCH  13  14
ATOM     14  C   UNL     1      36.343 119.856  13.400  1.00  0.00    -0.000 C 
BRANCH  14  15
ATOM     15  C   UNL     1      37.302 120.843  14.082  1.00  0.00    -0.003 C 
ATOM     16  C   UNL     1      36.709 121.379  15.382  1.00  0.00     0.004 C 
ENDBRANCH  14  15
ENDBRANCH  13  14
ENDBRANCH  12  13
ENDBRANCH  11  12
ENDBRANCH  10  11
ENDBRANCH   1  10
TORSDOF 12
ENDMDL
MODEL 4
REMARK VINA RESULT:    -4.701      3.958      8.869
REMARK INTER + INTRA:          -8.791
REMARK INTER:                  -8.126
REMARK INTRA:                  -0.665
REMARK UNBOUND:                -0.793
REMARK SMILES CCCCCCCCCCCCCC(=O)[O-]
REMARK SMILES IDX 8 1 9 2 10 3 11 4 12 5 13 6 14 7 15 8 16 9 7 10 6 11 5 12
REMARK SMILES IDX 4 13 3 14 2 15 1 16
REMARK H PARENT
REMARK Flexibility Score: inf
ROOT
ATOM      1  C   UNL     1      41.908 117.590  10.146  1.00  0.00     0.000 C 
ENDROOT
BRANCH   1   2
ATOM      2  C   UNL     1      42.303 116.794  11.400  1.00  0.00     0.000 C 
BRANCH   2   3
ATOM      3  C   UNL     1      41.128 116.700  12.381  1.00  0.00     0.000 C 
BRANCH   3   4
ATOM      4  C   UNL     1      39.958 117.585  11.925  1.00  0.00     0.000 C 
BRANCH   4   5
ATOM      5  C   UNL     1      39.327 118.381  13.081  1.00  0.00     0.006 C 
BRANCH   5   6
ATOM      6  C   UNL     1      37.819 118.144  13.262  1.00  0.00     0.053 C 
BRANCH   6   7
ATOM      7  C   UNL     1      37.056 119.430  13.358  1.00  0.00     0.041 C 
ATOM      8  O   UNL     1      35.810 119.442  13.179  1.00  0.00    -0.550 OA
ATOM      9  O   UNL     1      37.717 120.609  13.678  1.00  0.00    -0.550 OA
ENDBRANCH   6   7
ENDBRANCH   5   6
ENDBRANCH   4   5
ENDBRANCH   3   4
ENDBRANCH   2   3
ENDBRANCH   1   2
BRANCH   1  10
ATOM     10  C   UNL     1      42.650 117.120   8.885  1.00  0.00     0.000 C 
BRANCH  10  11
ATOM     11  C   UNL     1      43.976 116.411   9.211  1.00  0.00    -0.000 C 
BRANCH  11  12
ATOM     12  C   UNL     1      44.022 114.964   8.690  1.00  0.00    -0.000 C 
BRANCH  12  13
ATOM     13  C   UNL     1      44.719 113.955   9.624  1.00  0.00    -0.000 C 
BRANCH  13  14
ATOM     14  C   UNL     1      45.718 113.025   8.903  1.00  0.00    -0.000 C 
BRANCH  14  15
ATOM     15  C   UNL     1      45.808 113.321   7.399  1.00  0.00    -0.003 C 
ATOM     16  C   UNL     1      45.202 112.186   6.577  1.00  0.00     0.004 C 
ENDBRANCH  14  15
ENDBRANCH  13  14
ENDBRANCH  12  13
ENDBRANCH  11  12
ENDBRANCH  10  11
ENDBRANCH   1  10
TORSDOF 12
ENDMDL
MODEL 5
REMARK VINA RESULT:    -4.695      2.039      3.578
REMARK INTER + INTRA:          -8.782
REMARK INTER:                  -7.222
REMARK INTRA:                  -1.560
REMARK UNBOUND:                -0.793
REMARK SMILES CCCCCCCCCCCCCC(=O)[O-]
REMARK SMILES IDX 8 1 9 2 10 3 11 4 12 5 13 6 14 7 15 8 16 9 7 10 6 11 5 12
REMARK SMILES IDX 4 13 3 14 2 15 1 16
REMARK H PARENT
REMARK Flexibility Score: inf
ROOT
ATOM      1  C   UNL     1      39.755 116.198  15.155  1.00  0.00     0.000 C 
ENDROOT
BRANCH   1   2
ATOM      2  C   UNL     1      40.688 117.214  14.479  1.00  0.00     0.000 C 
BRANCH   2   3
ATOM      3  C   UNL     1      39.939 118.510  14.149  1.00  0.00     0.000 C 
BRANCH   3   4
ATOM      4  C   UNL     1      39.972 118.796  12.640  1.00  0.00     0.000 C 
BRANCH   4   5
ATOM      5  C   UNL     1      40.342 117.556  11.806  1.00  0.00     0.006 C 
BRANCH   5   6
ATOM      6  C   UNL     1      41.254 117.851  10.605  1.00  0.00     0.053 C 
BRANCH   6   7
ATOM      7  C   UNL     1      42.522 117.054  10.655  1.00  0.00     0.041 C 
ATOM      8  O   UNL     1      43.273 116.995   9.645  1.00  0.00    -0.550 OA
ATOM      9  O   UNL     1      42.891 116.405  11.826  1.00  0.00    -0.550 OA
ENDBRANCH   6   7
ENDBRANCH   5   6
ENDBRANCH   4   5
ENDBRANCH   3   4
ENDBRANCH   2   3
ENDBRANCH   1   2
BRANCH   1  10
ATOM     10  C   UNL     1      38.501 116.852  15.757  1.00  0.00     0.000 C 
BRANCH  10  11
ATOM     11  C   UNL     1      37.200 116.310  15.139  1.00  0.00    -0.000 C 
BRANCH  11  12
ATOM     12  C   UNL     1      36.705 117.158  13.954  1.00  0.00    -0.000 C 
BRANCH  12  13
ATOM     13  C   UNL     1      36.069 118.508  14.339  1.00  0.00    -0.000 C 
BRANCH  13  14
ATOM     14  C   UNL     1      36.408 119.658  13.366  1.00  0.00    -0.000 C 
BRANCH  14  15
ATOM     15  C   UNL     1      37.116 120.825  14.070  1.00  0.00    -0.003 C 
ATOM     16  C   UNL     1      36.682 120.934  15.529  1.00  0.00     0.004 C 
ENDBRANCH  14  15
ENDBRANCH  13  14
ENDBRANCH  12  13
ENDBRANCH  11  12
ENDBRANCH  10  11
ENDBRANCH   1  10
TORSDOF 12
ENDMDL
MODEL 6
REMARK VINA RESULT:    -4.663      4.199      8.415
REMARK INTER + INTRA:          -8.728
REMARK INTER:                  -7.933
REMARK INTRA:                  -0.795
REMARK UNBOUND:                -0.793
REMARK SMILES CCCCCCCCCCCCCC(=O)[O-]
REMARK SMILES IDX 8 1 9 2 10 3 11 4 12 5 13 6 14 7 15 8 16 9 7 10 6 11 5 12
REMARK SMILES IDX 4 13 3 14 2 15 1 16
REMARK H PARENT
REMARK Flexibility Score: inf
ROOT
ATOM      1  C   UNL     1      41.716 116.758  11.639  1.00  0.00     0.000 C 
ENDROOT
BRANCH   1   2
ATOM      2  C   UNL     1      40.742 116.958  12.811  1.00  0.00     0.000 C 
BRANCH   2   3
ATOM      3  C   UNL     1      39.541 117.811  12.385  1.00  0.00     0.000 C 
BRANCH   3   4
ATOM      4  C   UNL     1      39.318 118.974  13.364  1.00  0.00     0.000 C 
BRANCH   4   5
ATOM      5  C   UNL     1      38.060 118.791  14.232  1.00  0.00     0.006 C 
BRANCH   5   6
ATOM      6  C   UNL     1      36.960 117.940  13.578  1.00  0.00     0.053 C 
BRANCH   6   7
ATOM      7  C   UNL     1      35.609 118.574  13.709  1.00  0.00     0.041 C 
ATOM      8  O   UNL     1      35.175 118.912  14.842  1.00  0.00    -0.550 OA
ATOM      9  O   UNL     1      34.842 118.820  12.577  1.00  0.00    -0.550 OA
ENDBRANCH   6   7
ENDBRANCH   5   6
ENDBRANCH   4   5
ENDBRANCH   3   4
ENDBRANCH   2   3
ENDBRANCH   1   2
BRANCH   1  10
ATOM     10  C   UNL     1      41.522 117.796  10.521  1.00  0.00     0.000 C 
BRANCH  10  11
ATOM     11  C   UNL     1      42.423 117.526   9.304  1.00  0.00    -0.000 C 
BRANCH  11  12
ATOM     12  C   UNL     1      43.700 116.748   9.669  1.00  0.00    -0.000 C 
BRANCH  12  13
ATOM     13  C   UNL     1      44.313 115.923   8.521  1.00  0.00    -0.000 C 
BRANCH  13  14
ATOM     14  C   UNL     1      44.558 114.442   8.878  1.00  0.00    -0.000 C 
BRANCH  14  15
ATOM     15  C   UNL     1      43.988 114.074  10.256  1.00  0.00    -0.003 C 
ATOM     16  C   UNL     1      45.104 113.858  11.275  1.00  0.00     0.004 C 
ENDBRANCH  14  15
ENDBRANCH  13  14
ENDBRANCH  12  13
ENDBRANCH  11  12
ENDBRANCH  10  11
ENDBRANCH   1  10
TORSDOF 12
ENDMDL
MODEL 7
REMARK VINA RESULT:    -4.657      1.476      2.556
REMARK INTER + INTRA:          -8.717
REMARK INTER:                  -7.864
REMARK INTRA:                  -0.853
REMARK UNBOUND:                -0.793
REMARK SMILES CCCCCCCCCCCCCC(=O)[O-]
REMARK SMILES IDX 8 1 9 2 10 3 11 4 12 5 13 6 14 7 15 8 16 9 7 10 6 11 5 12
REMARK SMILES IDX 4 13 3 14 2 15 1 16
REMARK H PARENT
REMARK Flexibility Score: inf
ROOT
ATOM      1  C   UNL     1      42.635 116.609  11.251  1.00  0.00     0.000 C 
ENDROOT
BRANCH   1   2
ATOM      2  C   UNL     1      42.492 117.459   9.979  1.00  0.00     0.000 C 
BRANCH   2   3
ATOM      3  C   UNL     1      42.980 116.688   8.747  1.00  0.00     0.000 C 
BRANCH   3   4
ATOM      4  C   UNL     1      44.364 116.069   8.998  1.00  0.00     0.000 C 
BRANCH   4   5
ATOM      5  C   UNL     1      44.377 114.541   8.814  1.00  0.00     0.006 C 
BRANCH   5   6
ATOM      6  C   UNL     1      45.341 113.799   9.752  1.00  0.00     0.053 C 
BRANCH   6   7
ATOM      7  C   UNL     1      44.867 113.818  11.173  1.00  0.00     0.041 C 
ATOM      8  O   UNL     1      45.471 114.513  12.033  1.00  0.00    -0.550 OA
ATOM      9  O   UNL     1      43.740 113.095  11.541  1.00  0.00    -0.550 OA
ENDBRANCH   6   7
ENDBRANCH   5   6
ENDBRANCH   4   5
ENDBRANCH   3   4
ENDBRANCH   2   3
ENDBRANCH   1   2
BRANCH   1  10
ATOM     10  C   UNL     1      41.417 116.721  12.181  1.00  0.00     0.000 C 
BRANCH  10  11
ATOM     11  C   UNL     1      40.318 117.631  11.606  1.00  0.00    -0.000 C 
BRANCH  11  12
ATOM     12  C   UNL     1      39.962 118.800  12.541  1.00  0.00    -0.000 C 
BRANCH  12  13
ATOM     13  C   UNL     1      38.658 118.622  13.342  1.00  0.00    -0.000 C 
BRANCH  13  14
ATOM     14  C   UNL     1      37.766 117.470  12.833  1.00  0.00    -0.000 C 
BRANCH  14  15
ATOM     15  C   UNL     1      36.277 117.847  12.826  1.00  0.00    -0.003 C 
ATOM     16  C   UNL     1      36.086 119.342  13.066  1.00  0.00     0.004 C 
ENDBRANCH  14  15
ENDBRANCH  13  14
ENDBRANCH  12  13
ENDBRANCH  11  12
ENDBRANCH  10  11
ENDBRANCH   1  10
TORSDOF 12
ENDMDL
MODEL 8
REMARK VINA RESULT:    -4.574      4.666      8.816
REMARK INTER + INTRA:          -8.576
REMARK INTER:                  -7.947
REMARK INTRA:                  -0.629
REMARK UNBOUND:                -0.793
REMARK SMILES CCCCCCCCCCCCCC(=O)[O-]
REMARK SMILES IDX 8 1 9 2 10 3 11 4 12 5 13 6 14 7 15 8 16 9 7 10 6 11 5 12
REMARK SMILES IDX 4 13 3 14 2 15 1 16
REMARK H PARENT
REMARK Flexibility Score: inf
ROOT
ATOM      1  C   UNL     1      40.673 117.064  12.219  1.00  0.00     0.000 C 
ENDROOT
BRANCH   1   2
ATOM      2  C   UNL     1      39.774 117.980  13.064  1.00  0.00     0.000 C 
BRANCH   2   3
ATOM      3  C   UNL     1      38.328 117.471  13.072  1.00  0.00     0.000 C 
BRANCH   3   4
ATOM      4  C   UNL     1      37.339 118.630  13.272  1.00  0.00     0.000 C 
BRANCH   4   5
ATOM      5  C   UNL     1      38.003 119.887  13.863  1.00  0.00     0.006 C 
BRANCH   5   6
ATOM      6  C   UNL     1      37.028 121.035  14.165  1.00  0.00     0.053 C 
BRANCH   6   7
ATOM      7  C   UNL     1      36.643 121.079  15.611  1.00  0.00     0.041 C 
ATOM      8  O   UNL     1      36.776 122.143  16.271  1.00  0.00    -0.550 OA
ATOM      9  O   UNL     1      36.106 119.953  16.224  1.00  0.00    -0.550 OA
ENDBRANCH   6   7
ENDBRANCH   5   6
ENDBRANCH   4   5
ENDBRANCH   3   4
ENDBRANCH   2   3
ENDBRANCH   1   2
BRANCH   1  10
ATOM     10  C   UNL     1      41.176 117.743  10.935  1.00  0.00     0.000 C 
BRANCH  10  11
ATOM     11  C   UNL     1      42.535 117.192  10.469  1.00  0.00    -0.000 C 
BRANCH  11  12
ATOM     12  C   UNL     1      42.645 117.097   8.937  1.00  0.00    -0.000 C 
BRANCH  12  13
ATOM     13  C   UNL     1      43.834 116.264   8.419  1.00  0.00    -0.000 C 
BRANCH  13  14
ATOM     14  C   UNL     1      44.686 115.630   9.539  1.00  0.00    -0.000 C 
BRANCH  14  15
ATOM     15  C   UNL     1      44.472 114.113   9.644  1.00  0.00    -0.003 C 
ATOM     16  C   UNL     1      43.988 113.720  11.037  1.00  0.00     0.004 C 
ENDBRANCH  14  15
ENDBRANCH  13  14
ENDBRANCH  12  13
ENDBRANCH  11  12
ENDBRANCH  10  11
ENDBRANCH   1  10
TORSDOF 12
ENDMDL
MODEL 9
REMARK VINA RESULT:    -4.553      3.679      7.447
REMARK INTER + INTRA:          -8.540
REMARK INTER:                  -7.019
REMARK INTRA:                  -1.521
REMARK UNBOUND:                -0.793
REMARK SMILES CCCCCCCCCCCCCC(=O)[O-]
REMARK SMILES IDX 8 1 9 2 10 3 11 4 12 5 13 6 14 7 15 8 16 9 7 10 6 11 5 12
REMARK SMILES IDX 4 13 3 14 2 15 1 16
REMARK H PARENT
REMARK Flexibility Score: inf
ROOT
ATOM      1  C   UNL     1      44.671 115.724   9.759  1.00  0.00     0.000 C 
ENDROOT
BRANCH   1   2
ATOM      2  C   UNL     1      43.934 116.297   8.538  1.00  0.00     0.000 C 
BRANCH   2   3
ATOM      3  C   UNL     1      42.701 117.099   8.969  1.00  0.00     0.000 C 
BRANCH   3   4
ATOM      4  C   UNL     1      42.542 117.085  10.497  1.00  0.00     0.000 C 
BRANCH   4   5
ATOM      5  C   UNL     1      41.173 117.618  10.959  1.00  0.00     0.006 C 
BRANCH   5   6
ATOM      6  C   UNL     1      40.674 117.015  12.281  1.00  0.00     0.053 C 
BRANCH   6   7
ATOM      7  C   UNL     1      39.582 117.836  12.895  1.00  0.00     0.041 C 
ATOM      8  O   UNL     1      38.378 117.492  12.760  1.00  0.00    -0.550 OA
ATOM      9  O   UNL     1      39.895 118.962  13.645  1.00  0.00    -0.550 OA
ENDBRANCH   6   7
ENDBRANCH   5   6
ENDBRANCH   4   5
ENDBRANCH   3   4
ENDBRANCH   2   3
ENDBRANCH   1   2
BRANCH   1  10
ATOM     10  C   UNL     1      45.219 114.309   9.513  1.00  0.00     0.000 C 
BRANCH  10  11
ATOM     11  C   UNL     1      45.030 113.385  10.729  1.00  0.00    -0.000 C 
BRANCH  11  12
ATOM     12  C   UNL     1      43.706 113.638  11.470  1.00  0.00    -0.000 C 
BRANCH  12  13
ATOM     13  C   UNL     1      43.854 114.094  12.934  1.00  0.00    -0.000 C 
BRANCH  13  14
ATOM     14  C   UNL     1      45.305 114.039  13.461  1.00  0.00    -0.000 C 
BRANCH  14  15
ATOM     15  C   UNL     1      45.911 115.439  13.642  1.00  0.00    -0.003 C 
ATOM     16  C   UNL     1      44.867 116.527  13.408  1.00  0.00     0.004 C 
ENDBRANCH  14  15
ENDBRANCH  13  14
ENDBRANCH  12  13
ENDBRANCH  11  12
ENDBRANCH  10  11
ENDBRANCH   1  10
TORSDOF 12
ENDMDL
