MODEL 1
REMARK VINA RESULT:    -4.069      0.000      0.000
REMARK INTER + INTRA:          -9.069
REMARK INTER:                  -7.398
REMARK INTRA:                  -1.670
REMARK UNBOUND:                -1.670
REMARK SMILES CCCCCCCCCCCCCCCC(=O)[O-]
REMARK SMILES IDX 9 1 10 2 11 3 12 4 13 5 14 6 15 7 16 8 17 9 18 10 8 11 7 12
REMARK SMILES IDX 6 13 5 14 4 15 3 16 2 17 1 18
REMARK H PARENT
REMARK Flexibility Score: inf
ROOT
ATOM      1  C   UNL     1      33.561  18.008 -18.591  1.00  0.00     0.000 C 
ENDROOT
BRANCH   1   2
ATOM      2  C   UNL     1      32.433  17.253 -19.319  1.00  0.00     0.000 C 
BRANCH   2   3
ATOM      3  C   UNL     1      31.058  17.359 -18.625  1.00  0.00     0.000 C 
BRANCH   3   4
ATOM      4  C   UNL     1      30.075  16.278 -19.108  1.00  0.00     0.000 C 
BRANCH   4   5
ATOM      5  C   UNL     1      28.627  16.786 -19.190  1.00  0.00     0.000 C 
BRANCH   5   6
ATOM      6  C   UNL     1      28.507  18.286 -18.871  1.00  0.00     0.006 C 
BRANCH   6   7
ATOM      7  C   UNL     1      27.627  18.547 -17.642  1.00  0.00     0.053 C 
BRANCH   7   8
ATOM      8  C   UNL     1      26.864  19.830 -17.768  1.00  0.00     0.041 C 
ATOM      9  O   UNL     1      26.954  20.519 -18.817  1.00  0.00    -0.550 OA
ATOM     10  O   UNL     1      26.027  20.247 -16.740  1.00  0.00    -0.550 OA
ENDBRANCH   7   8
ENDBRANCH   6   7
ENDBRANCH   5   6
ENDBRANCH   4   5
ENDBRANCH   3   4
ENDBRANCH   2   3
ENDBRANCH   1   2
BRANCH   1  11
ATOM     11  C   UNL     1      34.618  17.113 -17.923  1.00  0.00     0.000 C 
BRANCH  11  12
ATOM     12  C   UNL     1      34.238  15.625 -17.946  1.00  0.00    -0.000 C 
BRANCH  12  13
ATOM     13  C   UNL     1      34.668  14.925 -16.649  1.00  0.00    -0.000 C 
BRANCH  13  14
ATOM     14  C   UNL     1      33.557  14.017 -16.079  1.00  0.00    -0.000 C 
BRANCH  14  15
ATOM     15  C   UNL     1      32.138  14.420 -16.523  1.00  0.00    -0.000 C 
BRANCH  15  16
ATOM     16  C   UNL     1      31.019  14.068 -15.525  1.00  0.00    -0.000 C 
BRANCH  16  17
ATOM     17  C   UNL     1      29.590  14.293 -16.051  1.00  0.00    -0.003 C 
ATOM     18  C   UNL     1      29.004  15.637 -15.623  1.00  0.00     0.004 C 
ENDBRANCH  16  17
ENDBRANCH  15  16
ENDBRANCH  14  15
ENDBRANCH  13  14
ENDBRANCH  12  13
ENDBRANCH  11  12
ENDBRANCH   1  11
TORSDOF 14
ENDMDL
MODEL 2
REMARK VINA RESULT:    -4.001      0.840      3.507
REMARK INTER + INTRA:          -8.945
REMARK INTER:                  -7.350
REMARK INTRA:                  -1.595
REMARK UNBOUND:                -1.670
REMARK SMILES CCCCCCCCCCCCCCCC(=O)[O-]
REMARK SMILES IDX 9 1 10 2 11 3 12 4 13 5 14 6 15 7 16 8 17 9 18 10 8 11 7 12
REMARK SMILES IDX 6 13 5 14 4 15 3 16 2 17 1 18
REMARK H PARENT
REMARK Flexibility Score: inf
ROOT
ATOM      1  C   UNL     1      29.931  14.951 -15.809  1.00  0.00     0.000 C 
ENDROOT
BRANCH   1   2
ATOM      2  C   UNL     1      28.915  14.567 -16.901  1.00  0.00     0.000 C 
BRANCH   2   3
ATOM      3  C   UNL     1      29.124  15.307 -18.239  1.00  0.00     0.000 C 
BRANCH   3   4
ATOM      4  C   UNL     1      30.291  16.309 -18.175  1.00  0.00     0.000 C 
BRANCH   4   5
ATOM      5  C   UNL     1      29.871  17.735 -18.563  1.00  0.00     0.000 C 
BRANCH   5   6
ATOM      6  C   UNL     1      28.346  17.933 -18.529  1.00  0.00     0.006 C 
BRANCH   6   7
ATOM      7  C   UNL     1      27.892  18.725 -17.296  1.00  0.00     0.053 C 
BRANCH   7   8
ATOM      8  C   UNL     1      26.886  19.777 -17.650  1.00  0.00     0.041 C 
ATOM      9  O   UNL     1      26.880  20.284 -18.802  1.00  0.00    -0.550 OA
ATOM     10  O   UNL     1      25.935  20.172 -16.718  1.00  0.00    -0.550 OA
ENDBRANCH   7   8
ENDBRANCH   6   7
ENDBRANCH   5   6
ENDBRANCH   4   5
ENDBRANCH   3   4
ENDBRANCH   2   3
ENDBRANCH   1   2
BRANCH   1  11
ATOM     11  C   UNL     1      30.937  13.847 -15.439  1.00  0.00     0.000 C 
BRANCH  11  12
ATOM     12  C   UNL     1      31.336  12.979 -16.641  1.00  0.00    -0.000 C 
BRANCH  12  13
ATOM     13  C   UNL     1      32.845  13.065 -16.908  1.00  0.00    -0.000 C 
BRANCH  13  14
ATOM     14  C   UNL     1      33.541  14.101 -15.999  1.00  0.00    -0.000 C 
BRANCH  14  15
ATOM     15  C   UNL     1      34.595  14.957 -16.728  1.00  0.00    -0.000 C 
BRANCH  15  16
ATOM     16  C   UNL     1      34.050  15.814 -17.886  1.00  0.00    -0.000 C 
BRANCH  16  17
ATOM     17  C   UNL     1      34.652  17.228 -17.981  1.00  0.00    -0.003 C 
ATOM     18  C   UNL     1      33.651  18.267 -18.481  1.00  0.00     0.004 C 
ENDBRANCH  16  17
ENDBRANCH  15  16
ENDBRANCH  14  15
ENDBRANCH  13  14
ENDBRANCH  12  13
ENDBRANCH  11  12
ENDBRANCH   1  11
TORSDOF 14
ENDMDL
MODEL 3
REMARK VINA RESULT:    -3.900      1.976      4.736
REMARK INTER + INTRA:          -8.763
REMARK INTER:                  -7.325
REMARK INTRA:                  -1.438
REMARK UNBOUND:                -1.670
REMARK SMILES CCCCCCCCCCCCCCCC(=O)[O-]
REMARK SMILES IDX 9 1 10 2 11 3 12 4 13 5 14 6 15 7 16 8 17 9 18 10 8 11 7 12
REMARK SMILES IDX 6 13 5 14 4 15 3 16 2 17 1 18
REMARK H PARENT
REMARK Flexibility Score: inf
ROOT
ATOM      1  C   UNL     1      34.617  16.765 -17.837  1.00  0.00     0.000 C 
ENDROOT
BRANCH   1   2
ATOM      2  C   UNL     1      34.302  15.257 -17.807  1.00  0.00     0.000 C 
BRANCH   2   3
ATOM      3  C   UNL     1      34.441  14.617 -16.409  1.00  0.00     0.000 C 
BRANCH   3   4
ATOM      4  C   UNL     1      33.183  13.829 -16.001  1.00  0.00     0.000 C 
BRANCH   4   5
ATOM      5  C   UNL     1      31.944  14.228 -16.816  1.00  0.00     0.000 C 
BRANCH   5   6
ATOM      6  C   UNL     1      30.705  14.463 -15.934  1.00  0.00     0.006 C 
BRANCH   6   7
ATOM      7  C   UNL     1      29.462  14.810 -16.764  1.00  0.00     0.053 C 
BRANCH   7   8
ATOM      8  C   UNL     1      28.383  15.417 -15.920  1.00  0.00     0.041 C 
ATOM      9  O   UNL     1      28.663  16.312 -15.082  1.00  0.00    -0.550 OA
ATOM     10  O   UNL     1      27.063  15.017 -16.085  1.00  0.00    -0.550 OA
ENDBRANCH   7   8
ENDBRANCH   6   7
ENDBRANCH   5   6
ENDBRANCH   4   5
ENDBRANCH   3   4
ENDBRANCH   2   3
ENDBRANCH   1   2
BRANCH   1  11
ATOM     11  C   UNL     1      34.027  17.529 -19.035  1.00  0.00     0.000 C 
BRANCH  11  12
ATOM     12  C   UNL     1      32.717  18.253 -18.693  1.00  0.00    -0.000 C 
BRANCH  12  13
ATOM     13  C   UNL     1      31.535  17.275 -18.670  1.00  0.00    -0.000 C 
BRANCH  13  14
ATOM     14  C   UNL     1      30.585  17.476 -19.871  1.00  0.00    -0.000 C 
BRANCH  14  15
ATOM     15  C   UNL     1      29.152  17.874 -19.468  1.00  0.00    -0.000 C 
BRANCH  15  16
ATOM     16  C   UNL     1      28.996  18.356 -18.013  1.00  0.00    -0.000 C 
BRANCH  16  17
ATOM     17  C   UNL     1      27.605  18.918 -17.666  1.00  0.00    -0.003 C 
ATOM     18  C   UNL     1      27.066  19.871 -18.730  1.00  0.00     0.004 C 
ENDBRANCH  16  17
ENDBRANCH  15  16
ENDBRANCH  14  15
ENDBRANCH  13  14
ENDBRANCH  12  13
ENDBRANCH  11  12
ENDBRANCH   1  11
TORSDOF 14
ENDMDL
MODEL 4
REMARK VINA RESULT:    -3.850      0.853      3.389
REMARK INTER + INTRA:          -8.671
REMARK INTER:                  -7.049
REMARK INTRA:                  -1.622
REMARK UNBOUND:                -1.670
REMARK SMILES CCCCCCCCCCCCCCCC(=O)[O-]
REMARK SMILES IDX 9 1 10 2 11 3 12 4 13 5 14 6 15 7 16 8 17 9 18 10 8 11 7 12
REMARK SMILES IDX 6 13 5 14 4 15 3 16 2 17 1 18
REMARK H PARENT
REMARK Flexibility Score: inf
ROOT
ATOM      1  C   UNL     1      32.155  14.310 -16.756  1.00  0.00     0.000 C 
ENDROOT
BRANCH   1   2
ATOM      2  C   UNL     1      30.886  14.474 -15.897  1.00  0.00     0.000 C 
BRANCH   2   3
ATOM      3  C   UNL     1      29.606  14.747 -16.717  1.00  0.00     0.000 C 
BRANCH   3   4
ATOM      4  C   UNL     1      28.651  15.718 -16.000  1.00  0.00     0.000 C 
BRANCH   4   5
ATOM      5  C   UNL     1      27.858  16.599 -16.978  1.00  0.00     0.000 C 
BRANCH   5   6
ATOM      6  C   UNL     1      28.351  18.056 -16.997  1.00  0.00     0.006 C 
BRANCH   6   7
ATOM      7  C   UNL     1      28.084  18.740 -18.345  1.00  0.00     0.053 C 
BRANCH   7   8
ATOM      8  C   UNL     1      26.739  19.400 -18.375  1.00  0.00     0.041 C 
ATOM      9  O   UNL     1      26.091  19.466 -19.452  1.00  0.00    -0.550 OA
ATOM     10  O   UNL     1      26.189  19.913 -17.208  1.00  0.00    -0.550 OA
ENDBRANCH   7   8
ENDBRANCH   6   7
ENDBRANCH   5   6
ENDBRANCH   4   5
ENDBRANCH   3   4
ENDBRANCH   2   3
ENDBRANCH   1   2
BRANCH   1  11
ATOM     11  C   UNL     1      33.454  14.093 -15.962  1.00  0.00     0.000 C 
BRANCH  11  12
ATOM     12  C   UNL     1      34.675  14.744 -16.628  1.00  0.00    -0.000 C 
BRANCH  12  13
ATOM     13  C   UNL     1      34.253  15.635 -17.804  1.00  0.00    -0.000 C 
BRANCH  13  14
ATOM     14  C   UNL     1      34.889  17.039 -17.732  1.00  0.00    -0.000 C 
BRANCH  14  15
ATOM     15  C   UNL     1      33.961  18.166 -18.226  1.00  0.00    -0.000 C 
BRANCH  15  16
ATOM     16  C   UNL     1      33.004  17.768 -19.365  1.00  0.00    -0.000 C 
BRANCH  16  17
ATOM     17  C   UNL     1      31.531  17.609 -18.945  1.00  0.00    -0.003 C 
ATOM     18  C   UNL     1      30.852  16.409 -19.600  1.00  0.00     0.004 C 
ENDBRANCH  16  17
ENDBRANCH  15  16
ENDBRANCH  14  15
ENDBRANCH  13  14
ENDBRANCH  12  13
ENDBRANCH  11  12
ENDBRANCH   1  11
TORSDOF 14
ENDMDL
MODEL 5
REMARK VINA RESULT:    -3.787      2.513      3.187
REMARK INTER + INTRA:          -8.556
REMARK INTER:                  -6.527
REMARK INTRA:                  -2.029
REMARK UNBOUND:                -1.670
REMARK SMILES CCCCCCCCCCCCCCCC(=O)[O-]
REMARK SMILES IDX 9 1 10 2 11 3 12 4 13 5 14 6 15 7 16 8 17 9 18 10 8 11 7 12
REMARK SMILES IDX 6 13 5 14 4 15 3 16 2 17 1 18
REMARK H PARENT
REMARK Flexibility Score: inf
ROOT
ATOM      1  C   UNL     1      33.208  17.661 -19.920  1.00  0.00     0.000 C 
ENDROOT
BRANCH   1   2
ATOM      2  C   UNL     1      31.718  17.285 -20.027  1.00  0.00     0.000 C 
BRANCH   2   3
ATOM      3  C   UNL     1      30.877  17.705 -18.802  1.00  0.00     0.000 C 
BRANCH   3   4
ATOM      4  C   UNL     1      29.365  17.664 -19.090  1.00  0.00     0.000 C 
BRANCH   4   5
ATOM      5  C   UNL     1      28.515  17.865 -17.826  1.00  0.00     0.000 C 
BRANCH   5   6
ATOM      6  C   UNL     1      28.606  16.675 -16.856  1.00  0.00     0.006 C 
BRANCH   6   7
ATOM      7  C   UNL     1      27.482  15.656 -17.083  1.00  0.00     0.053 C 
BRANCH   7   8
ATOM      8  C   UNL     1      27.453  14.612 -16.009  1.00  0.00     0.041 C 
ATOM      9  O   UNL     1      28.512  14.024 -15.669  1.00  0.00    -0.550 OA
ATOM     10  O   UNL     1      26.261  14.313 -15.361  1.00  0.00    -0.550 OA
ENDBRANCH   7   8
ENDBRANCH   6   7
ENDBRANCH   5   6
ENDBRANCH   4   5
ENDBRANCH   3   4
ENDBRANCH   2   3
ENDBRANCH   1   2
BRANCH   1  11
ATOM     11  C   UNL     1      33.663  18.128 -18.527  1.00  0.00     0.000 C 
BRANCH  11  12
ATOM     12  C   UNL     1      34.663  17.164 -17.873  1.00  0.00    -0.000 C 
BRANCH  12  13
ATOM     13  C   UNL     1      34.238  15.703 -18.078  1.00  0.00    -0.000 C 
BRANCH  13  14
ATOM     14  C   UNL     1      34.425  14.855 -16.802  1.00  0.00    -0.000 C 
BRANCH  14  15
ATOM     15  C   UNL     1      33.104  14.334 -16.204  1.00  0.00    -0.000 C 
BRANCH  15  16
ATOM     16  C   UNL     1      31.842  14.674 -17.020  1.00  0.00    -0.000 C 
BRANCH  16  17
ATOM     17  C   UNL     1      31.336  13.539 -17.929  1.00  0.00    -0.003 C 
ATOM     18  C   UNL     1      30.290  14.007 -18.937  1.00  0.00     0.004 C 
ENDBRANCH  16  17
ENDBRANCH  15  16
ENDBRANCH  14  15
ENDBRANCH  13  14
ENDBRANCH  12  13
ENDBRANCH  11  12
ENDBRANCH   1  11
TORSDOF 14
ENDMDL
MODEL 6
REMARK VINA RESULT:    -3.589      2.542      6.106
REMARK INTER + INTRA:          -8.196
REMARK INTER:                  -7.006
REMARK INTRA:                  -1.191
REMARK UNBOUND:                -1.670
REMARK SMILES CCCCCCCCCCCCCCCC(=O)[O-]
REMARK SMILES IDX 9 1 10 2 11 3 12 4 13 5 14 6 15 7 16 8 17 9 18 10 8 11 7 12
REMARK SMILES IDX 6 13 5 14 4 15 3 16 2 17 1 18
REMARK H PARENT
REMARK Flexibility Score: inf
ROOT
ATOM      1  C   UNL     1      30.021  13.921 -15.387  1.00  0.00     0.000 C 
ENDROOT
BRANCH   1   2
ATOM      2  C   UNL     1      30.738  13.376 -16.638  1.00  0.00     0.000 C 
BRANCH   2   3
ATOM      3  C   UNL     1      32.269  13.257 -16.479  1.00  0.00     0.000 C 
BRANCH   3   4
ATOM      4  C   UNL     1      32.924  14.600 -16.111  1.00  0.00     0.000 C 
BRANCH   4   5
ATOM      5  C   UNL     1      34.279  14.809 -16.805  1.00  0.00     0.000 C 
BRANCH   5   6
ATOM      6  C   UNL     1      34.152  15.573 -18.134  1.00  0.00     0.006 C 
BRANCH   6   7
ATOM      7  C   UNL     1      34.571  17.043 -18.000  1.00  0.00     0.053 C 
BRANCH   7   8
ATOM      8  C   UNL     1      33.546  17.968 -18.580  1.00  0.00     0.041 C 
ATOM      9  O   UNL     1      33.479  19.162 -18.191  1.00  0.00    -0.550 OA
ATOM     10  O   UNL     1      32.686  17.519 -19.574  1.00  0.00    -0.550 OA
ENDBRANCH   7   8
ENDBRANCH   6   7
ENDBRANCH   5   6
ENDBRANCH   4   5
ENDBRANCH   3   4
ENDBRANCH   2   3
ENDBRANCH   1   2
BRANCH   1  11
ATOM     11  C   UNL     1      29.411  15.324 -15.547  1.00  0.00     0.000 C 
BRANCH  11  12
ATOM     12  C   UNL     1      28.073  15.309 -16.302  1.00  0.00    -0.000 C 
BRANCH  12  13
ATOM     13  C   UNL     1      28.266  15.693 -17.775  1.00  0.00    -0.000 C 
BRANCH  13  14
ATOM     14  C   UNL     1      29.458  16.654 -17.977  1.00  0.00    -0.000 C 
BRANCH  14  15
ATOM     15  C   UNL     1      29.040  18.106 -18.280  1.00  0.00    -0.000 C 
BRANCH  15  16
ATOM     16  C   UNL     1      28.184  18.777 -17.189  1.00  0.00    -0.000 C 
BRANCH  16  17
ATOM     17  C   UNL     1      26.874  19.408 -17.694  1.00  0.00    -0.003 C 
ATOM     18  C   UNL     1      27.050  20.181 -18.999  1.00  0.00     0.004 C 
ENDBRANCH  16  17
ENDBRANCH  15  16
ENDBRANCH  14  15
ENDBRANCH  13  14
ENDBRANCH  12  13
ENDBRANCH  11  12
ENDBRANCH   1  11
TORSDOF 14
ENDMDL
MODEL 7
REMARK VINA RESULT:    -3.543      1.174      4.036
REMARK INTER + INTRA:          -8.114
REMARK INTER:                  -6.308
REMARK INTRA:                  -1.806
REMARK UNBOUND:                -1.670
REMARK SMILES CCCCCCCCCCCCCCCC(=O)[O-]
REMARK SMILES IDX 9 1 10 2 11 3 12 4 13 5 14 6 15 7 16 8 17 9 18 10 8 11 7 12
REMARK SMILES IDX 6 13 5 14 4 15 3 16 2 17 1 18
REMARK H PARENT
REMARK Flexibility Score: inf
ROOT
ATOM      1  C   UNL     1      31.394  13.741 -15.815  1.00  0.00     0.000 C 
ENDROOT
BRANCH   1   2
ATOM      2  C   UNL     1      30.124  14.485 -15.358  1.00  0.00     0.000 C 
BRANCH   2   3
ATOM      3  C   UNL     1      28.809  13.823 -15.825  1.00  0.00     0.000 C 
BRANCH   3   4
ATOM      4  C   UNL     1      27.741  14.860 -16.215  1.00  0.00     0.000 C 
BRANCH   4   5
ATOM      5  C   UNL     1      28.300  16.290 -16.285  1.00  0.00     0.000 C 
BRANCH   5   6
ATOM      6  C   UNL     1      27.821  17.053 -17.532  1.00  0.00     0.006 C 
BRANCH   6   7
ATOM      7  C   UNL     1      28.105  18.558 -17.433  1.00  0.00     0.053 C 
BRANCH   7   8
ATOM      8  C   UNL     1      26.963  19.375 -17.956  1.00  0.00     0.041 C 
ATOM      9  O   UNL     1      27.177  20.323 -18.755  1.00  0.00    -0.550 OA
ATOM     10  O   UNL     1      25.660  19.066 -17.586  1.00  0.00    -0.550 OA
ENDBRANCH   7   8
ENDBRANCH   6   7
ENDBRANCH   5   6
ENDBRANCH   4   5
ENDBRANCH   3   4
ENDBRANCH   2   3
ENDBRANCH   1   2
BRANCH   1  11
ATOM     11  C   UNL     1      32.364  14.576 -16.669  1.00  0.00     0.000 C 
BRANCH  11  12
ATOM     12  C   UNL     1      32.454  14.083 -18.121  1.00  0.00    -0.000 C 
BRANCH  12  13
ATOM     13  C   UNL     1      31.167  14.404 -18.894  1.00  0.00    -0.000 C 
BRANCH  13  14
ATOM     14  C   UNL     1      30.880  15.919 -18.948  1.00  0.00    -0.000 C 
BRANCH  14  15
ATOM     15  C   UNL     1      32.064  16.757 -19.468  1.00  0.00    -0.000 C 
BRANCH  15  16
ATOM     16  C   UNL     1      32.330  18.061 -18.692  1.00  0.00    -0.000 C 
BRANCH  16  17
ATOM     17  C   UNL     1      33.818  18.381 -18.459  1.00  0.00    -0.003 C 
ATOM     18  C   UNL     1      34.628  17.161 -18.028  1.00  0.00     0.004 C 
ENDBRANCH  16  17
ENDBRANCH  15  16
ENDBRANCH  14  15
ENDBRANCH  13  14
ENDBRANCH  12  13
ENDBRANCH  11  12
ENDBRANCH   1  11
TORSDOF 14
ENDMDL
MODEL 8
REMARK VINA RESULT:    -3.541      1.923      4.211
REMARK INTER + INTRA:          -8.109
REMARK INTER:                  -6.753
REMARK INTRA:                  -1.356
REMARK UNBOUND:                -1.670
REMARK SMILES CCCCCCCCCCCCCCCC(=O)[O-]
REMARK SMILES IDX 9 1 10 2 11 3 12 4 13 5 14 6 15 7 16 8 17 9 18 10 8 11 7 12
REMARK SMILES IDX 6 13 5 14 4 15 3 16 2 17 1 18
REMARK H PARENT
REMARK Flexibility Score: inf
ROOT
ATOM      1  C   UNL     1      31.346  14.417 -15.679  1.00  0.00     0.000 C 
ENDROOT
BRANCH   1   2
ATOM      2  C   UNL     1      30.118  13.590 -15.252  1.00  0.00     0.000 C 
BRANCH   2   3
ATOM      3  C   UNL     1      28.776  14.147 -15.774  1.00  0.00     0.000 C 
BRANCH   3   4
ATOM      4  C   UNL     1      28.717  15.684 -15.707  1.00  0.00     0.000 C 
BRANCH   4   5
ATOM      5  C   UNL     1      28.682  16.338 -17.096  1.00  0.00     0.000 C 
BRANCH   5   6
ATOM      6  C   UNL     1      28.240  15.361 -18.200  1.00  0.00     0.006 C 
BRANCH   6   7
ATOM      7  C   UNL     1      26.998  15.860 -18.950  1.00  0.00     0.053 C 
BRANCH   7   8
ATOM      8  C   UNL     1      25.828  16.037 -18.032  1.00  0.00     0.041 C 
ATOM      9  O   UNL     1      25.383  15.058 -17.379  1.00  0.00    -0.550 OA
ATOM     10  O   UNL     1      25.251  17.291 -17.873  1.00  0.00    -0.550 OA
ENDBRANCH   7   8
ENDBRANCH   6   7
ENDBRANCH   5   6
ENDBRANCH   4   5
ENDBRANCH   3   4
ENDBRANCH   2   3
ENDBRANCH   1   2
BRANCH   1  11
ATOM     11  C   UNL     1      32.368  13.663 -16.547  1.00  0.00     0.000 C 
BRANCH  11  12
ATOM     12  C   UNL     1      33.806  13.799 -16.027  1.00  0.00    -0.000 C 
BRANCH  12  13
ATOM     13  C   UNL     1      34.560  14.909 -16.772  1.00  0.00    -0.000 C 
BRANCH  13  14
ATOM     14  C   UNL     1      34.208  14.949 -18.274  1.00  0.00    -0.000 C 
BRANCH  14  15
ATOM     15  C   UNL     1      34.573  16.279 -18.961  1.00  0.00    -0.000 C 
BRANCH  15  16
ATOM     16  C   UNL     1      34.289  17.542 -18.126  1.00  0.00    -0.000 C 
BRANCH  16  17
ATOM     17  C   UNL     1      33.170  18.443 -18.679  1.00  0.00    -0.003 C 
ATOM     18  C   UNL     1      31.838  17.713 -18.829  1.00  0.00     0.004 C 
ENDBRANCH  16  17
ENDBRANCH  15  16
ENDBRANCH  14  15
ENDBRANCH  13  14
ENDBRANCH  12  13
ENDBRANCH  11  12
ENDBRANCH   1  11
TORSDOF 14
ENDMDL
MODEL 9
REMARK VINA RESULT:    -3.456      1.830      3.860
REMARK INTER + INTRA:          -7.954
REMARK INTER:                  -6.055
REMARK INTRA:                  -1.899
REMARK UNBOUND:                -1.670
REMARK SMILES CCCCCCCCCCCCCCCC(=O)[O-]
REMARK SMILES IDX 9 1 10 2 11 3 12 4 13 5 14 6 15 7 16 8 17 9 18 10 8 11 7 12
REMARK SMILES IDX 6 13 5 14 4 15 3 16 2 17 1 18
REMARK H PARENT
REMARK Flexibility Score: inf
ROOT
ATOM      1  C   UNL     1      30.575  14.352 -16.746  1.00  0.00     0.000 C 
ENDROOT
BRANCH   1   2
ATOM      2  C   UNL     1      30.127  14.410 -18.219  1.00  0.00     0.000 C 
BRANCH   2   3
ATOM      3  C   UNL     1      31.071  15.224 -19.130  1.00  0.00     0.000 C 
BRANCH   3   4
ATOM      4  C   UNL     1      30.395  16.489 -19.688  1.00  0.00     0.000 C 
BRANCH   4   5
ATOM      5  C   UNL     1      30.245  17.596 -18.634  1.00  0.00     0.000 C 
BRANCH   5   6
ATOM      6  C   UNL     1      28.782  18.021 -18.425  1.00  0.00     0.006 C 
BRANCH   6   7
ATOM      7  C   UNL     1      28.151  17.341 -17.202  1.00  0.00     0.053 C 
BRANCH   7   8
ATOM      8  C   UNL     1      26.986  16.480 -17.585  1.00  0.00     0.041 C 
ATOM      9  O   UNL     1      26.728  15.437 -16.931  1.00  0.00    -0.550 OA
ATOM     10  O   UNL     1      26.166  16.849 -18.645  1.00  0.00    -0.550 OA
ENDBRANCH   7   8
ENDBRANCH   6   7
ENDBRANCH   5   6
ENDBRANCH   4   5
ENDBRANCH   3   4
ENDBRANCH   2   3
ENDBRANCH   1   2
BRANCH   1  11
ATOM     11  C   UNL     1      31.197  13.016 -16.307  1.00  0.00     0.000 C 
BRANCH  11  12
ATOM     12  C   UNL     1      32.730  13.014 -16.400  1.00  0.00    -0.000 C 
BRANCH  12  13
ATOM     13  C   UNL     1      33.308  14.388 -16.031  1.00  0.00    -0.000 C 
BRANCH  13  14
ATOM     14  C   UNL     1      34.593  14.713 -16.821  1.00  0.00    -0.000 C 
BRANCH  14  15
ATOM     15  C   UNL     1      34.381  14.791 -18.346  1.00  0.00    -0.000 C 
BRANCH  15  16
ATOM     16  C   UNL     1      34.642  16.175 -18.969  1.00  0.00    -0.000 C 
BRANCH  16  17
ATOM     17  C   UNL     1      34.576  17.352 -17.979  1.00  0.00    -0.003 C 
ATOM     18  C   UNL     1      33.666  18.481 -18.458  1.00  0.00     0.004 C 
ENDBRANCH  16  17
ENDBRANCH  15  16
ENDBRANCH  14  15
ENDBRANCH  13  14
ENDBRANCH  12  13
ENDBRANCH  11  12
ENDBRANCH   1  11
TORSDOF 14
ENDMDL
