MODEL 1
REMARK VINA RESULT:    -5.171      0.000      0.000
REMARK INTER + INTRA:          -6.377
REMARK INTER:                  -6.078
REMARK INTRA:                  -0.298
REMARK UNBOUND:                -0.298
REMARK SMILES O=c1c(O)c(-c2ccc(O)cc2)oc2cc(O)cc(O)c12
REMARK SMILES IDX 5 1 3 2 2 3 1 4 21 5 19 6 18 7 16 8 15 9 14 10 13 11 6 12
REMARK SMILES IDX 7 13 8 14 9 15 12 16 11 17 10 18 4 20 20 22 17 24
REMARK H PARENT 10 19 4 21 20 23 17 25
REMARK Flexibility Score: inf
ROOT
ATOM      1  C   UNL     1      43.602  18.185  -3.450  1.00  0.00     0.180 A 
ATOM      2  C   UNL     1      43.971  18.608  -4.743  1.00  0.00     0.208 A 
ATOM      3  C   UNL     1      44.899  17.843  -5.467  1.00  0.00     0.238 A 
ATOM      4  O   UNL     1      45.245  18.217  -6.621  1.00  0.00    -0.285 OA
ATOM      5  C   UNL     1      45.425  16.664  -4.900  1.00  0.00     0.111 A 
ATOM      6  C   UNL     1      46.361  15.836  -5.565  1.00  0.00     0.134 A 
ATOM      7  C   UNL     1      46.830  14.672  -4.937  1.00  0.00     0.093 A 
ATOM      8  C   UNL     1      46.381  14.323  -3.658  1.00  0.00     0.123 A 
ATOM      9  C   UNL     1      45.460  15.137  -2.999  1.00  0.00     0.094 A 
ATOM     10  C   UNL     1      44.981  16.300  -3.607  1.00  0.00     0.146 A 
ATOM     11  O   UNL     1      44.108  17.059  -2.954  1.00  0.00    -0.452 OA
ENDROOT
BRANCH   1  12
ATOM     12  C   UNL     1      42.645  18.947  -2.616  1.00  0.00     0.021 A 
ATOM     13  C   UNL     1      43.071  20.006  -1.793  1.00  0.00     0.016 A 
ATOM     14  C   UNL     1      42.151  20.694  -0.995  1.00  0.00     0.047 A 
ATOM     15  C   UNL     1      40.800  20.327  -1.000  1.00  0.00     0.115 A 
ATOM     16  C   UNL     1      41.291  18.571  -2.599  1.00  0.00     0.016 A 
ATOM     17  C   UNL     1      40.374  19.263  -1.802  1.00  0.00     0.047 A 
BRANCH  15  18
ATOM     18  O   UNL     1      39.875  21.007  -0.212  1.00  0.00    -0.508 OA
ATOM     19  H   UNL     1      40.091  21.281   0.739  1.00  0.00     0.293 HD
ENDBRANCH  15  18
ENDBRANCH   1  12
BRANCH   2  20
ATOM     20  O   UNL     1      43.398  19.753  -5.301  1.00  0.00    -0.502 OA
ATOM     21  H   UNL     1      42.790  20.367  -4.772  1.00  0.00     0.293 HD
ENDBRANCH   2  20
BRANCH   6  22
ATOM     22  O   UNL     1      46.825  16.158  -6.841  1.00  0.00    -0.507 OA
ATOM     23  H   UNL     1      47.355  15.497  -7.399  1.00  0.00     0.293 HD
ENDBRANCH   6  22
BRANCH   8  24
ATOM     24  O   UNL     1      46.847  13.167  -3.035  1.00  0.00    -0.508 OA
ATOM     25  H   UNL     1      47.356  12.457  -3.547  1.00  0.00     0.293 HD
ENDBRANCH   8  24
TORSDOF 5
ENDMDL
MODEL 2
REMARK VINA RESULT:    -5.157      3.142      5.307
REMARK INTER + INTRA:          -6.359
REMARK INTER:                  -6.186
REMARK INTRA:                  -0.173
REMARK UNBOUND:                -0.298
REMARK SMILES O=c1c(O)c(-c2ccc(O)cc2)oc2cc(O)cc(O)c12
REMARK SMILES IDX 5 1 3 2 2 3 1 4 21 5 19 6 18 7 16 8 15 9 14 10 13 11 6 12
REMARK SMILES IDX 7 13 8 14 9 15 12 16 11 17 10 18 4 20 20 22 17 24
REMARK H PARENT 10 19 4 21 20 23 17 25
REMARK Flexibility Score: inf
ROOT
ATOM      1  C   UNL     1      46.203  15.041  -3.889  1.00  0.00     0.180 A 
ATOM      2  C   UNL     1      46.990  13.991  -3.377  1.00  0.00     0.208 A 
ATOM      3  C   UNL     1      48.343  13.916  -3.745  1.00  0.00     0.238 A 
ATOM      4  O   UNL     1      49.055  12.975  -3.301  1.00  0.00    -0.285 OA
ATOM      5  C   UNL     1      48.889  14.898  -4.597  1.00  0.00     0.111 A 
ATOM      6  C   UNL     1      50.243  14.897  -5.011  1.00  0.00     0.134 A 
ATOM      7  C   UNL     1      50.713  15.916  -5.853  1.00  0.00     0.093 A 
ATOM      8  C   UNL     1      49.856  16.934  -6.287  1.00  0.00     0.123 A 
ATOM      9  C   UNL     1      48.521  16.938  -5.882  1.00  0.00     0.094 A 
ATOM     10  C   UNL     1      48.033  15.932  -5.044  1.00  0.00     0.146 A 
ATOM     11  O   UNL     1      46.757  15.958  -4.678  1.00  0.00    -0.452 OA
ENDROOT
BRANCH   1  12
ATOM     12  C   UNL     1      44.765  15.178  -3.563  1.00  0.00     0.021 A 
ATOM     13  C   UNL     1      43.822  14.229  -3.999  1.00  0.00     0.016 A 
ATOM     14  C   UNL     1      42.465  14.393  -3.700  1.00  0.00     0.047 A 
ATOM     15  C   UNL     1      42.034  15.511  -2.974  1.00  0.00     0.115 A 
ATOM     16  C   UNL     1      44.320  16.307  -2.855  1.00  0.00     0.016 A 
ATOM     17  C   UNL     1      42.964  16.467  -2.556  1.00  0.00     0.047 A 
BRANCH  15  18
ATOM     18  O   UNL     1      40.686  15.683  -2.668  1.00  0.00    -0.508 OA
ATOM     19  H   UNL     1      40.076  14.891  -2.502  1.00  0.00     0.293 HD
ENDBRANCH  15  18
ENDBRANCH   1  12
BRANCH   2  20
ATOM     20  O   UNL     1      46.436  13.060  -2.495  1.00  0.00    -0.502 OA
ATOM     21  H   UNL     1      46.795  12.922  -1.557  1.00  0.00     0.293 HD
ENDBRANCH   2  20
BRANCH   6  22
ATOM     22  O   UNL     1      51.121  13.896  -4.594  1.00  0.00    -0.507 OA
ATOM     23  H   UNL     1      50.973  13.383  -3.732  1.00  0.00     0.293 HD
ENDBRANCH   6  22
BRANCH   8  24
ATOM     24  O   UNL     1      50.324  17.946  -7.124  1.00  0.00    -0.508 OA
ATOM     25  H   UNL     1      51.079  17.785  -7.779  1.00  0.00     0.293 HD
ENDBRANCH   8  24
TORSDOF 5
ENDMDL
MODEL 3
REMARK VINA RESULT:    -5.104      6.581      8.119
REMARK INTER + INTRA:          -6.297
REMARK INTER:                  -6.012
REMARK INTRA:                  -0.285
REMARK UNBOUND:                -0.298
REMARK SMILES O=c1c(O)c(-c2ccc(O)cc2)oc2cc(O)cc(O)c12
REMARK SMILES IDX 5 1 3 2 2 3 1 4 21 5 19 6 18 7 16 8 15 9 14 10 13 11 6 12
REMARK SMILES IDX 7 13 8 14 9 15 12 16 11 17 10 18 4 20 20 22 17 24
REMARK H PARENT 10 19 4 21 20 23 17 25
REMARK Flexibility Score: inf
ROOT
ATOM      1  C   UNL     1      49.380  13.712  -4.927  1.00  0.00     0.180 A 
ATOM      2  C   UNL     1      49.251  15.079  -5.240  1.00  0.00     0.208 A 
ATOM      3  C   UNL     1      50.328  15.739  -5.854  1.00  0.00     0.238 A 
ATOM      4  O   UNL     1      50.227  16.966  -6.130  1.00  0.00    -0.285 OA
ATOM      5  C   UNL     1      51.501  15.021  -6.161  1.00  0.00     0.111 A 
ATOM      6  C   UNL     1      52.628  15.611  -6.783  1.00  0.00     0.134 A 
ATOM      7  C   UNL     1      53.757  14.827  -7.066  1.00  0.00     0.093 A 
ATOM      8  C   UNL     1      53.778  13.466  -6.739  1.00  0.00     0.123 A 
ATOM      9  C   UNL     1      52.670  12.881  -6.125  1.00  0.00     0.094 A 
ATOM     10  C   UNL     1      51.537  13.646  -5.835  1.00  0.00     0.146 A 
ATOM     11  O   UNL     1      50.498  13.065  -5.245  1.00  0.00    -0.452 OA
ENDROOT
BRANCH   1  12
ATOM     12  C   UNL     1      48.298  12.951  -4.262  1.00  0.00     0.021 A 
ATOM     13  C   UNL     1      47.249  12.372  -5.000  1.00  0.00     0.016 A 
ATOM     14  C   UNL     1      46.225  11.679  -4.347  1.00  0.00     0.047 A 
ATOM     15  C   UNL     1      46.230  11.566  -2.951  1.00  0.00     0.115 A 
ATOM     16  C   UNL     1      48.283  12.851  -2.860  1.00  0.00     0.016 A 
ATOM     17  C   UNL     1      47.259  12.155  -2.211  1.00  0.00     0.047 A 
BRANCH  15  18
ATOM     18  O   UNL     1      45.216  10.875  -2.290  1.00  0.00    -0.508 OA
ATOM     19  H   UNL     1      44.877   9.982  -2.629  1.00  0.00     0.293 HD
ENDBRANCH  15  18
ENDBRANCH   1  12
BRANCH   2  20
ATOM     20  O   UNL     1      48.058  15.755  -4.970  1.00  0.00    -0.502 OA
ATOM     21  H   UNL     1      47.230  15.278  -4.634  1.00  0.00     0.293 HD
ENDBRANCH   2  20
BRANCH   6  22
ATOM     22  O   UNL     1      52.636  16.965  -7.122  1.00  0.00    -0.507 OA
ATOM     23  H   UNL     1      53.015  17.669  -6.498  1.00  0.00     0.293 HD
ENDBRANCH   6  22
BRANCH   8  24
ATOM     24  O   UNL     1      54.899  12.687  -7.019  1.00  0.00    -0.508 OA
ATOM     25  H   UNL     1      55.803  13.105  -7.204  1.00  0.00     0.293 HD
ENDBRANCH   8  24
TORSDOF 5
ENDMDL
MODEL 4
REMARK VINA RESULT:    -5.009      2.299      4.392
REMARK INTER + INTRA:          -6.185
REMARK INTER:                  -6.173
REMARK INTRA:                  -0.013
REMARK UNBOUND:                -0.298
REMARK SMILES O=c1c(O)c(-c2ccc(O)cc2)oc2cc(O)cc(O)c12
REMARK SMILES IDX 5 1 3 2 2 3 1 4 21 5 19 6 18 7 16 8 15 9 14 10 13 11 6 12
REMARK SMILES IDX 7 13 8 14 9 15 12 16 11 17 10 18 4 20 20 22 17 24
REMARK H PARENT 10 19 4 21 20 23 17 25
REMARK Flexibility Score: inf
ROOT
ATOM      1  C   UNL     1      45.460  15.718  -3.872  1.00  0.00     0.180 A 
ATOM      2  C   UNL     1      44.863  14.524  -3.419  1.00  0.00     0.208 A 
ATOM      3  C   UNL     1      45.656  13.371  -3.304  1.00  0.00     0.238 A 
ATOM      4  O   UNL     1      45.131  12.295  -2.910  1.00  0.00    -0.285 OA
ATOM      5  C   UNL     1      47.029  13.434  -3.622  1.00  0.00     0.111 A 
ATOM      6  C   UNL     1      47.896  12.320  -3.528  1.00  0.00     0.134 A 
ATOM      7  C   UNL     1      49.253  12.466  -3.852  1.00  0.00     0.093 A 
ATOM      8  C   UNL     1      49.758  13.704  -4.267  1.00  0.00     0.123 A 
ATOM      9  C   UNL     1      48.906  14.804  -4.361  1.00  0.00     0.094 A 
ATOM     10  C   UNL     1      47.550  14.679  -4.044  1.00  0.00     0.146 A 
ATOM     11  O   UNL     1      46.761  15.743  -4.147  1.00  0.00    -0.452 OA
ENDROOT
BRANCH   1  12
ATOM     12  C   UNL     1      44.687  16.970  -4.038  1.00  0.00     0.021 A 
ATOM     13  C   UNL     1      44.689  17.675  -5.255  1.00  0.00     0.016 A 
ATOM     14  C   UNL     1      43.971  18.870  -5.380  1.00  0.00     0.047 A 
ATOM     15  C   UNL     1      43.255  19.379  -4.290  1.00  0.00     0.115 A 
ATOM     16  C   UNL     1      43.984  17.500  -2.943  1.00  0.00     0.016 A 
ATOM     17  C   UNL     1      43.266  18.692  -3.072  1.00  0.00     0.047 A 
BRANCH  15  18
ATOM     18  O   UNL     1      42.535  20.565  -4.404  1.00  0.00    -0.508 OA
ATOM     19  H   UNL     1      42.382  21.007  -5.303  1.00  0.00     0.293 HD
ENDBRANCH  15  18
ENDBRANCH   1  12
BRANCH   2  20
ATOM     20  O   UNL     1      43.512  14.502  -3.064  1.00  0.00    -0.502 OA
ATOM     21  H   UNL     1      42.856  15.204  -3.385  1.00  0.00     0.293 HD
ENDBRANCH   2  20
BRANCH   6  22
ATOM     22  O   UNL     1      47.423  11.073  -3.116  1.00  0.00    -0.507 OA
ATOM     23  H   UNL     1      46.539  10.973  -2.630  1.00  0.00     0.293 HD
ENDBRANCH   6  22
BRANCH   8  24
ATOM     24  O   UNL     1      51.105  13.848  -4.589  1.00  0.00    -0.508 OA
ATOM     25  H   UNL     1      51.431  13.786  -5.546  1.00  0.00     0.293 HD
ENDBRANCH   8  24
TORSDOF 5
ENDMDL
MODEL 5
REMARK VINA RESULT:    -4.972      2.367      4.692
REMARK INTER + INTRA:          -6.142
REMARK INTER:                  -6.212
REMARK INTRA:                   0.071
REMARK UNBOUND:                -0.298
REMARK SMILES O=c1c(O)c(-c2ccc(O)cc2)oc2cc(O)cc(O)c12
REMARK SMILES IDX 5 1 3 2 2 3 1 4 21 5 19 6 18 7 16 8 15 9 14 10 13 11 6 12
REMARK SMILES IDX 7 13 8 14 9 15 12 16 11 17 10 18 4 20 20 22 17 24
REMARK H PARENT 10 19 4 21 20 23 17 25
REMARK Flexibility Score: inf
ROOT
ATOM      1  C   UNL     1      46.184  15.935  -4.150  1.00  0.00     0.180 A 
ATOM      2  C   UNL     1      46.110  14.637  -3.608  1.00  0.00     0.208 A 
ATOM      3  C   UNL     1      47.255  13.825  -3.636  1.00  0.00     0.238 A 
ATOM      4  O   UNL     1      47.198  12.657  -3.163  1.00  0.00    -0.285 OA
ATOM      5  C   UNL     1      48.453  14.327  -4.183  1.00  0.00     0.111 A 
ATOM      6  C   UNL     1      49.651  13.575  -4.245  1.00  0.00     0.134 A 
ATOM      7  C   UNL     1      50.806  14.150  -4.796  1.00  0.00     0.093 A 
ATOM      8  C   UNL     1      50.785  15.461  -5.285  1.00  0.00     0.123 A 
ATOM      9  C   UNL     1      49.606  16.205  -5.227  1.00  0.00     0.094 A 
ATOM     10  C   UNL     1      48.445  15.650  -4.682  1.00  0.00     0.146 A 
ATOM     11  O   UNL     1      47.336  16.380  -4.644  1.00  0.00    -0.452 OA
ENDROOT
BRANCH   1  12
ATOM     12  C   UNL     1      45.016  16.845  -4.175  1.00  0.00     0.021 A 
ATOM     13  C   UNL     1      44.653  17.539  -5.345  1.00  0.00     0.016 A 
ATOM     14  C   UNL     1      43.560  18.412  -5.337  1.00  0.00     0.047 A 
ATOM     15  C   UNL     1      42.826  18.612  -4.161  1.00  0.00     0.115 A 
ATOM     16  C   UNL     1      44.287  17.069  -2.995  1.00  0.00     0.016 A 
ATOM     17  C   UNL     1      43.194  17.941  -2.991  1.00  0.00     0.047 A 
BRANCH  15  18
ATOM     18  O   UNL     1      41.735  19.477  -4.143  1.00  0.00    -0.508 OA
ATOM     19  H   UNL     1      40.857  19.231  -4.586  1.00  0.00     0.293 HD
ENDBRANCH  15  18
ENDBRANCH   1  12
BRANCH   2  20
ATOM     20  O   UNL     1      44.924  14.182  -3.027  1.00  0.00    -0.502 OA
ATOM     21  H   UNL     1      44.287  13.561  -3.512  1.00  0.00     0.293 HD
ENDBRANCH   2  20
BRANCH   6  22
ATOM     22  O   UNL     1      49.702  12.266  -3.764  1.00  0.00    -0.507 OA
ATOM     23  H   UNL     1      50.309  12.003  -2.996  1.00  0.00     0.293 HD
ENDBRANCH   6  22
BRANCH   8  24
ATOM     24  O   UNL     1      51.932  16.032  -5.833  1.00  0.00    -0.508 OA
ATOM     25  H   UNL     1      52.131  15.976  -6.824  1.00  0.00     0.293 HD
ENDBRANCH   8  24
TORSDOF 5
ENDMDL
MODEL 6
REMARK VINA RESULT:    -4.909      3.793      8.990
REMARK INTER + INTRA:          -6.069
REMARK INTER:                  -6.183
REMARK INTRA:                   0.114
REMARK UNBOUND:                -0.298
REMARK SMILES O=c1c(O)c(-c2ccc(O)cc2)oc2cc(O)cc(O)c12
REMARK SMILES IDX 5 1 3 2 2 3 1 4 21 5 19 6 18 7 16 8 15 9 14 10 13 11 6 12
REMARK SMILES IDX 7 13 8 14 9 15 12 16 11 17 10 18 4 20 20 22 17 24
REMARK H PARENT 10 19 4 21 20 23 17 25
REMARK Flexibility Score: inf
ROOT
ATOM      1  C   UNL     1      49.513  14.874  -5.221  1.00  0.00     0.180 A 
ATOM      2  C   UNL     1      48.932  14.106  -4.192  1.00  0.00     0.208 A 
ATOM      3  C   UNL     1      47.645  14.439  -3.740  1.00  0.00     0.238 A 
ATOM      4  O   UNL     1      47.120  13.765  -2.813  1.00  0.00    -0.285 OA
ATOM      5  C   UNL     1      46.955  15.515  -4.335  1.00  0.00     0.111 A 
ATOM      6  C   UNL     1      45.654  15.912  -3.941  1.00  0.00     0.134 A 
ATOM      7  C   UNL     1      45.029  16.988  -4.589  1.00  0.00     0.093 A 
ATOM      8  C   UNL     1      45.679  17.672  -5.622  1.00  0.00     0.123 A 
ATOM      9  C   UNL     1      46.962  17.285  -6.013  1.00  0.00     0.094 A 
ATOM     10  C   UNL     1      47.602  16.216  -5.379  1.00  0.00     0.146 A 
ATOM     11  O   UNL     1      48.824  15.873  -5.768  1.00  0.00    -0.452 OA
ENDROOT
BRANCH   1  12
ATOM     12  C   UNL     1      50.872  14.598  -5.738  1.00  0.00     0.021 A 
ATOM     13  C   UNL     1      51.297  13.287  -6.019  1.00  0.00     0.016 A 
ATOM     14  C   UNL     1      52.595  13.049  -6.483  1.00  0.00     0.047 A 
ATOM     15  C   UNL     1      53.486  14.115  -6.660  1.00  0.00     0.115 A 
ATOM     16  C   UNL     1      51.780  15.659  -5.898  1.00  0.00     0.016 A 
ATOM     17  C   UNL     1      53.076  15.419  -6.364  1.00  0.00     0.047 A 
BRANCH  15  18
ATOM     18  O   UNL     1      54.780  13.891  -7.125  1.00  0.00    -0.508 OA
ATOM     19  H   UNL     1      55.201  12.970  -7.094  1.00  0.00     0.293 HD
ENDBRANCH  15  18
ENDBRANCH   1  12
BRANCH   2  20
ATOM     20  O   UNL     1      49.619  13.015  -3.654  1.00  0.00    -0.502 OA
ATOM     21  H   UNL     1      49.867  12.961  -2.673  1.00  0.00     0.293 HD
ENDBRANCH   2  20
BRANCH   6  22
ATOM     22  O   UNL     1      44.980  15.248  -2.915  1.00  0.00    -0.507 OA
ATOM     23  H   UNL     1      44.219  15.684  -2.407  1.00  0.00     0.293 HD
ENDBRANCH   6  22
BRANCH   8  24
ATOM     24  O   UNL     1      45.058  18.741  -6.266  1.00  0.00    -0.508 OA
ATOM     25  H   UNL     1      44.323  18.595  -6.947  1.00  0.00     0.293 HD
ENDBRANCH   8  24
TORSDOF 5
ENDMDL
MODEL 7
REMARK VINA RESULT:    -4.848      2.161      7.038
REMARK INTER + INTRA:          -5.996
REMARK INTER:                  -5.946
REMARK INTRA:                  -0.051
REMARK UNBOUND:                -0.298
REMARK SMILES O=c1c(O)c(-c2ccc(O)cc2)oc2cc(O)cc(O)c12
REMARK SMILES IDX 5 1 3 2 2 3 1 4 21 5 19 6 18 7 16 8 15 9 14 10 13 11 6 12
REMARK SMILES IDX 7 13 8 14 9 15 12 16 11 17 10 18 4 20 20 22 17 24
REMARK H PARENT 10 19 4 21 20 23 17 25
REMARK Flexibility Score: inf
ROOT
ATOM      1  C   UNL     1      44.750  15.551  -3.279  1.00  0.00     0.180 A 
ATOM      2  C   UNL     1      43.579  14.773  -3.195  1.00  0.00     0.208 A 
ATOM      3  C   UNL     1      42.346  15.419  -3.009  1.00  0.00     0.238 A 
ATOM      4  O   UNL     1      41.293  14.732  -2.922  1.00  0.00    -0.285 OA
ATOM      5  C   UNL     1      42.302  16.827  -2.933  1.00  0.00     0.111 A 
ATOM      6  C   UNL     1      41.101  17.554  -2.753  1.00  0.00     0.134 A 
ATOM      7  C   UNL     1      41.139  18.956  -2.697  1.00  0.00     0.093 A 
ATOM      8  C   UNL     1      42.353  19.641  -2.819  1.00  0.00     0.123 A 
ATOM      9  C   UNL     1      43.538  18.928  -2.996  1.00  0.00     0.094 A 
ATOM     10  C   UNL     1      43.522  17.531  -3.053  1.00  0.00     0.146 A 
ATOM     11  O   UNL     1      44.667  16.878  -3.218  1.00  0.00    -0.452 OA
ENDROOT
BRANCH   1  12
ATOM     12  C   UNL     1      46.088  14.943  -3.454  1.00  0.00     0.021 A 
ATOM     13  C   UNL     1      46.569  13.962  -2.568  1.00  0.00     0.016 A 
ATOM     14  C   UNL     1      47.848  13.421  -2.740  1.00  0.00     0.047 A 
ATOM     15  C   UNL     1      48.664  13.860  -3.789  1.00  0.00     0.115 A 
ATOM     16  C   UNL     1      46.922  15.394  -4.492  1.00  0.00     0.016 A 
ATOM     17  C   UNL     1      48.199  14.849  -4.662  1.00  0.00     0.047 A 
BRANCH  15  18
ATOM     18  O   UNL     1      49.937  13.326  -3.972  1.00  0.00    -0.508 OA
ATOM     19  H   UNL     1      50.097  12.326  -3.966  1.00  0.00     0.293 HD
ENDBRANCH  15  18
ENDBRANCH   1  12
BRANCH   2  20
ATOM     20  O   UNL     1      43.645  13.383  -3.322  1.00  0.00    -0.502 OA
ATOM     21  H   UNL     1      44.436  12.845  -2.988  1.00  0.00     0.293 HD
ENDBRANCH   2  20
BRANCH   6  22
ATOM     22  O   UNL     1      39.876  16.898  -2.629  1.00  0.00    -0.507 OA
ATOM     23  H   UNL     1      39.779  16.045  -2.090  1.00  0.00     0.293 HD
ENDBRANCH   6  22
BRANCH   8  24
ATOM     24  O   UNL     1      42.390  21.033  -2.763  1.00  0.00    -0.508 OA
ATOM     25  H   UNL     1      42.172  21.602  -3.572  1.00  0.00     0.293 HD
ENDBRANCH   8  24
TORSDOF 5
ENDMDL
MODEL 8
REMARK VINA RESULT:    -4.820      2.392      6.671
REMARK INTER + INTRA:          -5.964
REMARK INTER:                  -6.283
REMARK INTRA:                   0.319
REMARK UNBOUND:                -0.298
REMARK SMILES O=c1c(O)c(-c2ccc(O)cc2)oc2cc(O)cc(O)c12
REMARK SMILES IDX 5 1 3 2 2 3 1 4 21 5 19 6 18 7 16 8 15 9 14 10 13 11 6 12
REMARK SMILES IDX 7 13 8 14 9 15 12 16 11 17 10 18 4 20 20 22 17 24
REMARK H PARENT 10 19 4 21 20 23 17 25
REMARK Flexibility Score: inf
ROOT
ATOM      1  C   UNL     1      46.422  16.267  -4.618  1.00  0.00     0.180 A 
ATOM      2  C   UNL     1      46.037  17.246  -5.555  1.00  0.00     0.208 A 
ATOM      3  C   UNL     1      44.739  17.776  -5.488  1.00  0.00     0.238 A 
ATOM      4  O   UNL     1      44.380  18.646  -6.328  1.00  0.00    -0.285 OA
ATOM      5  C   UNL     1      43.858  17.336  -4.479  1.00  0.00     0.111 A 
ATOM      6  C   UNL     1      42.535  17.823  -4.340  1.00  0.00     0.134 A 
ATOM      7  C   UNL     1      41.723  17.343  -3.303  1.00  0.00     0.093 A 
ATOM      8  C   UNL     1      42.207  16.386  -2.403  1.00  0.00     0.123 A 
ATOM      9  C   UNL     1      43.509  15.903  -2.537  1.00  0.00     0.094 A 
ATOM     10  C   UNL     1      44.334  16.368  -3.565  1.00  0.00     0.146 A 
ATOM     11  O   UNL     1      45.568  15.887  -3.671  1.00  0.00    -0.452 OA
ENDROOT
BRANCH   1  12
ATOM     12  C   UNL     1      47.766  15.646  -4.635  1.00  0.00     0.021 A 
ATOM     13  C   UNL     1      48.887  16.340  -5.124  1.00  0.00     0.016 A 
ATOM     14  C   UNL     1      50.143  15.723  -5.153  1.00  0.00     0.047 A 
ATOM     15  C   UNL     1      50.290  14.404  -4.706  1.00  0.00     0.115 A 
ATOM     16  C   UNL     1      47.918  14.316  -4.209  1.00  0.00     0.016 A 
ATOM     17  C   UNL     1      49.175  13.703  -4.237  1.00  0.00     0.047 A 
BRANCH  15  18
ATOM     18  O   UNL     1      51.535  13.781  -4.727  1.00  0.00    -0.508 OA
ATOM     19  H   UNL     1      52.067  13.691  -5.585  1.00  0.00     0.293 HD
ENDBRANCH  15  18
ENDBRANCH   1  12
BRANCH   2  20
ATOM     20  O   UNL     1      46.946  17.700  -6.514  1.00  0.00    -0.502 OA
ATOM     21  H   UNL     1      46.722  17.729  -7.502  1.00  0.00     0.293 HD
ENDBRANCH   2  20
BRANCH   6  22
ATOM     22  O   UNL     1      42.025  18.778  -5.221  1.00  0.00    -0.507 OA
ATOM     23  H   UNL     1      42.621  19.472  -5.659  1.00  0.00     0.293 HD
ENDBRANCH   6  22
BRANCH   8  24
ATOM     24  O   UNL     1      41.399  15.908  -1.373  1.00  0.00    -0.508 OA
ATOM     25  H   UNL     1      40.762  16.517  -0.873  1.00  0.00     0.293 HD
ENDBRANCH   8  24
TORSDOF 5
ENDMDL
MODEL 9
REMARK VINA RESULT:    -4.763      2.618      4.531
REMARK INTER + INTRA:          -5.897
REMARK INTER:                  -5.623
REMARK INTRA:                  -0.274
REMARK UNBOUND:                -0.298
REMARK SMILES O=c1c(O)c(-c2ccc(O)cc2)oc2cc(O)cc(O)c12
REMARK SMILES IDX 5 1 3 2 2 3 1 4 21 5 19 6 18 7 16 8 15 9 14 10 13 11 6 12
REMARK SMILES IDX 7 13 8 14 9 15 12 16 11 17 10 18 4 20 20 22 17 24
REMARK H PARENT 10 19 4 21 20 23 17 25
REMARK Flexibility Score: inf
ROOT
ATOM      1  C   UNL     1      45.541  14.464  -3.632  1.00  0.00     0.180 A 
ATOM      2  C   UNL     1      45.892  14.176  -4.965  1.00  0.00     0.208 A 
ATOM      3  C   UNL     1      46.942  13.276  -5.211  1.00  0.00     0.238 A 
ATOM      4  O   UNL     1      47.272  13.019  -6.401  1.00  0.00    -0.285 OA
ATOM      5  C   UNL     1      47.605  12.666  -4.127  1.00  0.00     0.111 A 
ATOM      6  C   UNL     1      48.668  11.745  -4.289  1.00  0.00     0.134 A 
ATOM      7  C   UNL     1      49.271  11.172  -3.159  1.00  0.00     0.093 A 
ATOM      8  C   UNL     1      48.830  11.503  -1.872  1.00  0.00     0.123 A 
ATOM      9  C   UNL     1      47.783  12.410  -1.708  1.00  0.00     0.094 A 
ATOM     10  C   UNL     1      47.170  12.992  -2.821  1.00  0.00     0.146 A 
ATOM     11  O   UNL     1      46.179  13.857  -2.635  1.00  0.00    -0.452 OA
ENDROOT
BRANCH   1  12
ATOM     12  C   UNL     1      44.459  15.416  -3.291  1.00  0.00     0.021 A 
ATOM     13  C   UNL     1      43.150  14.973  -3.024  1.00  0.00     0.016 A 
ATOM     14  C   UNL     1      42.140  15.895  -2.729  1.00  0.00     0.047 A 
ATOM     15  C   UNL     1      42.421  17.266  -2.707  1.00  0.00     0.115 A 
ATOM     16  C   UNL     1      44.727  16.795  -3.288  1.00  0.00     0.016 A 
ATOM     17  C   UNL     1      43.716  17.713  -2.990  1.00  0.00     0.047 A 
BRANCH  15  18
ATOM     18  O   UNL     1      41.424  18.192  -2.411  1.00  0.00    -0.508 OA
ATOM     19  H   UNL     1      40.751  18.486  -3.109  1.00  0.00     0.293 HD
ENDBRANCH  15  18
ENDBRANCH   1  12
BRANCH   2  20
ATOM     20  O   UNL     1      45.186  14.757  -6.022  1.00  0.00    -0.502 OA
ATOM     21  H   UNL     1      44.192  14.613  -6.153  1.00  0.00     0.293 HD
ENDBRANCH   2  20
BRANCH   6  22
ATOM     22  O   UNL     1      49.128  11.396  -5.559  1.00  0.00    -0.507 OA
ATOM     23  H   UNL     1      48.777  10.579  -6.048  1.00  0.00     0.293 HD
ENDBRANCH   6  22
BRANCH   8  24
ATOM     24  O   UNL     1      49.429  10.934  -0.750  1.00  0.00    -0.508 OA
ATOM     25  H   UNL     1      50.344  10.503  -0.799  1.00  0.00     0.293 HD
ENDBRANCH   8  24
TORSDOF 5
ENDMDL
