MODEL 1
REMARK VINA RESULT:    21.492      0.000      0.000
REMARK INTER + INTRA:          56.663
REMARK INTER:                  56.671
REMARK INTRA:                  -0.009
REMARK UNBOUND:                -0.009
REMARK SMILES CCCCCCCCCCCCCCCCCCCCCCCCCCCCCC(=O)[O-]
REMARK SMILES IDX 16 1 17 2 18 3 19 4 20 5 21 6 22 7 23 8 24 9 25 10 26 11
REMARK SMILES IDX 27 12 28 13 29 14 30 15 31 16 32 17 15 18 14 19 13 20 12 21
REMARK SMILES IDX 11 22 10 23 9 24 8 25 7 26 6 27 5 28 4 29 3 30 2 31 1 32
REMARK H PARENT
REMARK Flexibility Score: inf
ROOT
ATOM      1  C   UNL     1     -27.471 -19.369 -19.726  1.00  0.00     0.000 C 
ENDROOT
BRANCH   1   2
ATOM      2  C   UNL     1     -27.328 -20.338 -18.543  1.00  0.00     0.000 C 
BRANCH   2   3
ATOM      3  C   UNL     1     -27.518 -21.788 -19.005  1.00  0.00     0.000 C 
BRANCH   3   4
ATOM      4  C   UNL     1     -28.934 -22.020 -19.553  1.00  0.00     0.000 C 
BRANCH   4   5
ATOM      5  C   UNL     1     -28.979 -22.103 -21.091  1.00  0.00     0.000 C 
BRANCH   5   6
ATOM      6  C   UNL     1     -27.605 -22.120 -21.790  1.00  0.00     0.000 C 
BRANCH   6   7
ATOM      7  C   UNL     1     -27.551 -21.214 -23.031  1.00  0.00     0.000 C 
BRANCH   7   8
ATOM      8  C   UNL     1     -28.744 -21.431 -23.975  1.00  0.00     0.000 C 
BRANCH   8   9
ATOM      9  C   UNL     1     -28.706 -20.517 -25.209  1.00  0.00     0.000 C 
BRANCH   9  10
ATOM     10  C   UNL     1     -29.627 -21.053 -26.314  1.00  0.00     0.000 C 
BRANCH  10  11
ATOM     11  C   UNL     1     -31.078 -21.254 -25.846  1.00  0.00     0.000 C 
BRANCH  11  12
ATOM     12  C   UNL     1     -31.468 -20.362 -24.647  1.00  0.00     0.000 C 
BRANCH  12  13
ATOM     13  C   UNL     1     -31.523 -21.155 -23.330  1.00  0.00     0.006 C 
BRANCH  13  14
ATOM     14  C   UNL     1     -32.478 -20.523 -22.308  1.00  0.00     0.053 C 
BRANCH  14  15
ATOM     15  C   UNL     1     -32.613 -19.044 -22.513  1.00  0.00     0.041 C 
ATOM     16  O   UNL     1     -32.926 -18.587 -23.644  1.00  0.00    -0.550 OA
ATOM     17  O   UNL     1     -32.425 -18.173 -21.449  1.00  0.00    -0.550 OA
ENDBRANCH  14  15
ENDBRANCH  13  14
ENDBRANCH  12  13
ENDBRANCH  11  12
ENDBRANCH  10  11
ENDBRANCH   9  10
ENDBRANCH   8   9
ENDBRANCH   7   8
ENDBRANCH   6   7
ENDBRANCH   5   6
ENDBRANCH   4   5
ENDBRANCH   3   4
ENDBRANCH   2   3
ENDBRANCH   1   2
BRANCH   1  18
ATOM     18  C   UNL     1     -26.805 -18.009 -19.463  1.00  0.00     0.000 C 
BRANCH  18  19
ATOM     19  C   UNL     1     -26.630 -17.183 -20.750  1.00  0.00     0.000 C 
BRANCH  19  20
ATOM     20  C   UNL     1     -26.433 -15.684 -20.467  1.00  0.00     0.000 C 
BRANCH  20  21
ATOM     21  C   UNL     1     -26.156 -14.874 -21.745  1.00  0.00     0.000 C 
BRANCH  21  22
ATOM     22  C   UNL     1     -25.709 -13.430 -21.452  1.00  0.00     0.000 C 
BRANCH  22  23
ATOM     23  C   UNL     1     -24.277 -13.085 -21.907  1.00  0.00     0.000 C 
BRANCH  23  24
ATOM     24  C   UNL     1     -23.747 -11.717 -21.430  1.00  0.00    -0.000 C 
BRANCH  24  25
ATOM     25  C   UNL     1     -24.539 -11.075 -20.276  1.00  0.00    -0.000 C 
BRANCH  25  26
ATOM     26  C   UNL     1     -23.848 -11.247 -18.912  1.00  0.00    -0.000 C 
BRANCH  26  27
ATOM     27  C   UNL     1     -24.119 -12.621 -18.277  1.00  0.00    -0.000 C 
BRANCH  27  28
ATOM     28  C   UNL     1     -22.955 -13.201 -17.450  1.00  0.00    -0.000 C 
BRANCH  28  29
ATOM     29  C   UNL     1     -21.583 -13.102 -18.150  1.00  0.00    -0.000 C 
BRANCH  29  30
ATOM     30  C   UNL     1     -20.509 -13.951 -17.448  1.00  0.00    -0.000 C 
BRANCH  30  31
ATOM     31  C   UNL     1     -19.906 -15.020 -18.374  1.00  0.00    -0.003 C 
ATOM     32  C   UNL     1     -19.920 -14.601 -19.844  1.00  0.00     0.004 C 
ENDBRANCH  30  31
ENDBRANCH  29  30
ENDBRANCH  28  29
ENDBRANCH  27  28
ENDBRANCH  26  27
ENDBRANCH  25  26
ENDBRANCH  24  25
ENDBRANCH  23  24
ENDBRANCH  22  23
ENDBRANCH  21  22
ENDBRANCH  20  21
ENDBRANCH  19  20
ENDBRANCH  18  19
ENDBRANCH   1  18
TORSDOF 28
ENDMDL
MODEL 2
REMARK VINA RESULT:    22.667      3.146     10.163
REMARK INTER + INTRA:          59.762
REMARK INTER:                  59.306
REMARK INTRA:                   0.457
REMARK UNBOUND:                -0.009
REMARK SMILES CCCCCCCCCCCCCCCCCCCCCCCCCCCCCC(=O)[O-]
REMARK SMILES IDX 16 1 17 2 18 3 19 4 20 5 21 6 22 7 23 8 24 9 25 10 26 11
REMARK SMILES IDX 27 12 28 13 29 14 30 15 31 16 32 17 15 18 14 19 13 20 12 21
REMARK SMILES IDX 11 22 10 23 9 24 8 25 7 26 6 27 5 28 4 29 3 30 2 31 1 32
REMARK H PARENT
REMARK Flexibility Score: inf
ROOT
ATOM      1  C   UNL     1     -28.256 -19.266 -19.074  1.00  0.00     0.000 C 
ENDROOT
BRANCH   1   2
ATOM      2  C   UNL     1     -27.371 -18.666 -20.176  1.00  0.00     0.000 C 
BRANCH   2   3
ATOM      3  C   UNL     1     -26.055 -18.141 -19.588  1.00  0.00     0.000 C 
BRANCH   3   4
ATOM      4  C   UNL     1     -25.901 -16.631 -19.822  1.00  0.00     0.000 C 
BRANCH   4   5
ATOM      5  C   UNL     1     -26.301 -16.198 -21.246  1.00  0.00     0.000 C 
BRANCH   5   6
ATOM      6  C   UNL     1     -26.277 -14.679 -21.502  1.00  0.00     0.000 C 
BRANCH   6   7
ATOM      7  C   UNL     1     -27.553 -14.165 -22.188  1.00  0.00     0.000 C 
BRANCH   7   8
ATOM      8  C   UNL     1     -27.255 -13.300 -23.423  1.00  0.00     0.000 C 
BRANCH   8   9
ATOM      9  C   UNL     1     -25.953 -13.699 -24.133  1.00  0.00     0.000 C 
BRANCH   9  10
ATOM     10  C   UNL     1     -24.733 -13.118 -23.405  1.00  0.00     0.000 C 
BRANCH  10  11
ATOM     11  C   UNL     1     -24.595 -11.596 -23.579  1.00  0.00     0.000 C 
BRANCH  11  12
ATOM     12  C   UNL     1     -24.868 -10.800 -22.285  1.00  0.00     0.000 C 
BRANCH  12  13
ATOM     13  C   UNL     1     -24.876 -11.704 -21.040  1.00  0.00     0.006 C 
BRANCH  13  14
ATOM     14  C   UNL     1     -24.118 -11.079 -19.861  1.00  0.00     0.053 C 
BRANCH  14  15
ATOM     15  C   UNL     1     -23.846 -12.081 -18.780  1.00  0.00     0.041 C 
ATOM     16  O   UNL     1     -22.738 -12.083 -18.182  1.00  0.00    -0.550 OA
ATOM     17  O   UNL     1     -24.827 -12.992 -18.411  1.00  0.00    -0.550 OA
ENDBRANCH  14  15
ENDBRANCH  13  14
ENDBRANCH  12  13
ENDBRANCH  11  12
ENDBRANCH  10  11
ENDBRANCH   9  10
ENDBRANCH   8   9
ENDBRANCH   7   8
ENDBRANCH   6   7
ENDBRANCH   5   6
ENDBRANCH   4   5
ENDBRANCH   3   4
ENDBRANCH   2   3
ENDBRANCH   1   2
BRANCH   1  18
ATOM     18  C   UNL     1     -27.521 -20.321 -18.230  1.00  0.00     0.000 C 
BRANCH  18  19
ATOM     19  C   UNL     1     -28.246 -21.678 -18.227  1.00  0.00     0.000 C 
BRANCH  19  20
ATOM     20  C   UNL     1     -28.697 -22.109 -19.633  1.00  0.00     0.000 C 
BRANCH  20  21
ATOM     21  C   UNL     1     -30.128 -21.647 -19.961  1.00  0.00     0.000 C 
BRANCH  21  22
ATOM     22  C   UNL     1     -30.605 -22.119 -21.347  1.00  0.00     0.000 C 
BRANCH  22  23
ATOM     23  C   UNL     1     -29.962 -21.388 -22.542  1.00  0.00     0.000 C 
BRANCH  23  24
ATOM     24  C   UNL     1     -28.524 -21.829 -22.885  1.00  0.00    -0.000 C 
BRANCH  24  25
ATOM     25  C   UNL     1     -27.782 -20.920 -23.882  1.00  0.00    -0.000 C 
BRANCH  25  26
ATOM     26  C   UNL     1     -28.735 -20.043 -24.712  1.00  0.00    -0.000 C 
BRANCH  26  27
ATOM     27  C   UNL     1     -29.392 -20.810 -25.871  1.00  0.00    -0.000 C 
BRANCH  27  28
ATOM     28  C   UNL     1     -30.766 -21.429 -25.551  1.00  0.00    -0.000 C 
BRANCH  28  29
ATOM     29  C   UNL     1     -31.861 -20.387 -25.240  1.00  0.00    -0.000 C 
BRANCH  29  30
ATOM     30  C   UNL     1     -31.487 -19.486 -24.051  1.00  0.00    -0.000 C 
BRANCH  30  31
ATOM     31  C   UNL     1     -32.708 -19.093 -23.203  1.00  0.00    -0.003 C 
ATOM     32  C   UNL     1     -32.740 -19.805 -21.851  1.00  0.00     0.004 C 
ENDBRANCH  30  31
ENDBRANCH  29  30
ENDBRANCH  28  29
ENDBRANCH  27  28
ENDBRANCH  26  27
ENDBRANCH  25  26
ENDBRANCH  24  25
ENDBRANCH  23  24
ENDBRANCH  22  23
ENDBRANCH  21  22
ENDBRANCH  20  21
ENDBRANCH  19  20
ENDBRANCH  18  19
ENDBRANCH   1  18
TORSDOF 28
ENDMDL
MODEL 3
REMARK VINA RESULT:    22.716      2.473      3.757
REMARK INTER + INTRA:          59.892
REMARK INTER:                  60.186
REMARK INTRA:                  -0.294
REMARK UNBOUND:                -0.009
REMARK SMILES CCCCCCCCCCCCCCCCCCCCCCCCCCCCCC(=O)[O-]
REMARK SMILES IDX 16 1 17 2 18 3 19 4 20 5 21 6 22 7 23 8 24 9 25 10 26 11
REMARK SMILES IDX 27 12 28 13 29 14 30 15 31 16 32 17 15 18 14 19 13 20 12 21
REMARK SMILES IDX 11 22 10 23 9 24 8 25 7 26 6 27 5 28 4 29 3 30 2 31 1 32
REMARK H PARENT
REMARK Flexibility Score: inf
ROOT
ATOM      1  C   UNL     1     -27.704 -18.269 -19.900  1.00  0.00     0.000 C 
ENDROOT
BRANCH   1   2
ATOM      2  C   UNL     1     -27.861 -19.550 -19.067  1.00  0.00     0.000 C 
BRANCH   2   3
ATOM      3  C   UNL     1     -27.829 -20.789 -19.970  1.00  0.00     0.000 C 
BRANCH   3   4
ATOM      4  C   UNL     1     -29.237 -21.167 -20.451  1.00  0.00     0.000 C 
BRANCH   4   5
ATOM      5  C   UNL     1     -29.227 -22.048 -21.715  1.00  0.00     0.000 C 
BRANCH   5   6
ATOM      6  C   UNL     1     -27.875 -22.125 -22.452  1.00  0.00     0.000 C 
BRANCH   6   7
ATOM      7  C   UNL     1     -27.780 -21.148 -23.636  1.00  0.00     0.000 C 
BRANCH   7   8
ATOM      8  C   UNL     1     -29.097 -21.037 -24.419  1.00  0.00     0.000 C 
BRANCH   8   9
ATOM      9  C   UNL     1     -28.915 -21.239 -25.930  1.00  0.00     0.000 C 
BRANCH   9  10
ATOM     10  C   UNL     1     -30.111 -20.668 -26.706  1.00  0.00     0.000 C 
BRANCH  10  11
ATOM     11  C   UNL     1     -31.463 -20.983 -26.047  1.00  0.00     0.000 C 
BRANCH  11  12
ATOM     12  C   UNL     1     -31.496 -20.683 -24.533  1.00  0.00     0.000 C 
BRANCH  12  13
ATOM     13  C   UNL     1     -31.822 -19.208 -24.242  1.00  0.00     0.006 C 
BRANCH  13  14
ATOM     14  C   UNL     1     -32.996 -19.051 -23.267  1.00  0.00     0.053 C 
BRANCH  14  15
ATOM     15  C   UNL     1     -32.693 -19.653 -21.929  1.00  0.00     0.041 C 
ATOM     16  O   UNL     1     -32.795 -20.895 -21.755  1.00  0.00    -0.550 OA
ATOM     17  O   UNL     1     -32.266 -18.846 -20.883  1.00  0.00    -0.550 OA
ENDBRANCH  14  15
ENDBRANCH  13  14
ENDBRANCH  12  13
ENDBRANCH  11  12
ENDBRANCH  10  11
ENDBRANCH   9  10
ENDBRANCH   8   9
ENDBRANCH   7   8
ENDBRANCH   6   7
ENDBRANCH   5   6
ENDBRANCH   4   5
ENDBRANCH   3   4
ENDBRANCH   2   3
ENDBRANCH   1   2
BRANCH   1  18
ATOM     18  C   UNL     1     -26.429 -17.484 -19.548  1.00  0.00     0.000 C 
BRANCH  18  19
ATOM     19  C   UNL     1     -25.930 -16.620 -20.719  1.00  0.00     0.000 C 
BRANCH  19  20
ATOM     20  C   UNL     1     -26.420 -15.165 -20.630  1.00  0.00     0.000 C 
BRANCH  20  21
ATOM     21  C   UNL     1     -26.455 -14.470 -22.002  1.00  0.00     0.000 C 
BRANCH  21  22
ATOM     22  C   UNL     1     -25.196 -13.628 -22.278  1.00  0.00     0.000 C 
BRANCH  22  23
ATOM     23  C   UNL     1     -25.458 -12.245 -22.907  1.00  0.00     0.000 C 
BRANCH  23  24
ATOM     24  C   UNL     1     -24.848 -12.033 -24.307  1.00  0.00    -0.000 C 
BRANCH  24  25
ATOM     25  C   UNL     1     -25.373 -12.982 -25.400  1.00  0.00    -0.000 C 
BRANCH  25  26
ATOM     26  C   UNL     1     -24.430 -13.074 -26.612  1.00  0.00    -0.000 C 
BRANCH  26  27
ATOM     27  C   UNL     1     -23.368 -11.961 -26.625  1.00  0.00    -0.000 C 
BRANCH  27  28
ATOM     28  C   UNL     1     -21.960 -12.395 -26.172  1.00  0.00    -0.000 C 
BRANCH  28  29
ATOM     29  C   UNL     1     -21.898 -13.838 -25.627  1.00  0.00    -0.000 C 
BRANCH  29  30
ATOM     30  C   UNL     1     -20.454 -14.355 -25.511  1.00  0.00    -0.000 C 
BRANCH  30  31
ATOM     31  C   UNL     1     -20.174 -15.017 -24.152  1.00  0.00    -0.003 C 
ATOM     32  C   UNL     1     -20.640 -14.164 -22.974  1.00  0.00     0.004 C 
ENDBRANCH  30  31
ENDBRANCH  29  30
ENDBRANCH  28  29
ENDBRANCH  27  28
ENDBRANCH  26  27
ENDBRANCH  25  26
ENDBRANCH  24  25
ENDBRANCH  23  24
ENDBRANCH  22  23
ENDBRANCH  21  22
ENDBRANCH  20  21
ENDBRANCH  19  20
ENDBRANCH  18  19
ENDBRANCH   1  18
TORSDOF 28
ENDMDL
MODEL 4
REMARK VINA RESULT:    23.402      1.860      2.873
REMARK INTER + INTRA:          61.699
REMARK INTER:                  61.358
REMARK INTRA:                   0.342
REMARK UNBOUND:                -0.009
REMARK SMILES CCCCCCCCCCCCCCCCCCCCCCCCCCCCCC(=O)[O-]
REMARK SMILES IDX 16 1 17 2 18 3 19 4 20 5 21 6 22 7 23 8 24 9 25 10 26 11
REMARK SMILES IDX 27 12 28 13 29 14 30 15 31 16 32 17 15 18 14 19 13 20 12 21
REMARK SMILES IDX 11 22 10 23 9 24 8 25 7 26 6 27 5 28 4 29 3 30 2 31 1 32
REMARK H PARENT
REMARK Flexibility Score: inf
ROOT
ATOM      1  C   UNL     1     -26.923 -19.445 -19.957  1.00  0.00     0.000 C 
ENDROOT
BRANCH   1   2
ATOM      2  C   UNL     1     -26.770 -20.306 -18.694  1.00  0.00     0.000 C 
BRANCH   2   3
ATOM      3  C   UNL     1     -27.439 -21.673 -18.887  1.00  0.00     0.000 C 
BRANCH   3   4
ATOM      4  C   UNL     1     -28.902 -21.522 -19.332  1.00  0.00     0.000 C 
BRANCH   4   5
ATOM      5  C   UNL     1     -29.109 -21.812 -20.831  1.00  0.00     0.000 C 
BRANCH   5   6
ATOM      6  C   UNL     1     -27.825 -22.125 -21.624  1.00  0.00     0.000 C 
BRANCH   6   7
ATOM      7  C   UNL     1     -27.736 -21.354 -22.952  1.00  0.00     0.000 C 
BRANCH   7   8
ATOM      8  C   UNL     1     -28.959 -21.586 -23.854  1.00  0.00     0.000 C 
BRANCH   8   9
ATOM      9  C   UNL     1     -28.983 -20.663 -25.080  1.00  0.00     0.000 C 
BRANCH   9  10
ATOM     10  C   UNL     1     -29.764 -21.308 -26.234  1.00  0.00     0.000 C 
BRANCH  10  11
ATOM     11  C   UNL     1     -31.174 -21.766 -25.826  1.00  0.00     0.000 C 
BRANCH  11  12
ATOM     12  C   UNL     1     -31.693 -21.092 -24.538  1.00  0.00     0.000 C 
BRANCH  12  13
ATOM     13  C   UNL     1     -31.875 -19.574 -24.713  1.00  0.00     0.006 C 
BRANCH  13  14
ATOM     14  C   UNL     1     -31.559 -18.797 -23.428  1.00  0.00     0.053 C 
BRANCH  14  15
ATOM     15  C   UNL     1     -32.144 -19.460 -22.218  1.00  0.00     0.041 C 
ATOM     16  O   UNL     1     -32.063 -20.708 -22.077  1.00  0.00    -0.550 OA
ATOM     17  O   UNL     1     -32.750 -18.696 -21.230  1.00  0.00    -0.550 OA
ENDBRANCH  14  15
ENDBRANCH  13  14
ENDBRANCH  12  13
ENDBRANCH  11  12
ENDBRANCH  10  11
ENDBRANCH   9  10
ENDBRANCH   8   9
ENDBRANCH   7   8
ENDBRANCH   6   7
ENDBRANCH   5   6
ENDBRANCH   4   5
ENDBRANCH   3   4
ENDBRANCH   2   3
ENDBRANCH   1   2
BRANCH   1  18
ATOM     18  C   UNL     1     -26.797 -17.940 -19.668  1.00  0.00     0.000 C 
BRANCH  18  19
ATOM     19  C   UNL     1     -26.301 -17.148 -20.891  1.00  0.00     0.000 C 
BRANCH  19  20
ATOM     20  C   UNL     1     -26.483 -15.630 -20.724  1.00  0.00     0.000 C 
BRANCH  20  21
ATOM     21  C   UNL     1     -26.066 -14.845 -21.980  1.00  0.00     0.000 C 
BRANCH  21  22
ATOM     22  C   UNL     1     -25.827 -13.350 -21.698  1.00  0.00     0.000 C 
BRANCH  22  23
ATOM     23  C   UNL     1     -24.403 -12.847 -22.007  1.00  0.00     0.000 C 
BRANCH  23  24
ATOM     24  C   UNL     1     -23.753 -11.992 -20.900  1.00  0.00    -0.000 C 
BRANCH  24  25
ATOM     25  C   UNL     1     -24.664 -11.676 -19.699  1.00  0.00    -0.000 C 
BRANCH  25  26
ATOM     26  C   UNL     1     -24.497 -12.680 -18.545  1.00  0.00    -0.000 C 
BRANCH  26  27
ATOM     27  C   UNL     1     -23.564 -12.162 -17.437  1.00  0.00    -0.000 C 
BRANCH  27  28
ATOM     28  C   UNL     1     -23.856 -12.713 -16.027  1.00  0.00    -0.000 C 
BRANCH  28  29
ATOM     29  C   UNL     1     -25.189 -12.219 -15.428  1.00  0.00    -0.000 C 
BRANCH  29  30
ATOM     30  C   UNL     1     -25.267 -12.451 -13.909  1.00  0.00    -0.000 C 
BRANCH  30  31
ATOM     31  C   UNL     1     -25.363 -11.136 -13.118  1.00  0.00    -0.003 C 
ATOM     32  C   UNL     1     -26.623 -10.339 -13.453  1.00  0.00     0.004 C 
ENDBRANCH  30  31
ENDBRANCH  29  30
ENDBRANCH  28  29
ENDBRANCH  27  28
ENDBRANCH  26  27
ENDBRANCH  25  26
ENDBRANCH  24  25
ENDBRANCH  23  24
ENDBRANCH  22  23
ENDBRANCH  21  22
ENDBRANCH  20  21
ENDBRANCH  19  20
ENDBRANCH  18  19
ENDBRANCH   1  18
TORSDOF 28
ENDMDL
MODEL 5
REMARK VINA RESULT:    23.772      2.038      3.764
REMARK INTER + INTRA:          62.675
REMARK INTER:                  61.501
REMARK INTRA:                   1.173
REMARK UNBOUND:                -0.009
REMARK SMILES CCCCCCCCCCCCCCCCCCCCCCCCCCCCCC(=O)[O-]
REMARK SMILES IDX 16 1 17 2 18 3 19 4 20 5 21 6 22 7 23 8 24 9 25 10 26 11
REMARK SMILES IDX 27 12 28 13 29 14 30 15 31 16 32 17 15 18 14 19 13 20 12 21
REMARK SMILES IDX 11 22 10 23 9 24 8 25 7 26 6 27 5 28 4 29 3 30 2 31 1 32
REMARK H PARENT
REMARK Flexibility Score: inf
ROOT
ATOM      1  C   UNL     1     -27.422 -19.926 -19.886  1.00  0.00     0.000 C 
ENDROOT
BRANCH   1   2
ATOM      2  C   UNL     1     -27.687 -20.687 -18.579  1.00  0.00     0.000 C 
BRANCH   2   3
ATOM      3  C   UNL     1     -28.351 -22.039 -18.865  1.00  0.00     0.000 C 
BRANCH   3   4
ATOM      4  C   UNL     1     -29.655 -21.866 -19.658  1.00  0.00     0.000 C 
BRANCH   4   5
ATOM      5  C   UNL     1     -29.482 -22.125 -21.167  1.00  0.00     0.000 C 
BRANCH   5   6
ATOM      6  C   UNL     1     -28.026 -22.125 -21.672  1.00  0.00     0.000 C 
BRANCH   6   7
ATOM      7  C   UNL     1     -27.854 -21.386 -23.010  1.00  0.00     0.000 C 
BRANCH   7   8
ATOM      8  C   UNL     1     -29.168 -21.275 -23.798  1.00  0.00     0.000 C 
BRANCH   8   9
ATOM      9  C   UNL     1     -28.957 -20.854 -25.259  1.00  0.00     0.000 C 
BRANCH   9  10
ATOM     10  C   UNL     1     -29.821 -21.705 -26.203  1.00  0.00     0.000 C 
BRANCH  10  11
ATOM     11  C   UNL     1     -31.231 -21.129 -26.413  1.00  0.00     0.000 C 
BRANCH  11  12
ATOM     12  C   UNL     1     -31.889 -20.619 -25.112  1.00  0.00     0.000 C 
BRANCH  12  13
ATOM     13  C   UNL     1     -31.337 -19.249 -24.683  1.00  0.00     0.006 C 
BRANCH  13  14
ATOM     14  C   UNL     1     -32.185 -18.597 -23.583  1.00  0.00     0.053 C 
BRANCH  14  15
ATOM     15  C   UNL     1     -32.302 -19.476 -22.375  1.00  0.00     0.041 C 
ATOM     16  O   UNL     1     -32.576 -18.978 -21.252  1.00  0.00    -0.550 OA
ATOM     17  O   UNL     1     -32.141 -20.850 -22.496  1.00  0.00    -0.550 OA
ENDBRANCH  14  15
ENDBRANCH  13  14
ENDBRANCH  12  13
ENDBRANCH  11  12
ENDBRANCH  10  11
ENDBRANCH   9  10
ENDBRANCH   8   9
ENDBRANCH   7   8
ENDBRANCH   6   7
ENDBRANCH   5   6
ENDBRANCH   4   5
ENDBRANCH   3   4
ENDBRANCH   2   3
ENDBRANCH   1   2
BRANCH   1  18
ATOM     18  C   UNL     1     -27.372 -18.402 -19.687  1.00  0.00     0.000 C 
BRANCH  18  19
ATOM     19  C   UNL     1     -25.933 -17.858 -19.681  1.00  0.00     0.000 C 
BRANCH  19  20
ATOM     20  C   UNL     1     -25.880 -16.327 -19.811  1.00  0.00     0.000 C 
BRANCH  20  21
ATOM     21  C   UNL     1     -26.258 -15.841 -21.221  1.00  0.00     0.000 C 
BRANCH  21  22
ATOM     22  C   UNL     1     -26.412 -14.311 -21.306  1.00  0.00     0.000 C 
BRANCH  22  23
ATOM     23  C   UNL     1     -25.475 -13.615 -22.313  1.00  0.00     0.000 C 
BRANCH  23  24
ATOM     24  C   UNL     1     -24.323 -12.804 -21.686  1.00  0.00    -0.000 C 
BRANCH  24  25
ATOM     25  C   UNL     1     -24.625 -12.198 -20.304  1.00  0.00    -0.000 C 
BRANCH  25  26
ATOM     26  C   UNL     1     -23.634 -11.089 -19.911  1.00  0.00    -0.000 C 
BRANCH  26  27
ATOM     27  C   UNL     1     -24.221  -9.678 -20.085  1.00  0.00    -0.000 C 
BRANCH  27  28
ATOM     28  C   UNL     1     -25.744  -9.627 -20.315  1.00  0.00    -0.000 C 
BRANCH  28  29
ATOM     29  C   UNL     1     -26.518  -8.885 -19.204  1.00  0.00    -0.000 C 
BRANCH  29  30
ATOM     30  C   UNL     1     -27.323  -7.695 -19.752  1.00  0.00    -0.000 C 
BRANCH  30  31
ATOM     31  C   UNL     1     -27.625  -7.829 -21.253  1.00  0.00    -0.003 C 
ATOM     32  C   UNL     1     -28.845  -8.705 -21.533  1.00  0.00     0.004 C 
ENDBRANCH  30  31
ENDBRANCH  29  30
ENDBRANCH  28  29
ENDBRANCH  27  28
ENDBRANCH  26  27
ENDBRANCH  25  26
ENDBRANCH  24  25
ENDBRANCH  23  24
ENDBRANCH  22  23
ENDBRANCH  21  22
ENDBRANCH  20  21
ENDBRANCH  19  20
ENDBRANCH  18  19
ENDBRANCH   1  18
TORSDOF 28
ENDMDL
MODEL 6
REMARK VINA RESULT:    23.891      6.143      7.716
REMARK INTER + INTRA:          62.990
REMARK INTER:                  52.892
REMARK INTRA:                  10.097
REMARK UNBOUND:                -0.009
REMARK SMILES CCCCCCCCCCCCCCCCCCCCCCCCCCCCCC(=O)[O-]
REMARK SMILES IDX 16 1 17 2 18 3 19 4 20 5 21 6 22 7 23 8 24 9 25 10 26 11
REMARK SMILES IDX 27 12 28 13 29 14 30 15 31 16 32 17 15 18 14 19 13 20 12 21
REMARK SMILES IDX 11 22 10 23 9 24 8 25 7 26 6 27 5 28 4 29 3 30 2 31 1 32
REMARK H PARENT
REMARK Flexibility Score: inf
ROOT
ATOM      1  C   UNL     1     -29.108 -21.475 -19.885  1.00  0.00     0.000 C 
ENDROOT
BRANCH   1   2
ATOM      2  C   UNL     1     -29.337 -21.815 -21.365  1.00  0.00     0.000 C 
BRANCH   2   3
ATOM      3  C   UNL     1     -28.685 -20.762 -22.270  1.00  0.00     0.000 C 
BRANCH   3   4
ATOM      4  C   UNL     1     -28.252 -21.370 -23.613  1.00  0.00     0.000 C 
BRANCH   4   5
ATOM      5  C   UNL     1     -29.418 -21.528 -24.607  1.00  0.00     0.000 C 
BRANCH   5   6
ATOM      6  C   UNL     1     -29.036 -22.109 -25.982  1.00  0.00     0.000 C 
BRANCH   6   7
ATOM      7  C   UNL     1     -30.094 -21.837 -27.064  1.00  0.00     0.000 C 
BRANCH   7   8
ATOM      8  C   UNL     1     -30.961 -20.608 -26.749  1.00  0.00     0.000 C 
BRANCH   8   9
ATOM      9  C   UNL     1     -30.488 -19.844 -25.504  1.00  0.00     0.000 C 
BRANCH   9  10
ATOM     10  C   UNL     1     -31.680 -19.449 -24.619  1.00  0.00     0.000 C 
BRANCH  10  11
ATOM     11  C   UNL     1     -31.259 -18.963 -23.222  1.00  0.00     0.000 C 
BRANCH  11  12
ATOM     12  C   UNL     1     -31.566 -19.977 -22.099  1.00  0.00     0.000 C 
BRANCH  12  13
ATOM     13  C   UNL     1     -32.490 -19.383 -21.021  1.00  0.00     0.006 C 
BRANCH  13  14
ATOM     14  C   UNL     1     -32.913 -17.944 -21.344  1.00  0.00     0.053 C 
BRANCH  14  15
ATOM     15  C   UNL     1     -33.017 -17.712 -22.820  1.00  0.00     0.041 C 
ATOM     16  O   UNL     1     -33.363 -18.649 -23.586  1.00  0.00    -0.550 OA
ATOM     17  O   UNL     1     -32.764 -16.453 -23.347  1.00  0.00    -0.550 OA
ENDBRANCH  14  15
ENDBRANCH  13  14
ENDBRANCH  12  13
ENDBRANCH  11  12
ENDBRANCH  10  11
ENDBRANCH   9  10
ENDBRANCH   8   9
ENDBRANCH   7   8
ENDBRANCH   6   7
ENDBRANCH   5   6
ENDBRANCH   4   5
ENDBRANCH   3   4
ENDBRANCH   2   3
ENDBRANCH   1   2
BRANCH   1  18
ATOM     18  C   UNL     1     -27.835 -22.123 -19.317  1.00  0.00     0.000 C 
BRANCH  18  19
ATOM     19  C   UNL     1     -27.365 -21.450 -18.016  1.00  0.00     0.000 C 
BRANCH  19  20
ATOM     20  C   UNL     1     -28.381 -21.603 -16.871  1.00  0.00     0.000 C 
BRANCH  20  21
ATOM     21  C   UNL     1     -29.826 -21.739 -17.380  1.00  0.00     0.000 C 
BRANCH  21  22
ATOM     22  C   UNL     1     -30.819 -22.117 -16.265  1.00  0.00     0.000 C 
BRANCH  22  23
ATOM     23  C   UNL     1     -31.828 -21.014 -15.889  1.00  0.00     0.000 C 
BRANCH  23  24
ATOM     24  C   UNL     1     -31.875 -20.650 -14.391  1.00  0.00    -0.000 C 
BRANCH  24  25
ATOM     25  C   UNL     1     -30.503 -20.441 -13.725  1.00  0.00    -0.000 C 
BRANCH  25  26
ATOM     26  C   UNL     1     -30.157 -18.955 -13.528  1.00  0.00    -0.000 C 
BRANCH  26  27
ATOM     27  C   UNL     1     -29.306 -18.704 -12.272  1.00  0.00    -0.000 C 
BRANCH  27  28
ATOM     28  C   UNL     1     -29.627 -17.402 -11.513  1.00  0.00    -0.000 C 
BRANCH  28  29
ATOM     29  C   UNL     1     -28.465 -16.886 -10.639  1.00  0.00    -0.000 C 
BRANCH  29  30
ATOM     30  C   UNL     1     -27.484 -18.007 -10.254  1.00  0.00    -0.000 C 
BRANCH  30  31
ATOM     31  C   UNL     1     -27.393 -18.212  -8.733  1.00  0.00    -0.003 C 
ATOM     32  C   UNL     1     -26.133 -17.593  -8.130  1.00  0.00     0.004 C 
ENDBRANCH  30  31
ENDBRANCH  29  30
ENDBRANCH  28  29
ENDBRANCH  27  28
ENDBRANCH  26  27
ENDBRANCH  25  26
ENDBRANCH  24  25
ENDBRANCH  23  24
ENDBRANCH  22  23
ENDBRANCH  21  22
ENDBRANCH  20  21
ENDBRANCH  19  20
ENDBRANCH  18  19
ENDBRANCH   1  18
TORSDOF 28
ENDMDL
MODEL 7
REMARK VINA RESULT:    24.111      6.252      8.745
REMARK INTER + INTRA:          63.570
REMARK INTER:                  64.742
REMARK INTRA:                  -1.172
REMARK UNBOUND:                -0.009
REMARK SMILES CCCCCCCCCCCCCCCCCCCCCCCCCCCCCC(=O)[O-]
REMARK SMILES IDX 16 1 17 2 18 3 19 4 20 5 21 6 22 7 23 8 24 9 25 10 26 11
REMARK SMILES IDX 27 12 28 13 29 14 30 15 31 16 32 17 15 18 14 19 13 20 12 21
REMARK SMILES IDX 11 22 10 23 9 24 8 25 7 26 6 27 5 28 4 29 3 30 2 31 1 32
REMARK H PARENT
REMARK Flexibility Score: inf
ROOT
ATOM      1  C   UNL     1     -32.053 -19.424 -20.568  1.00  0.00     0.000 C 
ENDROOT
BRANCH   1   2
ATOM      2  C   UNL     1     -32.670 -20.539 -21.425  1.00  0.00     0.000 C 
BRANCH   2   3
ATOM      3  C   UNL     1     -32.049 -20.551 -22.827  1.00  0.00     0.000 C 
BRANCH   3   4
ATOM      4  C   UNL     1     -32.138 -19.167 -23.489  1.00  0.00     0.000 C 
BRANCH   4   5
ATOM      5  C   UNL     1     -30.950 -18.870 -24.425  1.00  0.00     0.000 C 
BRANCH   5   6
ATOM      6  C   UNL     1     -30.381 -20.091 -25.174  1.00  0.00     0.000 C 
BRANCH   6   7
ATOM      7  C   UNL     1     -29.007 -20.534 -24.644  1.00  0.00     0.000 C 
BRANCH   7   8
ATOM      8  C   UNL     1     -29.111 -21.649 -23.591  1.00  0.00     0.000 C 
BRANCH   8   9
ATOM      9  C   UNL     1     -27.741 -22.117 -23.077  1.00  0.00     0.000 C 
BRANCH   9  10
ATOM     10  C   UNL     1     -27.669 -22.017 -21.546  1.00  0.00     0.000 C 
BRANCH  10  11
ATOM     11  C   UNL     1     -28.478 -20.838 -20.980  1.00  0.00     0.000 C 
BRANCH  11  12
ATOM     12  C   UNL     1     -28.305 -20.646 -19.458  1.00  0.00     0.000 C 
BRANCH  12  13
ATOM     13  C   UNL     1     -28.740 -21.890 -18.664  1.00  0.00     0.006 C 
BRANCH  13  14
ATOM     14  C   UNL     1     -27.868 -22.125 -17.423  1.00  0.00     0.053 C 
BRANCH  14  15
ATOM     15  C   UNL     1     -26.418 -21.875 -17.707  1.00  0.00     0.041 C 
ATOM     16  O   UNL     1     -25.944 -22.120 -18.847  1.00  0.00    -0.550 OA
ATOM     17  O   UNL     1     -25.597 -21.343 -16.722  1.00  0.00    -0.550 OA
ENDBRANCH  14  15
ENDBRANCH  13  14
ENDBRANCH  12  13
ENDBRANCH  11  12
ENDBRANCH  10  11
ENDBRANCH   9  10
ENDBRANCH   8   9
ENDBRANCH   7   8
ENDBRANCH   6   7
ENDBRANCH   5   6
ENDBRANCH   4   5
ENDBRANCH   3   4
ENDBRANCH   2   3
ENDBRANCH   1   2
BRANCH   1  18
ATOM     18  C   UNL     1     -33.085 -18.374 -20.127  1.00  0.00     0.000 C 
BRANCH  18  19
ATOM     19  C   UNL     1     -32.802 -17.830 -18.715  1.00  0.00     0.000 C 
BRANCH  19  20
ATOM     20  C   UNL     1     -32.824 -18.932 -17.643  1.00  0.00     0.000 C 
BRANCH  20  21
ATOM     21  C   UNL     1     -32.285 -18.447 -16.287  1.00  0.00     0.000 C 
BRANCH  21  22
ATOM     22  C   UNL     1     -33.286 -18.656 -15.136  1.00  0.00     0.000 C 
BRANCH  22  23
ATOM     23  C   UNL     1     -33.119 -19.975 -14.357  1.00  0.00     0.000 C 
BRANCH  23  24
ATOM     24  C   UNL     1     -31.663 -20.442 -14.158  1.00  0.00    -0.000 C 
BRANCH  24  25
ATOM     25  C   UNL     1     -30.665 -19.331 -13.786  1.00  0.00    -0.000 C 
BRANCH  25  26
ATOM     26  C   UNL     1     -29.855 -19.658 -12.519  1.00  0.00    -0.000 C 
BRANCH  26  27
ATOM     27  C   UNL     1     -29.031 -18.461 -12.015  1.00  0.00    -0.000 C 
BRANCH  27  28
ATOM     28  C   UNL     1     -29.854 -17.214 -11.636  1.00  0.00    -0.000 C 
BRANCH  28  29
ATOM     29  C   UNL     1     -29.238 -15.888 -12.130  1.00  0.00    -0.000 C 
BRANCH  29  30
ATOM     30  C   UNL     1     -29.799 -14.669 -11.377  1.00  0.00    -0.000 C 
BRANCH  30  31
ATOM     31  C   UNL     1     -31.294 -14.442 -11.657  1.00  0.00    -0.003 C 
ATOM     32  C   UNL     1     -32.188 -14.955 -10.530  1.00  0.00     0.004 C 
ENDBRANCH  30  31
ENDBRANCH  29  30
ENDBRANCH  28  29
ENDBRANCH  27  28
ENDBRANCH  26  27
ENDBRANCH  25  26
ENDBRANCH  24  25
ENDBRANCH  23  24
ENDBRANCH  22  23
ENDBRANCH  21  22
ENDBRANCH  20  21
ENDBRANCH  19  20
ENDBRANCH  18  19
ENDBRANCH   1  18
TORSDOF 28
ENDMDL
