MODEL 1
REMARK VINA RESULT:    -6.604      0.000      0.000
REMARK INTER + INTRA:          -8.269
REMARK INTER:                  -7.955
REMARK INTRA:                  -0.313
REMARK UNBOUND:                -0.313
REMARK SMILES O=c1c(O)c(-c2ccc(O)c(O)c2)oc2cc(O)cc(O)c12
REMARK SMILES IDX 5 1 3 2 2 3 1 4 22 5 20 6 19 7 17 8 16 9 15 10 14 11 6 12
REMARK SMILES IDX 7 13 8 14 9 15 13 16 11 17 10 18 12 20 4 22 21 24 18 26
REMARK H PARENT 10 19 12 21 4 23 21 25 18 27
REMARK Flexibility Score: inf
ROOT
ATOM      1  C   UNL     1      22.558 -21.310 -11.218  1.00  0.00     0.180 A 
ATOM      2  C   UNL     1      23.511 -21.647 -12.195  1.00  0.00     0.208 A 
ATOM      3  C   UNL     1      23.549 -22.962 -12.685  1.00  0.00     0.238 A 
ATOM      4  O   UNL     1      24.439 -23.271 -13.519  1.00  0.00    -0.285 OA
ATOM      5  C   UNL     1      22.623 -23.919 -12.205  1.00  0.00     0.111 A 
ATOM      6  C   UNL     1      22.544 -25.270 -12.661  1.00  0.00     0.134 A 
ATOM      7  C   UNL     1      21.677 -26.165 -12.023  1.00  0.00     0.093 A 
ATOM      8  C   UNL     1      20.837 -25.741 -10.990  1.00  0.00     0.123 A 
ATOM      9  C   UNL     1      20.865 -24.411 -10.577  1.00  0.00     0.094 A 
ATOM     10  C   UNL     1      21.746 -23.503 -11.170  1.00  0.00     0.146 A 
ATOM     11  O   UNL     1      21.747 -22.247 -10.740  1.00  0.00    -0.452 OA
ENDROOT
BRANCH   1  12
ATOM     12  C   UNL     1      22.441 -19.939 -10.671  1.00  0.00     0.025 A 
ATOM     13  C   UNL     1      21.495 -19.029 -11.174  1.00  0.00     0.016 A 
ATOM     14  C   UNL     1      21.385 -17.748 -10.626  1.00  0.00     0.051 A 
ATOM     15  C   UNL     1      22.208 -17.363  -9.559  1.00  0.00     0.157 A 
ATOM     16  C   UNL     1      23.248 -19.556  -9.587  1.00  0.00     0.062 A 
ATOM     17  C   UNL     1      23.142 -18.274  -9.036  1.00  0.00     0.158 A 
BRANCH  15  18
ATOM     18  O   UNL     1      22.097 -16.084  -9.015  1.00  0.00    -0.504 OA
ATOM     19  H   UNL     1      22.462 -15.865  -8.096  1.00  0.00     0.293 HD
ENDBRANCH  15  18
BRANCH  17  20
ATOM     20  O   UNL     1      23.971 -17.923  -7.970  1.00  0.00    -0.504 OA
ATOM     21  H   UNL     1      24.979 -17.996  -8.026  1.00  0.00     0.293 HD
ENDBRANCH  17  20
ENDBRANCH   1  12
BRANCH   2  22
ATOM     22  O   UNL     1      24.430 -20.692 -12.638  1.00  0.00    -0.502 OA
ATOM     23  H   UNL     1      24.630 -20.545 -13.620  1.00  0.00     0.293 HD
ENDBRANCH   2  22
BRANCH   6  24
ATOM     24  O   UNL     1      23.270 -25.771 -13.746  1.00  0.00    -0.507 OA
ATOM     25  H   UNL     1      24.236 -26.059 -13.707  1.00  0.00     0.293 HD
ENDBRANCH   6  24
BRANCH   8  26
ATOM     26  O   UNL     1      19.965 -26.634 -10.371  1.00  0.00    -0.508 OA
ATOM     27  H   UNL     1      19.053 -26.338 -10.038  1.00  0.00     0.293 HD
ENDBRANCH   8  26
TORSDOF 6
ENDMDL
MODEL 2
REMARK VINA RESULT:    -6.478      1.623      7.030
REMARK INTER + INTRA:          -8.117
REMARK INTER:                  -7.792
REMARK INTRA:                  -0.325
REMARK UNBOUND:                -0.313
REMARK SMILES O=c1c(O)c(-c2ccc(O)c(O)c2)oc2cc(O)cc(O)c12
REMARK SMILES IDX 5 1 3 2 2 3 1 4 22 5 20 6 19 7 17 8 16 9 15 10 14 11 6 12
REMARK SMILES IDX 7 13 8 14 9 15 13 16 11 17 10 18 12 20 4 22 21 24 18 26
REMARK H PARENT 10 19 12 21 4 23 21 25 18 27
REMARK Flexibility Score: inf
ROOT
ATOM      1  C   UNL     1      22.077 -21.130 -11.516  1.00  0.00     0.180 A 
ATOM      2  C   UNL     1      21.253 -20.287 -12.281  1.00  0.00     0.208 A 
ATOM      3  C   UNL     1      21.221 -18.915 -11.985  1.00  0.00     0.238 A 
ATOM      4  O   UNL     1      20.440 -18.174 -12.638  1.00  0.00    -0.285 OA
ATOM      5  C   UNL     1      22.024 -18.401 -10.939  1.00  0.00     0.111 A 
ATOM      6  C   UNL     1      22.100 -17.021 -10.578  1.00  0.00     0.134 A 
ATOM      7  C   UNL     1      22.827 -16.644  -9.444  1.00  0.00     0.093 A 
ATOM      8  C   UNL     1      23.536 -17.587  -8.695  1.00  0.00     0.123 A 
ATOM      9  C   UNL     1      23.515 -18.927  -9.073  1.00  0.00     0.094 A 
ATOM     10  C   UNL     1      22.769 -19.340 -10.180  1.00  0.00     0.146 A 
ATOM     11  O   UNL     1      22.769 -20.629 -10.499  1.00  0.00    -0.452 OA
ENDROOT
BRANCH   1  12
ATOM     12  C   UNL     1      22.184 -22.583 -11.784  1.00  0.00     0.025 A 
ATOM     13  C   UNL     1      23.194 -23.102 -12.613  1.00  0.00     0.016 A 
ATOM     14  C   UNL     1      23.290 -24.479 -12.832  1.00  0.00     0.051 A 
ATOM     15  C   UNL     1      22.389 -25.358 -12.216  1.00  0.00     0.157 A 
ATOM     16  C   UNL     1      21.296 -23.470 -11.152  1.00  0.00     0.062 A 
ATOM     17  C   UNL     1      21.389 -24.849 -11.370  1.00  0.00     0.158 A 
BRANCH  15  18
ATOM     18  O   UNL     1      22.486 -26.731 -12.439  1.00  0.00    -0.504 OA
ATOM     19  H   UNL     1      21.664 -27.304 -12.583  1.00  0.00     0.293 HD
ENDBRANCH  15  18
BRANCH  17  20
ATOM     20  O   UNL     1      20.481 -25.697 -10.737  1.00  0.00    -0.504 OA
ATOM     21  H   UNL     1      20.508 -26.703 -10.859  1.00  0.00     0.293 HD
ENDBRANCH  17  20
ENDBRANCH   1  12
BRANCH   2  22
ATOM     22  O   UNL     1      20.452 -20.819 -13.295  1.00  0.00    -0.502 OA
ATOM     23  H   UNL     1      20.834 -21.346 -14.071  1.00  0.00     0.293 HD
ENDBRANCH   2  22
BRANCH   6  24
ATOM     24  O   UNL     1      21.508 -15.990 -11.312  1.00  0.00    -0.507 OA
ATOM     25  H   UNL     1      21.063 -16.105 -12.210  1.00  0.00     0.293 HD
ENDBRANCH   6  24
BRANCH   8  26
ATOM     26  O   UNL     1      24.271 -17.201  -7.576  1.00  0.00    -0.508 OA
ATOM     27  H   UNL     1      25.227 -16.875  -7.657  1.00  0.00     0.293 HD
ENDBRANCH   8  26
TORSDOF 6
ENDMDL
MODEL 3
REMARK VINA RESULT:    -6.377      1.623      7.026
REMARK INTER + INTRA:          -7.996
REMARK INTER:                  -7.716
REMARK INTRA:                  -0.280
REMARK UNBOUND:                -0.313
REMARK SMILES O=c1c(O)c(-c2ccc(O)c(O)c2)oc2cc(O)cc(O)c12
REMARK SMILES IDX 5 1 3 2 2 3 1 4 22 5 20 6 19 7 17 8 16 9 15 10 14 11 6 12
REMARK SMILES IDX 7 13 8 14 9 15 13 16 11 17 10 18 12 20 4 22 21 24 18 26
REMARK H PARENT 10 19 12 21 4 23 21 25 18 27
REMARK Flexibility Score: inf
ROOT
ATOM      1  C   UNL     1      22.311 -21.101 -11.638  1.00  0.00     0.180 A 
ATOM      2  C   UNL     1      21.392 -20.312 -12.350  1.00  0.00     0.208 A 
ATOM      3  C   UNL     1      21.237 -18.962 -11.996  1.00  0.00     0.238 A 
ATOM      4  O   UNL     1      20.373 -18.274 -12.601  1.00  0.00    -0.285 OA
ATOM      5  C   UNL     1      22.013 -18.415 -10.946  1.00  0.00     0.111 A 
ATOM      6  C   UNL     1      21.967 -17.050 -10.530  1.00  0.00     0.134 A 
ATOM      7  C   UNL     1      22.683 -16.649  -9.396  1.00  0.00     0.093 A 
ATOM      8  C   UNL     1      23.496 -17.549  -8.702  1.00  0.00     0.123 A 
ATOM      9  C   UNL     1      23.593 -18.869  -9.135  1.00  0.00     0.094 A 
ATOM     10  C   UNL     1      22.863 -19.308 -10.242  1.00  0.00     0.146 A 
ATOM     11  O   UNL     1      22.977 -20.576 -10.615  1.00  0.00    -0.452 OA
ENDROOT
BRANCH   1  12
ATOM     12  C   UNL     1      22.549 -22.525 -11.968  1.00  0.00     0.025 A 
ATOM     13  C   UNL     1      21.641 -23.527 -11.581  1.00  0.00     0.016 A 
ATOM     14  C   UNL     1      21.874 -24.862 -11.925  1.00  0.00     0.051 A 
ATOM     15  C   UNL     1      23.006 -25.213 -12.671  1.00  0.00     0.157 A 
ATOM     16  C   UNL     1      23.672 -22.880 -12.734  1.00  0.00     0.062 A 
ATOM     17  C   UNL     1      23.907 -24.215 -13.079  1.00  0.00     0.158 A 
BRANCH  15  18
ATOM     18  O   UNL     1      23.236 -26.546 -13.010  1.00  0.00    -0.504 OA
ATOM     19  H   UNL     1      23.723 -26.799 -13.861  1.00  0.00     0.293 HD
ENDBRANCH  15  18
BRANCH  17  20
ATOM     20  O   UNL     1      25.041 -24.531 -13.828  1.00  0.00    -0.504 OA
ATOM     21  H   UNL     1      25.231 -25.474 -14.146  1.00  0.00     0.293 HD
ENDBRANCH  17  20
ENDBRANCH   1  12
BRANCH   2  22
ATOM     22  O   UNL     1      20.620 -20.877 -13.367  1.00  0.00    -0.502 OA
ATOM     23  H   UNL     1      20.507 -21.878 -13.473  1.00  0.00     0.293 HD
ENDBRANCH   2  22
BRANCH   6  24
ATOM     24  O   UNL     1      21.261 -16.051 -11.207  1.00  0.00    -0.507 OA
ATOM     25  H   UNL     1      20.570 -16.220 -11.923  1.00  0.00     0.293 HD
ENDBRANCH   6  24
BRANCH   8  26
ATOM     26  O   UNL     1      24.218 -17.138  -7.583  1.00  0.00    -0.508 OA
ATOM     27  H   UNL     1      25.130 -16.705  -7.672  1.00  0.00     0.293 HD
ENDBRANCH   8  26
TORSDOF 6
ENDMDL
MODEL 4
REMARK VINA RESULT:    -6.284      2.869      7.214
REMARK INTER + INTRA:          -7.883
REMARK INTER:                  -7.607
REMARK INTRA:                  -0.277
REMARK UNBOUND:                -0.313
REMARK SMILES O=c1c(O)c(-c2ccc(O)c(O)c2)oc2cc(O)cc(O)c12
REMARK SMILES IDX 5 1 3 2 2 3 1 4 22 5 20 6 19 7 17 8 16 9 15 10 14 11 6 12
REMARK SMILES IDX 7 13 8 14 9 15 13 16 11 17 10 18 12 20 4 22 21 24 18 26
REMARK H PARENT 10 19 12 21 4 23 21 25 18 27
REMARK Flexibility Score: inf
ROOT
ATOM      1  C   UNL     1      22.398 -20.089 -11.911  1.00  0.00     0.180 A 
ATOM      2  C   UNL     1      23.282 -20.495 -10.897  1.00  0.00     0.208 A 
ATOM      3  C   UNL     1      23.670 -19.565  -9.919  1.00  0.00     0.238 A 
ATOM      4  O   UNL     1      24.504 -19.920  -9.044  1.00  0.00    -0.285 OA
ATOM      5  C   UNL     1      23.157 -18.246  -9.958  1.00  0.00     0.111 A 
ATOM      6  C   UNL     1      23.451 -17.234  -8.995  1.00  0.00     0.134 A 
ATOM      7  C   UNL     1      22.993 -15.928  -9.205  1.00  0.00     0.093 A 
ATOM      8  C   UNL     1      22.196 -15.613 -10.308  1.00  0.00     0.123 A 
ATOM      9  C   UNL     1      21.855 -16.607 -11.222  1.00  0.00     0.094 A 
ATOM     10  C   UNL     1      22.327 -17.912 -11.059  1.00  0.00     0.146 A 
ATOM     11  O   UNL     1      21.987 -18.827 -11.959  1.00  0.00    -0.452 OA
ENDROOT
BRANCH   1  12
ATOM     12  C   UNL     1      21.925 -21.018 -12.962  1.00  0.00     0.025 A 
ATOM     13  C   UNL     1      20.629 -21.562 -12.927  1.00  0.00     0.016 A 
ATOM     14  C   UNL     1      20.195 -22.418 -13.944  1.00  0.00     0.051 A 
ATOM     15  C   UNL     1      21.042 -22.731 -15.015  1.00  0.00     0.157 A 
ATOM     16  C   UNL     1      22.762 -21.318 -14.049  1.00  0.00     0.062 A 
ATOM     17  C   UNL     1      22.331 -22.174 -15.068  1.00  0.00     0.158 A 
BRANCH  15  18
ATOM     18  O   UNL     1      20.606 -23.587 -16.026  1.00  0.00    -0.504 OA
ATOM     19  H   UNL     1      20.989 -23.538 -16.963  1.00  0.00     0.293 HD
ENDBRANCH  15  18
BRANCH  17  20
ATOM     20  O   UNL     1      23.196 -22.461 -16.124  1.00  0.00    -0.504 OA
ATOM     21  H   UNL     1      23.779 -21.751 -16.551  1.00  0.00     0.293 HD
ENDBRANCH  17  20
ENDBRANCH   1  12
BRANCH   2  22
ATOM     22  O   UNL     1      23.793 -21.795 -10.889  1.00  0.00    -0.502 OA
ATOM     23  H   UNL     1      24.766 -21.999 -11.085  1.00  0.00     0.293 HD
ENDBRANCH   2  22
BRANCH   6  24
ATOM     24  O   UNL     1      24.160 -17.464  -7.812  1.00  0.00    -0.507 OA
ATOM     25  H   UNL     1      24.506 -18.363  -7.515  1.00  0.00     0.293 HD
ENDBRANCH   6  24
BRANCH   8  26
ATOM     26  O   UNL     1      21.730 -14.314 -10.502  1.00  0.00    -0.508 OA
ATOM     27  H   UNL     1      22.110 -13.532  -9.981  1.00  0.00     0.293 HD
ENDBRANCH   8  26
TORSDOF 6
ENDMDL
MODEL 5
REMARK VINA RESULT:    -6.281      1.597      1.757
REMARK INTER + INTRA:          -7.879
REMARK INTER:                  -7.585
REMARK INTRA:                  -0.294
REMARK UNBOUND:                -0.313
REMARK SMILES O=c1c(O)c(-c2ccc(O)c(O)c2)oc2cc(O)cc(O)c12
REMARK SMILES IDX 5 1 3 2 2 3 1 4 22 5 20 6 19 7 17 8 16 9 15 10 14 11 6 12
REMARK SMILES IDX 7 13 8 14 9 15 13 16 11 17 10 18 12 20 4 22 21 24 18 26
REMARK H PARENT 10 19 12 21 4 23 21 25 18 27
REMARK Flexibility Score: inf
ROOT
ATOM      1  C   UNL     1      22.383 -19.897 -11.690  1.00  0.00     0.180 A 
ATOM      2  C   UNL     1      22.660 -20.004 -13.064  1.00  0.00     0.208 A 
ATOM      3  C   UNL     1      22.450 -21.235 -13.706  1.00  0.00     0.238 A 
ATOM      4  O   UNL     1      22.750 -21.340 -14.925  1.00  0.00    -0.285 OA
ATOM      5  C   UNL     1      21.951 -22.337 -12.972  1.00  0.00     0.111 A 
ATOM      6  C   UNL     1      21.663 -23.620 -13.530  1.00  0.00     0.134 A 
ATOM      7  C   UNL     1      21.298 -24.674 -12.685  1.00  0.00     0.093 A 
ATOM      8  C   UNL     1      21.146 -24.476 -11.310  1.00  0.00     0.123 A 
ATOM      9  C   UNL     1      21.368 -23.214 -10.764  1.00  0.00     0.094 A 
ATOM     10  C   UNL     1      21.769 -22.150 -11.577  1.00  0.00     0.146 A 
ATOM     11  O   UNL     1      21.980 -20.967 -11.014  1.00  0.00    -0.452 OA
ENDROOT
BRANCH   1  12
ATOM     12  C   UNL     1      22.556 -18.627 -10.948  1.00  0.00     0.025 A 
ATOM     13  C   UNL     1      21.616 -17.586 -11.051  1.00  0.00     0.016 A 
ATOM     14  C   UNL     1      21.787 -16.406 -10.323  1.00  0.00     0.051 A 
ATOM     15  C   UNL     1      22.890 -16.253  -9.472  1.00  0.00     0.157 A 
ATOM     16  C   UNL     1      23.649 -18.477 -10.078  1.00  0.00     0.062 A 
ATOM     17  C   UNL     1      23.823 -17.296  -9.348  1.00  0.00     0.158 A 
BRANCH  15  18
ATOM     18  O   UNL     1      23.059 -15.073  -8.749  1.00  0.00    -0.504 OA
ATOM     19  H   UNL     1      23.172 -14.179  -9.212  1.00  0.00     0.293 HD
ENDBRANCH  15  18
BRANCH  17  20
ATOM     20  O   UNL     1      24.928 -17.178  -8.505  1.00  0.00    -0.504 OA
ATOM     21  H   UNL     1      25.697 -17.836  -8.530  1.00  0.00     0.293 HD
ENDBRANCH  17  20
ENDBRANCH   1  12
BRANCH   2  22
ATOM     22  O   UNL     1      23.172 -18.910 -13.765  1.00  0.00    -0.502 OA
ATOM     23  H   UNL     1      23.214 -18.883 -14.777  1.00  0.00     0.293 HD
ENDBRANCH   2  22
BRANCH   6  24
ATOM     24  O   UNL     1      21.693 -23.900 -14.899  1.00  0.00    -0.507 OA
ATOM     25  H   UNL     1      22.399 -23.567 -15.538  1.00  0.00     0.293 HD
ENDBRANCH   6  24
BRANCH   8  26
ATOM     26  O   UNL     1      20.767 -25.527 -10.477  1.00  0.00    -0.508 OA
ATOM     27  H   UNL     1      21.196 -26.443 -10.551  1.00  0.00     0.293 HD
ENDBRANCH   8  26
TORSDOF 6
ENDMDL
MODEL 6
REMARK VINA RESULT:    -6.270      1.828      7.377
REMARK INTER + INTRA:          -7.866
REMARK INTER:                  -7.585
REMARK INTRA:                  -0.281
REMARK UNBOUND:                -0.313
REMARK SMILES O=c1c(O)c(-c2ccc(O)c(O)c2)oc2cc(O)cc(O)c12
REMARK SMILES IDX 5 1 3 2 2 3 1 4 22 5 20 6 19 7 17 8 16 9 15 10 14 11 6 12
REMARK SMILES IDX 7 13 8 14 9 15 13 16 11 17 10 18 12 20 4 22 21 24 18 26
REMARK H PARENT 10 19 12 21 4 23 21 25 18 27
REMARK Flexibility Score: inf
ROOT
ATOM      1  C   UNL     1      22.974 -19.779 -11.029  1.00  0.00     0.180 A 
ATOM      2  C   UNL     1      23.863 -19.314 -10.045  1.00  0.00     0.208 A 
ATOM      3  C   UNL     1      23.895 -17.941  -9.751  1.00  0.00     0.238 A 
ATOM      4  O   UNL     1      24.732 -17.523  -8.908  1.00  0.00    -0.285 OA
ATOM      5  C   UNL     1      23.027 -17.054 -10.432  1.00  0.00     0.111 A 
ATOM      6  C   UNL     1      22.947 -15.650 -10.186  1.00  0.00     0.134 A 
ATOM      7  C   UNL     1      22.147 -14.849 -11.009  1.00  0.00     0.093 A 
ATOM      8  C   UNL     1      21.373 -15.410 -12.027  1.00  0.00     0.123 A 
ATOM      9  C   UNL     1      21.399 -16.787 -12.238  1.00  0.00     0.094 A 
ATOM     10  C   UNL     1      22.216 -17.608 -11.456  1.00  0.00     0.146 A 
ATOM     11  O   UNL     1      22.219 -18.914 -11.697  1.00  0.00    -0.452 OA
ENDROOT
BRANCH   1  12
ATOM     12  C   UNL     1      22.864 -21.214 -11.377  1.00  0.00     0.025 A 
ATOM     13  C   UNL     1      21.787 -21.996 -10.925  1.00  0.00     0.016 A 
ATOM     14  C   UNL     1      21.692 -23.344 -11.286  1.00  0.00     0.051 A 
ATOM     15  C   UNL     1      22.662 -23.924 -12.114  1.00  0.00     0.157 A 
ATOM     16  C   UNL     1      23.823 -21.796 -12.224  1.00  0.00     0.062 A 
ATOM     17  C   UNL     1      23.730 -23.144 -12.587  1.00  0.00     0.158 A 
BRANCH  15  18
ATOM     18  O   UNL     1      22.565 -25.268 -12.471  1.00  0.00    -0.504 OA
ATOM     19  H   UNL     1      21.687 -25.770 -12.413  1.00  0.00     0.293 HD
ENDBRANCH  15  18
BRANCH  17  20
ATOM     20  O   UNL     1      24.708 -23.690 -13.418  1.00  0.00    -0.504 OA
ATOM     21  H   UNL     1      24.568 -23.801 -14.415  1.00  0.00     0.293 HD
ENDBRANCH  17  20
ENDBRANCH   1  12
BRANCH   2  22
ATOM     22  O   UNL     1      24.726 -20.203  -9.401  1.00  0.00    -0.502 OA
ATOM     23  H   UNL     1      25.624 -20.468  -9.789  1.00  0.00     0.293 HD
ENDBRANCH   2  22
BRANCH   6  24
ATOM     24  O   UNL     1      23.606 -15.003  -9.136  1.00  0.00    -0.507 OA
ATOM     25  H   UNL     1      24.072 -15.472  -8.374  1.00  0.00     0.293 HD
ENDBRANCH   6  24
BRANCH   8  26
ATOM     26  O   UNL     1      20.566 -14.609 -12.833  1.00  0.00    -0.508 OA
ATOM     27  H   UNL     1      19.628 -14.893 -13.091  1.00  0.00     0.293 HD
ENDBRANCH   8  26
TORSDOF 6
ENDMDL
MODEL 7
REMARK VINA RESULT:    -6.214      2.499      7.337
REMARK INTER + INTRA:          -7.799
REMARK INTER:                  -7.483
REMARK INTRA:                  -0.316
REMARK UNBOUND:                -0.313
REMARK SMILES O=c1c(O)c(-c2ccc(O)c(O)c2)oc2cc(O)cc(O)c12
REMARK SMILES IDX 5 1 3 2 2 3 1 4 22 5 20 6 19 7 17 8 16 9 15 10 14 11 6 12
REMARK SMILES IDX 7 13 8 14 9 15 13 16 11 17 10 18 12 20 4 22 21 24 18 26
REMARK H PARENT 10 19 12 21 4 23 21 25 18 27
REMARK Flexibility Score: inf
ROOT
ATOM      1  C   UNL     1      21.739 -19.847 -12.612  1.00  0.00     0.180 A 
ATOM      2  C   UNL     1      21.033 -18.744 -13.123  1.00  0.00     0.208 A 
ATOM      3  C   UNL     1      21.131 -17.508 -12.464  1.00  0.00     0.238 A 
ATOM      4  O   UNL     1      20.454 -16.538 -12.894  1.00  0.00    -0.285 OA
ATOM      5  C   UNL     1      21.946 -17.386 -11.312  1.00  0.00     0.111 A 
ATOM      6  C   UNL     1      22.150 -16.172 -10.588  1.00  0.00     0.134 A 
ATOM      7  C   UNL     1      22.871 -16.197  -9.389  1.00  0.00     0.093 A 
ATOM      8  C   UNL     1      23.452 -17.378  -8.921  1.00  0.00     0.123 A 
ATOM      9  C   UNL     1      23.308 -18.556  -9.651  1.00  0.00     0.094 A 
ATOM     10  C   UNL     1      22.563 -18.571 -10.833  1.00  0.00     0.146 A 
ATOM     11  O   UNL     1      22.442 -19.717 -11.492  1.00  0.00    -0.452 OA
ENDROOT
BRANCH   1  12
ATOM     12  C   UNL     1      21.706 -21.175 -13.265  1.00  0.00     0.025 A 
ATOM     13  C   UNL     1      20.680 -22.098 -12.995  1.00  0.00     0.016 A 
ATOM     14  C   UNL     1      20.655 -23.337 -13.642  1.00  0.00     0.051 A 
ATOM     15  C   UNL     1      21.646 -23.666 -14.576  1.00  0.00     0.157 A 
ATOM     16  C   UNL     1      22.685 -21.502 -14.218  1.00  0.00     0.062 A 
ATOM     17  C   UNL     1      22.664 -22.742 -14.867  1.00  0.00     0.158 A 
BRANCH  15  18
ATOM     18  O   UNL     1      21.620 -24.904 -15.218  1.00  0.00    -0.504 OA
ATOM     19  H   UNL     1      20.748 -25.337 -15.499  1.00  0.00     0.293 HD
ENDBRANCH  15  18
BRANCH  17  20
ATOM     20  O   UNL     1      23.660 -23.037 -15.797  1.00  0.00    -0.504 OA
ATOM     21  H   UNL     1      23.493 -23.641 -16.592  1.00  0.00     0.293 HD
ENDBRANCH  17  20
ENDBRANCH   1  12
BRANCH   2  22
ATOM     22  O   UNL     1      20.218 -18.892 -14.248  1.00  0.00    -0.502 OA
ATOM     23  H   UNL     1      19.274 -18.527 -14.287  1.00  0.00     0.293 HD
ENDBRANCH   2  22
BRANCH   6  24
ATOM     24  O   UNL     1      21.692 -14.923 -11.016  1.00  0.00    -0.507 OA
ATOM     25  H   UNL     1      21.866 -14.529 -11.929  1.00  0.00     0.293 HD
ENDBRANCH   6  24
BRANCH   8  26
ATOM     26  O   UNL     1      24.182 -17.391  -7.735  1.00  0.00    -0.508 OA
ATOM     27  H   UNL     1      24.023 -16.702  -7.008  1.00  0.00     0.293 HD
ENDBRANCH   8  26
TORSDOF 6
ENDMDL
MODEL 8
REMARK VINA RESULT:    -6.209      2.193      3.734
REMARK INTER + INTRA:          -7.793
REMARK INTER:                  -7.511
REMARK INTRA:                  -0.281
REMARK UNBOUND:                -0.313
REMARK SMILES O=c1c(O)c(-c2ccc(O)c(O)c2)oc2cc(O)cc(O)c12
REMARK SMILES IDX 5 1 3 2 2 3 1 4 22 5 20 6 19 7 17 8 16 9 15 10 14 11 6 12
REMARK SMILES IDX 7 13 8 14 9 15 13 16 11 17 10 18 12 20 4 22 21 24 18 26
REMARK H PARENT 10 19 12 21 4 23 21 25 18 27
REMARK Flexibility Score: inf
ROOT
ATOM      1  C   UNL     1      23.644 -22.747 -12.416  1.00  0.00     0.180 A 
ATOM      2  C   UNL     1      22.504 -23.521 -12.142  1.00  0.00     0.208 A 
ATOM      3  C   UNL     1      22.481 -24.866 -12.544  1.00  0.00     0.238 A 
ATOM      4  O   UNL     1      21.436 -25.539 -12.345  1.00  0.00    -0.285 OA
ATOM      5  C   UNL     1      23.604 -25.425 -13.200  1.00  0.00     0.111 A 
ATOM      6  C   UNL     1      23.706 -26.787 -13.615  1.00  0.00     0.134 A 
ATOM      7  C   UNL     1      24.810 -27.197 -14.371  1.00  0.00     0.093 A 
ATOM      8  C   UNL     1      25.848 -26.312 -14.670  1.00  0.00     0.123 A 
ATOM      9  C   UNL     1      25.786 -24.995 -14.219  1.00  0.00     0.094 A 
ATOM     10  C   UNL     1      24.679 -24.546 -13.493  1.00  0.00     0.146 A 
ATOM     11  O   UNL     1      24.656 -23.281 -13.091  1.00  0.00    -0.452 OA
ENDROOT
BRANCH   1  12
ATOM     12  C   UNL     1      23.753 -21.329 -12.002  1.00  0.00     0.025 A 
ATOM     13  C   UNL     1      23.538 -20.282 -12.915  1.00  0.00     0.016 A 
ATOM     14  C   UNL     1      23.622 -18.951 -12.496  1.00  0.00     0.051 A 
ATOM     15  C   UNL     1      23.907 -18.648 -11.158  1.00  0.00     0.157 A 
ATOM     16  C   UNL     1      24.018 -21.020 -10.657  1.00  0.00     0.062 A 
ATOM     17  C   UNL     1      24.103 -19.689 -10.235  1.00  0.00     0.158 A 
BRANCH  15  18
ATOM     18  O   UNL     1      23.993 -17.319 -10.744  1.00  0.00    -0.504 OA
ATOM     19  H   UNL     1      23.675 -17.028  -9.827  1.00  0.00     0.293 HD
ENDBRANCH  15  18
BRANCH  17  20
ATOM     20  O   UNL     1      24.382 -19.420  -8.895  1.00  0.00    -0.504 OA
ATOM     21  H   UNL     1      24.291 -20.125  -8.174  1.00  0.00     0.293 HD
ENDBRANCH  17  20
ENDBRANCH   1  12
BRANCH   2  22
ATOM     22  O   UNL     1      21.397 -22.944 -11.513  1.00  0.00    -0.502 OA
ATOM     23  H   UNL     1      20.455 -23.291 -11.644  1.00  0.00     0.293 HD
ENDBRANCH   2  22
BRANCH   6  24
ATOM     24  O   UNL     1      22.771 -27.774 -13.289  1.00  0.00    -0.507 OA
ATOM     25  H   UNL     1      22.370 -28.425 -13.947  1.00  0.00     0.293 HD
ENDBRANCH   6  24
BRANCH   8  26
ATOM     26  O   UNL     1      26.952 -26.732 -15.410  1.00  0.00    -0.508 OA
ATOM     27  H   UNL     1      27.298 -26.194 -16.196  1.00  0.00     0.293 HD
ENDBRANCH   8  26
TORSDOF 6
ENDMDL
MODEL 9
REMARK VINA RESULT:    -6.205      2.491      7.172
REMARK INTER + INTRA:          -7.788
REMARK INTER:                  -7.490
REMARK INTRA:                  -0.299
REMARK UNBOUND:                -0.313
REMARK SMILES O=c1c(O)c(-c2ccc(O)c(O)c2)oc2cc(O)cc(O)c12
REMARK SMILES IDX 5 1 3 2 2 3 1 4 22 5 20 6 19 7 17 8 16 9 15 10 14 11 6 12
REMARK SMILES IDX 7 13 8 14 9 15 13 16 11 17 10 18 12 20 4 22 21 24 18 26
REMARK H PARENT 10 19 12 21 4 23 21 25 18 27
REMARK Flexibility Score: inf
ROOT
ATOM      1  C   UNL     1      23.868 -23.094 -13.099  1.00  0.00     0.180 A 
ATOM      2  C   UNL     1      22.550 -22.891 -13.545  1.00  0.00     0.208 A 
ATOM      3  C   UNL     1      21.800 -21.839 -12.994  1.00  0.00     0.238 A 
ATOM      4  O   UNL     1      20.603 -21.696 -13.356  1.00  0.00    -0.285 OA
ATOM      5  C   UNL     1      22.381 -20.995 -12.017  1.00  0.00     0.111 A 
ATOM      6  C   UNL     1      21.726 -19.875 -11.421  1.00  0.00     0.134 A 
ATOM      7  C   UNL     1      22.350 -19.189 -10.371  1.00  0.00     0.093 A 
ATOM      8  C   UNL     1      23.632 -19.542  -9.941  1.00  0.00     0.123 A 
ATOM      9  C   UNL     1      24.302 -20.596 -10.557  1.00  0.00     0.094 A 
ATOM     10  C   UNL     1      23.692 -21.322 -11.583  1.00  0.00     0.146 A 
ATOM     11  O   UNL     1      24.363 -22.326 -12.135  1.00  0.00    -0.452 OA
ENDROOT
BRANCH   1  12
ATOM     12  C   UNL     1      24.729 -24.165 -13.650  1.00  0.00     0.025 A 
ATOM     13  C   UNL     1      25.714 -23.888 -14.615  1.00  0.00     0.016 A 
ATOM     14  C   UNL     1      26.532 -24.911 -15.103  1.00  0.00     0.051 A 
ATOM     15  C   UNL     1      26.388 -26.220 -14.624  1.00  0.00     0.157 A 
ATOM     16  C   UNL     1      24.604 -25.475 -13.159  1.00  0.00     0.062 A 
ATOM     17  C   UNL     1      25.421 -26.501 -13.645  1.00  0.00     0.158 A 
BRANCH  15  18
ATOM     18  O   UNL     1      27.205 -27.239 -15.115  1.00  0.00    -0.504 OA
ATOM     19  H   UNL     1      28.198 -27.101 -15.255  1.00  0.00     0.293 HD
ENDBRANCH  15  18
BRANCH  17  20
ATOM     20  O   UNL     1      25.257 -27.793 -13.144  1.00  0.00    -0.504 OA
ATOM     21  H   UNL     1      26.043 -28.359 -12.848  1.00  0.00     0.293 HD
ENDBRANCH  17  20
ENDBRANCH   1  12
BRANCH   2  22
ATOM     22  O   UNL     1      21.989 -23.749 -14.493  1.00  0.00    -0.502 OA
ATOM     23  H   UNL     1      21.498 -24.597 -14.236  1.00  0.00     0.293 HD
ENDBRANCH   2  22
BRANCH   6  24
ATOM     24  O   UNL     1      20.487 -19.383 -11.838  1.00  0.00    -0.507 OA
ATOM     25  H   UNL     1      20.055 -19.591 -12.726  1.00  0.00     0.293 HD
ENDBRANCH   6  24
BRANCH   8  26
ATOM     26  O   UNL     1      24.252 -18.844  -8.907  1.00  0.00    -0.508 OA
ATOM     27  H   UNL     1      23.717 -18.296  -8.243  1.00  0.00     0.293 HD
ENDBRANCH   8  26
TORSDOF 6
ENDMDL
