MODEL 1
REMARK VINA RESULT:     0.387      0.000      0.000
REMARK INTER + INTRA:           2.365
REMARK INTER:                   0.975
REMARK INTRA:                   1.390
REMARK UNBOUND:                 1.390
REMARK SMILES CCCCCCCCCCCCCCCCCCCCCCCCCCCC(=O)[O-]
REMARK SMILES IDX 15 1 16 2 17 3 18 4 19 5 20 6 21 7 22 8 23 9 24 10 25 11
REMARK SMILES IDX 26 12 27 13 28 14 29 15 30 16 14 17 13 18 12 19 11 20 10 21
REMARK SMILES IDX 9 22 8 23 7 24 6 25 5 26 4 27 3 28 2 29 1 30
REMARK H PARENT
REMARK Flexibility Score: inf
ROOT
ATOM      1  C   UNL     1     -11.617 -17.218  14.145  1.00  0.00     0.000 C 
ENDROOT
BRANCH   1   2
ATOM      2  C   UNL     1     -10.898 -15.897  13.830  1.00  0.00     0.000 C 
BRANCH   2   3
ATOM      3  C   UNL     1      -9.894 -15.498  14.926  1.00  0.00     0.000 C 
BRANCH   3   4
ATOM      4  C   UNL     1      -9.533 -16.663  15.865  1.00  0.00     0.000 C 
BRANCH   4   5
ATOM      5  C   UNL     1      -8.056 -17.103  15.830  1.00  0.00     0.000 C 
BRANCH   5   6
ATOM      6  C   UNL     1      -7.876 -18.568  15.401  1.00  0.00     0.000 C 
BRANCH   6   7
ATOM      7  C   UNL     1      -8.830 -18.971  14.264  1.00  0.00     0.000 C 
BRANCH   7   8
ATOM      8  C   UNL     1      -8.438 -18.349  12.912  1.00  0.00     0.000 C 
BRANCH   8   9
ATOM      9  C   UNL     1      -9.329 -18.843  11.761  1.00  0.00     0.000 C 
BRANCH   9  10
ATOM     10  C   UNL     1      -8.963 -20.265  11.300  1.00  0.00     0.000 C 
BRANCH  10  11
ATOM     11  C   UNL     1      -7.984 -20.273  10.111  1.00  0.00     0.000 C 
BRANCH  11  12
ATOM     12  C   UNL     1      -7.995 -18.994   9.249  1.00  0.00     0.006 C 
BRANCH  12  13
ATOM     13  C   UNL     1      -9.397 -18.448   8.931  1.00  0.00     0.053 C 
BRANCH  13  14
ATOM     14  C   UNL     1      -9.557 -17.025   9.369  1.00  0.00     0.041 C 
ATOM     15  O   UNL     1      -9.022 -16.096   8.709  1.00  0.00    -0.550 OA
ATOM     16  O   UNL     1     -10.258 -16.727  10.530  1.00  0.00    -0.550 OA
ENDBRANCH  13  14
ENDBRANCH  12  13
ENDBRANCH  11  12
ENDBRANCH  10  11
ENDBRANCH   9  10
ENDBRANCH   8   9
ENDBRANCH   7   8
ENDBRANCH   6   7
ENDBRANCH   5   6
ENDBRANCH   4   5
ENDBRANCH   3   4
ENDBRANCH   2   3
ENDBRANCH   1   2
BRANCH   1  17
ATOM     17  C   UNL     1     -12.296 -17.207  15.525  1.00  0.00     0.000 C 
BRANCH  17  18
ATOM     18  C   UNL     1     -12.575 -18.624  16.055  1.00  0.00     0.000 C 
BRANCH  18  19
ATOM     19  C   UNL     1     -11.350 -19.549  15.940  1.00  0.00     0.000 C 
BRANCH  19  20
ATOM     20  C   UNL     1     -11.712 -21.037  16.086  1.00  0.00     0.000 C 
BRANCH  20  21
ATOM     21  C   UNL     1     -13.223 -21.346  16.074  1.00  0.00     0.000 C 
BRANCH  21  22
ATOM     22  C   UNL     1     -13.586 -22.834  15.905  1.00  0.00    -0.000 C 
BRANCH  22  23
ATOM     23  C   UNL     1     -15.025 -23.099  15.428  1.00  0.00    -0.000 C 
BRANCH  23  24
ATOM     24  C   UNL     1     -15.365 -22.360  14.122  1.00  0.00    -0.000 C 
BRANCH  24  25
ATOM     25  C   UNL     1     -14.452 -22.766  12.956  1.00  0.00    -0.000 C 
BRANCH  25  26
ATOM     26  C   UNL     1     -13.026 -23.125  13.416  1.00  0.00    -0.000 C 
BRANCH  26  27
ATOM     27  C   UNL     1     -11.977 -22.875  12.313  1.00  0.00    -0.000 C 
BRANCH  27  28
ATOM     28  C   UNL     1     -10.686 -22.214  12.824  1.00  0.00    -0.000 C 
BRANCH  28  29
ATOM     29  C   UNL     1     -10.253 -22.735  14.201  1.00  0.00    -0.003 C 
ATOM     30  C   UNL     1      -8.771 -22.467  14.450  1.00  0.00     0.004 C 
ENDBRANCH  28  29
ENDBRANCH  27  28
ENDBRANCH  26  27
ENDBRANCH  25  26
ENDBRANCH  24  25
ENDBRANCH  23  24
ENDBRANCH  22  23
ENDBRANCH  21  22
ENDBRANCH  20  21
ENDBRANCH  19  20
ENDBRANCH  18  19
ENDBRANCH  17  18
ENDBRANCH   1  17
TORSDOF 26
ENDMDL
MODEL 2
REMARK VINA RESULT:     2.196      1.946      5.781
REMARK INTER + INTRA:           6.925
REMARK INTER:                   3.916
REMARK INTRA:                   3.008
REMARK UNBOUND:                 1.390
REMARK SMILES CCCCCCCCCCCCCCCCCCCCCCCCCCCC(=O)[O-]
REMARK SMILES IDX 15 1 16 2 17 3 18 4 19 5 20 6 21 7 22 8 23 9 24 10 25 11
REMARK SMILES IDX 26 12 27 13 28 14 29 15 30 16 14 17 13 18 12 19 11 20 10 21
REMARK SMILES IDX 9 22 8 23 7 24 6 25 5 26 4 27 3 28 2 29 1 30
REMARK H PARENT
REMARK Flexibility Score: inf
ROOT
ATOM      1  C   UNL     1      -9.796 -17.432  13.723  1.00  0.00     0.000 C 
ENDROOT
BRANCH   1   2
ATOM      2  C   UNL     1     -10.877 -17.062  14.753  1.00  0.00     0.000 C 
BRANCH   2   3
ATOM      3  C   UNL     1     -11.155 -18.200  15.750  1.00  0.00     0.000 C 
BRANCH   3   4
ATOM      4  C   UNL     1     -12.504 -18.900  15.503  1.00  0.00     0.000 C 
BRANCH   4   5
ATOM      5  C   UNL     1     -12.490 -19.989  14.413  1.00  0.00     0.000 C 
BRANCH   5   6
ATOM      6  C   UNL     1     -12.031 -21.360  14.939  1.00  0.00     0.000 C 
BRANCH   6   7
ATOM      7  C   UNL     1     -12.878 -21.850  16.125  1.00  0.00     0.000 C 
BRANCH   7   8
ATOM      8  C   UNL     1     -14.370 -21.507  15.970  1.00  0.00     0.000 C 
BRANCH   8   9
ATOM      9  C   UNL     1     -15.102 -22.487  15.040  1.00  0.00     0.000 C 
BRANCH   9  10
ATOM     10  C   UNL     1     -15.071 -22.040  13.568  1.00  0.00     0.000 C 
BRANCH  10  11
ATOM     11  C   UNL     1     -14.444 -23.094  12.638  1.00  0.00     0.000 C 
BRANCH  11  12
ATOM     12  C   UNL     1     -13.823 -22.534  11.341  1.00  0.00     0.006 C 
BRANCH  12  13
ATOM     13  C   UNL     1     -12.397 -23.031  11.049  1.00  0.00     0.053 C 
BRANCH  13  14
ATOM     14  C   UNL     1     -11.388 -22.407  11.964  1.00  0.00     0.041 C 
ATOM     15  O   UNL     1     -10.719 -23.125  12.753  1.00  0.00    -0.550 OA
ATOM     16  O   UNL     1     -11.216 -21.029  11.977  1.00  0.00    -0.550 OA
ENDBRANCH  13  14
ENDBRANCH  12  13
ENDBRANCH  11  12
ENDBRANCH  10  11
ENDBRANCH   9  10
ENDBRANCH   8   9
ENDBRANCH   7   8
ENDBRANCH   6   7
ENDBRANCH   5   6
ENDBRANCH   4   5
ENDBRANCH   3   4
ENDBRANCH   2   3
ENDBRANCH   1   2
BRANCH   1  17
ATOM     17  C   UNL     1      -8.386 -17.011  14.170  1.00  0.00     0.000 C 
BRANCH  17  18
ATOM     18  C   UNL     1      -8.039 -17.519  15.580  1.00  0.00     0.000 C 
BRANCH  18  19
ATOM     19  C   UNL     1      -7.955 -19.054  15.651  1.00  0.00     0.000 C 
BRANCH  19  20
ATOM     20  C   UNL     1      -9.269 -19.700  16.125  1.00  0.00     0.000 C 
BRANCH  20  21
ATOM     21  C   UNL     1      -9.383 -21.216  15.863  1.00  0.00     0.000 C 
BRANCH  21  22
ATOM     22  C   UNL     1      -8.329 -21.795  14.900  1.00  0.00    -0.000 C 
BRANCH  22  23
ATOM     23  C   UNL     1      -7.929 -20.864  13.742  1.00  0.00    -0.000 C 
BRANCH  23  24
ATOM     24  C   UNL     1      -8.364 -21.401  12.368  1.00  0.00    -0.000 C 
BRANCH  24  25
ATOM     25  C   UNL     1      -7.919 -20.495  11.209  1.00  0.00    -0.000 C 
BRANCH  25  26
ATOM     26  C   UNL     1      -8.145 -21.142   9.830  1.00  0.00    -0.000 C 
BRANCH  26  27
ATOM     27  C   UNL     1      -8.605 -20.116   8.773  1.00  0.00    -0.000 C 
BRANCH  27  28
ATOM     28  C   UNL     1      -7.972 -18.724   8.944  1.00  0.00    -0.000 C 
BRANCH  28  29
ATOM     29  C   UNL     1      -8.703 -17.858   9.978  1.00  0.00    -0.003 C 
ATOM     30  C   UNL     1     -10.210 -17.863   9.735  1.00  0.00     0.004 C 
ENDBRANCH  28  29
ENDBRANCH  27  28
ENDBRANCH  26  27
ENDBRANCH  25  26
ENDBRANCH  24  25
ENDBRANCH  23  24
ENDBRANCH  22  23
ENDBRANCH  21  22
ENDBRANCH  20  21
ENDBRANCH  19  20
ENDBRANCH  18  19
ENDBRANCH  17  18
ENDBRANCH   1  17
TORSDOF 26
ENDMDL
