MODEL 1
REMARK VINA RESULT:    -3.872      0.000      0.000
REMARK INTER + INTRA:         -15.386
REMARK INTER:                 -10.209
REMARK INTRA:                  -5.177
REMARK UNBOUND:                -5.177
REMARK SMILES CCCCCCCCCCCCCCCCCCCCCCCCCCCCCC(=O)[O-]
REMARK SMILES IDX 16 1 17 2 18 3 19 4 20 5 21 6 22 7 23 8 24 9 25 10 26 11
REMARK SMILES IDX 27 12 28 13 29 14 30 15 31 16 32 17 15 18 14 19 13 20 12 21
REMARK SMILES IDX 11 22 10 23 9 24 8 25 7 26 6 27 5 28 4 29 3 30 2 31 1 32
REMARK H PARENT
REMARK Flexibility Score: inf
ROOT
ATOM      1  C   UNL     1     -23.199   4.361  27.197  1.00  0.00     0.000 C 
ENDROOT
BRANCH   1   2
ATOM      2  C   UNL     1     -24.352   3.916  26.280  1.00  0.00     0.000 C 
BRANCH   2   3
ATOM      3  C   UNL     1     -25.044   5.096  25.570  1.00  0.00     0.000 C 
BRANCH   3   4
ATOM      4  C   UNL     1     -25.115   4.957  24.036  1.00  0.00     0.000 C 
BRANCH   4   5
ATOM      5  C   UNL     1     -24.897   6.289  23.296  1.00  0.00     0.000 C 
BRANCH   5   6
ATOM      6  C   UNL     1     -23.696   6.253  22.333  1.00  0.00     0.000 C 
BRANCH   6   7
ATOM      7  C   UNL     1     -22.986   7.612  22.169  1.00  0.00     0.000 C 
BRANCH   7   8
ATOM      8  C   UNL     1     -21.551   7.473  21.627  1.00  0.00     0.000 C 
BRANCH   8   9
ATOM      9  C   UNL     1     -21.512   7.266  20.102  1.00  0.00     0.000 C 
BRANCH   9  10
ATOM     10  C   UNL     1     -21.102   5.848  19.655  1.00  0.00     0.000 C 
BRANCH  10  11
ATOM     11  C   UNL     1     -20.433   4.983  20.746  1.00  0.00     0.000 C 
BRANCH  11  12
ATOM     12  C   UNL     1     -18.962   5.329  21.052  1.00  0.00     0.000 C 
BRANCH  12  13
ATOM     13  C   UNL     1     -18.023   4.114  21.206  1.00  0.00     0.006 C 
BRANCH  13  14
ATOM     14  C   UNL     1     -18.709   2.759  20.954  1.00  0.00     0.053 C 
BRANCH  14  15
ATOM     15  C   UNL     1     -17.726   1.649  20.728  1.00  0.00     0.041 C 
ATOM     16  O   UNL     1     -16.970   1.668  19.721  1.00  0.00    -0.550 OA
ATOM     17  O   UNL     1     -17.624   0.608  21.645  1.00  0.00    -0.550 OA
ENDBRANCH  14  15
ENDBRANCH  13  14
ENDBRANCH  12  13
ENDBRANCH  11  12
ENDBRANCH  10  11
ENDBRANCH   9  10
ENDBRANCH   8   9
ENDBRANCH   7   8
ENDBRANCH   6   7
ENDBRANCH   5   6
ENDBRANCH   4   5
ENDBRANCH   3   4
ENDBRANCH   2   3
ENDBRANCH   1   2
BRANCH   1  18
ATOM     18  C   UNL     1     -22.163   5.243  26.476  1.00  0.00     0.000 C 
BRANCH  18  19
ATOM     19  C   UNL     1     -21.065   4.479  25.706  1.00  0.00     0.000 C 
BRANCH  19  20
ATOM     20  C   UNL     1     -21.371   4.316  24.206  1.00  0.00     0.000 C 
BRANCH  20  21
ATOM     21  C   UNL     1     -21.758   2.867  23.836  1.00  0.00     0.000 C 
BRANCH  21  22
ATOM     22  C   UNL     1     -22.561   2.755  22.527  1.00  0.00     0.000 C 
BRANCH  22  23
ATOM     23  C   UNL     1     -23.406   1.475  22.456  1.00  0.00     0.000 C 
BRANCH  23  24
ATOM     24  C   UNL     1     -24.482   1.423  23.563  1.00  0.00    -0.000 C 
BRANCH  24  25
ATOM     25  C   UNL     1     -24.484   0.100  24.346  1.00  0.00    -0.000 C 
BRANCH  25  26
ATOM     26  C   UNL     1     -23.083  -0.287  24.852  1.00  0.00    -0.000 C 
BRANCH  26  27
ATOM     27  C   UNL     1     -22.604  -1.638  24.293  1.00  0.00    -0.000 C 
BRANCH  27  28
ATOM     28  C   UNL     1     -21.083  -1.830  24.408  1.00  0.00    -0.000 C 
BRANCH  28  29
ATOM     29  C   UNL     1     -20.340  -0.939  23.399  1.00  0.00    -0.000 C 
BRANCH  29  30
ATOM     30  C   UNL     1     -20.255  -1.556  21.991  1.00  0.00    -0.000 C 
BRANCH  30  31
ATOM     31  C   UNL     1     -20.983  -0.765  20.890  1.00  0.00    -0.003 C 
ATOM     32  C   UNL     1     -22.237  -1.472  20.375  1.00  0.00     0.004 C 
ENDBRANCH  30  31
ENDBRANCH  29  30
ENDBRANCH  28  29
ENDBRANCH  27  28
ENDBRANCH  26  27
ENDBRANCH  25  26
ENDBRANCH  24  25
ENDBRANCH  23  24
ENDBRANCH  22  23
ENDBRANCH  21  22
ENDBRANCH  20  21
ENDBRANCH  19  20
ENDBRANCH  18  19
ENDBRANCH   1  18
TORSDOF 28
ENDMDL
MODEL 2
REMARK VINA RESULT:    -3.739      1.487      3.005
REMARK INTER + INTRA:         -15.037
REMARK INTER:                  -9.509
REMARK INTRA:                  -5.527
REMARK UNBOUND:                -5.177
REMARK SMILES CCCCCCCCCCCCCCCCCCCCCCCCCCCCCC(=O)[O-]
REMARK SMILES IDX 16 1 17 2 18 3 19 4 20 5 21 6 22 7 23 8 24 9 25 10 26 11
REMARK SMILES IDX 27 12 28 13 29 14 30 15 31 16 32 17 15 18 14 19 13 20 12 21
REMARK SMILES IDX 11 22 10 23 9 24 8 25 7 26 6 27 5 28 4 29 3 30 2 31 1 32
REMARK H PARENT
REMARK Flexibility Score: inf
ROOT
ATOM      1  C   UNL     1     -21.186   2.594  25.184  1.00  0.00     0.000 C 
ENDROOT
BRANCH   1   2
ATOM      2  C   UNL     1     -22.015   3.386  26.212  1.00  0.00     0.000 C 
BRANCH   2   3
ATOM      3  C   UNL     1     -22.595   4.692  25.636  1.00  0.00     0.000 C 
BRANCH   3   4
ATOM      4  C   UNL     1     -24.134   4.772  25.676  1.00  0.00     0.000 C 
BRANCH   4   5
ATOM      5  C   UNL     1     -24.747   5.316  24.373  1.00  0.00     0.000 C 
BRANCH   5   6
ATOM      6  C   UNL     1     -23.716   5.466  23.239  1.00  0.00     0.000 C 
BRANCH   6   7
ATOM      7  C   UNL     1     -23.806   6.809  22.487  1.00  0.00     0.000 C 
BRANCH   7   8
ATOM      8  C   UNL     1     -22.423   7.398  22.151  1.00  0.00     0.000 C 
BRANCH   8   9
ATOM      9  C   UNL     1     -22.306   7.828  20.678  1.00  0.00     0.000 C 
BRANCH   9  10
ATOM     10  C   UNL     1     -21.230   7.074  19.870  1.00  0.00     0.000 C 
BRANCH  10  11
ATOM     11  C   UNL     1     -21.432   5.546  19.773  1.00  0.00     0.000 C 
BRANCH  11  12
ATOM     12  C   UNL     1     -20.428   4.695  20.578  1.00  0.00     0.000 C 
BRANCH  12  13
ATOM     13  C   UNL     1     -19.184   5.455  21.083  1.00  0.00     0.006 C 
BRANCH  13  14
ATOM     14  C   UNL     1     -19.086   5.541  22.618  1.00  0.00     0.053 C 
BRANCH  14  15
ATOM     15  C   UNL     1     -17.925   4.765  23.165  1.00  0.00     0.041 C 
ATOM     16  O   UNL     1     -16.835   4.728  22.535  1.00  0.00    -0.550 OA
ATOM     17  O   UNL     1     -18.037   4.106  24.385  1.00  0.00    -0.550 OA
ENDBRANCH  14  15
ENDBRANCH  13  14
ENDBRANCH  12  13
ENDBRANCH  11  12
ENDBRANCH  10  11
ENDBRANCH   9  10
ENDBRANCH   8   9
ENDBRANCH   7   8
ENDBRANCH   6   7
ENDBRANCH   5   6
ENDBRANCH   4   5
ENDBRANCH   3   4
ENDBRANCH   2   3
ENDBRANCH   1   2
BRANCH   1  18
ATOM     18  C   UNL     1     -21.436   3.047  23.733  1.00  0.00     0.000 C 
BRANCH  18  19
ATOM     19  C   UNL     1     -21.801   1.921  22.744  1.00  0.00     0.000 C 
BRANCH  19  20
ATOM     20  C   UNL     1     -23.300   1.878  22.392  1.00  0.00     0.000 C 
BRANCH  20  21
ATOM     21  C   UNL     1     -24.197   1.762  23.645  1.00  0.00     0.000 C 
BRANCH  21  22
ATOM     22  C   UNL     1     -24.625   0.318  23.967  1.00  0.00     0.000 C 
BRANCH  22  23
ATOM     23  C   UNL     1     -23.799  -0.307  25.101  1.00  0.00     0.000 C 
BRANCH  23  24
ATOM     24  C   UNL     1     -22.557  -1.058  24.572  1.00  0.00    -0.000 C 
BRANCH  24  25
ATOM     25  C   UNL     1     -22.882  -2.049  23.443  1.00  0.00    -0.000 C 
BRANCH  25  26
ATOM     26  C   UNL     1     -21.705  -2.242  22.470  1.00  0.00    -0.000 C 
BRANCH  26  27
ATOM     27  C   UNL     1     -21.889  -1.463  21.156  1.00  0.00    -0.000 C 
BRANCH  27  28
ATOM     28  C   UNL     1     -20.707  -0.532  20.839  1.00  0.00    -0.000 C 
BRANCH  28  29
ATOM     29  C   UNL     1     -19.367  -1.259  21.043  1.00  0.00    -0.000 C 
BRANCH  29  30
ATOM     30  C   UNL     1     -18.216  -0.312  21.432  1.00  0.00    -0.000 C 
BRANCH  30  31
ATOM     31  C   UNL     1     -18.580   1.183  21.440  1.00  0.00    -0.003 C 
ATOM     32  C   UNL     1     -17.736   2.009  20.469  1.00  0.00     0.004 C 
ENDBRANCH  30  31
ENDBRANCH  29  30
ENDBRANCH  28  29
ENDBRANCH  27  28
ENDBRANCH  26  27
ENDBRANCH  25  26
ENDBRANCH  24  25
ENDBRANCH  23  24
ENDBRANCH  22  23
ENDBRANCH  21  22
ENDBRANCH  20  21
ENDBRANCH  19  20
ENDBRANCH  18  19
ENDBRANCH   1  18
TORSDOF 28
ENDMDL
MODEL 3
REMARK VINA RESULT:    -3.725      2.964      5.107
REMARK INTER + INTRA:         -15.000
REMARK INTER:                  -9.832
REMARK INTRA:                  -5.167
REMARK UNBOUND:                -5.177
REMARK SMILES CCCCCCCCCCCCCCCCCCCCCCCCCCCCCC(=O)[O-]
REMARK SMILES IDX 16 1 17 2 18 3 19 4 20 5 21 6 22 7 23 8 24 9 25 10 26 11
REMARK SMILES IDX 27 12 28 13 29 14 30 15 31 16 32 17 15 18 14 19 13 20 12 21
REMARK SMILES IDX 11 22 10 23 9 24 8 25 7 26 6 27 5 28 4 29 3 30 2 31 1 32
REMARK H PARENT
REMARK Flexibility Score: inf
ROOT
ATOM      1  C   UNL     1     -23.866   5.354  23.322  1.00  0.00     0.000 C 
ENDROOT
BRANCH   1   2
ATOM      2  C   UNL     1     -23.947   6.654  22.501  1.00  0.00     0.000 C 
BRANCH   2   3
ATOM      3  C   UNL     1     -22.577   7.334  22.318  1.00  0.00     0.000 C 
BRANCH   3   4
ATOM      4  C   UNL     1     -22.270   7.760  20.869  1.00  0.00     0.000 C 
BRANCH   4   5
ATOM      5  C   UNL     1     -21.086   6.997  20.250  1.00  0.00     0.000 C 
BRANCH   5   6
ATOM      6  C   UNL     1     -21.441   5.551  19.856  1.00  0.00     0.000 C 
BRANCH   6   7
ATOM      7  C   UNL     1     -20.518   4.488  20.484  1.00  0.00     0.000 C 
BRANCH   7   8
ATOM      8  C   UNL     1     -21.155   3.789  21.700  1.00  0.00     0.000 C 
BRANCH   8   9
ATOM      9  C   UNL     1     -20.300   3.922  22.973  1.00  0.00     0.000 C 
BRANCH   9  10
ATOM     10  C   UNL     1     -19.623   5.297  23.154  1.00  0.00     0.000 C 
BRANCH  10  11
ATOM     11  C   UNL     1     -19.709   5.888  24.578  1.00  0.00     0.000 C 
BRANCH  11  12
ATOM     12  C   UNL     1     -20.926   5.434  25.409  1.00  0.00     0.000 C 
BRANCH  12  13
ATOM     13  C   UNL     1     -20.587   4.638  26.686  1.00  0.00     0.006 C 
BRANCH  13  14
ATOM     14  C   UNL     1     -21.758   4.521  27.679  1.00  0.00     0.053 C 
BRANCH  14  15
ATOM     15  C   UNL     1     -21.873   5.716  28.577  1.00  0.00     0.041 C 
ATOM     16  O   UNL     1     -20.944   5.996  29.380  1.00  0.00    -0.550 OA
ATOM     17  O   UNL     1     -22.992   6.539  28.507  1.00  0.00    -0.550 OA
ENDBRANCH  14  15
ENDBRANCH  13  14
ENDBRANCH  12  13
ENDBRANCH  11  12
ENDBRANCH  10  11
ENDBRANCH   9  10
ENDBRANCH   8   9
ENDBRANCH   7   8
ENDBRANCH   6   7
ENDBRANCH   5   6
ENDBRANCH   4   5
ENDBRANCH   3   4
ENDBRANCH   2   3
ENDBRANCH   1   2
BRANCH   1  18
ATOM     18  C   UNL     1     -25.121   5.106  24.179  1.00  0.00     0.000 C 
BRANCH  18  19
ATOM     19  C   UNL     1     -24.852   4.714  25.647  1.00  0.00     0.000 C 
BRANCH  19  20
ATOM     20  C   UNL     1     -25.118   3.226  25.941  1.00  0.00     0.000 C 
BRANCH  20  21
ATOM     21  C   UNL     1     -23.857   2.353  25.752  1.00  0.00     0.000 C 
BRANCH  21  22
ATOM     22  C   UNL     1     -24.132   1.013  25.044  1.00  0.00     0.000 C 
BRANCH  22  23
ATOM     23  C   UNL     1     -24.744   1.195  23.647  1.00  0.00     0.000 C 
BRANCH  23  24
ATOM     24  C   UNL     1     -23.669   1.443  22.567  1.00  0.00    -0.000 C 
BRANCH  24  25
ATOM     25  C   UNL     1     -22.446   0.521  22.705  1.00  0.00    -0.000 C 
BRANCH  25  26
ATOM     26  C   UNL     1     -21.920   0.031  21.345  1.00  0.00    -0.000 C 
BRANCH  26  27
ATOM     27  C   UNL     1     -21.099  -1.265  21.459  1.00  0.00    -0.000 C 
BRANCH  27  28
ATOM     28  C   UNL     1     -19.800  -1.085  22.261  1.00  0.00    -0.000 C 
BRANCH  28  29
ATOM     29  C   UNL     1     -18.569  -1.233  21.351  1.00  0.00    -0.000 C 
BRANCH  29  30
ATOM     30  C   UNL     1     -17.673   0.020  21.335  1.00  0.00    -0.000 C 
BRANCH  30  31
ATOM     31  C   UNL     1     -18.397   1.333  20.991  1.00  0.00    -0.003 C 
ATOM     32  C   UNL     1     -17.443   2.514  20.814  1.00  0.00     0.004 C 
ENDBRANCH  30  31
ENDBRANCH  29  30
ENDBRANCH  28  29
ENDBRANCH  27  28
ENDBRANCH  26  27
ENDBRANCH  25  26
ENDBRANCH  24  25
ENDBRANCH  23  24
ENDBRANCH  22  23
ENDBRANCH  21  22
ENDBRANCH  20  21
ENDBRANCH  19  20
ENDBRANCH  18  19
ENDBRANCH   1  18
TORSDOF 28
ENDMDL
MODEL 4
REMARK VINA RESULT:    -3.686      3.189      6.777
REMARK INTER + INTRA:         -14.896
REMARK INTER:                  -8.484
REMARK INTRA:                  -6.412
REMARK UNBOUND:                -5.177
REMARK SMILES CCCCCCCCCCCCCCCCCCCCCCCCCCCCCC(=O)[O-]
REMARK SMILES IDX 16 1 17 2 18 3 19 4 20 5 21 6 22 7 23 8 24 9 25 10 26 11
REMARK SMILES IDX 27 12 28 13 29 14 30 15 31 16 32 17 15 18 14 19 13 20 12 21
REMARK SMILES IDX 11 22 10 23 9 24 8 25 7 26 6 27 5 28 4 29 3 30 2 31 1 32
REMARK H PARENT
REMARK Flexibility Score: inf
ROOT
ATOM      1  C   UNL     1     -23.313   3.045  24.905  1.00  0.00     0.000 C 
ENDROOT
BRANCH   1   2
ATOM      2  C   UNL     1     -24.644   2.281  24.781  1.00  0.00     0.000 C 
BRANCH   2   3
ATOM      3  C   UNL     1     -24.725   1.417  23.509  1.00  0.00     0.000 C 
BRANCH   3   4
ATOM      4  C   UNL     1     -23.557   1.628  22.525  1.00  0.00     0.000 C 
BRANCH   4   5
ATOM      5  C   UNL     1     -22.712   0.361  22.305  1.00  0.00     0.000 C 
BRANCH   5   6
ATOM      6  C   UNL     1     -22.905  -0.691  23.412  1.00  0.00     0.000 C 
BRANCH   6   7
ATOM      7  C   UNL     1     -22.025  -0.458  24.657  1.00  0.00     0.000 C 
BRANCH   7   8
ATOM      8  C   UNL     1     -20.698   0.249  24.324  1.00  0.00     0.000 C 
BRANCH   8   9
ATOM      9  C   UNL     1     -19.748   0.322  25.533  1.00  0.00     0.000 C 
BRANCH   9  10
ATOM     10  C   UNL     1     -19.829   1.636  26.337  1.00  0.00     0.000 C 
BRANCH  10  11
ATOM     11  C   UNL     1     -20.761   1.597  27.567  1.00  0.00     0.000 C 
BRANCH  11  12
ATOM     12  C   UNL     1     -21.446   2.933  27.919  1.00  0.00     0.000 C 
BRANCH  12  13
ATOM     13  C   UNL     1     -20.717   4.195  27.412  1.00  0.00     0.006 C 
BRANCH  13  14
ATOM     14  C   UNL     1     -21.459   5.510  27.718  1.00  0.00     0.053 C 
BRANCH  14  15
ATOM     15  C   UNL     1     -21.855   5.625  29.160  1.00  0.00     0.041 C 
ATOM     16  O   UNL     1     -20.974   5.764  30.049  1.00  0.00    -0.550 OA
ATOM     17  O   UNL     1     -23.199   5.611  29.519  1.00  0.00    -0.550 OA
ENDBRANCH  14  15
ENDBRANCH  13  14
ENDBRANCH  12  13
ENDBRANCH  11  12
ENDBRANCH  10  11
ENDBRANCH   9  10
ENDBRANCH   8   9
ENDBRANCH   7   8
ENDBRANCH   6   7
ENDBRANCH   5   6
ENDBRANCH   4   5
ENDBRANCH   3   4
ENDBRANCH   2   3
ENDBRANCH   1   2
BRANCH   1  18
ATOM     18  C   UNL     1     -23.495   4.574  24.888  1.00  0.00     0.000 C 
BRANCH  18  19
ATOM     19  C   UNL     1     -24.884   5.070  24.435  1.00  0.00     0.000 C 
BRANCH  19  20
ATOM     20  C   UNL     1     -24.824   6.072  23.267  1.00  0.00     0.000 C 
BRANCH  20  21
ATOM     21  C   UNL     1     -23.478   6.018  22.510  1.00  0.00     0.000 C 
BRANCH  21  22
ATOM     22  C   UNL     1     -22.942   7.402  22.102  1.00  0.00     0.000 C 
BRANCH  22  23
ATOM     23  C   UNL     1     -21.487   7.628  22.540  1.00  0.00     0.000 C 
BRANCH  23  24
ATOM     24  C   UNL     1     -21.027   6.594  23.591  1.00  0.00    -0.000 C 
BRANCH  24  25
ATOM     25  C   UNL     1     -19.509   6.346  23.573  1.00  0.00    -0.000 C 
BRANCH  25  26
ATOM     26  C   UNL     1     -19.129   4.984  24.180  1.00  0.00    -0.000 C 
BRANCH  26  27
ATOM     27  C   UNL     1     -19.958   3.825  23.602  1.00  0.00    -0.000 C 
BRANCH  27  28
ATOM     28  C   UNL     1     -19.223   3.054  22.493  1.00  0.00    -0.000 C 
BRANCH  28  29
ATOM     29  C   UNL     1     -20.165   2.757  21.315  1.00  0.00    -0.000 C 
BRANCH  29  30
ATOM     30  C   UNL     1     -21.071   3.946  20.947  1.00  0.00    -0.000 C 
BRANCH  30  31
ATOM     31  C   UNL     1     -20.378   5.073  20.161  1.00  0.00    -0.003 C 
ATOM     32  C   UNL     1     -21.320   5.799  19.200  1.00  0.00     0.004 C 
ENDBRANCH  30  31
ENDBRANCH  29  30
ENDBRANCH  28  29
ENDBRANCH  27  28
ENDBRANCH  26  27
ENDBRANCH  25  26
ENDBRANCH  24  25
ENDBRANCH  23  24
ENDBRANCH  22  23
ENDBRANCH  21  22
ENDBRANCH  20  21
ENDBRANCH  19  20
ENDBRANCH  18  19
ENDBRANCH   1  18
TORSDOF 28
ENDMDL
MODEL 5
REMARK VINA RESULT:    -3.673      2.607      4.417
REMARK INTER + INTRA:         -14.861
REMARK INTER:                  -8.229
REMARK INTRA:                  -6.632
REMARK UNBOUND:                -5.177
REMARK SMILES CCCCCCCCCCCCCCCCCCCCCCCCCCCCCC(=O)[O-]
REMARK SMILES IDX 16 1 17 2 18 3 19 4 20 5 21 6 22 7 23 8 24 9 25 10 26 11
REMARK SMILES IDX 27 12 28 13 29 14 30 15 31 16 32 17 15 18 14 19 13 20 12 21
REMARK SMILES IDX 11 22 10 23 9 24 8 25 7 26 6 27 5 28 4 29 3 30 2 31 1 32
REMARK H PARENT
REMARK Flexibility Score: inf
ROOT
ATOM      1  C   UNL     1     -25.125   3.669  25.348  1.00  0.00     0.000 C 
ENDROOT
BRANCH   1   2
ATOM      2  C   UNL     1     -25.099   5.093  24.763  1.00  0.00     0.000 C 
BRANCH   2   3
ATOM      3  C   UNL     1     -24.271   5.196  23.467  1.00  0.00     0.000 C 
BRANCH   3   4
ATOM      4  C   UNL     1     -24.186   6.619  22.882  1.00  0.00     0.000 C 
BRANCH   4   5
ATOM      5  C   UNL     1     -23.058   6.783  21.848  1.00  0.00     0.000 C 
BRANCH   5   6
ATOM      6  C   UNL     1     -22.500   5.438  21.347  1.00  0.00     0.000 C 
BRANCH   6   7
ATOM      7  C   UNL     1     -21.446   5.577  20.230  1.00  0.00     0.000 C 
BRANCH   7   8
ATOM      8  C   UNL     1     -20.174   4.752  20.505  1.00  0.00     0.000 C 
BRANCH   8   9
ATOM      9  C   UNL     1     -19.840   4.664  22.005  1.00  0.00     0.000 C 
BRANCH   9  10
ATOM     10  C   UNL     1     -19.121   5.903  22.579  1.00  0.00     0.000 C 
BRANCH  10  11
ATOM     11  C   UNL     1     -19.476   6.249  24.041  1.00  0.00     0.000 C 
BRANCH  11  12
ATOM     12  C   UNL     1     -20.829   5.702  24.539  1.00  0.00     0.000 C 
BRANCH  12  13
ATOM     13  C   UNL     1     -20.756   4.837  25.814  1.00  0.00     0.006 C 
BRANCH  13  14
ATOM     14  C   UNL     1     -21.984   4.974  26.733  1.00  0.00     0.053 C 
BRANCH  14  15
ATOM     15  C   UNL     1     -22.068   3.876  27.751  1.00  0.00     0.041 C 
ATOM     16  O   UNL     1     -22.722   4.047  28.813  1.00  0.00    -0.550 OA
ATOM     17  O   UNL     1     -21.449   2.653  27.514  1.00  0.00    -0.550 OA
ENDBRANCH  14  15
ENDBRANCH  13  14
ENDBRANCH  12  13
ENDBRANCH  11  12
ENDBRANCH  10  11
ENDBRANCH   9  10
ENDBRANCH   8   9
ENDBRANCH   7   8
ENDBRANCH   6   7
ENDBRANCH   5   6
ENDBRANCH   4   5
ENDBRANCH   3   4
ENDBRANCH   2   3
ENDBRANCH   1   2
BRANCH   1  18
ATOM     18  C   UNL     1     -24.702   2.594  24.329  1.00  0.00     0.000 C 
BRANCH  18  19
ATOM     19  C   UNL     1     -23.363   1.888  24.630  1.00  0.00     0.000 C 
BRANCH  19  20
ATOM     20  C   UNL     1     -22.239   2.266  23.648  1.00  0.00     0.000 C 
BRANCH  20  21
ATOM     21  C   UNL     1     -22.497   1.731  22.221  1.00  0.00     0.000 C 
BRANCH  21  22
ATOM     22  C   UNL     1     -21.216   1.315  21.475  1.00  0.00     0.000 C 
BRANCH  22  23
ATOM     23  C   UNL     1     -21.100  -0.205  21.295  1.00  0.00     0.000 C 
BRANCH  23  24
ATOM     24  C   UNL     1     -22.445  -0.926  21.538  1.00  0.00    -0.000 C 
BRANCH  24  25
ATOM     25  C   UNL     1     -22.429  -1.838  22.776  1.00  0.00    -0.000 C 
BRANCH  25  26
ATOM     26  C   UNL     1     -21.083  -2.561  22.958  1.00  0.00    -0.000 C 
BRANCH  26  27
ATOM     27  C   UNL     1     -20.405  -2.223  24.297  1.00  0.00    -0.000 C 
BRANCH  27  28
ATOM     28  C   UNL     1     -20.992  -0.971  24.968  1.00  0.00    -0.000 C 
BRANCH  28  29
ATOM     29  C   UNL     1     -19.873  -0.050  25.484  1.00  0.00    -0.000 C 
BRANCH  29  30
ATOM     30  C   UNL     1     -19.011   0.548  24.357  1.00  0.00    -0.000 C 
BRANCH  30  31
ATOM     31  C   UNL     1     -18.725   2.054  24.487  1.00  0.00    -0.003 C 
ATOM     32  C   UNL     1     -17.434   2.481  23.788  1.00  0.00     0.004 C 
ENDBRANCH  30  31
ENDBRANCH  29  30
ENDBRANCH  28  29
ENDBRANCH  27  28
ENDBRANCH  26  27
ENDBRANCH  25  26
ENDBRANCH  24  25
ENDBRANCH  23  24
ENDBRANCH  22  23
ENDBRANCH  21  22
ENDBRANCH  20  21
ENDBRANCH  19  20
ENDBRANCH  18  19
ENDBRANCH   1  18
TORSDOF 28
ENDMDL
MODEL 6
REMARK VINA RESULT:    -3.632      2.114      3.642
REMARK INTER + INTRA:         -14.754
REMARK INTER:                  -8.813
REMARK INTRA:                  -5.941
REMARK UNBOUND:                -5.177
REMARK SMILES CCCCCCCCCCCCCCCCCCCCCCCCCCCCCC(=O)[O-]
REMARK SMILES IDX 16 1 17 2 18 3 19 4 20 5 21 6 22 7 23 8 24 9 25 10 26 11
REMARK SMILES IDX 27 12 28 13 29 14 30 15 31 16 32 17 15 18 14 19 13 20 12 21
REMARK SMILES IDX 11 22 10 23 9 24 8 25 7 26 6 27 5 28 4 29 3 30 2 31 1 32
REMARK H PARENT
REMARK Flexibility Score: inf
ROOT
ATOM      1  C   UNL     1     -23.346   4.758  25.847  1.00  0.00     0.000 C 
ENDROOT
BRANCH   1   2
ATOM      2  C   UNL     1     -24.271   4.777  24.616  1.00  0.00     0.000 C 
BRANCH   2   3
ATOM      3  C   UNL     1     -23.542   5.190  23.323  1.00  0.00     0.000 C 
BRANCH   3   4
ATOM      4  C   UNL     1     -24.070   6.491  22.687  1.00  0.00     0.000 C 
BRANCH   4   5
ATOM      5  C   UNL     1     -22.957   7.372  22.094  1.00  0.00     0.000 C 
BRANCH   5   6
ATOM      6  C   UNL     1     -21.614   7.224  22.832  1.00  0.00     0.000 C 
BRANCH   6   7
ATOM      7  C   UNL     1     -20.486   6.631  21.964  1.00  0.00     0.000 C 
BRANCH   7   8
ATOM      8  C   UNL     1     -20.925   6.375  20.510  1.00  0.00     0.000 C 
BRANCH   8   9
ATOM      9  C   UNL     1     -20.503   4.985  20.001  1.00  0.00     0.000 C 
BRANCH   9  10
ATOM     10  C   UNL     1     -20.865   3.817  20.942  1.00  0.00     0.000 C 
BRANCH  10  11
ATOM     11  C   UNL     1     -19.687   2.900  21.334  1.00  0.00     0.000 C 
BRANCH  11  12
ATOM     12  C   UNL     1     -19.273   2.956  22.819  1.00  0.00     0.000 C 
BRANCH  12  13
ATOM     13  C   UNL     1     -20.394   3.370  23.795  1.00  0.00     0.006 C 
BRANCH  13  14
ATOM     14  C   UNL     1     -20.529   2.444  25.018  1.00  0.00     0.053 C 
BRANCH  14  15
ATOM     15  C   UNL     1     -19.837   2.988  26.232  1.00  0.00     0.041 C 
ATOM     16  O   UNL     1     -19.640   2.250  27.233  1.00  0.00    -0.550 OA
ATOM     17  O   UNL     1     -19.381   4.302  26.247  1.00  0.00    -0.550 OA
ENDBRANCH  14  15
ENDBRANCH  13  14
ENDBRANCH  12  13
ENDBRANCH  11  12
ENDBRANCH  10  11
ENDBRANCH   9  10
ENDBRANCH   8   9
ENDBRANCH   7   8
ENDBRANCH   6   7
ENDBRANCH   5   6
ENDBRANCH   4   5
ENDBRANCH   3   4
ENDBRANCH   2   3
ENDBRANCH   1   2
BRANCH   1  18
ATOM     18  C   UNL     1     -23.568   3.529  26.747  1.00  0.00     0.000 C 
BRANCH  18  19
ATOM     19  C   UNL     1     -24.496   2.442  26.164  1.00  0.00     0.000 C 
BRANCH  19  20
ATOM     20  C   UNL     1     -23.882   1.030  26.201  1.00  0.00     0.000 C 
BRANCH  20  21
ATOM     21  C   UNL     1     -23.658   0.446  24.789  1.00  0.00     0.000 C 
BRANCH  21  22
ATOM     22  C   UNL     1     -24.482   1.145  23.692  1.00  0.00     0.000 C 
BRANCH  22  23
ATOM     23  C   UNL     1     -23.632   1.557  22.481  1.00  0.00     0.000 C 
BRANCH  23  24
ATOM     24  C   UNL     1     -22.336   0.723  22.368  1.00  0.00    -0.000 C 
BRANCH  24  25
ATOM     25  C   UNL     1     -22.529  -0.595  21.599  1.00  0.00    -0.000 C 
BRANCH  25  26
ATOM     26  C   UNL     1     -21.311  -1.528  21.716  1.00  0.00    -0.000 C 
BRANCH  26  27
ATOM     27  C   UNL     1     -20.513  -1.302  23.012  1.00  0.00    -0.000 C 
BRANCH  27  28
ATOM     28  C   UNL     1     -19.075  -0.824  22.757  1.00  0.00    -0.000 C 
BRANCH  28  29
ATOM     29  C   UNL     1     -18.631  -1.162  21.324  1.00  0.00    -0.000 C 
BRANCH  29  30
ATOM     30  C   UNL     1     -17.120  -0.968  21.095  1.00  0.00    -0.000 C 
BRANCH  30  31
ATOM     31  C   UNL     1     -16.589   0.439  21.420  1.00  0.00    -0.003 C 
ATOM     32  C   UNL     1     -16.510   1.346  20.192  1.00  0.00     0.004 C 
ENDBRANCH  30  31
ENDBRANCH  29  30
ENDBRANCH  28  29
ENDBRANCH  27  28
ENDBRANCH  26  27
ENDBRANCH  25  26
ENDBRANCH  24  25
ENDBRANCH  23  24
ENDBRANCH  22  23
ENDBRANCH  21  22
ENDBRANCH  20  21
ENDBRANCH  19  20
ENDBRANCH  18  19
ENDBRANCH   1  18
TORSDOF 28
ENDMDL
MODEL 7
REMARK VINA RESULT:    -3.595      2.424      5.836
REMARK INTER + INTRA:         -14.655
REMARK INTER:                  -8.982
REMARK INTRA:                  -5.674
REMARK UNBOUND:                -5.177
REMARK SMILES CCCCCCCCCCCCCCCCCCCCCCCCCCCCCC(=O)[O-]
REMARK SMILES IDX 16 1 17 2 18 3 19 4 20 5 21 6 22 7 23 8 24 9 25 10 26 11
REMARK SMILES IDX 27 12 28 13 29 14 30 15 31 16 32 17 15 18 14 19 13 20 12 21
REMARK SMILES IDX 11 22 10 23 9 24 8 25 7 26 6 27 5 28 4 29 3 30 2 31 1 32
REMARK H PARENT
REMARK Flexibility Score: inf
ROOT
ATOM      1  C   UNL     1     -20.456   4.836  20.487  1.00  0.00     0.000 C 
ENDROOT
BRANCH   1   2
ATOM      2  C   UNL     1     -21.548   5.497  19.626  1.00  0.00     0.000 C 
BRANCH   2   3
ATOM      3  C   UNL     1     -21.309   7.002  19.405  1.00  0.00     0.000 C 
BRANCH   3   4
ATOM      4  C   UNL     1     -22.081   7.915  20.379  1.00  0.00     0.000 C 
BRANCH   4   5
ATOM      5  C   UNL     1     -21.406   8.041  21.756  1.00  0.00     0.000 C 
BRANCH   5   6
ATOM      6  C   UNL     1     -22.180   7.321  22.875  1.00  0.00     0.000 C 
BRANCH   6   7
ATOM      7  C   UNL     1     -23.623   6.936  22.489  1.00  0.00     0.000 C 
BRANCH   7   8
ATOM      8  C   UNL     1     -23.999   5.511  22.936  1.00  0.00     0.000 C 
BRANCH   8   9
ATOM      9  C   UNL     1     -25.112   5.500  23.999  1.00  0.00     0.000 C 
BRANCH   9  10
ATOM     10  C   UNL     1     -24.850   4.564  25.197  1.00  0.00     0.000 C 
BRANCH  10  11
ATOM     11  C   UNL     1     -23.420   4.623  25.776  1.00  0.00     0.000 C 
BRANCH  11  12
ATOM     12  C   UNL     1     -23.310   5.198  27.203  1.00  0.00     0.000 C 
BRANCH  12  13
ATOM     13  C   UNL     1     -22.506   4.332  28.196  1.00  0.00     0.006 C 
BRANCH  13  14
ATOM     14  C   UNL     1     -21.117   3.915  27.679  1.00  0.00     0.053 C 
BRANCH  14  15
ATOM     15  C   UNL     1     -20.153   5.062  27.628  1.00  0.00     0.041 C 
ATOM     16  O   UNL     1     -19.769   5.612  28.694  1.00  0.00    -0.550 OA
ATOM     17  O   UNL     1     -19.653   5.503  26.407  1.00  0.00    -0.550 OA
ENDBRANCH  14  15
ENDBRANCH  13  14
ENDBRANCH  12  13
ENDBRANCH  11  12
ENDBRANCH  10  11
ENDBRANCH   9  10
ENDBRANCH   8   9
ENDBRANCH   7   8
ENDBRANCH   6   7
ENDBRANCH   5   6
ENDBRANCH   4   5
ENDBRANCH   3   4
ENDBRANCH   2   3
ENDBRANCH   1   2
BRANCH   1  18
ATOM     18  C   UNL     1     -21.025   3.850  21.525  1.00  0.00     0.000 C 
BRANCH  18  19
ATOM     19  C   UNL     1     -20.587   4.101  22.983  1.00  0.00     0.000 C 
BRANCH  19  20
ATOM     20  C   UNL     1     -19.060   4.058  23.179  1.00  0.00     0.000 C 
BRANCH  20  21
ATOM     21  C   UNL     1     -18.511   2.615  23.225  1.00  0.00     0.000 C 
BRANCH  21  22
ATOM     22  C   UNL     1     -17.668   2.234  21.993  1.00  0.00     0.000 C 
BRANCH  22  23
ATOM     23  C   UNL     1     -18.435   1.347  21.001  1.00  0.00     0.000 C 
BRANCH  23  24
ATOM     24  C   UNL     1     -19.063   0.113  21.685  1.00  0.00    -0.000 C 
BRANCH  24  25
ATOM     25  C   UNL     1     -20.560  -0.057  21.375  1.00  0.00    -0.000 C 
BRANCH  25  26
ATOM     26  C   UNL     1     -21.455   0.326  22.566  1.00  0.00    -0.000 C 
BRANCH  26  27
ATOM     27  C   UNL     1     -22.875   0.730  22.135  1.00  0.00    -0.000 C 
BRANCH  27  28
ATOM     28  C   UNL     1     -23.502   1.793  23.052  1.00  0.00    -0.000 C 
BRANCH  28  29
ATOM     29  C   UNL     1     -24.841   1.302  23.625  1.00  0.00    -0.000 C 
BRANCH  29  30
ATOM     30  C   UNL     1     -24.682   0.472  24.913  1.00  0.00    -0.000 C 
BRANCH  30  31
ATOM     31  C   UNL     1     -23.534   0.918  25.835  1.00  0.00    -0.003 C 
ATOM     32  C   UNL     1     -23.984   1.156  27.277  1.00  0.00     0.004 C 
ENDBRANCH  30  31
ENDBRANCH  29  30
ENDBRANCH  28  29
ENDBRANCH  27  28
ENDBRANCH  26  27
ENDBRANCH  25  26
ENDBRANCH  24  25
ENDBRANCH  23  24
ENDBRANCH  22  23
ENDBRANCH  21  22
ENDBRANCH  20  21
ENDBRANCH  19  20
ENDBRANCH  18  19
ENDBRANCH   1  18
TORSDOF 28
ENDMDL
MODEL 8
REMARK VINA RESULT:    -3.571      1.517      5.400
REMARK INTER + INTRA:         -14.592
REMARK INTER:                  -8.701
REMARK INTRA:                  -5.891
REMARK UNBOUND:                -5.177
REMARK SMILES CCCCCCCCCCCCCCCCCCCCCCCCCCCCCC(=O)[O-]
REMARK SMILES IDX 16 1 17 2 18 3 19 4 20 5 21 6 22 7 23 8 24 9 25 10 26 11
REMARK SMILES IDX 27 12 28 13 29 14 30 15 31 16 32 17 15 18 14 19 13 20 12 21
REMARK SMILES IDX 11 22 10 23 9 24 8 25 7 26 6 27 5 28 4 29 3 30 2 31 1 32
REMARK H PARENT
REMARK Flexibility Score: inf
ROOT
ATOM      1  C   UNL     1     -22.393   3.426  26.370  1.00  0.00     0.000 C 
ENDROOT
BRANCH   1   2
ATOM      2  C   UNL     1     -23.356   2.620  27.262  1.00  0.00     0.000 C 
BRANCH   2   3
ATOM      3  C   UNL     1     -23.525   1.161  26.797  1.00  0.00     0.000 C 
BRANCH   3   4
ATOM      4  C   UNL     1     -24.967   0.785  26.404  1.00  0.00     0.000 C 
BRANCH   4   5
ATOM      5  C   UNL     1     -25.118   0.436  24.913  1.00  0.00     0.000 C 
BRANCH   5   6
ATOM      6  C   UNL     1     -24.877   1.640  23.984  1.00  0.00     0.000 C 
BRANCH   6   7
ATOM      7  C   UNL     1     -23.867   1.364  22.852  1.00  0.00     0.000 C 
BRANCH   7   8
ATOM      8  C   UNL     1     -22.730   0.420  23.285  1.00  0.00     0.000 C 
BRANCH   8   9
ATOM      9  C   UNL     1     -22.655  -0.851  22.420  1.00  0.00     0.000 C 
BRANCH   9  10
ATOM     10  C   UNL     1     -21.996  -0.652  21.039  1.00  0.00     0.000 C 
BRANCH  10  11
ATOM     11  C   UNL     1     -20.461  -0.817  21.014  1.00  0.00     0.000 C 
BRANCH  11  12
ATOM     12  C   UNL     1     -19.673   0.222  21.837  1.00  0.00     0.000 C 
BRANCH  12  13
ATOM     13  C   UNL     1     -18.616   1.019  21.044  1.00  0.00     0.006 C 
BRANCH  13  14
ATOM     14  C   UNL     1     -17.505   1.626  21.921  1.00  0.00     0.053 C 
BRANCH  14  15
ATOM     15  C   UNL     1     -16.524   0.599  22.401  1.00  0.00     0.041 C 
ATOM     16  O   UNL     1     -15.882   0.787  23.468  1.00  0.00    -0.550 OA
ATOM     17  O   UNL     1     -16.340  -0.581  21.688  1.00  0.00    -0.550 OA
ENDBRANCH  14  15
ENDBRANCH  13  14
ENDBRANCH  12  13
ENDBRANCH  11  12
ENDBRANCH  10  11
ENDBRANCH   9  10
ENDBRANCH   8   9
ENDBRANCH   7   8
ENDBRANCH   6   7
ENDBRANCH   5   6
ENDBRANCH   4   5
ENDBRANCH   3   4
ENDBRANCH   2   3
ENDBRANCH   1   2
BRANCH   1  18
ATOM     18  C   UNL     1     -23.001   4.752  25.876  1.00  0.00     0.000 C 
BRANCH  18  19
ATOM     19  C   UNL     1     -24.540   4.781  25.785  1.00  0.00     0.000 C 
BRANCH  19  20
ATOM     20  C   UNL     1     -25.063   5.261  24.419  1.00  0.00     0.000 C 
BRANCH  20  21
ATOM     21  C   UNL     1     -23.947   5.336  23.353  1.00  0.00     0.000 C 
BRANCH  21  22
ATOM     22  C   UNL     1     -23.987   6.621  22.505  1.00  0.00     0.000 C 
BRANCH  22  23
ATOM     23  C   UNL     1     -22.651   7.378  22.512  1.00  0.00     0.000 C 
BRANCH  23  24
ATOM     24  C   UNL     1     -21.988   7.403  21.117  1.00  0.00    -0.000 C 
BRANCH  24  25
ATOM     25  C   UNL     1     -22.098   6.065  20.368  1.00  0.00    -0.000 C 
BRANCH  25  26
ATOM     26  C   UNL     1     -20.742   5.581  19.823  1.00  0.00    -0.000 C 
BRANCH  26  27
ATOM     27  C   UNL     1     -20.196   4.364  20.589  1.00  0.00    -0.000 C 
BRANCH  27  28
ATOM     28  C   UNL     1     -21.285   3.605  21.365  1.00  0.00    -0.000 C 
BRANCH  28  29
ATOM     29  C   UNL     1     -20.918   3.492  22.855  1.00  0.00    -0.000 C 
BRANCH  29  30
ATOM     30  C   UNL     1     -20.195   4.738  23.398  1.00  0.00    -0.000 C 
BRANCH  30  31
ATOM     31  C   UNL     1     -18.990   4.445  24.310  1.00  0.00    -0.003 C 
ATOM     32  C   UNL     1     -19.009   3.029  24.887  1.00  0.00     0.004 C 
ENDBRANCH  30  31
ENDBRANCH  29  30
ENDBRANCH  28  29
ENDBRANCH  27  28
ENDBRANCH  26  27
ENDBRANCH  25  26
ENDBRANCH  24  25
ENDBRANCH  23  24
ENDBRANCH  22  23
ENDBRANCH  21  22
ENDBRANCH  20  21
ENDBRANCH  19  20
ENDBRANCH  18  19
ENDBRANCH   1  18
TORSDOF 28
ENDMDL
MODEL 9
REMARK VINA RESULT:    -3.560      2.625      6.541
REMARK INTER + INTRA:         -14.563
REMARK INTER:                  -8.538
REMARK INTRA:                  -6.024
REMARK UNBOUND:                -5.177
REMARK SMILES CCCCCCCCCCCCCCCCCCCCCCCCCCCCCC(=O)[O-]
REMARK SMILES IDX 16 1 17 2 18 3 19 4 20 5 21 6 22 7 23 8 24 9 25 10 26 11
REMARK SMILES IDX 27 12 28 13 29 14 30 15 31 16 32 17 15 18 14 19 13 20 12 21
REMARK SMILES IDX 11 22 10 23 9 24 8 25 7 26 6 27 5 28 4 29 3 30 2 31 1 32
REMARK H PARENT
REMARK Flexibility Score: inf
ROOT
ATOM      1  C   UNL     1     -23.577   1.403  25.737  1.00  0.00     0.000 C 
ENDROOT
BRANCH   1   2
ATOM      2  C   UNL     1     -24.720   1.021  24.779  1.00  0.00     0.000 C 
BRANCH   2   3
ATOM      3  C   UNL     1     -24.694   1.821  23.463  1.00  0.00     0.000 C 
BRANCH   3   4
ATOM      4  C   UNL     1     -23.621   1.355  22.460  1.00  0.00     0.000 C 
BRANCH   4   5
ATOM      5  C   UNL     1     -22.575   2.438  22.143  1.00  0.00     0.000 C 
BRANCH   5   6
ATOM      6  C   UNL     1     -21.486   2.559  23.225  1.00  0.00     0.000 C 
BRANCH   6   7
ATOM      7  C   UNL     1     -20.221   1.728  22.934  1.00  0.00     0.000 C 
BRANCH   7   8
ATOM      8  C   UNL     1     -20.133   1.271  21.466  1.00  0.00     0.000 C 
BRANCH   8   9
ATOM      9  C   UNL     1     -20.051  -0.260  21.328  1.00  0.00     0.000 C 
BRANCH   9  10
ATOM     10  C   UNL     1     -21.249  -0.906  20.602  1.00  0.00     0.000 C 
BRANCH  10  11
ATOM     11  C   UNL     1     -22.242  -1.658  21.515  1.00  0.00     0.000 C 
BRANCH  11  12
ATOM     12  C   UNL     1     -21.972  -1.531  23.028  1.00  0.00     0.000 C 
BRANCH  12  13
ATOM     13  C   UNL     1     -22.230  -2.812  23.848  1.00  0.00     0.006 C 
BRANCH  13  14
ATOM     14  C   UNL     1     -21.941  -2.658  25.353  1.00  0.00     0.053 C 
BRANCH  14  15
ATOM     15  C   UNL     1     -23.158  -2.267  26.136  1.00  0.00     0.041 C 
ATOM     16  O   UNL     1     -24.307  -2.460  25.658  1.00  0.00    -0.550 OA
ATOM     17  O   UNL     1     -23.026  -1.718  27.407  1.00  0.00    -0.550 OA
ENDBRANCH  14  15
ENDBRANCH  13  14
ENDBRANCH  12  13
ENDBRANCH  11  12
ENDBRANCH  10  11
ENDBRANCH   9  10
ENDBRANCH   8   9
ENDBRANCH   7   8
ENDBRANCH   6   7
ENDBRANCH   5   6
ENDBRANCH   4   5
ENDBRANCH   3   4
ENDBRANCH   2   3
ENDBRANCH   1   2
BRANCH   1  18
ATOM     18  C   UNL     1     -23.969   2.516  26.726  1.00  0.00     0.000 C 
BRANCH  18  19
ATOM     19  C   UNL     1     -23.687   3.955  26.246  1.00  0.00     0.000 C 
BRANCH  19  20
ATOM     20  C   UNL     1     -24.963   4.743  25.895  1.00  0.00     0.000 C 
BRANCH  20  21
ATOM     21  C   UNL     1     -24.977   5.219  24.425  1.00  0.00     0.000 C 
BRANCH  21  22
ATOM     22  C   UNL     1     -23.576   5.510  23.855  1.00  0.00     0.000 C 
BRANCH  22  23
ATOM     23  C   UNL     1     -23.614   5.957  22.386  1.00  0.00     0.000 C 
BRANCH  23  24
ATOM     24  C   UNL     1     -22.790   7.241  22.146  1.00  0.00    -0.000 C 
BRANCH  24  25
ATOM     25  C   UNL     1     -21.708   7.074  21.067  1.00  0.00    -0.000 C 
BRANCH  25  26
ATOM     26  C   UNL     1     -21.726   5.675  20.426  1.00  0.00    -0.000 C 
BRANCH  26  27
ATOM     27  C   UNL     1     -20.362   4.968  20.507  1.00  0.00    -0.000 C 
BRANCH  27  28
ATOM     28  C   UNL     1     -19.297   5.800  21.239  1.00  0.00    -0.000 C 
BRANCH  28  29
ATOM     29  C   UNL     1     -18.341   4.893  22.031  1.00  0.00    -0.000 C 
BRANCH  29  30
ATOM     30  C   UNL     1     -18.598   4.920  23.550  1.00  0.00    -0.000 C 
BRANCH  30  31
ATOM     31  C   UNL     1     -19.798   5.777  23.990  1.00  0.00    -0.003 C 
ATOM     32  C   UNL     1     -20.304   5.423  25.389  1.00  0.00     0.004 C 
ENDBRANCH  30  31
ENDBRANCH  29  30
ENDBRANCH  28  29
ENDBRANCH  27  28
ENDBRANCH  26  27
ENDBRANCH  25  26
ENDBRANCH  24  25
ENDBRANCH  23  24
ENDBRANCH  22  23
ENDBRANCH  21  22
ENDBRANCH  20  21
ENDBRANCH  19  20
ENDBRANCH  18  19
ENDBRANCH   1  18
TORSDOF 28
ENDMDL
