MODEL 1
REMARK VINA RESULT:    -2.885      0.000      0.000
REMARK INTER + INTRA:          -5.454
REMARK INTER:                  -4.571
REMARK INTRA:                  -0.883
REMARK UNBOUND:                -0.883
REMARK SMILES CCCCCCCCCCCC(=O)[O-]
REMARK SMILES IDX 7 1 8 2 9 3 10 4 11 5 12 6 13 7 14 8 6 9 5 10 4 11 3 12 2 13
REMARK SMILES IDX 1 14
REMARK H PARENT
REMARK Flexibility Score: inf
ROOT
ATOM      1  C   UNL     1      -9.096 -23.112  20.679  1.00  0.00     0.000 C 
ENDROOT
BRANCH   1   2
ATOM      2  C   UNL     1      -8.638 -22.785  22.109  1.00  0.00     0.000 C 
BRANCH   2   3
ATOM      3  C   UNL     1      -9.695 -22.008  22.908  1.00  0.00     0.000 C 
BRANCH   3   4
ATOM      4  C   UNL     1      -9.281 -20.538  23.082  1.00  0.00     0.006 C 
BRANCH   4   5
ATOM      5  C   UNL     1     -10.383 -19.568  22.637  1.00  0.00     0.053 C 
BRANCH   5   6
ATOM      6  C   UNL     1      -9.820 -18.246  22.213  1.00  0.00     0.041 C 
ATOM      7  O   UNL     1      -9.217 -17.517  23.043  1.00  0.00    -0.550 OA
ATOM      8  O   UNL     1      -9.933 -17.833  20.891  1.00  0.00    -0.550 OA
ENDBRANCH   5   6
ENDBRANCH   4   5
ENDBRANCH   3   4
ENDBRANCH   2   3
ENDBRANCH   1   2
BRANCH   1   9
ATOM      9  C   UNL     1     -10.576 -22.764  20.439  1.00  0.00     0.000 C 
BRANCH   9  10
ATOM     10  C   UNL     1     -10.756 -21.597  19.455  1.00  0.00    -0.000 C 
BRANCH  10  11
ATOM     11  C   UNL     1      -9.477 -21.287  18.662  1.00  0.00    -0.000 C 
BRANCH  11  12
ATOM     12  C   UNL     1      -9.703 -21.484  17.158  1.00  0.00    -0.000 C 
BRANCH  12  13
ATOM     13  C   UNL     1     -10.800 -20.549  16.638  1.00  0.00    -0.003 C 
ATOM     14  C   UNL     1     -10.570 -20.190  15.174  1.00  0.00     0.004 C 
ENDBRANCH  12  13
ENDBRANCH  11  12
ENDBRANCH  10  11
ENDBRANCH   9  10
ENDBRANCH   1   9
TORSDOF 10
ENDMDL
MODEL 2
REMARK VINA RESULT:    -2.873      1.661      2.460
REMARK INTER + INTRA:          -5.435
REMARK INTER:                  -4.658
REMARK INTRA:                  -0.778
REMARK UNBOUND:                -0.883
REMARK SMILES CCCCCCCCCCCC(=O)[O-]
REMARK SMILES IDX 7 1 8 2 9 3 10 4 11 5 12 6 13 7 14 8 6 9 5 10 4 11 3 12 2 13
REMARK SMILES IDX 1 14
REMARK H PARENT
REMARK Flexibility Score: inf
ROOT
ATOM      1  C   UNL     1      -9.938 -21.595  20.050  1.00  0.00     0.000 C 
ENDROOT
BRANCH   1   2
ATOM      2  C   UNL     1     -10.956 -20.467  20.282  1.00  0.00     0.000 C 
BRANCH   2   3
ATOM      3  C   UNL     1     -10.468 -19.110  19.753  1.00  0.00     0.000 C 
BRANCH   3   4
ATOM      4  C   UNL     1     -10.884 -17.972  20.698  1.00  0.00     0.006 C 
BRANCH   4   5
ATOM      5  C   UNL     1     -10.978 -18.433  22.158  1.00  0.00     0.053 C 
BRANCH   5   6
ATOM      6  C   UNL     1      -9.638 -18.437  22.827  1.00  0.00     0.041 C 
ATOM      7  O   UNL     1      -9.085 -17.352  23.147  1.00  0.00    -0.550 OA
ATOM      8  O   UNL     1      -9.014 -19.641  23.127  1.00  0.00    -0.550 OA
ENDBRANCH   5   6
ENDBRANCH   4   5
ENDBRANCH   3   4
ENDBRANCH   2   3
ENDBRANCH   1   2
BRANCH   1   9
ATOM      9  C   UNL     1     -10.445 -22.651  19.051  1.00  0.00     0.000 C 
BRANCH   9  10
ATOM     10  C   UNL     1      -9.989 -22.367  17.611  1.00  0.00    -0.000 C 
BRANCH  10  11
ATOM     11  C   UNL     1     -11.125 -21.835  16.723  1.00  0.00    -0.000 C 
BRANCH  11  12
ATOM     12  C   UNL     1     -10.925 -20.347  16.411  1.00  0.00    -0.000 C 
BRANCH  12  13
ATOM     13  C   UNL     1     -10.750 -20.118  14.905  1.00  0.00    -0.003 C 
ATOM     14  C   UNL     1      -9.296 -20.308  14.484  1.00  0.00     0.004 C 
ENDBRANCH  12  13
ENDBRANCH  11  12
ENDBRANCH  10  11
ENDBRANCH   9  10
ENDBRANCH   1   9
TORSDOF 10
ENDMDL
MODEL 3
REMARK VINA RESULT:    -2.855      2.992      5.661
REMARK INTER + INTRA:          -5.407
REMARK INTER:                  -4.240
REMARK INTRA:                  -1.167
REMARK UNBOUND:                -0.883
REMARK SMILES CCCCCCCCCCCC(=O)[O-]
REMARK SMILES IDX 7 1 8 2 9 3 10 4 11 5 12 6 13 7 14 8 6 9 5 10 4 11 3 12 2 13
REMARK SMILES IDX 1 14
REMARK H PARENT
REMARK Flexibility Score: inf
ROOT
ATOM      1  C   UNL     1     -10.072 -19.222  20.161  1.00  0.00     0.000 C 
ENDROOT
BRANCH   1   2
ATOM      2  C   UNL     1     -11.116 -20.259  19.717  1.00  0.00     0.000 C 
BRANCH   2   3
ATOM      3  C   UNL     1     -10.478 -21.522  19.118  1.00  0.00     0.000 C 
BRANCH   3   4
ATOM      4  C   UNL     1      -9.027 -21.255  18.692  1.00  0.00     0.006 C 
BRANCH   4   5
ATOM      5  C   UNL     1      -8.371 -22.489  18.057  1.00  0.00     0.053 C 
BRANCH   5   6
ATOM      6  C   UNL     1      -6.879 -22.453  18.187  1.00  0.00     0.041 C 
ATOM      7  O   UNL     1      -6.329 -22.756  19.278  1.00  0.00    -0.550 OA
ATOM      8  O   UNL     1      -6.094 -22.117  17.092  1.00  0.00    -0.550 OA
ENDBRANCH   5   6
ENDBRANCH   4   5
ENDBRANCH   3   4
ENDBRANCH   2   3
ENDBRANCH   1   2
BRANCH   1   9
ATOM      9  C   UNL     1     -10.460 -18.519  21.474  1.00  0.00     0.000 C 
BRANCH   9  10
ATOM     10  C   UNL     1     -10.034 -19.316  22.717  1.00  0.00    -0.000 C 
BRANCH  10  11
ATOM     11  C   UNL     1     -11.058 -20.390  23.113  1.00  0.00    -0.000 C 
BRANCH  11  12
ATOM     12  C   UNL     1     -10.356 -21.676  23.567  1.00  0.00    -0.000 C 
BRANCH  12  13
ATOM     13  C   UNL     1      -8.882 -21.676  23.147  1.00  0.00    -0.003 C 
ATOM     14  C   UNL     1      -8.613 -22.734  22.081  1.00  0.00     0.004 C 
ENDBRANCH  12  13
ENDBRANCH  11  12
ENDBRANCH  10  11
ENDBRANCH   9  10
ENDBRANCH   1   9
TORSDOF 10
ENDMDL
MODEL 4
REMARK VINA RESULT:    -2.850      3.204      5.782
REMARK INTER + INTRA:          -5.399
REMARK INTER:                  -4.428
REMARK INTRA:                  -0.970
REMARK UNBOUND:                -0.883
REMARK SMILES CCCCCCCCCCCC(=O)[O-]
REMARK SMILES IDX 7 1 8 2 9 3 10 4 11 5 12 6 13 7 14 8 6 9 5 10 4 11 3 12 2 13
REMARK SMILES IDX 1 14
REMARK H PARENT
REMARK Flexibility Score: inf
ROOT
ATOM      1  C   UNL     1     -10.234 -20.012  19.350  1.00  0.00     0.000 C 
ENDROOT
BRANCH   1   2
ATOM      2  C   UNL     1     -11.124 -21.211  18.988  1.00  0.00     0.000 C 
BRANCH   2   3
ATOM      3  C   UNL     1     -10.313 -22.461  18.616  1.00  0.00     0.000 C 
BRANCH   3   4
ATOM      4  C   UNL     1      -8.806 -22.163  18.634  1.00  0.00     0.006 C 
BRANCH   4   5
ATOM      5  C   UNL     1      -8.023 -23.068  17.674  1.00  0.00     0.053 C 
BRANCH   5   6
ATOM      6  C   UNL     1      -6.863 -22.350  17.056  1.00  0.00     0.041 C 
ATOM      7  O   UNL     1      -5.811 -22.154  17.720  1.00  0.00    -0.550 OA
ATOM      8  O   UNL     1      -6.931 -21.927  15.735  1.00  0.00    -0.550 OA
ENDBRANCH   5   6
ENDBRANCH   4   5
ENDBRANCH   3   4
ENDBRANCH   2   3
ENDBRANCH   1   2
BRANCH   1   9
ATOM      9  C   UNL     1     -10.937 -19.015  20.289  1.00  0.00     0.000 C 
BRANCH   9  10
ATOM     10  C   UNL     1      -9.944 -18.157  21.089  1.00  0.00    -0.000 C 
BRANCH  10  11
ATOM     11  C   UNL     1      -9.845 -18.582  22.562  1.00  0.00    -0.000 C 
BRANCH  11  12
ATOM     12  C   UNL     1     -10.502 -19.949  22.784  1.00  0.00    -0.000 C 
BRANCH  12  13
ATOM     13  C   UNL     1      -9.459 -21.010  23.153  1.00  0.00    -0.003 C 
ATOM     14  C   UNL     1      -9.603 -22.253  22.281  1.00  0.00     0.004 C 
ENDBRANCH  12  13
ENDBRANCH  11  12
ENDBRANCH  10  11
ENDBRANCH   9  10
ENDBRANCH   1   9
TORSDOF 10
ENDMDL
MODEL 5
REMARK VINA RESULT:    -2.786      2.821      5.208
REMARK INTER + INTRA:          -5.298
REMARK INTER:                  -4.219
REMARK INTRA:                  -1.079
REMARK UNBOUND:                -0.883
REMARK SMILES CCCCCCCCCCCC(=O)[O-]
REMARK SMILES IDX 7 1 8 2 9 3 10 4 11 5 12 6 13 7 14 8 6 9 5 10 4 11 3 12 2 13
REMARK SMILES IDX 1 14
REMARK H PARENT
REMARK Flexibility Score: inf
ROOT
ATOM      1  C   UNL     1      -8.775 -23.103  21.198  1.00  0.00     0.000 C 
ENDROOT
BRANCH   1   2
ATOM      2  C   UNL     1     -10.259 -23.065  20.800  1.00  0.00     0.000 C 
BRANCH   2   3
ATOM      3  C   UNL     1     -10.514 -22.225  19.540  1.00  0.00     0.000 C 
BRANCH   3   4
ATOM      4  C   UNL     1      -9.203 -21.636  18.998  1.00  0.00     0.006 C 
BRANCH   4   5
ATOM      5  C   UNL     1      -8.964 -22.004  17.528  1.00  0.00     0.053 C 
BRANCH   5   6
ATOM      6  C   UNL     1      -7.522 -22.304  17.258  1.00  0.00     0.041 C 
ATOM      7  O   UNL     1      -7.123 -22.495  16.080  1.00  0.00    -0.550 OA
ATOM      8  O   UNL     1      -6.611 -22.341  18.306  1.00  0.00    -0.550 OA
ENDBRANCH   5   6
ENDBRANCH   4   5
ENDBRANCH   3   4
ENDBRANCH   2   3
ENDBRANCH   1   2
BRANCH   1   9
ATOM      9  C   UNL     1      -8.565 -22.936  22.713  1.00  0.00     0.000 C 
BRANCH   9  10
ATOM     10  C   UNL     1      -9.549 -21.933  23.337  1.00  0.00    -0.000 C 
BRANCH  10  11
ATOM     11  C   UNL     1      -9.207 -20.475  22.996  1.00  0.00    -0.000 C 
BRANCH  11  12
ATOM     12  C   UNL     1     -10.456 -19.711  22.541  1.00  0.00    -0.000 C 
BRANCH  12  13
ATOM     13  C   UNL     1     -10.110 -18.267  22.159  1.00  0.00    -0.003 C 
ATOM     14  C   UNL     1     -10.083 -18.088  20.645  1.00  0.00     0.004 C 
ENDBRANCH  12  13
ENDBRANCH  11  12
ENDBRANCH  10  11
ENDBRANCH   9  10
ENDBRANCH   1   9
TORSDOF 10
ENDMDL
MODEL 6
REMARK VINA RESULT:    -2.680      2.209      3.268
REMARK INTER + INTRA:          -5.129
REMARK INTER:                  -4.456
REMARK INTRA:                  -0.673
REMARK UNBOUND:                -0.883
REMARK SMILES CCCCCCCCCCCC(=O)[O-]
REMARK SMILES IDX 7 1 8 2 9 3 10 4 11 5 12 6 13 7 14 8 6 9 5 10 4 11 3 12 2 13
REMARK SMILES IDX 1 14
REMARK H PARENT
REMARK Flexibility Score: inf
ROOT
ATOM      1  C   UNL     1     -10.398 -19.004  19.901  1.00  0.00     0.000 C 
ENDROOT
BRANCH   1   2
ATOM      2  C   UNL     1     -11.042 -18.650  21.251  1.00  0.00     0.000 C 
BRANCH   2   3
ATOM      3  C   UNL     1     -10.008 -18.243  22.313  1.00  0.00     0.000 C 
BRANCH   3   4
ATOM      4  C   UNL     1      -9.316 -19.480  22.906  1.00  0.00     0.006 C 
BRANCH   4   5
ATOM      5  C   UNL     1     -10.282 -20.659  23.080  1.00  0.00     0.053 C 
BRANCH   5   6
ATOM      6  C   UNL     1      -9.556 -21.932  23.390  1.00  0.00     0.041 C 
ATOM      7  O   UNL     1      -8.516 -22.240  22.752  1.00  0.00    -0.550 OA
ATOM      8  O   UNL     1     -10.010 -22.762  24.406  1.00  0.00    -0.550 OA
ENDBRANCH   5   6
ENDBRANCH   4   5
ENDBRANCH   3   4
ENDBRANCH   2   3
ENDBRANCH   1   2
BRANCH   1   9
ATOM      9  C   UNL     1     -10.815 -20.397  19.396  1.00  0.00     0.000 C 
BRANCH   9  10
ATOM     10  C   UNL     1      -9.621 -21.219  18.884  1.00  0.00    -0.000 C 
BRANCH  10  11
ATOM     11  C   UNL     1      -9.807 -21.699  17.437  1.00  0.00    -0.000 C 
BRANCH  11  12
ATOM     12  C   UNL     1     -10.937 -20.929  16.745  1.00  0.00    -0.000 C 
BRANCH  12  13
ATOM     13  C   UNL     1     -10.405 -20.115  15.559  1.00  0.00    -0.003 C 
ATOM     14  C   UNL     1     -11.124 -20.488  14.267  1.00  0.00     0.004 C 
ENDBRANCH  12  13
ENDBRANCH  11  12
ENDBRANCH  10  11
ENDBRANCH   9  10
ENDBRANCH   1   9
TORSDOF 10
ENDMDL
MODEL 7
REMARK VINA RESULT:    -2.622      1.992      2.436
REMARK INTER + INTRA:          -5.037
REMARK INTER:                  -4.198
REMARK INTRA:                  -0.838
REMARK UNBOUND:                -0.883
REMARK SMILES CCCCCCCCCCCC(=O)[O-]
REMARK SMILES IDX 7 1 8 2 9 3 10 4 11 5 12 6 13 7 14 8 6 9 5 10 4 11 3 12 2 13
REMARK SMILES IDX 1 14
REMARK H PARENT
REMARK Flexibility Score: inf
ROOT
ATOM      1  C   UNL     1      -8.163 -22.985  22.351  1.00  0.00     0.000 C 
ENDROOT
BRANCH   1   2
ATOM      2  C   UNL     1      -9.678 -22.735  22.435  1.00  0.00     0.000 C 
BRANCH   2   3
ATOM      3  C   UNL     1     -10.026 -21.464  23.225  1.00  0.00     0.000 C 
BRANCH   3   4
ATOM      4  C   UNL     1     -11.005 -20.580  22.438  1.00  0.00     0.006 C 
BRANCH   4   5
ATOM      5  C   UNL     1     -10.343 -19.921  21.221  1.00  0.00     0.053 C 
BRANCH   5   6
ATOM      6  C   UNL     1     -10.246 -18.435  21.378  1.00  0.00     0.041 C 
ATOM      7  O   UNL     1      -9.691 -17.939  22.393  1.00  0.00    -0.550 OA
ATOM      8  O   UNL     1     -10.739 -17.597  20.387  1.00  0.00    -0.550 OA
ENDBRANCH   5   6
ENDBRANCH   4   5
ENDBRANCH   3   4
ENDBRANCH   2   3
ENDBRANCH   1   2
BRANCH   1   9
ATOM      9  C   UNL     1      -7.667 -23.125  20.901  1.00  0.00     0.000 C 
BRANCH   9  10
ATOM     10  C   UNL     1      -8.803 -22.996  19.874  1.00  0.00    -0.000 C 
BRANCH  10  11
ATOM     11  C   UNL     1      -8.424 -22.113  18.676  1.00  0.00    -0.000 C 
BRANCH  11  12
ATOM     12  C   UNL     1      -6.985 -22.388  18.226  1.00  0.00    -0.000 C 
BRANCH  12  13
ATOM     13  C   UNL     1      -6.925 -22.683  16.722  1.00  0.00    -0.003 C 
ATOM     14  C   UNL     1      -5.988 -21.714  16.007  1.00  0.00     0.004 C 
ENDBRANCH  12  13
ENDBRANCH  11  12
ENDBRANCH  10  11
ENDBRANCH   9  10
ENDBRANCH   1   9
TORSDOF 10
ENDMDL
MODEL 8
REMARK VINA RESULT:    -2.597      2.222      3.602
REMARK INTER + INTRA:          -4.998
REMARK INTER:                  -4.392
REMARK INTRA:                  -0.606
REMARK UNBOUND:                -0.883
REMARK SMILES CCCCCCCCCCCC(=O)[O-]
REMARK SMILES IDX 7 1 8 2 9 3 10 4 11 5 12 6 13 7 14 8 6 9 5 10 4 11 3 12 2 13
REMARK SMILES IDX 1 14
REMARK H PARENT
REMARK Flexibility Score: inf
ROOT
ATOM      1  C   UNL     1     -10.361 -19.820  19.432  1.00  0.00     0.000 C 
ENDROOT
BRANCH   1   2
ATOM      2  C   UNL     1     -11.017 -18.752  20.321  1.00  0.00     0.000 C 
BRANCH   2   3
ATOM      3  C   UNL     1      -9.989 -17.913  21.097  1.00  0.00     0.000 C 
BRANCH   3   4
ATOM      4  C   UNL     1      -9.956 -18.319  22.578  1.00  0.00     0.006 C 
BRANCH   4   5
ATOM      5  C   UNL     1     -10.983 -19.412  22.905  1.00  0.00     0.053 C 
BRANCH   5   6
ATOM      6  C   UNL     1     -10.321 -20.715  23.233  1.00  0.00     0.041 C 
ATOM      7  O   UNL     1      -9.072 -20.835  23.137  1.00  0.00    -0.550 OA
ATOM      8  O   UNL     1     -11.083 -21.788  23.677  1.00  0.00    -0.550 OA
ENDBRANCH   5   6
ENDBRANCH   4   5
ENDBRANCH   3   4
ENDBRANCH   2   3
ENDBRANCH   1   2
BRANCH   1   9
ATOM      9  C   UNL     1     -11.097 -20.008  18.093  1.00  0.00     0.000 C 
BRANCH   9  10
ATOM     10  C   UNL     1     -10.694 -21.305  17.375  1.00  0.00    -0.000 C 
BRANCH  10  11
ATOM     11  C   UNL     1     -10.006 -22.312  18.310  1.00  0.00    -0.000 C 
BRANCH  11  12
ATOM     12  C   UNL     1      -8.760 -22.912  17.648  1.00  0.00    -0.000 C 
BRANCH  12  13
ATOM     13  C   UNL     1      -7.523 -22.048  17.917  1.00  0.00    -0.003 C 
ATOM     14  C   UNL     1      -6.454 -22.833  18.670  1.00  0.00     0.004 C 
ENDBRANCH  12  13
ENDBRANCH  11  12
ENDBRANCH  10  11
ENDBRANCH   9  10
ENDBRANCH   1   9
TORSDOF 10
ENDMDL
