MODEL 1
REMARK VINA RESULT:    -6.015      0.000      0.000
REMARK INTER + INTRA:         -19.258
REMARK INTER:                 -15.860
REMARK INTRA:                  -3.398
REMARK UNBOUND:                -3.398
REMARK SMILES CCCCCCCCCCCCCCCCCCCCCCCCCCCCCC(=O)[O-]
REMARK SMILES IDX 16 1 17 2 18 3 19 4 20 5 21 6 22 7 23 8 24 9 25 10 26 11
REMARK SMILES IDX 27 12 28 13 29 14 30 15 31 16 32 17 15 18 14 19 13 20 12 21
REMARK SMILES IDX 11 22 10 23 9 24 8 25 7 26 6 27 5 28 4 29 3 30 2 31 1 32
REMARK H PARENT
REMARK Flexibility Score: inf
ROOT
ATOM      1  C   UNL     1       7.294  -7.807 -33.837  1.00  0.00     0.000 C 
ENDROOT
BRANCH   1   2
ATOM      2  C   UNL     1       7.832  -8.913 -32.912  1.00  0.00     0.000 C 
BRANCH   2   3
ATOM      3  C   UNL     1       6.807 -10.029 -32.658  1.00  0.00     0.000 C 
BRANCH   3   4
ATOM      4  C   UNL     1       6.151  -9.871 -31.277  1.00  0.00     0.000 C 
BRANCH   4   5
ATOM      5  C   UNL     1       4.860  -9.040 -31.328  1.00  0.00     0.000 C 
BRANCH   5   6
ATOM      6  C   UNL     1       5.016  -7.659 -30.666  1.00  0.00     0.000 C 
BRANCH   6   7
ATOM      7  C   UNL     1       5.883  -7.715 -29.391  1.00  0.00     0.000 C 
BRANCH   7   8
ATOM      8  C   UNL     1       6.401  -6.339 -28.936  1.00  0.00     0.000 C 
BRANCH   8   9
ATOM      9  C   UNL     1       7.757  -5.969 -29.565  1.00  0.00     0.000 C 
BRANCH   9  10
ATOM     10  C   UNL     1       8.895  -5.933 -28.535  1.00  0.00     0.000 C 
BRANCH  10  11
ATOM     11  C   UNL     1       9.155  -7.306 -27.892  1.00  0.00     0.000 C 
BRANCH  11  12
ATOM     12  C   UNL     1       9.503  -8.390 -28.924  1.00  0.00     0.000 C 
BRANCH  12  13
ATOM     13  C   UNL     1       9.682  -9.776 -28.286  1.00  0.00     0.006 C 
BRANCH  13  14
ATOM     14  C   UNL     1       8.530 -10.713 -28.670  1.00  0.00     0.053 C 
BRANCH  14  15
ATOM     15  C   UNL     1       9.048 -11.924 -29.383  1.00  0.00     0.041 C 
ATOM     16  O   UNL     1       9.479 -12.911 -28.729  1.00  0.00    -0.550 OA
ATOM     17  O   UNL     1       9.062 -11.961 -30.772  1.00  0.00    -0.550 OA
ENDBRANCH  14  15
ENDBRANCH  13  14
ENDBRANCH  12  13
ENDBRANCH  11  12
ENDBRANCH  10  11
ENDBRANCH   9  10
ENDBRANCH   8   9
ENDBRANCH   7   8
ENDBRANCH   6   7
ENDBRANCH   5   6
ENDBRANCH   4   5
ENDBRANCH   3   4
ENDBRANCH   2   3
ENDBRANCH   1   2
BRANCH   1  18
ATOM     18  C   UNL     1       7.240  -6.403 -33.204  1.00  0.00     0.000 C 
BRANCH  18  19
ATOM     19  C   UNL     1       7.653  -5.248 -34.138  1.00  0.00     0.000 C 
BRANCH  19  20
ATOM     20  C   UNL     1       6.832  -5.127 -35.435  1.00  0.00     0.000 C 
BRANCH  20  21
ATOM     21  C   UNL     1       6.965  -3.746 -36.100  1.00  0.00     0.000 C 
BRANCH  21  22
ATOM     22  C   UNL     1       5.725  -2.856 -35.892  1.00  0.00     0.000 C 
BRANCH  22  23
ATOM     23  C   UNL     1       5.806  -1.885 -34.698  1.00  0.00     0.000 C 
BRANCH  23  24
ATOM     24  C   UNL     1       4.994  -0.599 -34.910  1.00  0.00    -0.000 C 
BRANCH  24  25
ATOM     25  C   UNL     1       4.960   0.252 -33.634  1.00  0.00    -0.000 C 
BRANCH  25  26
ATOM     26  C   UNL     1       6.375   0.677 -33.216  1.00  0.00    -0.000 C 
BRANCH  26  27
ATOM     27  C   UNL     1       6.925   1.840 -34.061  1.00  0.00    -0.000 C 
BRANCH  27  28
ATOM     28  C   UNL     1       8.090   1.466 -34.996  1.00  0.00    -0.000 C 
BRANCH  28  29
ATOM     29  C   UNL     1       8.016   2.178 -36.355  1.00  0.00    -0.000 C 
BRANCH  29  30
ATOM     30  C   UNL     1       7.646   1.189 -37.472  1.00  0.00    -0.000 C 
BRANCH  30  31
ATOM     31  C   UNL     1       8.835   0.322 -37.913  1.00  0.00    -0.003 C 
ATOM     32  C   UNL     1       8.430  -1.112 -38.246  1.00  0.00     0.004 C 
ENDBRANCH  30  31
ENDBRANCH  29  30
ENDBRANCH  28  29
ENDBRANCH  27  28
ENDBRANCH  26  27
ENDBRANCH  25  26
ENDBRANCH  24  25
ENDBRANCH  23  24
ENDBRANCH  22  23
ENDBRANCH  21  22
ENDBRANCH  20  21
ENDBRANCH  19  20
ENDBRANCH  18  19
ENDBRANCH   1  18
TORSDOF 28
ENDMDL
MODEL 2
REMARK VINA RESULT:    -5.857      3.504      8.641
REMARK INTER + INTRA:         -18.842
REMARK INTER:                 -15.439
REMARK INTRA:                  -3.403
REMARK UNBOUND:                -3.398
REMARK SMILES CCCCCCCCCCCCCCCCCCCCCCCCCCCCCC(=O)[O-]
REMARK SMILES IDX 16 1 17 2 18 3 19 4 20 5 21 6 22 7 23 8 24 9 25 10 26 11
REMARK SMILES IDX 27 12 28 13 29 14 30 15 31 16 32 17 15 18 14 19 13 20 12 21
REMARK SMILES IDX 11 22 10 23 9 24 8 25 7 26 6 27 5 28 4 29 3 30 2 31 1 32
REMARK H PARENT
REMARK Flexibility Score: inf
ROOT
ATOM      1  C   UNL     1       6.012  -3.208 -36.054  1.00  0.00     0.000 C 
ENDROOT
BRANCH   1   2
ATOM      2  C   UNL     1       5.765  -2.511 -34.704  1.00  0.00     0.000 C 
BRANCH   2   3
ATOM      3  C   UNL     1       5.491  -1.006 -34.853  1.00  0.00     0.000 C 
BRANCH   3   4
ATOM      4  C   UNL     1       5.093  -0.383 -33.505  1.00  0.00     0.000 C 
BRANCH   4   5
ATOM      5  C   UNL     1       5.534   1.083 -33.380  1.00  0.00     0.000 C 
BRANCH   5   6
ATOM      6  C   UNL     1       7.064   1.250 -33.419  1.00  0.00     0.000 C 
BRANCH   6   7
ATOM      7  C   UNL     1       7.659   1.522 -32.022  1.00  0.00     0.000 C 
BRANCH   7   8
ATOM      8  C   UNL     1       6.601   1.850 -30.953  1.00  0.00     0.000 C 
BRANCH   8   9
ATOM      9  C   UNL     1       6.763   1.015 -29.670  1.00  0.00     0.000 C 
BRANCH   9  10
ATOM     10  C   UNL     1       8.209   1.001 -29.155  1.00  0.00     0.000 C 
BRANCH  10  11
ATOM     11  C   UNL     1       8.311   1.367 -27.664  1.00  0.00     0.000 C 
BRANCH  11  12
ATOM     12  C   UNL     1       7.664   0.317 -26.748  1.00  0.00     0.000 C 
BRANCH  12  13
ATOM     13  C   UNL     1       8.461  -0.996 -26.700  1.00  0.00     0.006 C 
BRANCH  13  14
ATOM     14  C   UNL     1       7.535  -2.195 -26.464  1.00  0.00     0.053 C 
BRANCH  14  15
ATOM     15  C   UNL     1       7.244  -2.901 -27.752  1.00  0.00     0.041 C 
ATOM     16  O   UNL     1       6.107  -3.402 -27.960  1.00  0.00    -0.550 OA
ATOM     17  O   UNL     1       8.232  -3.010 -28.724  1.00  0.00    -0.550 OA
ENDBRANCH  14  15
ENDBRANCH  13  14
ENDBRANCH  12  13
ENDBRANCH  11  12
ENDBRANCH  10  11
ENDBRANCH   9  10
ENDBRANCH   8   9
ENDBRANCH   7   8
ENDBRANCH   6   7
ENDBRANCH   5   6
ENDBRANCH   4   5
ENDBRANCH   3   4
ENDBRANCH   2   3
ENDBRANCH   1   2
BRANCH   1  18
ATOM     18  C   UNL     1       7.084  -4.316 -36.024  1.00  0.00     0.000 C 
BRANCH  18  19
ATOM     19  C   UNL     1       6.833  -5.440 -34.999  1.00  0.00     0.000 C 
BRANCH  19  20
ATOM     20  C   UNL     1       7.944  -5.631 -33.949  1.00  0.00     0.000 C 
BRANCH  20  21
ATOM     21  C   UNL     1       7.532  -6.581 -32.811  1.00  0.00     0.000 C 
BRANCH  21  22
ATOM     22  C   UNL     1       7.172  -5.839 -31.509  1.00  0.00     0.000 C 
BRANCH  22  23
ATOM     23  C   UNL     1       8.043  -6.193 -30.288  1.00  0.00     0.000 C 
BRANCH  23  24
ATOM     24  C   UNL     1       7.222  -6.629 -29.066  1.00  0.00    -0.000 C 
BRANCH  24  25
ATOM     25  C   UNL     1       5.874  -7.227 -29.488  1.00  0.00    -0.000 C 
BRANCH  25  26
ATOM     26  C   UNL     1       5.949  -8.759 -29.559  1.00  0.00    -0.000 C 
BRANCH  26  27
ATOM     27  C   UNL     1       5.454  -9.321 -30.903  1.00  0.00    -0.000 C 
BRANCH  27  28
ATOM     28  C   UNL     1       4.481  -8.406 -31.669  1.00  0.00    -0.000 C 
BRANCH  28  29
ATOM     29  C   UNL     1       4.008  -9.016 -32.997  1.00  0.00    -0.000 C 
BRANCH  29  30
ATOM     30  C   UNL     1       4.275  -8.056 -34.167  1.00  0.00    -0.000 C 
BRANCH  30  31
ATOM     31  C   UNL     1       5.222  -8.653 -35.219  1.00  0.00    -0.003 C 
ATOM     32  C   UNL     1       6.255  -9.602 -34.615  1.00  0.00     0.004 C 
ENDBRANCH  30  31
ENDBRANCH  29  30
ENDBRANCH  28  29
ENDBRANCH  27  28
ENDBRANCH  26  27
ENDBRANCH  25  26
ENDBRANCH  24  25
ENDBRANCH  23  24
ENDBRANCH  22  23
ENDBRANCH  21  22
ENDBRANCH  20  21
ENDBRANCH  19  20
ENDBRANCH  18  19
ENDBRANCH   1  18
TORSDOF 28
ENDMDL
MODEL 3
REMARK VINA RESULT:    -5.840      5.643      7.160
REMARK INTER + INTRA:         -18.798
REMARK INTER:                 -12.700
REMARK INTRA:                  -6.098
REMARK UNBOUND:                -3.398
REMARK SMILES CCCCCCCCCCCCCCCCCCCCCCCCCCCCCC(=O)[O-]
REMARK SMILES IDX 16 1 17 2 18 3 19 4 20 5 21 6 22 7 23 8 24 9 25 10 26 11
REMARK SMILES IDX 27 12 28 13 29 14 30 15 31 16 32 17 15 18 14 19 13 20 12 21
REMARK SMILES IDX 11 22 10 23 9 24 8 25 7 26 6 27 5 28 4 29 3 30 2 31 1 32
REMARK H PARENT
REMARK Flexibility Score: inf
ROOT
ATOM      1  C   UNL     1       8.810  -9.375 -31.031  1.00  0.00     0.000 C 
ENDROOT
BRANCH   1   2
ATOM      2  C   UNL     1       7.634 -10.366 -31.096  1.00  0.00     0.000 C 
BRANCH   2   3
ATOM      3  C   UNL     1       7.384 -11.082 -29.760  1.00  0.00     0.000 C 
BRANCH   3   4
ATOM      4  C   UNL     1       8.477 -10.735 -28.736  1.00  0.00     0.000 C 
BRANCH   4   5
ATOM      5  C   UNL     1       8.902 -11.947 -27.893  1.00  0.00     0.000 C 
BRANCH   5   6
ATOM      6  C   UNL     1      10.057 -11.624 -26.928  1.00  0.00     0.000 C 
BRANCH   6   7
ATOM      7  C   UNL     1      10.286 -10.106 -26.778  1.00  0.00     0.000 C 
BRANCH   7   8
ATOM      8  C   UNL     1      11.729  -9.666 -27.087  1.00  0.00     0.000 C 
BRANCH   8   9
ATOM      9  C   UNL     1      11.957  -9.354 -28.577  1.00  0.00     0.000 C 
BRANCH   9  10
ATOM     10  C   UNL     1      12.607 -10.524 -29.331  1.00  0.00     0.000 C 
BRANCH  10  11
ATOM     11  C   UNL     1      11.737 -11.037 -30.491  1.00  0.00     0.000 C 
BRANCH  11  12
ATOM     12  C   UNL     1      11.476 -12.549 -30.416  1.00  0.00     0.000 C 
BRANCH  12  13
ATOM     13  C   UNL     1      10.237 -12.975 -31.218  1.00  0.00     0.006 C 
BRANCH  13  14
ATOM     14  C   UNL     1      10.359 -12.554 -32.688  1.00  0.00     0.053 C 
BRANCH  14  15
ATOM     15  C   UNL     1      11.358 -13.411 -33.401  1.00  0.00     0.041 C 
ATOM     16  O   UNL     1      12.460 -12.928 -33.773  1.00  0.00    -0.550 OA
ATOM     17  O   UNL     1      11.069 -14.746 -33.663  1.00  0.00    -0.550 OA
ENDBRANCH  14  15
ENDBRANCH  13  14
ENDBRANCH  12  13
ENDBRANCH  11  12
ENDBRANCH  10  11
ENDBRANCH   9  10
ENDBRANCH   8   9
ENDBRANCH   7   8
ENDBRANCH   6   7
ENDBRANCH   5   6
ENDBRANCH   4   5
ENDBRANCH   3   4
ENDBRANCH   2   3
ENDBRANCH   1   2
BRANCH   1  18
ATOM     18  C   UNL     1       9.235  -8.784 -32.390  1.00  0.00     0.000 C 
BRANCH  18  19
ATOM     19  C   UNL     1       8.131  -8.765 -33.467  1.00  0.00     0.000 C 
BRANCH  19  20
ATOM     20  C   UNL     1       8.170  -9.935 -34.468  1.00  0.00     0.000 C 
BRANCH  20  21
ATOM     21  C   UNL     1       6.770 -10.366 -34.937  1.00  0.00     0.000 C 
BRANCH  21  22
ATOM     22  C   UNL     1       5.882  -9.177 -35.352  1.00  0.00     0.000 C 
BRANCH  22  23
ATOM     23  C   UNL     1       4.402  -9.285 -34.935  1.00  0.00     0.000 C 
BRANCH  23  24
ATOM     24  C   UNL     1       4.014  -8.293 -33.829  1.00  0.00    -0.000 C 
BRANCH  24  25
ATOM     25  C   UNL     1       4.472  -8.790 -32.453  1.00  0.00    -0.000 C 
BRANCH  25  26
ATOM     26  C   UNL     1       5.081  -7.647 -31.628  1.00  0.00    -0.000 C 
BRANCH  26  27
ATOM     27  C   UNL     1       4.816  -7.789 -30.119  1.00  0.00    -0.000 C 
BRANCH  27  28
ATOM     28  C   UNL     1       6.068  -7.686 -29.229  1.00  0.00    -0.000 C 
BRANCH  28  29
ATOM     29  C   UNL     1       7.104  -6.688 -29.770  1.00  0.00    -0.000 C 
BRANCH  29  30
ATOM     30  C   UNL     1       7.918  -6.069 -28.624  1.00  0.00    -0.000 C 
BRANCH  30  31
ATOM     31  C   UNL     1       9.112  -6.942 -28.207  1.00  0.00    -0.003 C 
ATOM     32  C   UNL     1       9.985  -6.281 -27.141  1.00  0.00     0.004 C 
ENDBRANCH  30  31
ENDBRANCH  29  30
ENDBRANCH  28  29
ENDBRANCH  27  28
ENDBRANCH  26  27
ENDBRANCH  25  26
ENDBRANCH  24  25
ENDBRANCH  23  24
ENDBRANCH  22  23
ENDBRANCH  21  22
ENDBRANCH  20  21
ENDBRANCH  19  20
ENDBRANCH  18  19
ENDBRANCH   1  18
TORSDOF 28
ENDMDL
MODEL 4
REMARK VINA RESULT:    -5.795      3.225      9.696
REMARK INTER + INTRA:         -18.678
REMARK INTER:                 -16.517
REMARK INTRA:                  -2.161
REMARK UNBOUND:                -3.398
REMARK SMILES CCCCCCCCCCCCCCCCCCCCCCCCCCCCCC(=O)[O-]
REMARK SMILES IDX 16 1 17 2 18 3 19 4 20 5 21 6 22 7 23 8 24 9 25 10 26 11
REMARK SMILES IDX 27 12 28 13 29 14 30 15 31 16 32 17 15 18 14 19 13 20 12 21
REMARK SMILES IDX 11 22 10 23 9 24 8 25 7 26 6 27 5 28 4 29 3 30 2 31 1 32
REMARK H PARENT
REMARK Flexibility Score: inf
ROOT
ATOM      1  C   UNL     1       5.981  -3.418 -36.127  1.00  0.00     0.000 C 
ENDROOT
BRANCH   1   2
ATOM      2  C   UNL     1       7.358  -2.980 -36.660  1.00  0.00     0.000 C 
BRANCH   2   3
ATOM      3  C   UNL     1       7.433  -1.473 -36.947  1.00  0.00     0.000 C 
BRANCH   3   4
ATOM      4  C   UNL     1       8.550  -1.159 -37.956  1.00  0.00     0.000 C 
BRANCH   4   5
ATOM      5  C   UNL     1       9.056   0.287 -37.846  1.00  0.00     0.000 C 
BRANCH   5   6
ATOM      6  C   UNL     1       7.913   1.309 -37.712  1.00  0.00     0.000 C 
BRANCH   6   7
ATOM      7  C   UNL     1       8.096   2.235 -36.491  1.00  0.00     0.000 C 
BRANCH   7   8
ATOM      8  C   UNL     1       8.488   1.488 -35.203  1.00  0.00     0.000 C 
BRANCH   8   9
ATOM      9  C   UNL     1       7.273   0.971 -34.414  1.00  0.00     0.000 C 
BRANCH   9  10
ATOM     10  C   UNL     1       6.899   1.886 -33.239  1.00  0.00     0.000 C 
BRANCH  10  11
ATOM     11  C   UNL     1       7.675   1.549 -31.954  1.00  0.00     0.000 C 
BRANCH  11  12
ATOM     12  C   UNL     1       6.869   1.838 -30.679  1.00  0.00     0.000 C 
BRANCH  12  13
ATOM     13  C   UNL     1       7.160   0.832 -29.555  1.00  0.00     0.006 C 
BRANCH  13  14
ATOM     14  C   UNL     1       6.121  -0.297 -29.542  1.00  0.00     0.053 C 
BRANCH  14  15
ATOM     15  C   UNL     1       6.355  -1.216 -28.384  1.00  0.00     0.041 C 
ATOM     16  O   UNL     1       5.731  -1.048 -27.302  1.00  0.00    -0.550 OA
ATOM     17  O   UNL     1       7.267  -2.259 -28.496  1.00  0.00    -0.550 OA
ENDBRANCH  14  15
ENDBRANCH  13  14
ENDBRANCH  12  13
ENDBRANCH  11  12
ENDBRANCH  10  11
ENDBRANCH   9  10
ENDBRANCH   8   9
ENDBRANCH   7   8
ENDBRANCH   6   7
ENDBRANCH   5   6
ENDBRANCH   4   5
ENDBRANCH   3   4
ENDBRANCH   2   3
ENDBRANCH   1   2
BRANCH   1  18
ATOM     18  C   UNL     1       5.635  -4.900 -36.370  1.00  0.00     0.000 C 
BRANCH  18  19
ATOM     19  C   UNL     1       6.229  -5.887 -35.345  1.00  0.00     0.000 C 
BRANCH  19  20
ATOM     20  C   UNL     1       7.439  -5.359 -34.551  1.00  0.00     0.000 C 
BRANCH  20  21
ATOM     21  C   UNL     1       7.390  -5.744 -33.062  1.00  0.00     0.000 C 
BRANCH  21  22
ATOM     22  C   UNL     1       7.792  -7.208 -32.805  1.00  0.00     0.000 C 
BRANCH  22  23
ATOM     23  C   UNL     1       7.157  -8.241 -33.756  1.00  0.00     0.000 C 
BRANCH  23  24
ATOM     24  C   UNL     1       6.086  -9.108 -33.077  1.00  0.00    -0.000 C 
BRANCH  24  25
ATOM     25  C   UNL     1       4.846  -8.279 -32.722  1.00  0.00    -0.000 C 
BRANCH  25  26
ATOM     26  C   UNL     1       4.478  -8.444 -31.240  1.00  0.00    -0.000 C 
BRANCH  26  27
ATOM     27  C   UNL     1       5.495  -9.296 -30.462  1.00  0.00    -0.000 C 
BRANCH  27  28
ATOM     28  C   UNL     1       6.073  -8.624 -29.203  1.00  0.00    -0.000 C 
BRANCH  28  29
ATOM     29  C   UNL     1       5.880  -7.100 -29.197  1.00  0.00    -0.000 C 
BRANCH  29  30
ATOM     30  C   UNL     1       7.234  -6.376 -29.189  1.00  0.00    -0.000 C 
BRANCH  30  31
ATOM     31  C   UNL     1       8.421  -7.341 -29.045  1.00  0.00    -0.003 C 
ATOM     32  C   UNL     1       9.216  -7.114 -27.761  1.00  0.00     0.004 C 
ENDBRANCH  30  31
ENDBRANCH  29  30
ENDBRANCH  28  29
ENDBRANCH  27  28
ENDBRANCH  26  27
ENDBRANCH  25  26
ENDBRANCH  24  25
ENDBRANCH  23  24
ENDBRANCH  22  23
ENDBRANCH  21  22
ENDBRANCH  20  21
ENDBRANCH  19  20
ENDBRANCH  18  19
ENDBRANCH   1  18
TORSDOF 28
ENDMDL
MODEL 5
REMARK VINA RESULT:    -5.781      4.598      9.295
REMARK INTER + INTRA:         -18.642
REMARK INTER:                 -12.659
REMARK INTRA:                  -5.984
REMARK UNBOUND:                -3.398
REMARK SMILES CCCCCCCCCCCCCCCCCCCCCCCCCCCCCC(=O)[O-]
REMARK SMILES IDX 16 1 17 2 18 3 19 4 20 5 21 6 22 7 23 8 24 9 25 10 26 11
REMARK SMILES IDX 27 12 28 13 29 14 30 15 31 16 32 17 15 18 14 19 13 20 12 21
REMARK SMILES IDX 11 22 10 23 9 24 8 25 7 26 6 27 5 28 4 29 3 30 2 31 1 32
REMARK H PARENT
REMARK Flexibility Score: inf
ROOT
ATOM      1  C   UNL     1       5.758  -8.056 -29.855  1.00  0.00     0.000 C 
ENDROOT
BRANCH   1   2
ATOM      2  C   UNL     1       4.669  -7.810 -30.915  1.00  0.00     0.000 C 
BRANCH   2   3
ATOM      3  C   UNL     1       4.604  -8.923 -31.972  1.00  0.00     0.000 C 
BRANCH   3   4
ATOM      4  C   UNL     1       4.106  -8.375 -33.319  1.00  0.00     0.000 C 
BRANCH   4   5
ATOM      5  C   UNL     1       3.673  -9.488 -34.285  1.00  0.00     0.000 C 
BRANCH   5   6
ATOM      6  C   UNL     1       4.319 -10.846 -33.956  1.00  0.00     0.000 C 
BRANCH   6   7
ATOM      7  C   UNL     1       5.672 -11.040 -34.671  1.00  0.00     0.000 C 
BRANCH   7   8
ATOM      8  C   UNL     1       6.412 -12.324 -34.255  1.00  0.00     0.000 C 
BRANCH   8   9
ATOM      9  C   UNL     1       7.665 -12.047 -33.405  1.00  0.00     0.000 C 
BRANCH   9  10
ATOM     10  C   UNL     1       7.323 -11.540 -31.996  1.00  0.00     0.000 C 
BRANCH  10  11
ATOM     11  C   UNL     1       7.968 -10.179 -31.683  1.00  0.00     0.000 C 
BRANCH  11  12
ATOM     12  C   UNL     1       8.531  -9.486 -32.934  1.00  0.00     0.000 C 
BRANCH  12  13
ATOM     13  C   UNL     1       8.421  -7.956 -32.860  1.00  0.00     0.006 C 
BRANCH  13  14
ATOM     14  C   UNL     1       7.415  -7.425 -33.889  1.00  0.00     0.053 C 
BRANCH  14  15
ATOM     15  C   UNL     1       7.203  -5.953 -33.711  1.00  0.00     0.041 C 
ATOM     16  O   UNL     1       7.172  -5.190 -34.712  1.00  0.00    -0.550 OA
ATOM     17  O   UNL     1       7.045  -5.422 -32.436  1.00  0.00    -0.550 OA
ENDBRANCH  14  15
ENDBRANCH  13  14
ENDBRANCH  12  13
ENDBRANCH  11  12
ENDBRANCH  10  11
ENDBRANCH   9  10
ENDBRANCH   8   9
ENDBRANCH   7   8
ENDBRANCH   6   7
ENDBRANCH   5   6
ENDBRANCH   4   5
ENDBRANCH   3   4
ENDBRANCH   2   3
ENDBRANCH   1   2
BRANCH   1  18
ATOM     18  C   UNL     1       6.187  -6.804 -29.065  1.00  0.00     0.000 C 
BRANCH  18  19
ATOM     19  C   UNL     1       7.683  -6.445 -29.170  1.00  0.00     0.000 C 
BRANCH  19  20
ATOM     20  C   UNL     1       8.624  -7.296 -28.297  1.00  0.00     0.000 C 
BRANCH  20  21
ATOM     21  C   UNL     1       9.432  -8.320 -29.114  1.00  0.00     0.000 C 
BRANCH  21  22
ATOM     22  C   UNL     1      10.542  -9.004 -28.293  1.00  0.00     0.000 C 
BRANCH  22  23
ATOM     23  C   UNL     1      10.325 -10.504 -28.017  1.00  0.00     0.000 C 
BRANCH  23  24
ATOM     24  C   UNL     1       8.909 -10.984 -28.366  1.00  0.00    -0.000 C 
BRANCH  24  25
ATOM     25  C   UNL     1       8.909 -12.460 -28.780  1.00  0.00    -0.000 C 
BRANCH  25  26
ATOM     26  C   UNL     1      10.294 -12.891 -29.284  1.00  0.00    -0.000 C 
BRANCH  26  27
ATOM     27  C   UNL     1      10.265 -13.437 -30.722  1.00  0.00    -0.000 C 
BRANCH  27  28
ATOM     28  C   UNL     1      11.473 -13.040 -31.590  1.00  0.00    -0.000 C 
BRANCH  28  29
ATOM     29  C   UNL     1      11.261 -11.716 -32.340  1.00  0.00    -0.000 C 
BRANCH  29  30
ATOM     30  C   UNL     1      11.837 -10.536 -31.543  1.00  0.00    -0.000 C 
BRANCH  30  31
ATOM     31  C   UNL     1      12.131  -9.313 -32.426  1.00  0.00    -0.003 C 
ATOM     32  C   UNL     1      12.912  -9.670 -33.690  1.00  0.00     0.004 C 
ENDBRANCH  30  31
ENDBRANCH  29  30
ENDBRANCH  28  29
ENDBRANCH  27  28
ENDBRANCH  26  27
ENDBRANCH  25  26
ENDBRANCH  24  25
ENDBRANCH  23  24
ENDBRANCH  22  23
ENDBRANCH  21  22
ENDBRANCH  20  21
ENDBRANCH  19  20
ENDBRANCH  18  19
ENDBRANCH   1  18
TORSDOF 28
ENDMDL
MODEL 6
REMARK VINA RESULT:    -5.773      4.227      9.211
REMARK INTER + INTRA:         -18.621
REMARK INTER:                 -13.379
REMARK INTRA:                  -5.242
REMARK UNBOUND:                -3.398
REMARK SMILES CCCCCCCCCCCCCCCCCCCCCCCCCCCCCC(=O)[O-]
REMARK SMILES IDX 16 1 17 2 18 3 19 4 20 5 21 6 22 7 23 8 24 9 25 10 26 11
REMARK SMILES IDX 27 12 28 13 29 14 30 15 31 16 32 17 15 18 14 19 13 20 12 21
REMARK SMILES IDX 11 22 10 23 9 24 8 25 7 26 6 27 5 28 4 29 3 30 2 31 1 32
REMARK H PARENT
REMARK Flexibility Score: inf
ROOT
ATOM      1  C   UNL     1      11.804 -10.223 -32.481  1.00  0.00     0.000 C 
ENDROOT
BRANCH   1   2
ATOM      2  C   UNL     1      10.568  -9.352 -32.192  1.00  0.00     0.000 C 
BRANCH   2   3
ATOM      3  C   UNL     1       9.968  -9.611 -30.802  1.00  0.00     0.000 C 
BRANCH   3   4
ATOM      4  C   UNL     1       8.575 -10.251 -30.913  1.00  0.00     0.000 C 
BRANCH   4   5
ATOM      5  C   UNL     1       7.841 -10.306 -29.565  1.00  0.00     0.000 C 
BRANCH   5   6
ATOM      6  C   UNL     1       6.337 -10.007 -29.694  1.00  0.00     0.000 C 
BRANCH   6   7
ATOM      7  C   UNL     1       5.979  -8.586 -29.210  1.00  0.00     0.000 C 
BRANCH   7   8
ATOM      8  C   UNL     1       5.210  -7.754 -30.252  1.00  0.00     0.000 C 
BRANCH   8   9
ATOM      9  C   UNL     1       4.743  -8.586 -31.460  1.00  0.00     0.000 C 
BRANCH   9  10
ATOM     10  C   UNL     1       5.170  -7.970 -32.800  1.00  0.00     0.000 C 
BRANCH  10  11
ATOM     11  C   UNL     1       6.580  -8.408 -33.231  1.00  0.00     0.000 C 
BRANCH  11  12
ATOM     12  C   UNL     1       7.658  -7.370 -32.884  1.00  0.00     0.000 C 
BRANCH  12  13
ATOM     13  C   UNL     1       7.189  -5.928 -33.130  1.00  0.00     0.006 C 
BRANCH  13  14
ATOM     14  C   UNL     1       7.989  -5.273 -34.263  1.00  0.00     0.053 C 
BRANCH  14  15
ATOM     15  C   UNL     1       7.091  -4.917 -35.407  1.00  0.00     0.041 C 
ATOM     16  O   UNL     1       6.063  -5.605 -35.647  1.00  0.00    -0.550 OA
ATOM     17  O   UNL     1       7.391  -3.826 -36.214  1.00  0.00    -0.550 OA
ENDBRANCH  14  15
ENDBRANCH  13  14
ENDBRANCH  12  13
ENDBRANCH  11  12
ENDBRANCH  10  11
ENDBRANCH   9  10
ENDBRANCH   8   9
ENDBRANCH   7   8
ENDBRANCH   6   7
ENDBRANCH   5   6
ENDBRANCH   4   5
ENDBRANCH   3   4
ENDBRANCH   2   3
ENDBRANCH   1   2
BRANCH   1  18
ATOM     18  C   UNL     1      11.570 -11.364 -33.490  1.00  0.00     0.000 C 
BRANCH  18  19
ATOM     19  C   UNL     1      11.747 -12.786 -32.920  1.00  0.00     0.000 C 
BRANCH  19  20
ATOM     20  C   UNL     1      10.746 -13.181 -31.818  1.00  0.00     0.000 C 
BRANCH  20  21
ATOM     21  C   UNL     1      11.396 -13.273 -30.426  1.00  0.00     0.000 C 
BRANCH  21  22
ATOM     22  C   UNL     1      10.393 -13.054 -29.278  1.00  0.00     0.000 C 
BRANCH  22  23
ATOM     23  C   UNL     1      10.838 -12.045 -28.201  1.00  0.00     0.000 C 
BRANCH  23  24
ATOM     24  C   UNL     1       9.875 -11.973 -27.007  1.00  0.00    -0.000 C 
BRANCH  24  25
ATOM     25  C   UNL     1      10.267 -10.846 -26.045  1.00  0.00    -0.000 C 
BRANCH  25  26
ATOM     26  C   UNL     1      11.308  -9.914 -26.682  1.00  0.00    -0.000 C 
BRANCH  26  27
ATOM     27  C   UNL     1      10.881  -8.436 -26.661  1.00  0.00    -0.000 C 
BRANCH  27  28
ATOM     28  C   UNL     1      10.381  -7.887 -28.010  1.00  0.00    -0.000 C 
BRANCH  28  29
ATOM     29  C   UNL     1       9.227  -6.884 -27.856  1.00  0.00    -0.000 C 
BRANCH  29  30
ATOM     30  C   UNL     1       8.618  -6.535 -29.223  1.00  0.00    -0.000 C 
BRANCH  30  31
ATOM     31  C   UNL     1       8.303  -5.038 -29.365  1.00  0.00    -0.003 C 
ATOM     32  C   UNL     1       7.218  -4.567 -28.398  1.00  0.00     0.004 C 
ENDBRANCH  30  31
ENDBRANCH  29  30
ENDBRANCH  28  29
ENDBRANCH  27  28
ENDBRANCH  26  27
ENDBRANCH  25  26
ENDBRANCH  24  25
ENDBRANCH  23  24
ENDBRANCH  22  23
ENDBRANCH  21  22
ENDBRANCH  20  21
ENDBRANCH  19  20
ENDBRANCH  18  19
ENDBRANCH   1  18
TORSDOF 28
ENDMDL
MODEL 7
REMARK VINA RESULT:    -5.750      4.067     10.151
REMARK INTER + INTRA:         -18.560
REMARK INTER:                 -15.033
REMARK INTRA:                  -3.527
REMARK UNBOUND:                -3.398
REMARK SMILES CCCCCCCCCCCCCCCCCCCCCCCCCCCCCC(=O)[O-]
REMARK SMILES IDX 16 1 17 2 18 3 19 4 20 5 21 6 22 7 23 8 24 9 25 10 26 11
REMARK SMILES IDX 27 12 28 13 29 14 30 15 31 16 32 17 15 18 14 19 13 20 12 21
REMARK SMILES IDX 11 22 10 23 9 24 8 25 7 26 6 27 5 28 4 29 3 30 2 31 1 32
REMARK H PARENT
REMARK Flexibility Score: inf
ROOT
ATOM      1  C   UNL     1       8.843  -5.105 -28.936  1.00  0.00     0.000 C 
ENDROOT
BRANCH   1   2
ATOM      2  C   UNL     1       7.375  -4.655 -29.046  1.00  0.00     0.000 C 
BRANCH   2   3
ATOM      3  C   UNL     1       7.131  -3.265 -28.439  1.00  0.00     0.000 C 
BRANCH   3   4
ATOM      4  C   UNL     1       6.193  -3.351 -27.224  1.00  0.00     0.000 C 
BRANCH   4   5
ATOM      5  C   UNL     1       6.360  -2.164 -26.263  1.00  0.00     0.000 C 
BRANCH   5   6
ATOM      6  C   UNL     1       6.175  -0.804 -26.961  1.00  0.00     0.000 C 
BRANCH   6   7
ATOM      7  C   UNL     1       7.444   0.071 -26.884  1.00  0.00     0.000 C 
BRANCH   7   8
ATOM      8  C   UNL     1       7.932   0.572 -28.254  1.00  0.00     0.000 C 
BRANCH   8   9
ATOM      9  C   UNL     1       6.883   0.399 -29.368  1.00  0.00     0.000 C 
BRANCH   9  10
ATOM     10  C   UNL     1       6.579   1.714 -30.101  1.00  0.00     0.000 C 
BRANCH  10  11
ATOM     11  C   UNL     1       7.593   2.018 -31.217  1.00  0.00     0.000 C 
BRANCH  11  12
ATOM     12  C   UNL     1       7.325   1.215 -32.499  1.00  0.00     0.000 C 
BRANCH  12  13
ATOM     13  C   UNL     1       5.856   1.283 -32.942  1.00  0.00     0.006 C 
BRANCH  13  14
ATOM     14  C   UNL     1       5.280  -0.121 -33.162  1.00  0.00     0.053 C 
BRANCH  14  15
ATOM     15  C   UNL     1       5.472  -0.555 -34.582  1.00  0.00     0.041 C 
ATOM     16  O   UNL     1       6.028   0.213 -35.411  1.00  0.00    -0.550 OA
ATOM     17  O   UNL     1       5.030  -1.807 -34.993  1.00  0.00    -0.550 OA
ENDBRANCH  14  15
ENDBRANCH  13  14
ENDBRANCH  12  13
ENDBRANCH  11  12
ENDBRANCH  10  11
ENDBRANCH   9  10
ENDBRANCH   8   9
ENDBRANCH   7   8
ENDBRANCH   6   7
ENDBRANCH   5   6
ENDBRANCH   4   5
ENDBRANCH   3   4
ENDBRANCH   2   3
ENDBRANCH   1   2
BRANCH   1  18
ATOM     18  C   UNL     1       9.127  -6.116 -27.809  1.00  0.00     0.000 C 
BRANCH  18  19
ATOM     19  C   UNL     1       8.974  -7.598 -28.206  1.00  0.00     0.000 C 
BRANCH  19  20
ATOM     20  C   UNL     1      10.281  -8.414 -28.213  1.00  0.00     0.000 C 
BRANCH  20  21
ATOM     21  C   UNL     1      10.368  -9.411 -27.045  1.00  0.00     0.000 C 
BRANCH  21  22
ATOM     22  C   UNL     1       9.884 -10.824 -27.422  1.00  0.00     0.000 C 
BRANCH  22  23
ATOM     23  C   UNL     1       9.636 -11.054 -28.925  1.00  0.00     0.000 C 
BRANCH  23  24
ATOM     24  C   UNL     1       8.175 -11.398 -29.250  1.00  0.00    -0.000 C 
BRANCH  24  25
ATOM     25  C   UNL     1       7.791 -10.917 -30.654  1.00  0.00    -0.000 C 
BRANCH  25  26
ATOM     26  C   UNL     1       8.852  -9.961 -31.219  1.00  0.00    -0.000 C 
BRANCH  26  27
ATOM     27  C   UNL     1       8.488  -9.418 -32.612  1.00  0.00    -0.000 C 
BRANCH  27  28
ATOM     28  C   UNL     1       8.298  -7.892 -32.683  1.00  0.00    -0.000 C 
BRANCH  28  29
ATOM     29  C   UNL     1       7.335  -7.361 -31.609  1.00  0.00    -0.000 C 
BRANCH  29  30
ATOM     30  C   UNL     1       5.873  -7.587 -32.024  1.00  0.00    -0.000 C 
BRANCH  30  31
ATOM     31  C   UNL     1       4.966  -7.927 -30.832  1.00  0.00    -0.003 C 
ATOM     32  C   UNL     1       5.730  -8.011 -29.511  1.00  0.00     0.004 C 
ENDBRANCH  30  31
ENDBRANCH  29  30
ENDBRANCH  28  29
ENDBRANCH  27  28
ENDBRANCH  26  27
ENDBRANCH  25  26
ENDBRANCH  24  25
ENDBRANCH  23  24
ENDBRANCH  22  23
ENDBRANCH  21  22
ENDBRANCH  20  21
ENDBRANCH  19  20
ENDBRANCH  18  19
ENDBRANCH   1  18
TORSDOF 28
ENDMDL
MODEL 8
REMARK VINA RESULT:    -5.728      5.060      8.348
REMARK INTER + INTRA:         -18.502
REMARK INTER:                 -13.276
REMARK INTRA:                  -5.226
REMARK UNBOUND:                -3.398
REMARK SMILES CCCCCCCCCCCCCCCCCCCCCCCCCCCCCC(=O)[O-]
REMARK SMILES IDX 16 1 17 2 18 3 19 4 20 5 21 6 22 7 23 8 24 9 25 10 26 11
REMARK SMILES IDX 27 12 28 13 29 14 30 15 31 16 32 17 15 18 14 19 13 20 12 21
REMARK SMILES IDX 11 22 10 23 9 24 8 25 7 26 6 27 5 28 4 29 3 30 2 31 1 32
REMARK H PARENT
REMARK Flexibility Score: inf
ROOT
ATOM      1  C   UNL     1       9.132 -11.950 -30.116  1.00  0.00     0.000 C 
ENDROOT
BRANCH   1   2
ATOM      2  C   UNL     1       8.737 -11.303 -28.776  1.00  0.00     0.000 C 
BRANCH   2   3
ATOM      3  C   UNL     1       9.793 -11.510 -27.680  1.00  0.00     0.000 C 
BRANCH   3   4
ATOM      4  C   UNL     1      10.484 -10.185 -27.322  1.00  0.00     0.000 C 
BRANCH   4   5
ATOM      5  C   UNL     1       9.621  -8.959 -27.660  1.00  0.00     0.000 C 
BRANCH   5   6
ATOM      6  C   UNL     1      10.459  -7.695 -27.917  1.00  0.00     0.000 C 
BRANCH   6   7
ATOM      7  C   UNL     1       9.904  -6.463 -27.173  1.00  0.00     0.000 C 
BRANCH   7   8
ATOM      8  C   UNL     1       9.582  -5.276 -28.098  1.00  0.00     0.000 C 
BRANCH   8   9
ATOM      9  C   UNL     1       8.528  -4.321 -27.509  1.00  0.00     0.000 C 
BRANCH   9  10
ATOM     10  C   UNL     1       7.166  -4.442 -28.208  1.00  0.00     0.000 C 
BRANCH  10  11
ATOM     11  C   UNL     1       6.223  -3.273 -27.874  1.00  0.00     0.000 C 
BRANCH  11  12
ATOM     12  C   UNL     1       6.749  -2.392 -26.731  1.00  0.00     0.000 C 
BRANCH  12  13
ATOM     13  C   UNL     1       6.230  -0.949 -26.811  1.00  0.00     0.006 C 
BRANCH  13  14
ATOM     14  C   UNL     1       5.832  -0.584 -28.247  1.00  0.00     0.053 C 
BRANCH  14  15
ATOM     15  C   UNL     1       6.889   0.260 -28.890  1.00  0.00     0.041 C 
ATOM     16  O   UNL     1       8.090   0.164 -28.523  1.00  0.00    -0.550 OA
ATOM     17  O   UNL     1       6.546   1.160 -29.892  1.00  0.00    -0.550 OA
ENDBRANCH  14  15
ENDBRANCH  13  14
ENDBRANCH  12  13
ENDBRANCH  11  12
ENDBRANCH  10  11
ENDBRANCH   9  10
ENDBRANCH   8   9
ENDBRANCH   7   8
ENDBRANCH   6   7
ENDBRANCH   5   6
ENDBRANCH   4   5
ENDBRANCH   3   4
ENDBRANCH   2   3
ENDBRANCH   1   2
BRANCH   1  18
ATOM     18  C   UNL     1      10.300 -11.261 -30.848  1.00  0.00     0.000 C 
BRANCH  18  19
ATOM     19  C   UNL     1      10.087  -9.765 -31.155  1.00  0.00     0.000 C 
BRANCH  19  20
ATOM     20  C   UNL     1      10.330  -9.354 -32.620  1.00  0.00     0.000 C 
BRANCH  20  21
ATOM     21  C   UNL     1       9.377 -10.056 -33.603  1.00  0.00     0.000 C 
BRANCH  21  22
ATOM     22  C   UNL     1       7.897  -9.701 -33.363  1.00  0.00     0.000 C 
BRANCH  22  23
ATOM     23  C   UNL     1       7.004 -10.874 -32.915  1.00  0.00     0.000 C 
BRANCH  23  24
ATOM     24  C   UNL     1       5.641 -10.422 -32.373  1.00  0.00    -0.000 C 
BRANCH  24  25
ATOM     25  C   UNL     1       5.067  -9.270 -33.206  1.00  0.00    -0.000 C 
BRANCH  25  26
ATOM     26  C   UNL     1       4.479  -8.175 -32.303  1.00  0.00    -0.000 C 
BRANCH  26  27
ATOM     27  C   UNL     1       4.730  -8.433 -30.808  1.00  0.00    -0.000 C 
BRANCH  27  28
ATOM     28  C   UNL     1       5.624  -7.390 -30.113  1.00  0.00    -0.000 C 
BRANCH  28  29
ATOM     29  C   UNL     1       7.078  -7.860 -29.954  1.00  0.00    -0.000 C 
BRANCH  29  30
ATOM     30  C   UNL     1       8.031  -6.987 -30.785  1.00  0.00    -0.000 C 
BRANCH  30  31
ATOM     31  C   UNL     1       7.287  -5.963 -31.657  1.00  0.00    -0.003 C 
ATOM     32  C   UNL     1       7.657  -6.065 -33.135  1.00  0.00     0.004 C 
ENDBRANCH  30  31
ENDBRANCH  29  30
ENDBRANCH  28  29
ENDBRANCH  27  28
ENDBRANCH  26  27
ENDBRANCH  25  26
ENDBRANCH  24  25
ENDBRANCH  23  24
ENDBRANCH  22  23
ENDBRANCH  21  22
ENDBRANCH  20  21
ENDBRANCH  19  20
ENDBRANCH  18  19
ENDBRANCH   1  18
TORSDOF 28
ENDMDL
MODEL 9
REMARK VINA RESULT:    -5.664      4.052      9.641
REMARK INTER + INTRA:         -18.332
REMARK INTER:                 -13.330
REMARK INTRA:                  -5.002
REMARK UNBOUND:                -3.398
REMARK SMILES CCCCCCCCCCCCCCCCCCCCCCCCCCCCCC(=O)[O-]
REMARK SMILES IDX 16 1 17 2 18 3 19 4 20 5 21 6 22 7 23 8 24 9 25 10 26 11
REMARK SMILES IDX 27 12 28 13 29 14 30 15 31 16 32 17 15 18 14 19 13 20 12 21
REMARK SMILES IDX 11 22 10 23 9 24 8 25 7 26 6 27 5 28 4 29 3 30 2 31 1 32
REMARK H PARENT
REMARK Flexibility Score: inf
ROOT
ATOM      1  C   UNL     1       8.996  -7.191 -28.543  1.00  0.00     0.000 C 
ENDROOT
BRANCH   1   2
ATOM      2  C   UNL     1       8.415  -5.921 -29.188  1.00  0.00     0.000 C 
BRANCH   2   3
ATOM      3  C   UNL     1       7.042  -6.157 -29.837  1.00  0.00     0.000 C 
BRANCH   3   4
ATOM      4  C   UNL     1       6.279  -7.280 -29.117  1.00  0.00     0.000 C 
BRANCH   4   5
ATOM      5  C   UNL     1       5.783  -8.369 -30.081  1.00  0.00     0.000 C 
BRANCH   5   6
ATOM      6  C   UNL     1       4.687  -7.864 -31.036  1.00  0.00     0.000 C 
BRANCH   6   7
ATOM      7  C   UNL     1       4.446  -8.831 -32.213  1.00  0.00     0.000 C 
BRANCH   7   8
ATOM      8  C   UNL     1       5.496  -9.951 -32.317  1.00  0.00     0.000 C 
BRANCH   8   9
ATOM      9  C   UNL     1       6.373  -9.839 -33.577  1.00  0.00     0.000 C 
BRANCH   9  10
ATOM     10  C   UNL     1       6.558  -8.387 -34.040  1.00  0.00     0.000 C 
BRANCH  10  11
ATOM     11  C   UNL     1       7.815  -7.731 -33.444  1.00  0.00     0.000 C 
BRANCH  11  12
ATOM     12  C   UNL     1       7.741  -6.196 -33.441  1.00  0.00     0.000 C 
BRANCH  12  13
ATOM     13  C   UNL     1       6.741  -5.651 -34.472  1.00  0.00     0.006 C 
BRANCH  13  14
ATOM     14  C   UNL     1       7.336  -4.469 -35.248  1.00  0.00     0.053 C 
BRANCH  14  15
ATOM     15  C   UNL     1       6.263  -3.721 -35.976  1.00  0.00     0.041 C 
ATOM     16  O   UNL     1       5.558  -4.303 -36.843  1.00  0.00    -0.550 OA
ATOM     17  O   UNL     1       6.044  -2.376 -35.702  1.00  0.00    -0.550 OA
ENDBRANCH  14  15
ENDBRANCH  13  14
ENDBRANCH  12  13
ENDBRANCH  11  12
ENDBRANCH  10  11
ENDBRANCH   9  10
ENDBRANCH   8   9
ENDBRANCH   7   8
ENDBRANCH   6   7
ENDBRANCH   5   6
ENDBRANCH   4   5
ENDBRANCH   3   4
ENDBRANCH   2   3
ENDBRANCH   1   2
BRANCH   1  18
ATOM     18  C   UNL     1       9.996  -6.936 -27.398  1.00  0.00     0.000 C 
BRANCH  18  19
ATOM     19  C   UNL     1      11.200  -7.900 -27.354  1.00  0.00     0.000 C 
BRANCH  19  20
ATOM     20  C   UNL     1      11.300  -8.878 -28.540  1.00  0.00     0.000 C 
BRANCH  20  21
ATOM     21  C   UNL     1      12.204 -10.087 -28.241  1.00  0.00     0.000 C 
BRANCH  21  22
ATOM     22  C   UNL     1      11.603 -11.044 -27.194  1.00  0.00     0.000 C 
BRANCH  22  23
ATOM     23  C   UNL     1      10.075 -11.233 -27.277  1.00  0.00     0.000 C 
BRANCH  23  24
ATOM     24  C   UNL     1       9.667 -12.534 -27.983  1.00  0.00    -0.000 C 
BRANCH  24  25
ATOM     25  C   UNL     1       8.502 -12.297 -28.953  1.00  0.00    -0.000 C 
BRANCH  25  26
ATOM     26  C   UNL     1       8.319 -10.799 -29.239  1.00  0.00    -0.000 C 
BRANCH  26  27
ATOM     27  C   UNL     1       8.740 -10.405 -30.665  1.00  0.00    -0.000 C 
BRANCH  27  28
ATOM     28  C   UNL     1       9.700 -11.394 -31.353  1.00  0.00    -0.000 C 
BRANCH  28  29
ATOM     29  C   UNL     1       9.688 -11.270 -32.884  1.00  0.00    -0.000 C 
BRANCH  29  30
ATOM     30  C   UNL     1      10.561 -10.093 -33.345  1.00  0.00    -0.000 C 
BRANCH  30  31
ATOM     31  C   UNL     1      11.739  -9.823 -32.396  1.00  0.00    -0.003 C 
ATOM     32  C   UNL     1      13.002  -9.376 -33.132  1.00  0.00     0.004 C 
ENDBRANCH  30  31
ENDBRANCH  29  30
ENDBRANCH  28  29
ENDBRANCH  27  28
ENDBRANCH  26  27
ENDBRANCH  25  26
ENDBRANCH  24  25
ENDBRANCH  23  24
ENDBRANCH  22  23
ENDBRANCH  21  22
ENDBRANCH  20  21
ENDBRANCH  19  20
ENDBRANCH  18  19
ENDBRANCH   1  18
TORSDOF 28
ENDMDL
