MODEL 1
REMARK VINA RESULT:    -3.824      0.000      0.000
REMARK INTER + INTRA:          -7.205
REMARK INTER:                  -6.060
REMARK INTRA:                  -1.146
REMARK UNBOUND:                -1.146
REMARK SMILES CCCCCCCCCCCC(=O)[O-]
REMARK SMILES IDX 7 1 8 2 9 3 10 4 11 5 12 6 13 7 14 8 6 9 5 10 4 11 3 12 2 13
REMARK SMILES IDX 1 14
REMARK H PARENT
REMARK Flexibility Score: inf
ROOT
ATOM      1  C   UNL     1     -10.326   3.788   4.807  1.00  0.00     0.000 C 
ENDROOT
BRANCH   1   2
ATOM      2  C   UNL     1      -9.073   4.214   5.589  1.00  0.00     0.000 C 
BRANCH   2   3
ATOM      3  C   UNL     1      -7.797   3.887   4.798  1.00  0.00     0.000 C 
BRANCH   3   4
ATOM      4  C   UNL     1      -7.167   2.544   5.209  1.00  0.00     0.006 C 
BRANCH   4   5
ATOM      5  C   UNL     1      -6.899   2.405   6.717  1.00  0.00     0.053 C 
BRANCH   5   6
ATOM      6  C   UNL     1      -5.442   2.522   7.042  1.00  0.00     0.041 C 
ATOM      7  O   UNL     1      -5.003   3.552   7.619  1.00  0.00    -0.550 OA
ATOM      8  O   UNL     1      -4.575   1.480   6.740  1.00  0.00    -0.550 OA
ENDBRANCH   5   6
ENDBRANCH   4   5
ENDBRANCH   3   4
ENDBRANCH   2   3
ENDBRANCH   1   2
BRANCH   1   9
ATOM      9  C   UNL     1     -11.105   2.659   5.501  1.00  0.00     0.000 C 
BRANCH   9  10
ATOM     10  C   UNL     1     -10.796   1.274   4.905  1.00  0.00    -0.000 C 
BRANCH  10  11
ATOM     11  C   UNL     1     -10.169   0.318   5.932  1.00  0.00    -0.000 C 
BRANCH  11  12
ATOM     12  C   UNL     1      -9.596  -0.955   5.286  1.00  0.00    -0.000 C 
BRANCH  12  13
ATOM     13  C   UNL     1      -9.508  -0.851   3.755  1.00  0.00    -0.003 C 
ATOM     14  C   UNL     1      -8.118  -0.440   3.271  1.00  0.00     0.004 C 
ENDBRANCH  12  13
ENDBRANCH  11  12
ENDBRANCH  10  11
ENDBRANCH   9  10
ENDBRANCH   1   9
TORSDOF 10
ENDMDL
MODEL 2
REMARK VINA RESULT:    -3.814      0.927      1.135
REMARK INTER + INTRA:          -7.189
REMARK INTER:                  -6.287
REMARK INTRA:                  -0.903
REMARK UNBOUND:                -1.146
REMARK SMILES CCCCCCCCCCCC(=O)[O-]
REMARK SMILES IDX 7 1 8 2 9 3 10 4 11 5 12 6 13 7 14 8 6 9 5 10 4 11 3 12 2 13
REMARK SMILES IDX 1 14
REMARK H PARENT
REMARK Flexibility Score: inf
ROOT
ATOM      1  C   UNL     1      -9.748   3.172   5.999  1.00  0.00     0.000 C 
ENDROOT
BRANCH   1   2
ATOM      2  C   UNL     1      -8.495   3.950   5.567  1.00  0.00     0.000 C 
BRANCH   2   3
ATOM      3  C   UNL     1      -7.333   2.992   5.264  1.00  0.00     0.000 C 
BRANCH   3   4
ATOM      4  C   UNL     1      -6.758   2.332   6.530  1.00  0.00     0.006 C 
BRANCH   4   5
ATOM      5  C   UNL     1      -5.375   2.859   6.947  1.00  0.00     0.053 C 
BRANCH   5   6
ATOM      6  C   UNL     1      -4.575   1.823   7.676  1.00  0.00     0.041 C 
ATOM      7  O   UNL     1      -4.631   1.749   8.931  1.00  0.00    -0.550 OA
ATOM      8  O   UNL     1      -3.794   0.919   6.967  1.00  0.00    -0.550 OA
ENDBRANCH   5   6
ENDBRANCH   4   5
ENDBRANCH   3   4
ENDBRANCH   2   3
ENDBRANCH   1   2
BRANCH   1   9
ATOM      9  C   UNL     1     -10.753   2.977   4.853  1.00  0.00     0.000 C 
BRANCH   9  10
ATOM     10  C   UNL     1     -10.877   1.506   4.419  1.00  0.00    -0.000 C 
BRANCH  10  11
ATOM     11  C   UNL     1     -10.812   0.534   5.607  1.00  0.00    -0.000 C 
BRANCH  11  12
ATOM     12  C   UNL     1      -9.630  -0.446   5.509  1.00  0.00    -0.000 C 
BRANCH  12  13
ATOM     13  C   UNL     1      -9.469  -1.036   4.100  1.00  0.00    -0.003 C 
ATOM     14  C   UNL     1      -8.245  -0.488   3.366  1.00  0.00     0.004 C 
ENDBRANCH  12  13
ENDBRANCH  11  12
ENDBRANCH  10  11
ENDBRANCH   9  10
ENDBRANCH   1   9
TORSDOF 10
ENDMDL
MODEL 3
REMARK VINA RESULT:    -3.766      1.254      1.594
REMARK INTER + INTRA:          -7.114
REMARK INTER:                  -5.921
REMARK INTRA:                  -1.193
REMARK UNBOUND:                -1.146
REMARK SMILES CCCCCCCCCCCC(=O)[O-]
REMARK SMILES IDX 7 1 8 2 9 3 10 4 11 5 12 6 13 7 14 8 6 9 5 10 4 11 3 12 2 13
REMARK SMILES IDX 1 14
REMARK H PARENT
REMARK Flexibility Score: inf
ROOT
ATOM      1  C   UNL     1     -10.732   2.016   4.786  1.00  0.00     0.000 C 
ENDROOT
BRANCH   1   2
ATOM      2  C   UNL     1     -10.673   3.457   5.316  1.00  0.00     0.000 C 
BRANCH   2   3
ATOM      3  C   UNL     1      -9.255   3.808   5.792  1.00  0.00     0.000 C 
BRANCH   3   4
ATOM      4  C   UNL     1      -8.176   2.899   5.176  1.00  0.00     0.006 C 
BRANCH   4   5
ATOM      5  C   UNL     1      -6.838   2.903   5.932  1.00  0.00     0.053 C 
BRANCH   5   6
ATOM      6  C   UNL     1      -7.010   2.570   7.383  1.00  0.00     0.041 C 
ATOM      7  O   UNL     1      -6.742   3.427   8.265  1.00  0.00    -0.550 OA
ATOM      8  O   UNL     1      -7.498   1.325   7.758  1.00  0.00    -0.550 OA
ENDBRANCH   5   6
ENDBRANCH   4   5
ENDBRANCH   3   4
ENDBRANCH   2   3
ENDBRANCH   1   2
BRANCH   1   9
ATOM      9  C   UNL     1     -11.753   1.147   5.537  1.00  0.00     0.000 C 
BRANCH   9  10
ATOM     10  C   UNL     1     -11.100  -0.045   6.258  1.00  0.00    -0.000 C 
BRANCH  10  11
ATOM     11  C   UNL     1      -9.705  -0.376   5.705  1.00  0.00    -0.000 C 
BRANCH  11  12
ATOM     12  C   UNL     1      -9.716  -1.578   4.744  1.00  0.00    -0.000 C 
BRANCH  12  13
ATOM     13  C   UNL     1      -9.224  -1.211   3.336  1.00  0.00    -0.003 C 
ATOM     14  C   UNL     1      -8.098  -0.178   3.355  1.00  0.00     0.004 C 
ENDBRANCH  12  13
ENDBRANCH  11  12
ENDBRANCH  10  11
ENDBRANCH   9  10
ENDBRANCH   1   9
TORSDOF 10
ENDMDL
MODEL 4
REMARK VINA RESULT:    -3.667     12.815     14.464
REMARK INTER + INTRA:          -6.957
REMARK INTER:                  -5.441
REMARK INTRA:                  -1.516
REMARK UNBOUND:                -1.146
REMARK SMILES CCCCCCCCCCCC(=O)[O-]
REMARK SMILES IDX 7 1 8 2 9 3 10 4 11 5 12 6 13 7 14 8 6 9 5 10 4 11 3 12 2 13
REMARK SMILES IDX 1 14
REMARK H PARENT
REMARK Flexibility Score: inf
ROOT
ATOM      1  C   UNL     1      -2.901  -9.211   8.246  1.00  0.00     0.000 C 
ENDROOT
BRANCH   1   2
ATOM      2  C   UNL     1      -2.739  -8.222   7.081  1.00  0.00     0.000 C 
BRANCH   2   3
ATOM      3  C   UNL     1      -1.613  -8.671   6.136  1.00  0.00     0.000 C 
BRANCH   3   4
ATOM      4  C   UNL     1      -0.210  -8.401   6.708  1.00  0.00     0.006 C 
BRANCH   4   5
ATOM      5  C   UNL     1       0.492  -9.645   7.277  1.00  0.00     0.053 C 
BRANCH   5   6
ATOM      6  C   UNL     1       0.749  -9.523   8.747  1.00  0.00     0.041 C 
ATOM      7  O   UNL     1       1.177 -10.511   9.399  1.00  0.00    -0.550 OA
ATOM      8  O   UNL     1       0.548  -8.308   9.392  1.00  0.00    -0.550 OA
ENDBRANCH   5   6
ENDBRANCH   4   5
ENDBRANCH   3   4
ENDBRANCH   2   3
ENDBRANCH   1   2
BRANCH   1   9
ATOM      9  C   UNL     1      -3.252 -10.632   7.777  1.00  0.00     0.000 C 
BRANCH   9  10
ATOM     10  C   UNL     1      -2.374 -11.707   8.441  1.00  0.00    -0.000 C 
BRANCH  10  11
ATOM     11  C   UNL     1      -1.746 -12.669   7.420  1.00  0.00    -0.000 C 
BRANCH  11  12
ATOM     12  C   UNL     1      -1.970 -12.220   5.966  1.00  0.00    -0.000 C 
BRANCH  12  13
ATOM     13  C   UNL     1      -0.724 -12.423   5.089  1.00  0.00    -0.003 C 
ATOM     14  C   UNL     1       0.468 -12.970   5.874  1.00  0.00     0.004 C 
ENDBRANCH  12  13
ENDBRANCH  11  12
ENDBRANCH  10  11
ENDBRANCH   9  10
ENDBRANCH   1   9
TORSDOF 10
ENDMDL
MODEL 5
REMARK VINA RESULT:    -3.622     13.901     15.811
REMARK INTER + INTRA:          -6.886
REMARK INTER:                  -5.477
REMARK INTRA:                  -1.408
REMARK UNBOUND:                -1.146
REMARK SMILES CCCCCCCCCCCC(=O)[O-]
REMARK SMILES IDX 7 1 8 2 9 3 10 4 11 5 12 6 13 7 14 8 6 9 5 10 4 11 3 12 2 13
REMARK SMILES IDX 1 14
REMARK H PARENT
REMARK Flexibility Score: inf
ROOT
ATOM      1  C   UNL     1      -2.906 -10.542   7.273  1.00  0.00     0.000 C 
ENDROOT
BRANCH   1   2
ATOM      2  C   UNL     1      -2.331 -11.633   6.355  1.00  0.00     0.000 C 
BRANCH   2   3
ATOM      3  C   UNL     1      -1.011 -12.182   6.917  1.00  0.00     0.000 C 
BRANCH   3   4
ATOM      4  C   UNL     1       0.140 -12.130   5.897  1.00  0.00     0.006 C 
BRANCH   4   5
ATOM      5  C   UNL     1       1.096 -13.332   5.958  1.00  0.00     0.053 C 
BRANCH   5   6
ATOM      6  C   UNL     1       2.448 -12.950   6.476  1.00  0.00     0.041 C 
ATOM      7  O   UNL     1       2.571 -11.975   7.264  1.00  0.00    -0.550 OA
ATOM      8  O   UNL     1       3.567 -13.690   6.117  1.00  0.00    -0.550 OA
ENDBRANCH   5   6
ENDBRANCH   4   5
ENDBRANCH   3   4
ENDBRANCH   2   3
ENDBRANCH   1   2
BRANCH   1   9
ATOM      9  C   UNL     1      -2.773  -9.132   6.676  1.00  0.00     0.000 C 
BRANCH   9  10
ATOM     10  C   UNL     1      -1.635  -8.322   7.322  1.00  0.00    -0.000 C 
BRANCH  10  11
ATOM     11  C   UNL     1      -0.293  -8.508   6.596  1.00  0.00    -0.000 C 
BRANCH  11  12
ATOM     12  C   UNL     1       0.856  -8.864   7.554  1.00  0.00    -0.000 C 
BRANCH  12  13
ATOM     13  C   UNL     1       0.416  -8.871   9.026  1.00  0.00    -0.003 C 
ATOM     14  C   UNL     1       0.626 -10.228   9.698  1.00  0.00     0.004 C 
ENDBRANCH  12  13
ENDBRANCH  11  12
ENDBRANCH  10  11
ENDBRANCH   9  10
ENDBRANCH   1   9
TORSDOF 10
ENDMDL
MODEL 6
REMARK VINA RESULT:    -3.597     13.590     15.372
REMARK INTER + INTRA:          -6.846
REMARK INTER:                  -5.961
REMARK INTRA:                  -0.885
REMARK UNBOUND:                -1.146
REMARK SMILES CCCCCCCCCCCC(=O)[O-]
REMARK SMILES IDX 7 1 8 2 9 3 10 4 11 5 12 6 13 7 14 8 6 9 5 10 4 11 3 12 2 13
REMARK SMILES IDX 1 14
REMARK H PARENT
REMARK Flexibility Score: inf
ROOT
ATOM      1  C   UNL     1      -3.509 -11.696   6.580  1.00  0.00     0.000 C 
ENDROOT
BRANCH   1   2
ATOM      2  C   UNL     1      -3.071 -10.539   7.493  1.00  0.00     0.000 C 
BRANCH   2   3
ATOM      3  C   UNL     1      -2.910  -9.239   6.691  1.00  0.00     0.000 C 
BRANCH   3   4
ATOM      4  C   UNL     1      -1.789  -8.336   7.237  1.00  0.00     0.006 C 
BRANCH   4   5
ATOM      5  C   UNL     1      -0.413  -8.576   6.595  1.00  0.00     0.053 C 
BRANCH   5   6
ATOM      6  C   UNL     1       0.654  -8.803   7.620  1.00  0.00     0.041 C 
ATOM      7  O   UNL     1       0.557  -8.279   8.761  1.00  0.00    -0.550 OA
ATOM      8  O   UNL     1       1.739  -9.620   7.329  1.00  0.00    -0.550 OA
ENDBRANCH   5   6
ENDBRANCH   4   5
ENDBRANCH   3   4
ENDBRANCH   2   3
ENDBRANCH   1   2
BRANCH   1   9
ATOM      9  C   UNL     1      -2.341 -12.302   5.786  1.00  0.00     0.000 C 
BRANCH   9  10
ATOM     10  C   UNL     1      -1.020 -12.291   6.575  1.00  0.00    -0.000 C 
BRANCH  10  11
ATOM     11  C   UNL     1       0.203 -12.551   5.682  1.00  0.00    -0.000 C 
BRANCH  11  12
ATOM     12  C   UNL     1       1.448 -12.966   6.484  1.00  0.00    -0.000 C 
BRANCH  12  13
ATOM     13  C   UNL     1       2.312 -13.996   5.740  1.00  0.00    -0.003 C 
ATOM     14  C   UNL     1       1.482 -14.971   4.907  1.00  0.00     0.004 C 
ENDBRANCH  12  13
ENDBRANCH  11  12
ENDBRANCH  10  11
ENDBRANCH   9  10
ENDBRANCH   1   9
TORSDOF 10
ENDMDL
MODEL 7
REMARK VINA RESULT:    -3.576      2.519      4.493
REMARK INTER + INTRA:          -6.811
REMARK INTER:                  -5.266
REMARK INTRA:                  -1.545
REMARK UNBOUND:                -1.146
REMARK SMILES CCCCCCCCCCCC(=O)[O-]
REMARK SMILES IDX 7 1 8 2 9 3 10 4 11 5 12 6 13 7 14 8 6 9 5 10 4 11 3 12 2 13
REMARK SMILES IDX 1 14
REMARK H PARENT
REMARK Flexibility Score: inf
ROOT
ATOM      1  C   UNL     1     -10.160   4.438   6.184  1.00  0.00     0.000 C 
ENDROOT
BRANCH   1   2
ATOM      2  C   UNL     1     -10.693   2.997   6.140  1.00  0.00     0.000 C 
BRANCH   2   3
ATOM      3  C   UNL     1     -10.623   2.432   4.713  1.00  0.00     0.000 C 
BRANCH   3   4
ATOM      4  C   UNL     1     -10.570   0.894   4.682  1.00  0.00     0.006 C 
BRANCH   4   5
ATOM      5  C   UNL     1     -10.668   0.229   6.065  1.00  0.00     0.053 C 
BRANCH   5   6
ATOM      6  C   UNL     1      -9.605  -0.807   6.267  1.00  0.00     0.041 C 
ATOM      7  O   UNL     1      -9.156  -1.036   7.421  1.00  0.00    -0.550 OA
ATOM      8  O   UNL     1      -9.134  -1.542   5.187  1.00  0.00    -0.550 OA
ENDBRANCH   5   6
ENDBRANCH   4   5
ENDBRANCH   3   4
ENDBRANCH   2   3
ENDBRANCH   1   2
BRANCH   1   9
ATOM      9  C   UNL     1      -9.387   4.827   4.914  1.00  0.00     0.000 C 
BRANCH   9  10
ATOM     10  C   UNL     1      -7.872   4.940   5.155  1.00  0.00    -0.000 C 
BRANCH  10  11
ATOM     11  C   UNL     1      -7.084   3.792   4.504  1.00  0.00    -0.000 C 
BRANCH  11  12
ATOM     12  C   UNL     1      -6.985   2.552   5.409  1.00  0.00    -0.000 C 
BRANCH  12  13
ATOM     13  C   UNL     1      -6.720   2.914   6.879  1.00  0.00    -0.003 C 
ATOM     14  C   UNL     1      -7.531   2.059   7.852  1.00  0.00     0.004 C 
ENDBRANCH  12  13
ENDBRANCH  11  12
ENDBRANCH  10  11
ENDBRANCH   9  10
ENDBRANCH   1   9
TORSDOF 10
ENDMDL
MODEL 8
REMARK VINA RESULT:    -3.518     13.497     15.410
REMARK INTER + INTRA:          -6.721
REMARK INTER:                  -5.177
REMARK INTRA:                  -1.544
REMARK UNBOUND:                -1.146
REMARK SMILES CCCCCCCCCCCC(=O)[O-]
REMARK SMILES IDX 7 1 8 2 9 3 10 4 11 5 12 6 13 7 14 8 6 9 5 10 4 11 3 12 2 13
REMARK SMILES IDX 1 14
REMARK H PARENT
REMARK Flexibility Score: inf
ROOT
ATOM      1  C   UNL     1       0.508  -8.752   8.462  1.00  0.00     0.000 C 
ENDROOT
BRANCH   1   2
ATOM      2  C   UNL     1       0.898  -9.312   7.085  1.00  0.00     0.000 C 
BRANCH   2   3
ATOM      3  C   UNL     1       0.855 -10.847   7.085  1.00  0.00     0.000 C 
BRANCH   3   4
ATOM      4  C   UNL     1       0.032 -11.422   5.919  1.00  0.00     0.006 C 
BRANCH   4   5
ATOM      5  C   UNL     1      -0.475 -12.855   6.147  1.00  0.00     0.053 C 
BRANCH   5   6
ATOM      6  C   UNL     1      -0.014 -13.793   5.074  1.00  0.00     0.041 C 
ATOM      7  O   UNL     1       1.133 -14.309   5.136  1.00  0.00    -0.550 OA
ATOM      8  O   UNL     1      -0.861 -14.123   4.025  1.00  0.00    -0.550 OA
ENDBRANCH   5   6
ENDBRANCH   4   5
ENDBRANCH   3   4
ENDBRANCH   2   3
ENDBRANCH   1   2
BRANCH   1   9
ATOM      9  C   UNL     1      -0.316  -9.746   9.297  1.00  0.00     0.000 C 
BRANCH   9  10
ATOM     10  C   UNL     1      -1.822  -9.431   9.277  1.00  0.00    -0.000 C 
BRANCH  10  11
ATOM     11  C   UNL     1      -2.615 -10.401   8.388  1.00  0.00    -0.000 C 
BRANCH  11  12
ATOM     12  C   UNL     1      -2.952  -9.806   7.011  1.00  0.00    -0.000 C 
BRANCH  12  13
ATOM     13  C   UNL     1      -2.825  -8.275   6.983  1.00  0.00    -0.003 C 
ATOM     14  C   UNL     1      -2.253  -7.754   5.665  1.00  0.00     0.004 C 
ENDBRANCH  12  13
ENDBRANCH  11  12
ENDBRANCH  10  11
ENDBRANCH   9  10
ENDBRANCH   1   9
TORSDOF 10
ENDMDL
MODEL 9
REMARK VINA RESULT:    -3.464     13.131     15.040
REMARK INTER + INTRA:          -6.635
REMARK INTER:                  -5.264
REMARK INTRA:                  -1.371
REMARK UNBOUND:                -1.146
REMARK SMILES CCCCCCCCCCCC(=O)[O-]
REMARK SMILES IDX 7 1 8 2 9 3 10 4 11 5 12 6 13 7 14 8 6 9 5 10 4 11 3 12 2 13
REMARK SMILES IDX 1 14
REMARK H PARENT
REMARK Flexibility Score: inf
ROOT
ATOM      1  C   UNL     1      -0.291  -8.381   7.399  1.00  0.00     0.000 C 
ENDROOT
BRANCH   1   2
ATOM      2  C   UNL     1       0.856  -9.336   7.033  1.00  0.00     0.000 C 
BRANCH   2   3
ATOM      3  C   UNL     1       0.612 -10.734   7.620  1.00  0.00     0.000 C 
BRANCH   3   4
ATOM      4  C   UNL     1       0.700 -11.849   6.562  1.00  0.00     0.006 C 
BRANCH   4   5
ATOM      5  C   UNL     1      -0.377 -11.771   5.468  1.00  0.00     0.053 C 
BRANCH   5   6
ATOM      6  C   UNL     1      -0.963 -13.114   5.158  1.00  0.00     0.041 C 
ATOM      7  O   UNL     1      -0.926 -13.564   3.982  1.00  0.00    -0.550 OA
ATOM      8  O   UNL     1      -1.518 -13.884   6.172  1.00  0.00    -0.550 OA
ENDBRANCH   5   6
ENDBRANCH   4   5
ENDBRANCH   3   4
ENDBRANCH   2   3
ENDBRANCH   1   2
BRANCH   1   9
ATOM      9  C   UNL     1      -1.385  -8.322   6.320  1.00  0.00     0.000 C 
BRANCH   9  10
ATOM     10  C   UNL     1      -2.791  -8.581   6.888  1.00  0.00    -0.000 C 
BRANCH  10  11
ATOM     11  C   UNL     1      -2.754  -9.211   8.289  1.00  0.00    -0.000 C 
BRANCH  11  12
ATOM     12  C   UNL     1      -3.078 -10.715   8.272  1.00  0.00    -0.000 C 
BRANCH  12  13
ATOM     13  C   UNL     1      -3.689 -11.172   6.939  1.00  0.00    -0.003 C 
ATOM     14  C   UNL     1      -5.075 -11.793   7.107  1.00  0.00     0.004 C 
ENDBRANCH  12  13
ENDBRANCH  11  12
ENDBRANCH  10  11
ENDBRANCH   9  10
ENDBRANCH   1   9
TORSDOF 10
ENDMDL
