MODEL 1
REMARK VINA RESULT:    -3.772      0.000      0.000
REMARK INTER + INTRA:          -6.623
REMARK INTER:                  -5.977
REMARK INTRA:                  -0.646
REMARK UNBOUND:                -0.646
REMARK SMILES CCCCCCCCCCCC(=O)[O-]
REMARK SMILES IDX 7 1 8 2 9 3 10 4 11 5 12 6 13 7 14 8 6 9 5 10 4 11 3 12 2 13
REMARK SMILES IDX 1 14
REMARK H PARENT
REMARK Flexibility Score: inf
ROOT
ATOM      1  C   UNL     1      60.848  31.911  61.182  1.00  0.00     0.000 C 
ENDROOT
BRANCH   1   2
ATOM      2  C   UNL     1      61.381  30.758  62.047  1.00  0.00     0.000 C 
BRANCH   2   3
ATOM      3  C   UNL     1      62.819  30.363  61.683  1.00  0.00     0.000 C 
BRANCH   3   4
ATOM      4  C   UNL     1      62.961  28.840  61.576  1.00  0.00     0.006 C 
BRANCH   4   5
ATOM      5  C   UNL     1      61.730  28.219  60.907  1.00  0.00     0.053 C 
BRANCH   5   6
ATOM      6  C   UNL     1      61.234  27.055  61.704  1.00  0.00     0.041 C 
ATOM      7  O   UNL     1      61.909  26.613  62.670  1.00  0.00    -0.550 OA
ATOM      8  O   UNL     1      60.047  26.425  61.350  1.00  0.00    -0.550 OA
ENDBRANCH   5   6
ENDBRANCH   4   5
ENDBRANCH   3   4
ENDBRANCH   2   3
ENDBRANCH   1   2
BRANCH   1   9
ATOM      9  C   UNL     1      61.973  32.798  60.622  1.00  0.00     0.000 C 
BRANCH   9  10
ATOM     10  C   UNL     1      61.594  34.290  60.582  1.00  0.00    -0.000 C 
BRANCH  10  11
ATOM     11  C   UNL     1      62.655  35.241  61.164  1.00  0.00    -0.000 C 
BRANCH  11  12
ATOM     12  C   UNL     1      63.999  34.541  61.438  1.00  0.00    -0.000 C 
BRANCH  12  13
ATOM     13  C   UNL     1      65.079  35.515  61.931  1.00  0.00    -0.003 C 
ATOM     14  C   UNL     1      64.540  36.926  62.162  1.00  0.00     0.004 C 
ENDBRANCH  12  13
ENDBRANCH  11  12
ENDBRANCH  10  11
ENDBRANCH   9  10
ENDBRANCH   1   9
TORSDOF 10
ENDMDL
MODEL 2
REMARK VINA RESULT:    -3.749      4.117      6.456
REMARK INTER + INTRA:          -6.586
REMARK INTER:                  -5.374
REMARK INTRA:                  -1.213
REMARK UNBOUND:                -0.646
REMARK SMILES CCCCCCCCCCCC(=O)[O-]
REMARK SMILES IDX 7 1 8 2 9 3 10 4 11 5 12 6 13 7 14 8 6 9 5 10 4 11 3 12 2 13
REMARK SMILES IDX 1 14
REMARK H PARENT
REMARK Flexibility Score: inf
ROOT
ATOM      1  C   UNL     1      61.285  31.969  59.862  1.00  0.00     0.000 C 
ENDROOT
BRANCH   1   2
ATOM      2  C   UNL     1      62.133  33.244  59.749  1.00  0.00     0.000 C 
BRANCH   2   3
ATOM      3  C   UNL     1      61.450  34.466  60.381  1.00  0.00     0.000 C 
BRANCH   3   4
ATOM      4  C   UNL     1      62.461  35.327  61.147  1.00  0.00     0.006 C 
BRANCH   4   5
ATOM      5  C   UNL     1      63.809  34.609  61.274  1.00  0.00     0.053 C 
BRANCH   5   6
ATOM      6  C   UNL     1      64.913  35.601  61.462  1.00  0.00     0.041 C 
ATOM      7  O   UNL     1      65.047  36.199  62.561  1.00  0.00    -0.550 OA
ATOM      8  O   UNL     1      65.766  35.899  60.407  1.00  0.00    -0.550 OA
ENDBRANCH   5   6
ENDBRANCH   4   5
ENDBRANCH   3   4
ENDBRANCH   2   3
ENDBRANCH   1   2
BRANCH   1   9
ATOM      9  C   UNL     1      60.712  31.764  61.276  1.00  0.00     0.000 C 
BRANCH   9  10
ATOM     10  C   UNL     1      61.511  30.740  62.102  1.00  0.00    -0.000 C 
BRANCH  10  11
ATOM     11  C   UNL     1      61.776  29.401  61.390  1.00  0.00    -0.000 C 
BRANCH  11  12
ATOM     12  C   UNL     1      63.274  29.135  61.158  1.00  0.00    -0.000 C 
BRANCH  12  13
ATOM     13  C   UNL     1      64.157  30.306  61.614  1.00  0.00    -0.003 C 
ATOM     14  C   UNL     1      64.929  30.946  60.460  1.00  0.00     0.004 C 
ENDBRANCH  12  13
ENDBRANCH  11  12
ENDBRANCH  10  11
ENDBRANCH   9  10
ENDBRANCH   1   9
TORSDOF 10
ENDMDL
MODEL 3
REMARK VINA RESULT:    -3.744      1.726      2.544
REMARK INTER + INTRA:          -6.578
REMARK INTER:                  -5.337
REMARK INTRA:                  -1.242
REMARK UNBOUND:                -0.646
REMARK SMILES CCCCCCCCCCCC(=O)[O-]
REMARK SMILES IDX 7 1 8 2 9 3 10 4 11 5 12 6 13 7 14 8 6 9 5 10 4 11 3 12 2 13
REMARK SMILES IDX 1 14
REMARK H PARENT
REMARK Flexibility Score: inf
ROOT
ATOM      1  C   UNL     1      62.003  32.091  59.764  1.00  0.00     0.000 C 
ENDROOT
BRANCH   1   2
ATOM      2  C   UNL     1      61.178  32.341  61.035  1.00  0.00     0.000 C 
BRANCH   2   3
ATOM      3  C   UNL     1      60.800  31.040  61.759  1.00  0.00     0.000 C 
BRANCH   3   4
ATOM      4  C   UNL     1      62.052  30.280  62.213  1.00  0.00     0.006 C 
BRANCH   4   5
ATOM      5  C   UNL     1      62.030  28.833  61.708  1.00  0.00     0.053 C 
BRANCH   5   6
ATOM      6  C   UNL     1      63.203  28.572  60.817  1.00  0.00     0.041 C 
ATOM      7  O   UNL     1      64.076  29.462  60.642  1.00  0.00    -0.550 OA
ATOM      8  O   UNL     1      63.308  27.363  60.142  1.00  0.00    -0.550 OA
ENDBRANCH   5   6
ENDBRANCH   4   5
ENDBRANCH   3   4
ENDBRANCH   2   3
ENDBRANCH   1   2
BRANCH   1   9
ATOM      9  C   UNL     1      63.232  33.012  59.666  1.00  0.00     0.000 C 
BRANCH   9  10
ATOM     10  C   UNL     1      64.036  33.079  60.977  1.00  0.00    -0.000 C 
BRANCH  10  11
ATOM     11  C   UNL     1      64.255  34.500  61.528  1.00  0.00    -0.000 C 
BRANCH  11  12
ATOM     12  C   UNL     1      63.596  35.586  60.659  1.00  0.00    -0.000 C 
BRANCH  12  13
ATOM     13  C   UNL     1      62.441  36.295  61.380  1.00  0.00    -0.003 C 
ATOM     14  C   UNL     1      61.093  36.069  60.697  1.00  0.00     0.004 C 
ENDBRANCH  12  13
ENDBRANCH  11  12
ENDBRANCH  10  11
ENDBRANCH   9  10
ENDBRANCH   1   9
TORSDOF 10
ENDMDL
MODEL 4
REMARK VINA RESULT:    -3.699     12.196     13.874
REMARK INTER + INTRA:          -6.507
REMARK INTER:                  -5.638
REMARK INTRA:                  -0.869
REMARK UNBOUND:                -0.646
REMARK SMILES CCCCCCCCCCCC(=O)[O-]
REMARK SMILES IDX 7 1 8 2 9 3 10 4 11 5 12 6 13 7 14 8 6 9 5 10 4 11 3 12 2 13
REMARK SMILES IDX 1 14
REMARK H PARENT
REMARK Flexibility Score: inf
ROOT
ATOM      1  C   UNL     1      58.404  29.192  49.597  1.00  0.00     0.000 C 
ENDROOT
BRANCH   1   2
ATOM      2  C   UNL     1      59.897  28.958  49.869  1.00  0.00     0.000 C 
BRANCH   2   3
ATOM      3  C   UNL     1      60.195  27.524  50.332  1.00  0.00     0.000 C 
BRANCH   3   4
ATOM      4  C   UNL     1      59.624  26.498  49.346  1.00  0.00     0.006 C 
BRANCH   4   5
ATOM      5  C   UNL     1      58.766  25.457  50.072  1.00  0.00     0.053 C 
BRANCH   5   6
ATOM      6  C   UNL     1      59.627  24.376  50.643  1.00  0.00     0.041 C 
ATOM      7  O   UNL     1      59.593  24.122  51.876  1.00  0.00    -0.550 OA
ATOM      8  O   UNL     1      60.505  23.679  49.822  1.00  0.00    -0.550 OA
ENDBRANCH   5   6
ENDBRANCH   4   5
ENDBRANCH   3   4
ENDBRANCH   2   3
ENDBRANCH   1   2
BRANCH   1   9
ATOM      9  C   UNL     1      57.553  29.136  50.879  1.00  0.00     0.000 C 
BRANCH   9  10
ATOM     10  C   UNL     1      56.438  28.077  50.811  1.00  0.00    -0.000 C 
BRANCH  10  11
ATOM     11  C   UNL     1      55.070  28.609  50.346  1.00  0.00    -0.000 C 
BRANCH  11  12
ATOM     12  C   UNL     1      54.083  27.484  49.987  1.00  0.00    -0.000 C 
BRANCH  12  13
ATOM     13  C   UNL     1      54.789  26.151  49.702  1.00  0.00    -0.003 C 
ATOM     14  C   UNL     1      53.809  25.013  49.418  1.00  0.00     0.004 C 
ENDBRANCH  12  13
ENDBRANCH  11  12
ENDBRANCH  10  11
ENDBRANCH   9  10
ENDBRANCH   1   9
TORSDOF 10
ENDMDL
MODEL 5
REMARK VINA RESULT:    -3.653      1.486      2.307
REMARK INTER + INTRA:          -6.435
REMARK INTER:                  -4.954
REMARK INTRA:                  -1.481
REMARK UNBOUND:                -0.646
REMARK SMILES CCCCCCCCCCCC(=O)[O-]
REMARK SMILES IDX 7 1 8 2 9 3 10 4 11 5 12 6 13 7 14 8 6 9 5 10 4 11 3 12 2 13
REMARK SMILES IDX 1 14
REMARK H PARENT
REMARK Flexibility Score: inf
ROOT
ATOM      1  C   UNL     1      60.823  31.717  60.076  1.00  0.00     0.000 C 
ENDROOT
BRANCH   1   2
ATOM      2  C   UNL     1      60.777  31.615  61.608  1.00  0.00     0.000 C 
BRANCH   2   3
ATOM      3  C   UNL     1      61.599  30.434  62.146  1.00  0.00     0.000 C 
BRANCH   3   4
ATOM      4  C   UNL     1      61.958  29.456  61.020  1.00  0.00     0.006 C 
BRANCH   4   5
ATOM      5  C   UNL     1      63.251  28.700  61.341  1.00  0.00     0.053 C 
BRANCH   5   6
ATOM      6  C   UNL     1      62.974  27.240  61.513  1.00  0.00     0.041 C 
ATOM      7  O   UNL     1      61.827  26.848  61.852  1.00  0.00    -0.550 OA
ATOM      8  O   UNL     1      63.997  26.315  61.347  1.00  0.00    -0.550 OA
ENDBRANCH   5   6
ENDBRANCH   4   5
ENDBRANCH   3   4
ENDBRANCH   2   3
ENDBRANCH   1   2
BRANCH   1   9
ATOM      9  C   UNL     1      60.935  33.171  59.584  1.00  0.00     0.000 C 
BRANCH   9  10
ATOM     10  C   UNL     1      61.629  34.095  60.600  1.00  0.00    -0.000 C 
BRANCH  10  11
ATOM     11  C   UNL     1      63.102  34.413  60.283  1.00  0.00    -0.000 C 
BRANCH  11  12
ATOM     12  C   UNL     1      64.076  33.826  61.320  1.00  0.00    -0.000 C 
BRANCH  12  13
ATOM     13  C   UNL     1      64.409  32.352  61.047  1.00  0.00    -0.003 C 
ATOM     14  C   UNL     1      64.547  32.046  59.556  1.00  0.00     0.004 C 
ENDBRANCH  12  13
ENDBRANCH  11  12
ENDBRANCH  10  11
ENDBRANCH   9  10
ENDBRANCH   1   9
TORSDOF 10
ENDMDL
MODEL 6
REMARK VINA RESULT:    -3.569     12.771     14.504
REMARK INTER + INTRA:          -6.301
REMARK INTER:                  -5.629
REMARK INTRA:                  -0.672
REMARK UNBOUND:                -0.646
REMARK SMILES CCCCCCCCCCCC(=O)[O-]
REMARK SMILES IDX 7 1 8 2 9 3 10 4 11 5 12 6 13 7 14 8 6 9 5 10 4 11 3 12 2 13
REMARK SMILES IDX 1 14
REMARK H PARENT
REMARK Flexibility Score: inf
ROOT
ATOM      1  C   UNL     1      60.016  28.063  49.278  1.00  0.00     0.000 C 
ENDROOT
BRANCH   1   2
ATOM      2  C   UNL     1      58.803  29.002  49.218  1.00  0.00     0.000 C 
BRANCH   2   3
ATOM      3  C   UNL     1      58.087  29.128  50.571  1.00  0.00     0.000 C 
BRANCH   3   4
ATOM      4  C   UNL     1      56.599  28.782  50.440  1.00  0.00     0.006 C 
BRANCH   4   5
ATOM      5  C   UNL     1      56.394  27.266  50.348  1.00  0.00     0.053 C 
BRANCH   5   6
ATOM      6  C   UNL     1      54.991  26.953  49.932  1.00  0.00     0.041 C 
ATOM      7  O   UNL     1      54.679  25.784  49.586  1.00  0.00    -0.550 OA
ATOM      8  O   UNL     1      54.039  27.963  49.880  1.00  0.00    -0.550 OA
ENDBRANCH   5   6
ENDBRANCH   4   5
ENDBRANCH   3   4
ENDBRANCH   2   3
ENDBRANCH   1   2
BRANCH   1   9
ATOM      9  C   UNL     1      59.620  26.579  49.196  1.00  0.00     0.000 C 
BRANCH   9  10
ATOM     10  C   UNL     1      60.240  25.730  50.321  1.00  0.00    -0.000 C 
BRANCH  10  11
ATOM     11  C   UNL     1      59.394  24.522  50.760  1.00  0.00    -0.000 C 
BRANCH  11  12
ATOM     12  C   UNL     1      60.216  23.224  50.864  1.00  0.00    -0.000 C 
BRANCH  12  13
ATOM     13  C   UNL     1      61.096  22.985  49.628  1.00  0.00    -0.003 C 
ATOM     14  C   UNL     1      60.827  21.634  48.967  1.00  0.00     0.004 C 
ENDBRANCH  12  13
ENDBRANCH  11  12
ENDBRANCH  10  11
ENDBRANCH   9  10
ENDBRANCH   1   9
TORSDOF 10
ENDMDL
MODEL 7
REMARK VINA RESULT:    -3.568      4.053      6.958
REMARK INTER + INTRA:          -6.299
REMARK INTER:                  -5.373
REMARK INTRA:                  -0.927
REMARK UNBOUND:                -0.646
REMARK SMILES CCCCCCCCCCCC(=O)[O-]
REMARK SMILES IDX 7 1 8 2 9 3 10 4 11 5 12 6 13 7 14 8 6 9 5 10 4 11 3 12 2 13
REMARK SMILES IDX 1 14
REMARK H PARENT
REMARK Flexibility Score: inf
ROOT
ATOM      1  C   UNL     1      61.541  32.049  59.866  1.00  0.00     0.000 C 
ENDROOT
BRANCH   1   2
ATOM      2  C   UNL     1      62.077  33.472  59.651  1.00  0.00     0.000 C 
BRANCH   2   3
ATOM      3  C   UNL     1      61.501  34.478  60.658  1.00  0.00     0.000 C 
BRANCH   3   4
ATOM      4  C   UNL     1      62.607  35.365  61.243  1.00  0.00     0.006 C 
BRANCH   4   5
ATOM      5  C   UNL     1      63.934  34.604  61.327  1.00  0.00     0.053 C 
BRANCH   5   6
ATOM      6  C   UNL     1      65.087  35.544  61.165  1.00  0.00     0.041 C 
ATOM      7  O   UNL     1      65.450  36.273  62.124  1.00  0.00    -0.550 OA
ATOM      8  O   UNL     1      65.729  35.650  59.938  1.00  0.00    -0.550 OA
ENDBRANCH   5   6
ENDBRANCH   4   5
ENDBRANCH   3   4
ENDBRANCH   2   3
ENDBRANCH   1   2
BRANCH   1   9
ATOM      9  C   UNL     1      60.900  31.861  61.252  1.00  0.00     0.000 C 
BRANCH   9  10
ATOM     10  C   UNL     1      61.450  30.635  62.004  1.00  0.00    -0.000 C 
BRANCH  10  11
ATOM     11  C   UNL     1      62.968  30.423  61.871  1.00  0.00    -0.000 C 
BRANCH  11  12
ATOM     12  C   UNL     1      63.328  29.068  61.234  1.00  0.00    -0.000 C 
BRANCH  12  13
ATOM     13  C   UNL     1      62.118  28.130  61.124  1.00  0.00    -0.003 C 
ATOM     14  C   UNL     1      62.189  26.959  62.103  1.00  0.00     0.004 C 
ENDBRANCH  12  13
ENDBRANCH  11  12
ENDBRANCH  10  11
ENDBRANCH   9  10
ENDBRANCH   1   9
TORSDOF 10
ENDMDL
MODEL 8
REMARK VINA RESULT:    -3.561      1.701      2.663
REMARK INTER + INTRA:          -6.289
REMARK INTER:                  -5.219
REMARK INTRA:                  -1.071
REMARK UNBOUND:                -0.646
REMARK SMILES CCCCCCCCCCCC(=O)[O-]
REMARK SMILES IDX 7 1 8 2 9 3 10 4 11 5 12 6 13 7 14 8 6 9 5 10 4 11 3 12 2 13
REMARK SMILES IDX 1 14
REMARK H PARENT
REMARK Flexibility Score: inf
ROOT
ATOM      1  C   UNL     1      61.728  33.536  58.197  1.00  0.00     0.000 C 
ENDROOT
BRANCH   1   2
ATOM      2  C   UNL     1      62.203  32.284  58.950  1.00  0.00     0.000 C 
BRANCH   2   3
ATOM      3  C   UNL     1      61.076  31.609  59.744  1.00  0.00     0.000 C 
BRANCH   3   4
ATOM      4  C   UNL     1      61.135  32.003  61.225  1.00  0.00     0.006 C 
BRANCH   4   5
ATOM      5  C   UNL     1      61.071  30.765  62.125  1.00  0.00     0.053 C 
BRANCH   5   6
ATOM      6  C   UNL     1      62.252  29.880  61.882  1.00  0.00     0.041 C 
ATOM      7  O   UNL     1      63.420  30.337  61.988  1.00  0.00    -0.550 OA
ATOM      8  O   UNL     1      62.063  28.560  61.491  1.00  0.00    -0.550 OA
ENDBRANCH   5   6
ENDBRANCH   4   5
ENDBRANCH   3   4
ENDBRANCH   2   3
ENDBRANCH   1   2
BRANCH   1   9
ATOM      9  C   UNL     1      62.348  34.830  58.751  1.00  0.00     0.000 C 
BRANCH   9  10
ATOM     10  C   UNL     1      61.588  35.385  59.969  1.00  0.00    -0.000 C 
BRANCH  10  11
ATOM     11  C   UNL     1      62.445  35.578  61.233  1.00  0.00    -0.000 C 
BRANCH  11  12
ATOM     12  C   UNL     1      63.701  34.688  61.243  1.00  0.00    -0.000 C 
BRANCH  12  13
ATOM     13  C   UNL     1      64.869  35.329  62.006  1.00  0.00    -0.003 C 
ATOM     14  C   UNL     1      64.806  36.856  62.006  1.00  0.00     0.004 C 
ENDBRANCH  12  13
ENDBRANCH  11  12
ENDBRANCH  10  11
ENDBRANCH   9  10
ENDBRANCH   1   9
TORSDOF 10
ENDMDL
MODEL 9
REMARK VINA RESULT:    -3.535      2.763      3.526
REMARK INTER + INTRA:          -6.248
REMARK INTER:                  -5.267
REMARK INTRA:                  -0.982
REMARK UNBOUND:                -0.646
REMARK SMILES CCCCCCCCCCCC(=O)[O-]
REMARK SMILES IDX 7 1 8 2 9 3 10 4 11 5 12 6 13 7 14 8 6 9 5 10 4 11 3 12 2 13
REMARK SMILES IDX 1 14
REMARK H PARENT
REMARK Flexibility Score: inf
ROOT
ATOM      1  C   UNL     1      60.552  30.466  60.209  1.00  0.00     0.000 C 
ENDROOT
BRANCH   1   2
ATOM      2  C   UNL     1      61.286  29.372  60.998  1.00  0.00     0.000 C 
BRANCH   2   3
ATOM      3  C   UNL     1      62.246  29.947  62.050  1.00  0.00     0.000 C 
BRANCH   3   4
ATOM      4  C   UNL     1      63.707  29.699  61.656  1.00  0.00     0.006 C 
BRANCH   4   5
ATOM      5  C   UNL     1      64.420  31.016  61.332  1.00  0.00     0.053 C 
BRANCH   5   6
ATOM      6  C   UNL     1      64.886  31.022  59.910  1.00  0.00     0.041 C 
ATOM      7  O   UNL     1      65.039  32.111  59.298  1.00  0.00    -0.550 OA
ATOM      8  O   UNL     1      65.105  29.822  59.245  1.00  0.00    -0.550 OA
ENDBRANCH   5   6
ENDBRANCH   4   5
ENDBRANCH   3   4
ENDBRANCH   2   3
ENDBRANCH   1   2
BRANCH   1   9
ATOM      9  C   UNL     1      60.724  31.862  60.833  1.00  0.00     0.000 C 
BRANCH   9  10
ATOM     10  C   UNL     1      61.498  32.833  59.923  1.00  0.00    -0.000 C 
BRANCH  10  11
ATOM     11  C   UNL     1      62.257  33.947  60.665  1.00  0.00    -0.000 C 
BRANCH  11  12
ATOM     12  C   UNL     1      61.433  35.239  60.806  1.00  0.00    -0.000 C 
BRANCH  12  13
ATOM     13  C   UNL     1      62.277  36.423  61.301  1.00  0.00    -0.003 C 
ATOM     14  C   UNL     1      63.723  36.032  61.600  1.00  0.00     0.004 C 
ENDBRANCH  12  13
ENDBRANCH  11  12
ENDBRANCH  10  11
ENDBRANCH   9  10
ENDBRANCH   1   9
TORSDOF 10
ENDMDL
