MODEL 1
REMARK VINA RESULT:    -6.386      0.000      0.000
REMARK INTER + INTRA:          -8.017
REMARK INTER:                  -7.693
REMARK INTRA:                  -0.324
REMARK UNBOUND:                -0.324
REMARK SMILES O=c1c(O)c(-c2ccc(O)c(O)c2)oc2cc(O)cc(O)c12
REMARK SMILES IDX 5 1 3 2 2 3 1 4 22 5 20 6 19 7 17 8 16 9 15 10 14 11 6 12
REMARK SMILES IDX 7 13 8 14 9 15 13 16 11 17 10 18 12 20 4 22 21 24 18 26
REMARK H PARENT 10 19 12 21 4 23 21 25 18 27
REMARK Flexibility Score: inf
ROOT
ATOM      1  C   UNL     1     -16.502  -1.445   3.909  1.00  0.00     0.180 A 
ATOM      2  C   UNL     1     -16.108  -1.004   5.187  1.00  0.00     0.208 A 
ATOM      3  C   UNL     1     -14.796  -1.259   5.617  1.00  0.00     0.238 A 
ATOM      4  O   UNL     1     -14.435  -0.878   6.763  1.00  0.00    -0.285 OA
ATOM      5  C   UNL     1     -13.899  -1.927   4.759  1.00  0.00     0.111 A 
ATOM      6  C   UNL     1     -12.559  -2.218   5.114  1.00  0.00     0.134 A 
ATOM      7  C   UNL     1     -11.725  -2.880   4.201  1.00  0.00     0.093 A 
ATOM      8  C   UNL     1     -12.204  -3.255   2.941  1.00  0.00     0.123 A 
ATOM      9  C   UNL     1     -13.524  -2.970   2.586  1.00  0.00     0.094 A 
ATOM     10  C   UNL     1     -14.372  -2.314   3.483  1.00  0.00     0.146 A 
ATOM     11  O   UNL     1     -15.624  -2.060   3.121  1.00  0.00    -0.452 OA
ENDROOT
BRANCH   1  12
ATOM     12  C   UNL     1     -17.873  -1.232   3.391  1.00  0.00     0.025 A 
ATOM     13  C   UNL     1     -18.865  -2.221   3.518  1.00  0.00     0.016 A 
ATOM     14  C   UNL     1     -20.145  -2.007   3.000  1.00  0.00     0.051 A 
ATOM     15  C   UNL     1     -20.450  -0.811   2.337  1.00  0.00     0.157 A 
ATOM     16  C   UNL     1     -18.177  -0.044   2.707  1.00  0.00     0.062 A 
ATOM     17  C   UNL     1     -19.459   0.173   2.189  1.00  0.00     0.158 A 
BRANCH  15  18
ATOM     18  O   UNL     1     -21.728  -0.600   1.824  1.00  0.00    -0.504 OA
ATOM     19  H   UNL     1     -22.005   0.297   1.441  1.00  0.00     0.293 HD
ENDBRANCH  15  18
BRANCH  17  20
ATOM     20  O   UNL     1     -19.727   1.372   1.527  1.00  0.00    -0.504 OA
ATOM     21  H   UNL     1     -19.522   2.272   1.943  1.00  0.00     0.293 HD
ENDBRANCH  17  20
ENDBRANCH   1  12
BRANCH   2  22
ATOM     22  O   UNL     1     -17.001  -0.300   5.997  1.00  0.00    -0.502 OA
ATOM     23  H   UNL     1     -17.587   0.445   5.640  1.00  0.00     0.293 HD
ENDBRANCH   2  22
BRANCH   6  24
ATOM     24  O   UNL     1     -12.053  -1.856   6.363  1.00  0.00    -0.507 OA
ATOM     25  H   UNL     1     -11.135  -2.155   6.673  1.00  0.00     0.293 HD
ENDBRANCH   6  24
BRANCH   8  26
ATOM     26  O   UNL     1     -11.375  -3.910   2.033  1.00  0.00    -0.508 OA
ATOM     27  H   UNL     1     -11.436  -3.734   1.037  1.00  0.00     0.293 HD
ENDBRANCH   8  26
TORSDOF 6
ENDMDL
MODEL 2
REMARK VINA RESULT:    -6.176      1.563      7.050
REMARK INTER + INTRA:          -7.764
REMARK INTER:                  -7.508
REMARK INTRA:                  -0.256
REMARK UNBOUND:                -0.324
REMARK SMILES O=c1c(O)c(-c2ccc(O)c(O)c2)oc2cc(O)cc(O)c12
REMARK SMILES IDX 5 1 3 2 2 3 1 4 22 5 20 6 19 7 17 8 16 9 15 10 14 11 6 12
REMARK SMILES IDX 7 13 8 14 9 15 13 16 11 17 10 18 12 20 4 22 21 24 18 26
REMARK H PARENT 10 19 12 21 4 23 21 25 18 27
REMARK Flexibility Score: inf
ROOT
ATOM      1  C   UNL     1     -16.471  -1.701   3.742  1.00  0.00     0.180 A 
ATOM      2  C   UNL     1     -16.725  -0.547   2.977  1.00  0.00     0.208 A 
ATOM      3  C   UNL     1     -18.022  -0.330   2.486  1.00  0.00     0.238 A 
ATOM      4  O   UNL     1     -18.259   0.695   1.791  1.00  0.00    -0.285 OA
ATOM      5  C   UNL     1     -19.043  -1.255   2.784  1.00  0.00     0.111 A 
ATOM      6  C   UNL     1     -20.377  -1.109   2.331  1.00  0.00     0.134 A 
ATOM      7  C   UNL     1     -21.339  -2.069   2.678  1.00  0.00     0.093 A 
ATOM      8  C   UNL     1     -20.993  -3.171   3.468  1.00  0.00     0.123 A 
ATOM      9  C   UNL     1     -19.679  -3.320   3.916  1.00  0.00     0.094 A 
ATOM     10  C   UNL     1     -18.706  -2.375   3.579  1.00  0.00     0.146 A 
ATOM     11  O   UNL     1     -17.463  -2.545   4.015  1.00  0.00    -0.452 OA
ENDROOT
BRANCH   1  12
ATOM     12  C   UNL     1     -15.126  -2.010   4.279  1.00  0.00     0.025 A 
ATOM     13  C   UNL     1     -14.079  -2.424   3.436  1.00  0.00     0.016 A 
ATOM     14  C   UNL     1     -12.825  -2.733   3.969  1.00  0.00     0.051 A 
ATOM     15  C   UNL     1     -12.600  -2.646   5.349  1.00  0.00     0.157 A 
ATOM     16  C   UNL     1     -14.903  -1.945   5.664  1.00  0.00     0.062 A 
ATOM     17  C   UNL     1     -13.646  -2.253   6.200  1.00  0.00     0.158 A 
BRANCH  15  18
ATOM     18  O   UNL     1     -11.348  -2.953   5.877  1.00  0.00    -0.504 OA
ATOM     19  H   UNL     1     -10.901  -3.845   5.699  1.00  0.00     0.293 HD
ENDBRANCH  15  18
BRANCH  17  20
ATOM     20  O   UNL     1     -13.460  -2.164   7.579  1.00  0.00    -0.504 OA
ATOM     21  H   UNL     1     -12.751  -1.567   7.988  1.00  0.00     0.293 HD
ENDBRANCH  17  20
ENDBRANCH   1  12
BRANCH   2  22
ATOM     22  O   UNL     1     -15.707   0.380   2.739  1.00  0.00    -0.502 OA
ATOM     23  H   UNL     1     -15.508   1.144   3.373  1.00  0.00     0.293 HD
ENDBRANCH   2  22
BRANCH   6  24
ATOM     24  O   UNL     1     -20.753  -0.020   1.543  1.00  0.00    -0.507 OA
ATOM     25  H   UNL     1     -21.571   0.538   1.759  1.00  0.00     0.293 HD
ENDBRANCH   6  24
BRANCH   8  26
ATOM     26  O   UNL     1     -21.949  -4.124   3.813  1.00  0.00    -0.508 OA
ATOM     27  H   UNL     1     -21.884  -5.081   3.487  1.00  0.00     0.293 HD
ENDBRANCH   8  26
TORSDOF 6
ENDMDL
MODEL 3
REMARK VINA RESULT:    -5.878      2.189      3.013
REMARK INTER + INTRA:          -7.404
REMARK INTER:                  -7.085
REMARK INTRA:                  -0.319
REMARK UNBOUND:                -0.324
REMARK SMILES O=c1c(O)c(-c2ccc(O)c(O)c2)oc2cc(O)cc(O)c12
REMARK SMILES IDX 5 1 3 2 2 3 1 4 22 5 20 6 19 7 17 8 16 9 15 10 14 11 6 12
REMARK SMILES IDX 7 13 8 14 9 15 13 16 11 17 10 18 12 20 4 22 21 24 18 26
REMARK H PARENT 10 19 12 21 4 23 21 25 18 27
REMARK Flexibility Score: inf
ROOT
ATOM      1  C   UNL     1     -17.668  -1.701   3.254  1.00  0.00     0.180 A 
ATOM      2  C   UNL     1     -16.782  -0.701   2.811  1.00  0.00     0.208 A 
ATOM      3  C   UNL     1     -15.545  -0.555   3.458  1.00  0.00     0.238 A 
ATOM      4  O   UNL     1     -14.748   0.345   3.077  1.00  0.00    -0.285 OA
ATOM      5  C   UNL     1     -15.208  -1.420   4.519  1.00  0.00     0.111 A 
ATOM      6  C   UNL     1     -13.980  -1.342   5.221  1.00  0.00     0.134 A 
ATOM      7  C   UNL     1     -13.715  -2.247   6.260  1.00  0.00     0.093 A 
ATOM      8  C   UNL     1     -14.651  -3.226   6.609  1.00  0.00     0.123 A 
ATOM      9  C   UNL     1     -15.863  -3.306   5.920  1.00  0.00     0.094 A 
ATOM     10  C   UNL     1     -16.147  -2.413   4.883  1.00  0.00     0.146 A 
ATOM     11  O   UNL     1     -17.310  -2.509   4.248  1.00  0.00    -0.452 OA
ENDROOT
BRANCH   1  12
ATOM     12  C   UNL     1     -18.998  -1.906   2.636  1.00  0.00     0.025 A 
ATOM     13  C   UNL     1     -19.157  -2.702   1.487  1.00  0.00     0.016 A 
ATOM     14  C   UNL     1     -20.418  -2.860   0.908  1.00  0.00     0.051 A 
ATOM     15  C   UNL     1     -21.536  -2.217   1.456  1.00  0.00     0.157 A 
ATOM     16  C   UNL     1     -20.117  -1.245   3.169  1.00  0.00     0.062 A 
ATOM     17  C   UNL     1     -21.382  -1.404   2.591  1.00  0.00     0.158 A 
BRANCH  15  18
ATOM     18  O   UNL     1     -22.792  -2.379   0.877  1.00  0.00    -0.504 OA
ATOM     19  H   UNL     1     -22.927  -2.952   0.052  1.00  0.00     0.293 HD
ENDBRANCH  15  18
BRANCH  17  20
ATOM     20  O   UNL     1     -22.472  -0.742   3.157  1.00  0.00    -0.504 OA
ATOM     21  H   UNL     1     -23.422  -1.071   3.036  1.00  0.00     0.293 HD
ENDBRANCH  17  20
ENDBRANCH   1  12
BRANCH   2  22
ATOM     22  O   UNL     1     -17.120   0.111   1.725  1.00  0.00    -0.502 OA
ATOM     23  H   UNL     1     -16.968  -0.174   0.765  1.00  0.00     0.293 HD
ENDBRANCH   2  22
BRANCH   6  24
ATOM     24  O   UNL     1     -13.026  -0.378   4.895  1.00  0.00    -0.507 OA
ATOM     25  H   UNL     1     -13.285   0.581   4.692  1.00  0.00     0.293 HD
ENDBRANCH   6  24
BRANCH   8  26
ATOM     26  O   UNL     1     -14.386  -4.125   7.640  1.00  0.00    -0.508 OA
ATOM     27  H   UNL     1     -14.489  -3.861   8.612  1.00  0.00     0.293 HD
ENDBRANCH   8  26
TORSDOF 6
ENDMDL
MODEL 4
REMARK VINA RESULT:    -5.788      1.190      2.846
REMARK INTER + INTRA:          -7.296
REMARK INTER:                  -6.978
REMARK INTRA:                  -0.318
REMARK UNBOUND:                -0.324
REMARK SMILES O=c1c(O)c(-c2ccc(O)c(O)c2)oc2cc(O)cc(O)c12
REMARK SMILES IDX 5 1 3 2 2 3 1 4 22 5 20 6 19 7 17 8 16 9 15 10 14 11 6 12
REMARK SMILES IDX 7 13 8 14 9 15 13 16 11 17 10 18 12 20 4 22 21 24 18 26
REMARK H PARENT 10 19 12 21 4 23 21 25 18 27
REMARK Flexibility Score: inf
ROOT
ATOM      1  C   UNL     1     -16.684  -1.697   3.052  1.00  0.00     0.180 A 
ATOM      2  C   UNL     1     -16.053  -2.441   2.037  1.00  0.00     0.208 A 
ATOM      3  C   UNL     1     -14.698  -2.775   2.184  1.00  0.00     0.238 A 
ATOM      4  O   UNL     1     -14.119  -3.433   1.277  1.00  0.00    -0.285 OA
ATOM      5  C   UNL     1     -14.005  -2.380   3.347  1.00  0.00     0.111 A 
ATOM      6  C   UNL     1     -12.640  -2.680   3.574  1.00  0.00     0.134 A 
ATOM      7  C   UNL     1     -12.024  -2.259   4.762  1.00  0.00     0.093 A 
ATOM      8  C   UNL     1     -12.746  -1.545   5.725  1.00  0.00     0.123 A 
ATOM      9  C   UNL     1     -14.092  -1.247   5.505  1.00  0.00     0.094 A 
ATOM     10  C   UNL     1     -14.723  -1.656   4.326  1.00  0.00     0.146 A 
ATOM     11  O   UNL     1     -16.003  -1.353   4.141  1.00  0.00    -0.452 OA
ENDROOT
BRANCH   1  12
ATOM     12  C   UNL     1     -18.105  -1.289   2.961  1.00  0.00     0.025 A 
ATOM     13  C   UNL     1     -19.142  -2.151   3.362  1.00  0.00     0.016 A 
ATOM     14  C   UNL     1     -20.476  -1.753   3.245  1.00  0.00     0.051 A 
ATOM     15  C   UNL     1     -20.796  -0.497   2.714  1.00  0.00     0.157 A 
ATOM     16  C   UNL     1     -18.431  -0.039   2.409  1.00  0.00     0.062 A 
ATOM     17  C   UNL     1     -19.768   0.363   2.292  1.00  0.00     0.158 A 
BRANCH  15  18
ATOM     18  O   UNL     1     -22.127  -0.102   2.600  1.00  0.00    -0.504 OA
ATOM     19  H   UNL     1     -22.381   0.826   2.279  1.00  0.00     0.293 HD
ENDBRANCH  15  18
BRANCH  17  20
ATOM     20  O   UNL     1     -20.052   1.617   1.752  1.00  0.00    -0.504 OA
ATOM     21  H   UNL     1     -19.899   1.827   0.773  1.00  0.00     0.293 HD
ENDBRANCH  17  20
ENDBRANCH   1  12
BRANCH   2  22
ATOM     22  O   UNL     1     -16.775  -2.863   0.918  1.00  0.00    -0.502 OA
ATOM     23  H   UNL     1     -16.356  -3.412   0.176  1.00  0.00     0.293 HD
ENDBRANCH   2  22
BRANCH   6  24
ATOM     24  O   UNL     1     -11.895  -3.392   2.633  1.00  0.00    -0.507 OA
ATOM     25  H   UNL     1     -11.593  -2.970   1.763  1.00  0.00     0.293 HD
ENDBRANCH   6  24
BRANCH   8  26
ATOM     26  O   UNL     1     -12.134  -1.128   6.905  1.00  0.00    -0.508 OA
ATOM     27  H   UNL     1     -12.070  -1.736   7.712  1.00  0.00     0.293 HD
ENDBRANCH   8  26
TORSDOF 6
ENDMDL
MODEL 5
REMARK VINA RESULT:    -5.622      1.568      7.071
REMARK INTER + INTRA:          -7.096
REMARK INTER:                  -6.851
REMARK INTRA:                  -0.245
REMARK UNBOUND:                -0.324
REMARK SMILES O=c1c(O)c(-c2ccc(O)c(O)c2)oc2cc(O)cc(O)c12
REMARK SMILES IDX 5 1 3 2 2 3 1 4 22 5 20 6 19 7 17 8 16 9 15 10 14 11 6 12
REMARK SMILES IDX 7 13 8 14 9 15 13 16 11 17 10 18 12 20 4 22 21 24 18 26
REMARK H PARENT 10 19 12 21 4 23 21 25 18 27
REMARK Flexibility Score: inf
ROOT
ATOM      1  C   UNL     1     -16.615  -1.887   4.089  1.00  0.00     0.180 A 
ATOM      2  C   UNL     1     -17.581  -2.894   4.283  1.00  0.00     0.208 A 
ATOM      3  C   UNL     1     -18.905  -2.648   3.887  1.00  0.00     0.238 A 
ATOM      4  O   UNL     1     -19.780  -3.539   4.065  1.00  0.00    -0.285 OA
ATOM      5  C   UNL     1     -19.236  -1.416   3.288  1.00  0.00     0.111 A 
ATOM      6  C   UNL     1     -20.545  -1.091   2.857  1.00  0.00     0.134 A 
ATOM      7  C   UNL     1     -20.793   0.155   2.261  1.00  0.00     0.093 A 
ATOM      8  C   UNL     1     -19.758   1.080   2.088  1.00  0.00     0.123 A 
ATOM      9  C   UNL     1     -18.465   0.765   2.512  1.00  0.00     0.094 A 
ATOM     10  C   UNL     1     -18.199  -0.471   3.110  1.00  0.00     0.146 A 
ATOM     11  O   UNL     1     -16.961  -0.742   3.508  1.00  0.00    -0.452 OA
ENDROOT
BRANCH   1  12
ATOM     12  C   UNL     1     -15.203  -2.062   4.498  1.00  0.00     0.025 A 
ATOM     13  C   UNL     1     -14.190  -2.298   3.550  1.00  0.00     0.016 A 
ATOM     14  C   UNL     1     -12.868  -2.485   3.962  1.00  0.00     0.051 A 
ATOM     15  C   UNL     1     -12.539  -2.451   5.323  1.00  0.00     0.157 A 
ATOM     16  C   UNL     1     -14.872  -2.051   5.862  1.00  0.00     0.062 A 
ATOM     17  C   UNL     1     -13.547  -2.236   6.277  1.00  0.00     0.158 A 
BRANCH  15  18
ATOM     18  O   UNL     1     -11.219  -2.635   5.730  1.00  0.00    -0.504 OA
ATOM     19  H   UNL     1     -10.632  -1.853   5.997  1.00  0.00     0.293 HD
ENDBRANCH  15  18
BRANCH  17  20
ATOM     20  O   UNL     1     -13.255  -2.205   7.641  1.00  0.00    -0.504 OA
ATOM     21  H   UNL     1     -12.901  -3.016   8.133  1.00  0.00     0.293 HD
ENDBRANCH  17  20
ENDBRANCH   1  12
BRANCH   2  22
ATOM     22  O   UNL     1     -17.216  -4.125   4.833  1.00  0.00    -0.502 OA
ATOM     23  H   UNL     1     -17.296  -4.322   5.823  1.00  0.00     0.293 HD
ENDBRANCH   2  22
BRANCH   6  24
ATOM     24  O   UNL     1     -21.598  -1.994   3.015  1.00  0.00    -0.507 OA
ATOM     25  H   UNL     1     -22.131  -2.336   2.224  1.00  0.00     0.293 HD
ENDBRANCH   6  24
BRANCH   8  26
ATOM     26  O   UNL     1     -20.004   2.316   1.495  1.00  0.00    -0.508 OA
ATOM     27  H   UNL     1     -19.247   2.933   1.222  1.00  0.00     0.293 HD
ENDBRANCH   8  26
TORSDOF 6
ENDMDL
MODEL 6
REMARK VINA RESULT:    -5.429      1.559      3.364
REMARK INTER + INTRA:          -6.863
REMARK INTER:                  -6.532
REMARK INTRA:                  -0.332
REMARK UNBOUND:                -0.324
REMARK SMILES O=c1c(O)c(-c2ccc(O)c(O)c2)oc2cc(O)cc(O)c12
REMARK SMILES IDX 5 1 3 2 2 3 1 4 22 5 20 6 19 7 17 8 16 9 15 10 14 11 6 12
REMARK SMILES IDX 7 13 8 14 9 15 13 16 11 17 10 18 12 20 4 22 21 24 18 26
REMARK H PARENT 10 19 12 21 4 23 21 25 18 27
REMARK Flexibility Score: inf
ROOT
ATOM      1  C   UNL     1     -17.143  -2.003   3.134  1.00  0.00     0.180 A 
ATOM      2  C   UNL     1     -16.397  -2.572   2.084  1.00  0.00     0.208 A 
ATOM      3  C   UNL     1     -15.013  -2.740   2.249  1.00  0.00     0.238 A 
ATOM      4  O   UNL     1     -14.332  -3.239   1.312  1.00  0.00    -0.285 OA
ATOM      5  C   UNL     1     -14.404  -2.358   3.462  1.00  0.00     0.111 A 
ATOM      6  C   UNL     1     -13.017  -2.498   3.710  1.00  0.00     0.134 A 
ATOM      7  C   UNL     1     -12.489  -2.102   4.948  1.00  0.00     0.093 A 
ATOM      8  C   UNL     1     -13.319  -1.571   5.941  1.00  0.00     0.123 A 
ATOM      9  C   UNL     1     -14.688  -1.431   5.701  1.00  0.00     0.094 A 
ATOM     10  C   UNL     1     -15.233  -1.817   4.473  1.00  0.00     0.146 A 
ATOM     11  O   UNL     1     -16.537  -1.668   4.270  1.00  0.00    -0.452 OA
ENDROOT
BRANCH   1  12
ATOM     12  C   UNL     1     -18.602  -1.775   3.029  1.00  0.00     0.025 A 
ATOM     13  C   UNL     1     -19.120  -0.604   2.448  1.00  0.00     0.016 A 
ATOM     14  C   UNL     1     -20.501  -0.400   2.382  1.00  0.00     0.051 A 
ATOM     15  C   UNL     1     -21.384  -1.354   2.905  1.00  0.00     0.157 A 
ATOM     16  C   UNL     1     -19.489  -2.718   3.572  1.00  0.00     0.062 A 
ATOM     17  C   UNL     1     -20.874  -2.518   3.505  1.00  0.00     0.158 A 
BRANCH  15  18
ATOM     18  O   UNL     1     -22.760  -1.149   2.835  1.00  0.00    -0.504 OA
ATOM     19  H   UNL     1     -23.159  -0.420   2.256  1.00  0.00     0.293 HD
ENDBRANCH  15  18
BRANCH  17  20
ATOM     20  O   UNL     1     -21.724  -3.483   4.043  1.00  0.00    -0.504 OA
ATOM     21  H   UNL     1     -22.429  -3.254   4.733  1.00  0.00     0.293 HD
ENDBRANCH  17  20
ENDBRANCH   1  12
BRANCH   2  22
ATOM     22  O   UNL     1     -17.031  -2.988   0.911  1.00  0.00    -0.502 OA
ATOM     23  H   UNL     1     -17.828  -3.614   0.917  1.00  0.00     0.293 HD
ENDBRANCH   2  22
BRANCH   6  24
ATOM     24  O   UNL     1     -12.164  -3.026   2.741  1.00  0.00    -0.507 OA
ATOM     25  H   UNL     1     -11.577  -3.831   2.927  1.00  0.00     0.293 HD
ENDBRANCH   6  24
BRANCH   8  26
ATOM     26  O   UNL     1     -12.795  -1.179   7.171  1.00  0.00    -0.508 OA
ATOM     27  H   UNL     1     -12.958  -1.718   8.012  1.00  0.00     0.293 HD
ENDBRANCH   8  26
TORSDOF 6
ENDMDL
MODEL 7
REMARK VINA RESULT:    -5.217      2.362      4.484
REMARK INTER + INTRA:          -6.608
REMARK INTER:                  -6.283
REMARK INTRA:                  -0.325
REMARK UNBOUND:                -0.324
REMARK SMILES O=c1c(O)c(-c2ccc(O)c(O)c2)oc2cc(O)cc(O)c12
REMARK SMILES IDX 5 1 3 2 2 3 1 4 22 5 20 6 19 7 17 8 16 9 15 10 14 11 6 12
REMARK SMILES IDX 7 13 8 14 9 15 13 16 11 17 10 18 12 20 4 22 21 24 18 26
REMARK H PARENT 10 19 12 21 4 23 21 25 18 27
REMARK Flexibility Score: inf
ROOT
ATOM      1  C   UNL     1     -19.705  -1.567   2.964  1.00  0.00     0.180 A 
ATOM      2  C   UNL     1     -19.284  -0.760   1.891  1.00  0.00     0.208 A 
ATOM      3  C   UNL     1     -17.938  -0.366   1.826  1.00  0.00     0.238 A 
ATOM      4  O   UNL     1     -17.550   0.366   0.875  1.00  0.00    -0.285 OA
ATOM      5  C   UNL     1     -17.036  -0.801   2.819  1.00  0.00     0.111 A 
ATOM      6  C   UNL     1     -15.664  -0.453   2.825  1.00  0.00     0.134 A 
ATOM      7  C   UNL     1     -14.828  -0.935   3.844  1.00  0.00     0.093 A 
ATOM      8  C   UNL     1     -15.339  -1.756   4.855  1.00  0.00     0.123 A 
ATOM      9  C   UNL     1     -16.691  -2.102   4.854  1.00  0.00     0.094 A 
ATOM     10  C   UNL     1     -17.540  -1.630   3.848  1.00  0.00     0.146 A 
ATOM     11  O   UNL     1     -18.824  -1.971   3.875  1.00  0.00    -0.452 OA
ENDROOT
BRANCH   1  12
ATOM     12  C   UNL     1     -21.112  -2.007   3.113  1.00  0.00     0.025 A 
ATOM     13  C   UNL     1     -21.574  -3.195   2.517  1.00  0.00     0.016 A 
ATOM     14  C   UNL     1     -22.911  -3.577   2.651  1.00  0.00     0.051 A 
ATOM     15  C   UNL     1     -23.809  -2.776   3.368  1.00  0.00     0.157 A 
ATOM     16  C   UNL     1     -22.019  -1.196   3.813  1.00  0.00     0.062 A 
ATOM     17  C   UNL     1     -23.360  -1.578   3.950  1.00  0.00     0.158 A 
BRANCH  15  18
ATOM     18  O   UNL     1     -25.141  -3.161   3.502  1.00  0.00    -0.504 OA
ATOM     19  H   UNL     1     -25.483  -3.604   4.347  1.00  0.00     0.293 HD
ENDBRANCH  15  18
BRANCH  17  20
ATOM     20  O   UNL     1     -24.228  -0.753   4.664  1.00  0.00    -0.504 OA
ATOM     21  H   UNL     1     -24.040   0.233   4.803  1.00  0.00     0.293 HD
ENDBRANCH  17  20
ENDBRANCH   1  12
BRANCH   2  22
ATOM     22  O   UNL     1     -20.186  -0.383   0.893  1.00  0.00    -0.502 OA
ATOM     23  H   UNL     1     -19.890   0.066   0.034  1.00  0.00     0.293 HD
ENDBRANCH   2  22
BRANCH   6  24
ATOM     24  O   UNL     1     -15.125   0.363   1.829  1.00  0.00    -0.507 OA
ATOM     25  H   UNL     1     -15.664   0.639   1.016  1.00  0.00     0.293 HD
ENDBRANCH   6  24
BRANCH   8  26
ATOM     26  O   UNL     1     -14.509  -2.235   5.867  1.00  0.00    -0.508 OA
ATOM     27  H   UNL     1     -14.126  -1.619   6.574  1.00  0.00     0.293 HD
ENDBRANCH   8  26
TORSDOF 6
ENDMDL
MODEL 8
REMARK VINA RESULT:    -4.934      4.907      9.896
REMARK INTER + INTRA:          -6.267
REMARK INTER:                  -5.944
REMARK INTRA:                  -0.322
REMARK UNBOUND:                -0.324
REMARK SMILES O=c1c(O)c(-c2ccc(O)c(O)c2)oc2cc(O)cc(O)c12
REMARK SMILES IDX 5 1 3 2 2 3 1 4 22 5 20 6 19 7 17 8 16 9 15 10 14 11 6 12
REMARK SMILES IDX 7 13 8 14 9 15 13 16 11 17 10 18 12 20 4 22 21 24 18 26
REMARK H PARENT 10 19 12 21 4 23 21 25 18 27
REMARK Flexibility Score: inf
ROOT
ATOM      1  C   UNL     1     -23.056  -1.893   3.132  1.00  0.00     0.180 A 
ATOM      2  C   UNL     1     -23.327  -2.131   4.493  1.00  0.00     0.208 A 
ATOM      3  C   UNL     1     -24.662  -2.268   4.904  1.00  0.00     0.238 A 
ATOM      4  O   UNL     1     -24.918  -2.471   6.123  1.00  0.00    -0.285 OA
ATOM      5  C   UNL     1     -25.697  -2.184   3.951  1.00  0.00     0.111 A 
ATOM      6  C   UNL     1     -27.068  -2.314   4.283  1.00  0.00     0.134 A 
ATOM      7  C   UNL     1     -28.039  -2.228   3.274  1.00  0.00     0.093 A 
ATOM      8  C   UNL     1     -27.666  -2.015   1.942  1.00  0.00     0.123 A 
ATOM      9  C   UNL     1     -26.316  -1.886   1.610  1.00  0.00     0.094 A 
ATOM     10  C   UNL     1     -25.334  -1.966   2.602  1.00  0.00     0.146 A 
ATOM     11  O   UNL     1     -24.057  -1.835   2.258  1.00  0.00    -0.452 OA
ENDROOT
BRANCH   1  12
ATOM     12  C   UNL     1     -21.676  -1.719   2.623  1.00  0.00     0.025 A 
ATOM     13  C   UNL     1     -20.889  -2.823   2.249  1.00  0.00     0.016 A 
ATOM     14  C   UNL     1     -19.581  -2.636   1.794  1.00  0.00     0.051 A 
ATOM     15  C   UNL     1     -19.036  -1.348   1.718  1.00  0.00     0.157 A 
ATOM     16  C   UNL     1     -21.118  -0.432   2.565  1.00  0.00     0.062 A 
ATOM     17  C   UNL     1     -19.808  -0.241   2.108  1.00  0.00     0.158 A 
BRANCH  15  18
ATOM     18  O   UNL     1     -17.732  -1.164   1.262  1.00  0.00    -0.504 OA
ATOM     19  H   UNL     1     -17.314  -0.242   1.205  1.00  0.00     0.293 HD
ENDBRANCH  15  18
BRANCH  17  20
ATOM     20  O   UNL     1     -19.293   1.054   2.053  1.00  0.00    -0.504 OA
ATOM     21  H   UNL     1     -18.378   1.252   1.667  1.00  0.00     0.293 HD
ENDBRANCH  17  20
ENDBRANCH   1  12
BRANCH   2  22
ATOM     22  O   UNL     1     -22.281  -2.259   5.409  1.00  0.00    -0.502 OA
ATOM     23  H   UNL     1     -21.524  -1.588   5.467  1.00  0.00     0.293 HD
ENDBRANCH   2  22
BRANCH   6  24
ATOM     24  O   UNL     1     -27.470  -2.528   5.602  1.00  0.00    -0.507 OA
ATOM     25  H   UNL     1     -27.007  -2.076   6.381  1.00  0.00     0.293 HD
ENDBRANCH   6  24
BRANCH   8  26
ATOM     26  O   UNL     1     -28.630  -1.931   0.940  1.00  0.00    -0.508 OA
ATOM     27  H   UNL     1     -29.562  -2.307   1.069  1.00  0.00     0.293 HD
ENDBRANCH   8  26
TORSDOF 6
ENDMDL
