MODEL 1
REMARK VINA RESULT:    -4.508      0.000      0.000
REMARK INTER + INTRA:          -6.788
REMARK INTER:                  -6.616
REMARK INTRA:                  -0.173
REMARK UNBOUND:                -0.173
REMARK SMILES O=c1c(O[C@H]2O[C@@H](CO)[C@H](O)[C@H](O)[C@H]2O)c(-c2ccc(O)c(O)c2)oc2cc(O)cc(O)c12
REMARK SMILES IDX 4 1 3 2 16 3 25 4 2 5 26 6 1 7 33 8 27 9 31 10 28 11 30 12
REMARK SMILES IDX 17 13 18 14 19 15 20 16 24 17 22 18 21 19 23 21 32 23 29 25
REMARK SMILES IDX 5 27 14 28 6 29 12 30 7 31 10 32 15 33 13 35 8 37 9 38 11 40
REMARK H PARENT 21 20 23 22 32 24 29 26 15 34 13 36 9 39 11 41
REMARK Flexibility Score: inf
ROOT
ATOM      1  O   UNL     1      51.573  13.126  26.993  1.00  0.00    -0.454 OA
ENDROOT
BRANCH   1   2
ATOM      2  C   UNL     1      52.947  13.254  26.745  1.00  0.00     0.214 A 
ATOM      3  C   UNL     1      53.853  12.700  27.657  1.00  0.00     0.180 A 
ATOM      4  O   UNL     1      55.103  13.153  27.709  1.00  0.00    -0.452 OA
ATOM      5  C   UNL     1      53.465  14.072  25.714  1.00  0.00     0.239 A 
ATOM      6  C   UNL     1      55.574  14.089  26.896  1.00  0.00     0.146 A 
ATOM      7  O   UNL     1      52.759  14.285  24.691  1.00  0.00    -0.285 OA
ATOM      8  C   UNL     1      54.788  14.578  25.816  1.00  0.00     0.111 A 
ATOM      9  C   UNL     1      56.861  14.572  27.118  1.00  0.00     0.094 A 
ATOM     10  C   UNL     1      55.368  15.539  24.938  1.00  0.00     0.134 A 
ATOM     11  C   UNL     1      57.399  15.551  26.289  1.00  0.00     0.123 A 
ATOM     12  C   UNL     1      56.670  15.989  25.177  1.00  0.00     0.093 A 
BRANCH   3  13
ATOM     13  C   UNL     1      53.527  11.485  28.426  1.00  0.00     0.025 A 
ATOM     14  C   UNL     1      52.290  10.812  28.329  1.00  0.00     0.016 A 
ATOM     15  C   UNL     1      52.169   9.493  28.791  1.00  0.00     0.051 A 
ATOM     16  C   UNL     1      53.261   8.837  29.378  1.00  0.00     0.157 A 
ATOM     17  C   UNL     1      54.575  10.870  29.125  1.00  0.00     0.062 A 
ATOM     18  C   UNL     1      54.461   9.542  29.564  1.00  0.00     0.158 A 
BRANCH  16  19
ATOM     19  O   UNL     1      53.152   7.505  29.793  1.00  0.00    -0.504 OA
ATOM     20  H   UNL     1      53.366   6.734  29.177  1.00  0.00     0.293 HD
ENDBRANCH  16  19
BRANCH  18  21
ATOM     21  O   UNL     1      55.546   8.899  30.152  1.00  0.00    -0.504 OA
ATOM     22  H   UNL     1      55.528   7.914  30.396  1.00  0.00     0.293 HD
ENDBRANCH  18  21
ENDBRANCH   3  13
BRANCH  10  23
ATOM     23  O   UNL     1      54.714  16.125  23.852  1.00  0.00    -0.507 OA
ATOM     24  H   UNL     1      53.797  15.885  23.532  1.00  0.00     0.293 HD
ENDBRANCH  10  23
BRANCH  11  25
ATOM     25  O   UNL     1      58.631  16.124  26.586  1.00  0.00    -0.508 OA
ATOM     26  H   UNL     1      59.027  16.878  26.024  1.00  0.00     0.293 HD
ENDBRANCH  11  25
ENDBRANCH   1   2
BRANCH   1  27
ATOM     27  C   UNL     1      50.493  13.911  26.513  1.00  0.00     0.339 C 
ATOM     28  C   UNL     1      49.409  14.120  27.606  1.00  0.00     0.214 C 
ATOM     29  O   UNL     1      49.936  13.183  25.427  1.00  0.00    -0.332 OA
ATOM     30  C   UNL     1      47.978  14.057  27.015  1.00  0.00     0.180 C 
ATOM     31  C   UNL     1      48.987  13.947  24.702  1.00  0.00     0.179 C 
ATOM     32  C   UNL     1      47.955  14.681  25.605  1.00  0.00     0.177 C 
BRANCH  28  33
ATOM     33  O   UNL     1      49.528  13.143  28.601  1.00  0.00    -0.384 OA
ATOM     34  H   UNL     1      49.173  12.296  28.218  1.00  0.00     0.211 HD
ENDBRANCH  28  33
BRANCH  30  35
ATOM     35  O   UNL     1      47.071  14.741  27.838  1.00  0.00    -0.387 OA
ATOM     36  H   UNL     1      47.042  15.680  27.516  1.00  0.00     0.211 HD
ENDBRANCH  30  35
BRANCH  31  37
ATOM     37  C   UNL     1      48.266  12.995  23.729  1.00  0.00     0.191 C 
BRANCH  37  38
ATOM     38  O   UNL     1      47.569  13.733  22.762  1.00  0.00    -0.394 OA
ATOM     39  H   UNL     1      46.910  14.286  23.267  1.00  0.00     0.210 HD
ENDBRANCH  37  38
ENDBRANCH  31  37
BRANCH  32  40
ATOM     40  O   UNL     1      48.307  16.041  25.677  1.00  0.00    -0.387 OA
ATOM     41  H   UNL     1      48.592  16.226  26.604  1.00  0.00     0.211 HD
ENDBRANCH  32  40
ENDBRANCH   1  27
TORSDOF 12
ENDMDL
MODEL 2
REMARK VINA RESULT:    -4.393      2.687      5.242
REMARK INTER + INTRA:          -6.621
REMARK INTER:                  -6.587
REMARK INTRA:                  -0.034
REMARK UNBOUND:                -0.173
REMARK SMILES O=c1c(O[C@H]2O[C@@H](CO)[C@H](O)[C@H](O)[C@H]2O)c(-c2ccc(O)c(O)c2)oc2cc(O)cc(O)c12
REMARK SMILES IDX 4 1 3 2 16 3 25 4 2 5 26 6 1 7 33 8 27 9 31 10 28 11 30 12
REMARK SMILES IDX 17 13 18 14 19 15 20 16 24 17 22 18 21 19 23 21 32 23 29 25
REMARK SMILES IDX 5 27 14 28 6 29 12 30 7 31 10 32 15 33 13 35 8 37 9 38 11 40
REMARK H PARENT 21 20 23 22 32 24 29 26 15 34 13 36 9 39 11 41
REMARK Flexibility Score: inf
ROOT
ATOM      1  O   UNL     1      51.771  13.914  26.221  1.00  0.00    -0.454 OA
ENDROOT
BRANCH   1   2
ATOM      2  C   UNL     1      52.940  14.685  26.173  1.00  0.00     0.214 A 
ATOM      3  C   UNL     1      53.301  15.290  24.962  1.00  0.00     0.180 A 
ATOM      4  O   UNL     1      54.565  15.644  24.749  1.00  0.00    -0.452 OA
ATOM      5  C   UNL     1      53.869  14.736  27.238  1.00  0.00     0.239 A 
ATOM      6  C   UNL     1      55.525  15.502  25.653  1.00  0.00     0.146 A 
ATOM      7  O   UNL     1      53.460  14.537  28.414  1.00  0.00    -0.285 OA
ATOM      8  C   UNL     1      55.222  15.074  26.975  1.00  0.00     0.111 A 
ATOM      9  C   UNL     1      56.835  15.795  25.280  1.00  0.00     0.094 A 
ATOM     10  C   UNL     1      56.285  14.999  27.922  1.00  0.00     0.134 A 
ATOM     11  C   UNL     1      57.874  15.665  26.195  1.00  0.00     0.123 A 
ATOM     12  C   UNL     1      57.586  15.318  27.521  1.00  0.00     0.093 A 
BRANCH   3  13
ATOM     13  C   UNL     1      52.286  15.737  23.992  1.00  0.00     0.025 A 
ATOM     14  C   UNL     1      52.496  15.751  22.597  1.00  0.00     0.016 A 
ATOM     15  C   UNL     1      51.402  15.835  21.722  1.00  0.00     0.051 A 
ATOM     16  C   UNL     1      50.094  15.934  22.218  1.00  0.00     0.157 A 
ATOM     17  C   UNL     1      50.991  15.961  24.480  1.00  0.00     0.062 A 
ATOM     18  C   UNL     1      49.894  16.020  23.605  1.00  0.00     0.158 A 
BRANCH  16  19
ATOM     19  O   UNL     1      49.002  15.967  21.344  1.00  0.00    -0.504 OA
ATOM     20  H   UNL     1      48.203  15.361  21.463  1.00  0.00     0.293 HD
ENDBRANCH  16  19
BRANCH  18  21
ATOM     21  O   UNL     1      48.600  16.125  24.104  1.00  0.00    -0.504 OA
ATOM     22  H   UNL     1      48.408  16.298  25.085  1.00  0.00     0.293 HD
ENDBRANCH  18  21
ENDBRANCH   3  13
BRANCH  10  23
ATOM     23  O   UNL     1      56.146  14.575  29.246  1.00  0.00    -0.507 OA
ATOM     24  H   UNL     1      55.292  14.578  29.766  1.00  0.00     0.293 HD
ENDBRANCH  10  23
BRANCH  11  25
ATOM     25  O   UNL     1      59.193  15.833  25.789  1.00  0.00    -0.508 OA
ATOM     26  H   UNL     1      59.660  16.740  25.823  1.00  0.00     0.293 HD
ENDBRANCH  11  25
ENDBRANCH   1   2
BRANCH   1  27
ATOM     27  C   UNL     1      50.501  14.234  26.770  1.00  0.00     0.339 C 
ATOM     28  C   UNL     1      50.349  13.683  28.214  1.00  0.00     0.214 C 
ATOM     29  O   UNL     1      49.544  13.614  25.923  1.00  0.00    -0.332 OA
ATOM     30  C   UNL     1      48.921  13.139  28.473  1.00  0.00     0.180 C 
ATOM     31  C   UNL     1      48.221  14.030  26.216  1.00  0.00     0.179 C 
ATOM     32  C   UNL     1      47.879  14.002  27.733  1.00  0.00     0.177 C 
BRANCH  28  33
ATOM     33  O   UNL     1      51.269  12.654  28.442  1.00  0.00    -0.384 OA
ATOM     34  H   UNL     1      52.167  13.013  28.206  1.00  0.00     0.211 HD
ENDBRANCH  28  33
BRANCH  30  35
ATOM     35  O   UNL     1      48.630  13.142  29.845  1.00  0.00    -0.387 OA
ATOM     36  H   UNL     1      47.777  13.638  29.959  1.00  0.00     0.211 HD
ENDBRANCH  30  35
BRANCH  31  37
ATOM     37  C   UNL     1      47.260  13.118  25.432  1.00  0.00     0.191 C 
BRANCH  37  38
ATOM     38  O   UNL     1      47.604  13.110  24.073  1.00  0.00    -0.394 OA
ATOM     39  H   UNL     1      48.594  12.991  24.045  1.00  0.00     0.210 HD
ENDBRANCH  37  38
ENDBRANCH  31  37
BRANCH  32  40
ATOM     40  O   UNL     1      47.910  15.320  28.225  1.00  0.00    -0.387 OA
ATOM     41  H   UNL     1      47.003  15.536  28.553  1.00  0.00     0.211 HD
ENDBRANCH  32  40
ENDBRANCH   1  27
TORSDOF 12
ENDMDL
MODEL 3
REMARK VINA RESULT:    -2.763      1.804      5.909
REMARK INTER + INTRA:          -4.227
REMARK INTER:                  -3.456
REMARK INTRA:                  -0.771
REMARK UNBOUND:                -0.173
REMARK SMILES O=c1c(O[C@H]2O[C@@H](CO)[C@H](O)[C@H](O)[C@H]2O)c(-c2ccc(O)c(O)c2)oc2cc(O)cc(O)c12
REMARK SMILES IDX 4 1 3 2 16 3 25 4 2 5 26 6 1 7 33 8 27 9 31 10 28 11 30 12
REMARK SMILES IDX 17 13 18 14 19 15 20 16 24 17 22 18 21 19 23 21 32 23 29 25
REMARK SMILES IDX 5 27 14 28 6 29 12 30 7 31 10 32 15 33 13 35 8 37 9 38 11 40
REMARK H PARENT 21 20 23 22 32 24 29 26 15 34 13 36 9 39 11 41
REMARK Flexibility Score: inf
ROOT
ATOM      1  O   UNL     1      52.449  14.302  27.769  1.00  0.00    -0.454 OA
ENDROOT
BRANCH   1   2
ATOM      2  C   UNL     1      52.908  14.994  26.640  1.00  0.00     0.214 A 
ATOM      3  C   UNL     1      52.082  15.069  25.512  1.00  0.00     0.180 A 
ATOM      4  O   UNL     1      52.612  15.313  24.317  1.00  0.00    -0.452 OA
ATOM      5  C   UNL     1      54.235  15.466  26.518  1.00  0.00     0.239 A 
ATOM      6  C   UNL     1      53.903  15.545  24.125  1.00  0.00     0.146 A 
ATOM      7  O   UNL     1      54.880  15.750  27.565  1.00  0.00    -0.285 OA
ATOM      8  C   UNL     1      54.791  15.677  25.229  1.00  0.00     0.111 A 
ATOM      9  C   UNL     1      54.368  15.670  22.818  1.00  0.00     0.094 A 
ATOM     10  C   UNL     1      56.157  15.987  24.966  1.00  0.00     0.134 A 
ATOM     11  C   UNL     1      55.713  15.918  22.569  1.00  0.00     0.123 A 
ATOM     12  C   UNL     1      56.587  16.125  23.643  1.00  0.00     0.093 A 
BRANCH   3  13
ATOM     13  C   UNL     1      50.613  15.091  25.633  1.00  0.00     0.025 A 
ATOM     14  C   UNL     1      49.931  15.641  26.739  1.00  0.00     0.016 A 
ATOM     15  C   UNL     1      48.568  15.957  26.639  1.00  0.00     0.051 A 
ATOM     16  C   UNL     1      47.859  15.706  25.454  1.00  0.00     0.157 A 
ATOM     17  C   UNL     1      49.873  14.728  24.498  1.00  0.00     0.062 A 
ATOM     18  C   UNL     1      48.515  15.068  24.389  1.00  0.00     0.158 A 
BRANCH  16  19
ATOM     19  O   UNL     1      46.513  16.068  25.340  1.00  0.00    -0.504 OA
ATOM     20  H   UNL     1      46.104  16.794  25.910  1.00  0.00     0.293 HD
ENDBRANCH  16  19
BRANCH  18  21
ATOM     21  O   UNL     1      47.817  14.811  23.214  1.00  0.00    -0.504 OA
ATOM     22  H   UNL     1      47.003  15.351  22.936  1.00  0.00     0.293 HD
ENDBRANCH  18  21
ENDBRANCH   3  13
BRANCH  10  23
ATOM     23  O   UNL     1      57.147  16.124  25.943  1.00  0.00    -0.507 OA
ATOM     24  H   UNL     1      57.796  16.882  26.004  1.00  0.00     0.293 HD
ENDBRANCH  10  23
BRANCH  11  25
ATOM     25  O   UNL     1      56.199  15.915  21.266  1.00  0.00    -0.508 OA
ATOM     26  H   UNL     1      56.100  16.721  20.648  1.00  0.00     0.293 HD
ENDBRANCH  11  25
ENDBRANCH   1   2
BRANCH   1  27
ATOM     27  C   UNL     1      52.214  12.912  27.941  1.00  0.00     0.339 C 
ATOM     28  C   UNL     1      53.374  12.230  28.718  1.00  0.00     0.214 C 
ATOM     29  O   UNL     1      52.136  12.367  26.632  1.00  0.00    -0.332 OA
ATOM     30  C   UNL     1      53.695  10.824  28.150  1.00  0.00     0.180 C 
ATOM     31  C   UNL     1      51.682  11.023  26.638  1.00  0.00     0.179 C 
ATOM     32  C   UNL     1      52.400  10.127  27.687  1.00  0.00     0.177 C 
BRANCH  28  33
ATOM     33  O   UNL     1      54.530  13.015  28.654  1.00  0.00    -0.384 OA
ATOM     34  H   UNL     1      54.233  13.959  28.551  1.00  0.00     0.211 HD
ENDBRANCH  28  33
BRANCH  30  35
ATOM     35  O   UNL     1      54.325  10.030  29.120  1.00  0.00    -0.387 OA
ATOM     36  H   UNL     1      54.988  10.609  29.581  1.00  0.00     0.211 HD
ENDBRANCH  30  35
BRANCH  31  37
ATOM     37  C   UNL     1      51.881  10.456  25.222  1.00  0.00     0.191 C 
BRANCH  37  38
ATOM     38  O   UNL     1      51.315  11.320  24.273  1.00  0.00    -0.394 OA
ATOM     39  H   UNL     1      51.477  10.891  23.386  1.00  0.00     0.210 HD
ENDBRANCH  37  38
ENDBRANCH  31  37
BRANCH  32  40
ATOM     40  O   UNL     1      51.539   9.938  28.783  1.00  0.00    -0.387 OA
ATOM     41  H   UNL     1      52.030   9.413  29.460  1.00  0.00     0.211 HD
ENDBRANCH  32  40
ENDBRANCH   1  27
TORSDOF 12
ENDMDL
MODEL 4
REMARK VINA RESULT:    -2.503      2.810      7.140
REMARK INTER + INTRA:          -3.846
REMARK INTER:                  -3.959
REMARK INTRA:                   0.114
REMARK UNBOUND:                -0.173
REMARK SMILES O=c1c(O[C@H]2O[C@@H](CO)[C@H](O)[C@H](O)[C@H]2O)c(-c2ccc(O)c(O)c2)oc2cc(O)cc(O)c12
REMARK SMILES IDX 4 1 3 2 16 3 25 4 2 5 26 6 1 7 33 8 27 9 31 10 28 11 30 12
REMARK SMILES IDX 17 13 18 14 19 15 20 16 24 17 22 18 21 19 23 21 32 23 29 25
REMARK SMILES IDX 5 27 14 28 6 29 12 30 7 31 10 32 15 33 13 35 8 37 9 38 11 40
REMARK H PARENT 21 20 23 22 32 24 29 26 15 34 13 36 9 39 11 41
REMARK Flexibility Score: inf
ROOT
ATOM      1  O   UNL     1      52.279  13.752  26.695  1.00  0.00    -0.454 OA
ENDROOT
BRANCH   1   2
ATOM      2  C   UNL     1      51.268  14.209  25.838  1.00  0.00     0.214 A 
ATOM      3  C   UNL     1      49.954  13.774  26.050  1.00  0.00     0.180 A 
ATOM      4  O   UNL     1      49.073  13.814  25.054  1.00  0.00    -0.452 OA
ATOM      5  C   UNL     1      51.537  14.946  24.660  1.00  0.00     0.239 A 
ATOM      6  C   UNL     1      49.353  14.299  23.852  1.00  0.00     0.146 A 
ATOM      7  O   UNL     1      52.583  15.649  24.606  1.00  0.00    -0.285 OA
ATOM      8  C   UNL     1      50.598  14.935  23.595  1.00  0.00     0.111 A 
ATOM      9  C   UNL     1      48.392  14.181  22.850  1.00  0.00     0.094 A 
ATOM     10  C   UNL     1      50.820  15.492  22.302  1.00  0.00     0.134 A 
ATOM     11  C   UNL     1      48.639  14.678  21.576  1.00  0.00     0.123 A 
ATOM     12  C   UNL     1      49.827  15.374  21.324  1.00  0.00     0.093 A 
BRANCH   3  13
ATOM     13  C   UNL     1      49.455  13.462  27.401  1.00  0.00     0.025 A 
ATOM     14  C   UNL     1      50.238  13.589  28.568  1.00  0.00     0.016 A 
ATOM     15  C   UNL     1      49.621  13.630  29.828  1.00  0.00     0.051 A 
ATOM     16  C   UNL     1      48.228  13.519  29.948  1.00  0.00     0.157 A 
ATOM     17  C   UNL     1      48.079  13.226  27.536  1.00  0.00     0.062 A 
ATOM     18  C   UNL     1      47.460  13.293  28.794  1.00  0.00     0.158 A 
BRANCH  16  19
ATOM     19  O   UNL     1      47.611  13.611  31.200  1.00  0.00    -0.504 OA
ATOM     20  H   UNL     1      48.141  13.740  32.049  1.00  0.00     0.293 HD
ENDBRANCH  16  19
BRANCH  18  21
ATOM     21  O   UNL     1      46.078  13.176  28.906  1.00  0.00    -0.504 OA
ATOM     22  H   UNL     1      45.620  12.285  29.068  1.00  0.00     0.293 HD
ENDBRANCH  18  21
ENDBRANCH   3  13
BRANCH  10  23
ATOM     23  O   UNL     1      51.998  16.125  21.897  1.00  0.00    -0.507 OA
ATOM     24  H   UNL     1      52.224  16.376  20.955  1.00  0.00     0.293 HD
ENDBRANCH  10  23
BRANCH  11  25
ATOM     25  O   UNL     1      47.735  14.449  20.544  1.00  0.00    -0.508 OA
ATOM     26  H   UNL     1      47.088  15.168  20.220  1.00  0.00     0.293 HD
ENDBRANCH  11  25
ENDBRANCH   1   2
BRANCH   1  27
ATOM     27  C   UNL     1      53.517  14.359  27.034  1.00  0.00     0.339 C 
ATOM     28  C   UNL     1      54.649  13.927  26.061  1.00  0.00     0.214 C 
ATOM     29  O   UNL     1      53.823  13.909  28.346  1.00  0.00    -0.332 OA
ATOM     30  C   UNL     1      55.991  13.709  26.804  1.00  0.00     0.180 C 
ATOM     31  C   UNL     1      54.921  14.609  28.908  1.00  0.00     0.179 C 
ATOM     32  C   UNL     1      56.140  14.731  27.949  1.00  0.00     0.177 C 
BRANCH  28  33
ATOM     33  O   UNL     1      54.300  12.741  25.405  1.00  0.00    -0.384 OA
ATOM     34  H   UNL     1      53.614  12.291  25.967  1.00  0.00     0.211 HD
ENDBRANCH  28  33
BRANCH  30  35
ATOM     35  O   UNL     1      57.073  13.843  25.922  1.00  0.00    -0.387 OA
ATOM     36  H   UNL     1      57.889  13.578  26.424  1.00  0.00     0.211 HD
ENDBRANCH  30  35
BRANCH  31  37
ATOM     37  C   UNL     1      55.328  13.878  30.201  1.00  0.00     0.191 C 
BRANCH  37  38
ATOM     38  O   UNL     1      55.774  14.803  31.156  1.00  0.00    -0.394 OA
ATOM     39  H   UNL     1      56.516  15.307  30.718  1.00  0.00     0.210 HD
ENDBRANCH  37  38
ENDBRANCH  31  37
BRANCH  32  40
ATOM     40  O   UNL     1      56.171  16.036  27.425  1.00  0.00    -0.387 OA
ATOM     41  H   UNL     1      55.661  16.030  26.580  1.00  0.00     0.211 HD
ENDBRANCH  32  40
ENDBRANCH   1  27
TORSDOF 12
ENDMDL
MODEL 5
REMARK VINA RESULT:    -2.308      2.379      6.846
REMARK INTER + INTRA:          -3.560
REMARK INTER:                  -3.219
REMARK INTRA:                  -0.341
REMARK UNBOUND:                -0.173
REMARK SMILES O=c1c(O[C@H]2O[C@@H](CO)[C@H](O)[C@H](O)[C@H]2O)c(-c2ccc(O)c(O)c2)oc2cc(O)cc(O)c12
REMARK SMILES IDX 4 1 3 2 16 3 25 4 2 5 26 6 1 7 33 8 27 9 31 10 28 11 30 12
REMARK SMILES IDX 17 13 18 14 19 15 20 16 24 17 22 18 21 19 23 21 32 23 29 25
REMARK SMILES IDX 5 27 14 28 6 29 12 30 7 31 10 32 15 33 13 35 8 37 9 38 11 40
REMARK H PARENT 21 20 23 22 32 24 29 26 15 34 13 36 9 39 11 41
REMARK Flexibility Score: inf
ROOT
ATOM      1  O   UNL     1      51.236  14.247  27.189  1.00  0.00    -0.454 OA
ENDROOT
BRANCH   1   2
ATOM      2  C   UNL     1      50.459  14.606  26.079  1.00  0.00     0.214 A 
ATOM      3  C   UNL     1      49.126  14.181  26.020  1.00  0.00     0.180 A 
ATOM      4  O   UNL     1      48.503  14.112  24.848  1.00  0.00    -0.452 OA
ATOM      5  C   UNL     1      51.006  15.224  24.929  1.00  0.00     0.239 A 
ATOM      6  C   UNL     1      49.061  14.477  23.702  1.00  0.00     0.146 A 
ATOM      7  O   UNL     1      52.045  15.928  25.051  1.00  0.00    -0.285 OA
ATOM      8  C   UNL     1      50.341  15.097  23.681  1.00  0.00     0.111 A 
ATOM      9  C   UNL     1      48.359  14.250  22.520  1.00  0.00     0.094 A 
ATOM     10  C   UNL     1      50.867  15.524  22.427  1.00  0.00     0.134 A 
ATOM     11  C   UNL     1      48.904  14.619  21.295  1.00  0.00     0.123 A 
ATOM     12  C   UNL     1      50.128  15.299  21.261  1.00  0.00     0.093 A 
BRANCH   3  13
ATOM     13  C   UNL     1      48.321  14.002  27.242  1.00  0.00     0.025 A 
ATOM     14  C   UNL     1      47.109  13.281  27.276  1.00  0.00     0.016 A 
ATOM     15  C   UNL     1      46.585  12.842  28.501  1.00  0.00     0.051 A 
ATOM     16  C   UNL     1      47.241  13.136  29.707  1.00  0.00     0.157 A 
ATOM     17  C   UNL     1      48.903  14.398  28.455  1.00  0.00     0.062 A 
ATOM     18  C   UNL     1      48.393  13.938  29.679  1.00  0.00     0.158 A 
BRANCH  16  19
ATOM     19  O   UNL     1      46.744  12.654  30.923  1.00  0.00    -0.504 OA
ATOM     20  H   UNL     1      45.882  12.996  31.321  1.00  0.00     0.293 HD
ENDBRANCH  16  19
BRANCH  18  21
ATOM     21  O   UNL     1      49.045  14.238  30.871  1.00  0.00    -0.504 OA
ATOM     22  H   UNL     1      50.057  14.263  30.945  1.00  0.00     0.293 HD
ENDBRANCH  18  21
ENDBRANCH   3  13
BRANCH  10  23
ATOM     23  O   UNL     1      52.115  16.125  22.246  1.00  0.00    -0.507 OA
ATOM     24  H   UNL     1      52.271  17.012  21.813  1.00  0.00     0.293 HD
ENDBRANCH  10  23
BRANCH  11  25
ATOM     25  O   UNL     1      48.263  14.279  20.109  1.00  0.00    -0.508 OA
ATOM     26  H   UNL     1      48.476  14.740  19.225  1.00  0.00     0.293 HD
ENDBRANCH  11  25
ENDBRANCH   1   2
BRANCH   1  27
ATOM     27  C   UNL     1      52.532  13.671  27.234  1.00  0.00     0.339 C 
ATOM     28  C   UNL     1      52.488  12.208  27.754  1.00  0.00     0.214 C 
ATOM     29  O   UNL     1      53.282  14.472  28.137  1.00  0.00    -0.332 OA
ATOM     30  C   UNL     1      53.689  11.892  28.681  1.00  0.00     0.180 C 
ATOM     31  C   UNL     1      54.663  14.152  28.115  1.00  0.00     0.179 C 
ATOM     32  C   UNL     1      54.952  12.625  28.188  1.00  0.00     0.177 C 
BRANCH  28  33
ATOM     33  O   UNL     1      51.302  11.978  28.460  1.00  0.00    -0.384 OA
ATOM     34  H   UNL     1      51.019  12.852  28.842  1.00  0.00     0.211 HD
ENDBRANCH  28  33
BRANCH  30  35
ATOM     35  O   UNL     1      53.940  10.512  28.714  1.00  0.00    -0.387 OA
ATOM     36  H   UNL     1      54.924  10.400  28.785  1.00  0.00     0.211 HD
ENDBRANCH  30  35
BRANCH  31  37
ATOM     37  C   UNL     1      55.330  14.880  29.296  1.00  0.00     0.191 C 
BRANCH  37  38
ATOM     38  O   UNL     1      55.383  14.036  30.415  1.00  0.00    -0.394 OA
ATOM     39  H   UNL     1      55.130  14.605  31.195  1.00  0.00     0.210 HD
ENDBRANCH  37  38
ENDBRANCH  31  37
BRANCH  32  40
ATOM     40  O   UNL     1      55.299  12.172  26.902  1.00  0.00    -0.387 OA
ATOM     41  H   UNL     1      55.921  12.832  26.512  1.00  0.00     0.211 HD
ENDBRANCH  32  40
ENDBRANCH   1  27
TORSDOF 12
ENDMDL
MODEL 6
REMARK VINA RESULT:    -2.242      2.770      3.938
REMARK INTER + INTRA:          -3.463
REMARK INTER:                  -5.627
REMARK INTRA:                   2.164
REMARK UNBOUND:                -0.173
REMARK SMILES O=c1c(O[C@H]2O[C@@H](CO)[C@H](O)[C@H](O)[C@H]2O)c(-c2ccc(O)c(O)c2)oc2cc(O)cc(O)c12
REMARK SMILES IDX 4 1 3 2 16 3 25 4 2 5 26 6 1 7 33 8 27 9 31 10 28 11 30 12
REMARK SMILES IDX 17 13 18 14 19 15 20 16 24 17 22 18 21 19 23 21 32 23 29 25
REMARK SMILES IDX 5 27 14 28 6 29 12 30 7 31 10 32 15 33 13 35 8 37 9 38 11 40
REMARK H PARENT 21 20 23 22 32 24 29 26 15 34 13 36 9 39 11 41
REMARK Flexibility Score: inf
ROOT
ATOM      1  O   UNL     1      51.735  15.951  24.726  1.00  0.00    -0.454 OA
ENDROOT
BRANCH   1   2
ATOM      2  C   UNL     1      52.915  15.434  25.279  1.00  0.00     0.214 A 
ATOM      3  C   UNL     1      52.890  14.942  26.589  1.00  0.00     0.180 A 
ATOM      4  O   UNL     1      54.018  14.856  27.288  1.00  0.00    -0.452 OA
ATOM      5  C   UNL     1      54.173  15.550  24.642  1.00  0.00     0.239 A 
ATOM      6  C   UNL     1      55.208  15.170  26.793  1.00  0.00     0.146 A 
ATOM      7  O   UNL     1      54.215  15.635  23.384  1.00  0.00    -0.285 OA
ATOM      8  C   UNL     1      55.360  15.499  25.418  1.00  0.00     0.111 A 
ATOM      9  C   UNL     1      56.306  15.157  27.651  1.00  0.00     0.094 A 
ATOM     10  C   UNL     1      56.672  15.767  24.928  1.00  0.00     0.134 A 
ATOM     11  C   UNL     1      57.573  15.475  27.175  1.00  0.00     0.123 A 
ATOM     12  C   UNL     1      57.756  15.727  25.811  1.00  0.00     0.093 A 
BRANCH   3  13
ATOM     13  C   UNL     1      51.679  14.319  27.154  1.00  0.00     0.025 A 
ATOM     14  C   UNL     1      51.659  13.025  27.715  1.00  0.00     0.016 A 
ATOM     15  C   UNL     1      50.598  12.635  28.546  1.00  0.00     0.051 A 
ATOM     16  C   UNL     1      49.533  13.510  28.807  1.00  0.00     0.157 A 
ATOM     17  C   UNL     1      50.555  15.141  27.318  1.00  0.00     0.062 A 
ATOM     18  C   UNL     1      49.505  14.760  28.169  1.00  0.00     0.158 A 
BRANCH  16  19
ATOM     19  O   UNL     1      48.501  13.137  29.676  1.00  0.00    -0.504 OA
ATOM     20  H   UNL     1      47.801  13.794  29.987  1.00  0.00     0.293 HD
ENDBRANCH  16  19
BRANCH  18  21
ATOM     21  O   UNL     1      48.449  15.631  28.419  1.00  0.00    -0.504 OA
ATOM     22  H   UNL     1      47.493  15.415  28.157  1.00  0.00     0.293 HD
ENDBRANCH  18  21
ENDBRANCH   3  13
BRANCH  10  23
ATOM     23  O   UNL     1      56.975  16.125  23.612  1.00  0.00    -0.507 OA
ATOM     24  H   UNL     1      57.153  17.056  23.293  1.00  0.00     0.293 HD
ENDBRANCH  10  23
BRANCH  11  25
ATOM     25  O   UNL     1      58.646  15.587  28.054  1.00  0.00    -0.508 OA
ATOM     26  H   UNL     1      58.823  16.437  28.589  1.00  0.00     0.293 HD
ENDBRANCH  11  25
ENDBRANCH   1   2
BRANCH   1  27
ATOM     27  C   UNL     1      50.460  15.341  24.593  1.00  0.00     0.339 C 
ATOM     28  C   UNL     1      50.582  13.814  24.334  1.00  0.00     0.214 C 
ATOM     29  O   UNL     1      49.847  15.964  23.472  1.00  0.00    -0.332 OA
ATOM     30  C   UNL     1      49.529  13.320  23.310  1.00  0.00     0.180 C 
ATOM     31  C   UNL     1      48.478  15.617  23.349  1.00  0.00     0.179 C 
ATOM     32  C   UNL     1      48.206  14.092  23.490  1.00  0.00     0.177 C 
BRANCH  28  33
ATOM     33  O   UNL     1      51.858  13.503  23.853  1.00  0.00    -0.384 OA
ATOM     34  H   UNL     1      52.293  14.364  23.610  1.00  0.00     0.211 HD
ENDBRANCH  28  33
BRANCH  30  35
ATOM     35  O   UNL     1      49.288  11.948  23.470  1.00  0.00    -0.387 OA
ATOM     36  H   UNL     1      50.042  11.583  24.005  1.00  0.00     0.211 HD
ENDBRANCH  30  35
BRANCH  31  37
ATOM     37  C   UNL     1      47.988  16.125  21.981  1.00  0.00     0.191 C 
BRANCH  37  38
ATOM     38  O   UNL     1      48.991  15.952  21.016  1.00  0.00    -0.394 OA
ATOM     39  H   UNL     1      49.681  15.371  21.444  1.00  0.00     0.210 HD
ENDBRANCH  37  38
ENDBRANCH  31  37
BRANCH  32  40
ATOM     40  O   UNL     1      47.677  13.845  24.770  1.00  0.00    -0.387 OA
ATOM     41  H   UNL     1      48.188  14.394  25.414  1.00  0.00     0.211 HD
ENDBRANCH  32  40
ENDBRANCH   1  27
TORSDOF 12
ENDMDL
