MODEL 1
REMARK VINA RESULT:    -4.335      0.000      0.000
REMARK INTER + INTRA:          -9.771
REMARK INTER:                  -8.136
REMARK INTRA:                  -1.635
REMARK UNBOUND:                -1.635
REMARK SMILES CCCCCCCCC=CCCCCCCCC(=O)[O-]
REMARK SMILES IDX 10 1 9 2 11 3 12 4 13 5 14 6 15 7 16 8 17 9 18 10 19 11
REMARK SMILES IDX 20 12 8 13 7 14 6 15 5 16 4 17 3 18 2 19 1 20
REMARK H PARENT
REMARK Flexibility Score: inf
ROOT
ATOM      1  C   UNL     1      -1.804  11.444  -4.238  1.00  0.00    -0.031 C 
ATOM      2  C   UNL     1      -2.886  11.914  -4.887  1.00  0.00    -0.031 C 
ENDROOT
BRANCH   1   3
ATOM      3  C   UNL     1      -0.453  12.117  -4.219  1.00  0.00     0.027 C 
BRANCH   3   4
ATOM      4  C   UNL     1       0.376  11.722  -2.984  1.00  0.00     0.004 C 
BRANCH   4   5
ATOM      5  C   UNL     1       1.577  10.809  -3.290  1.00  0.00     0.000 C 
BRANCH   5   6
ATOM      6  C   UNL     1       1.908   9.852  -2.131  1.00  0.00     0.000 C 
BRANCH   6   7
ATOM      7  C   UNL     1       1.073  10.137  -0.873  1.00  0.00     0.000 C 
BRANCH   7   8
ATOM      8  C   UNL     1       0.701   8.858  -0.104  1.00  0.00     0.006 C 
BRANCH   8   9
ATOM      9  C   UNL     1       1.717   7.731  -0.330  1.00  0.00     0.053 C 
BRANCH   9  10
ATOM     10  C   UNL     1       2.671   7.602   0.819  1.00  0.00     0.041 C 
ATOM     11  O   UNL     1       2.601   6.613   1.594  1.00  0.00    -0.550 OA
ATOM     12  O   UNL     1       3.658   8.561   1.012  1.00  0.00    -0.550 OA
ENDBRANCH   9  10
ENDBRANCH   8   9
ENDBRANCH   7   8
ENDBRANCH   6   7
ENDBRANCH   5   6
ENDBRANCH   4   5
ENDBRANCH   3   4
ENDBRANCH   1   3
BRANCH   2  13
ATOM     13  C   UNL     1      -2.892  13.134  -5.773  1.00  0.00     0.027 C 
BRANCH  13  14
ATOM     14  C   UNL     1      -3.238  14.390  -4.965  1.00  0.00     0.004 C 
BRANCH  14  15
ATOM     15  C   UNL     1      -2.886  15.662  -5.751  1.00  0.00     0.000 C 
BRANCH  15  16
ATOM     16  C   UNL     1      -1.844  16.533  -5.032  1.00  0.00     0.000 C 
BRANCH  16  17
ATOM     17  C   UNL     1      -0.440  15.908  -5.042  1.00  0.00    -0.000 C 
BRANCH  17  18
ATOM     18  C   UNL     1       0.125  15.803  -3.618  1.00  0.00    -0.000 C 
BRANCH  18  19
ATOM     19  C   UNL     1      -0.965  15.916  -2.541  1.00  0.00    -0.003 C 
ATOM     20  C   UNL     1      -0.391  16.029  -1.129  1.00  0.00     0.004 C 
ENDBRANCH  18  19
ENDBRANCH  17  18
ENDBRANCH  16  17
ENDBRANCH  15  16
ENDBRANCH  14  15
ENDBRANCH  13  14
ENDBRANCH   2  13
TORSDOF 15
ENDMDL
MODEL 2
REMARK VINA RESULT:    -4.132      3.120      8.005
REMARK INTER + INTRA:          -9.391
REMARK INTER:                  -7.981
REMARK INTRA:                  -1.410
REMARK UNBOUND:                -1.635
REMARK SMILES CCCCCCCCC=CCCCCCCCC(=O)[O-]
REMARK SMILES IDX 10 1 9 2 11 3 12 4 13 5 14 6 15 7 16 8 17 9 18 10 19 11
REMARK SMILES IDX 20 12 8 13 7 14 6 15 5 16 4 17 3 18 2 19 1 20
REMARK H PARENT
REMARK Flexibility Score: inf
ROOT
ATOM      1  C   UNL     1      -0.633  12.296  -4.279  1.00  0.00    -0.031 C 
ATOM      2  C   UNL     1       0.487  12.110  -3.555  1.00  0.00    -0.031 C 
ENDROOT
BRANCH   1   3
ATOM      3  C   UNL     1      -1.793  11.332  -4.332  1.00  0.00     0.027 C 
BRANCH   3   4
ATOM      4  C   UNL     1      -3.107  12.024  -4.738  1.00  0.00     0.004 C 
BRANCH   4   5
ATOM      5  C   UNL     1      -2.985  12.956  -5.957  1.00  0.00     0.000 C 
BRANCH   5   6
ATOM      6  C   UNL     1      -3.308  14.422  -5.622  1.00  0.00     0.000 C 
BRANCH   6   7
ATOM      7  C   UNL     1      -2.122  15.363  -5.890  1.00  0.00     0.000 C 
BRANCH   7   8
ATOM      8  C   UNL     1      -1.935  16.413  -4.781  1.00  0.00     0.006 C 
BRANCH   8   9
ATOM      9  C   UNL     1      -1.811  15.773  -3.392  1.00  0.00     0.053 C 
BRANCH   9  10
ATOM     10  C   UNL     1      -0.471  16.036  -2.775  1.00  0.00     0.041 C 
ATOM     11  O   UNL     1      -0.270  15.775  -1.560  1.00  0.00    -0.550 OA
ATOM     12  O   UNL     1       0.564  16.539  -3.553  1.00  0.00    -0.550 OA
ENDBRANCH   9  10
ENDBRANCH   8   9
ENDBRANCH   7   8
ENDBRANCH   6   7
ENDBRANCH   5   6
ENDBRANCH   4   5
ENDBRANCH   3   4
ENDBRANCH   1   3
BRANCH   2  13
ATOM     13  C   UNL     1       0.799  10.865  -2.763  1.00  0.00     0.027 C 
BRANCH  13  14
ATOM     14  C   UNL     1       2.254  10.434  -2.983  1.00  0.00     0.004 C 
BRANCH  14  15
ATOM     15  C   UNL     1       2.573   9.159  -2.188  1.00  0.00     0.000 C 
BRANCH  15  16
ATOM     16  C   UNL     1       3.724   9.357  -1.189  1.00  0.00     0.000 C 
BRANCH  16  17
ATOM     17  C   UNL     1       3.378   8.855   0.221  1.00  0.00    -0.000 C 
BRANCH  17  18
ATOM     18  C   UNL     1       1.901   8.443   0.310  1.00  0.00    -0.000 C 
BRANCH  18  19
ATOM     19  C   UNL     1       1.693   7.167   1.140  1.00  0.00    -0.003 C 
ATOM     20  C   UNL     1       3.009   6.529   1.584  1.00  0.00     0.004 C 
ENDBRANCH  18  19
ENDBRANCH  17  18
ENDBRANCH  16  17
ENDBRANCH  15  16
ENDBRANCH  14  15
ENDBRANCH  13  14
ENDBRANCH   2  13
TORSDOF 15
ENDMDL
MODEL 3
REMARK VINA RESULT:    -4.077      1.223      2.182
REMARK INTER + INTRA:          -9.287
REMARK INTER:                  -7.495
REMARK INTRA:                  -1.792
REMARK UNBOUND:                -1.635
REMARK SMILES CCCCCCCCC=CCCCCCCCC(=O)[O-]
REMARK SMILES IDX 10 1 9 2 11 3 12 4 13 5 14 6 15 7 16 8 17 9 18 10 19 11
REMARK SMILES IDX 20 12 8 13 7 14 6 15 5 16 4 17 3 18 2 19 1 20
REMARK H PARENT
REMARK Flexibility Score: inf
ROOT
ATOM      1  C   UNL     1      -3.315  13.369  -4.445  1.00  0.00    -0.031 C 
ATOM      2  C   UNL     1      -3.332  14.666  -4.802  1.00  0.00    -0.031 C 
ENDROOT
BRANCH   1   3
ATOM      3  C   UNL     1      -2.642  12.269  -5.230  1.00  0.00     0.027 C 
BRANCH   3   4
ATOM      4  C   UNL     1      -1.572  11.535  -4.403  1.00  0.00     0.004 C 
BRANCH   4   5
ATOM      5  C   UNL     1      -0.435  12.438  -3.888  1.00  0.00     0.000 C 
BRANCH   5   6
ATOM      6  C   UNL     1       0.842  11.651  -3.546  1.00  0.00     0.000 C 
BRANCH   6   7
ATOM      7  C   UNL     1       0.743  10.923  -2.196  1.00  0.00     0.000 C 
BRANCH   7   8
ATOM      8  C   UNL     1       1.806   9.823  -2.035  1.00  0.00     0.006 C 
BRANCH   8   9
ATOM      9  C   UNL     1       2.128   9.540  -0.561  1.00  0.00     0.053 C 
BRANCH   9  10
ATOM     10  C   UNL     1       1.146   8.586   0.049  1.00  0.00     0.041 C 
ATOM     11  O   UNL     1       1.419   7.360   0.131  1.00  0.00    -0.550 OA
ATOM     12  O   UNL     1      -0.057   9.059   0.557  1.00  0.00    -0.550 OA
ENDBRANCH   9  10
ENDBRANCH   8   9
ENDBRANCH   7   8
ENDBRANCH   6   7
ENDBRANCH   5   6
ENDBRANCH   4   5
ENDBRANCH   3   4
ENDBRANCH   1   3
BRANCH   2  13
ATOM     13  C   UNL     1      -2.766  15.208  -6.090  1.00  0.00     0.027 C 
BRANCH  13  14
ATOM     14  C   UNL     1      -2.684  16.739  -6.044  1.00  0.00     0.004 C 
BRANCH  14  15
ATOM     15  C   UNL     1      -1.241  17.202  -5.795  1.00  0.00     0.000 C 
BRANCH  15  16
ATOM     16  C   UNL     1      -0.224  16.054  -5.897  1.00  0.00     0.000 C 
BRANCH  16  17
ATOM     17  C   UNL     1       0.469  15.755  -4.559  1.00  0.00    -0.000 C 
BRANCH  17  18
ATOM     18  C   UNL     1      -0.077  16.659  -3.444  1.00  0.00    -0.000 C 
BRANCH  18  19
ATOM     19  C   UNL     1      -0.820  15.870  -2.355  1.00  0.00    -0.003 C 
ATOM     20  C   UNL     1      -0.078  15.862  -1.019  1.00  0.00     0.004 C 
ENDBRANCH  18  19
ENDBRANCH  17  18
ENDBRANCH  16  17
ENDBRANCH  15  16
ENDBRANCH  14  15
ENDBRANCH  13  14
ENDBRANCH   2  13
TORSDOF 15
ENDMDL
MODEL 4
REMARK VINA RESULT:    -4.052      3.117      7.597
REMARK INTER + INTRA:          -9.240
REMARK INTER:                  -7.991
REMARK INTRA:                  -1.249
REMARK UNBOUND:                -1.635
REMARK SMILES CCCCCCCCC=CCCCCCCCC(=O)[O-]
REMARK SMILES IDX 10 1 9 2 11 3 12 4 13 5 14 6 15 7 16 8 17 9 18 10 19 11
REMARK SMILES IDX 20 12 8 13 7 14 6 15 5 16 4 17 3 18 2 19 1 20
REMARK H PARENT
REMARK Flexibility Score: inf
ROOT
ATOM      1  C   UNL     1      -2.725  11.969  -4.790  1.00  0.00    -0.031 C 
ATOM      2  C   UNL     1      -1.586  11.701  -4.125  1.00  0.00    -0.031 C 
ENDROOT
BRANCH   1   3
ATOM      3  C   UNL     1      -2.881  13.050  -5.831  1.00  0.00     0.027 C 
BRANCH   3   4
ATOM      4  C   UNL     1      -3.267  14.405  -5.209  1.00  0.00     0.004 C 
BRANCH   4   5
ATOM      5  C   UNL     1      -2.978  15.622  -6.107  1.00  0.00     0.000 C 
BRANCH   5   6
ATOM      6  C   UNL     1      -2.272  16.764  -5.354  1.00  0.00     0.000 C 
BRANCH   6   7
ATOM      7  C   UNL     1      -0.747  16.582  -5.303  1.00  0.00     0.000 C 
BRANCH   7   8
ATOM      8  C   UNL     1      -0.144  17.005  -3.953  1.00  0.00     0.006 C 
BRANCH   8   9
ATOM      9  C   UNL     1      -0.043  15.831  -2.970  1.00  0.00     0.053 C 
BRANCH   9  10
ATOM     10  C   UNL     1      -0.935  16.022  -1.781  1.00  0.00     0.041 C 
ATOM     11  O   UNL     1      -2.184  15.910  -1.901  1.00  0.00    -0.550 OA
ATOM     12  O   UNL     1      -0.384  16.291  -0.535  1.00  0.00    -0.550 OA
ENDBRANCH   9  10
ENDBRANCH   8   9
ENDBRANCH   7   8
ENDBRANCH   6   7
ENDBRANCH   5   6
ENDBRANCH   4   5
ENDBRANCH   3   4
ENDBRANCH   1   3
BRANCH   2  13
ATOM     13  C   UNL     1      -0.314  12.503  -4.247  1.00  0.00     0.027 C 
BRANCH  13  14
ATOM     14  C   UNL     1       0.844  11.792  -3.536  1.00  0.00     0.004 C 
BRANCH  14  15
ATOM     15  C   UNL     1       0.330  10.954  -2.356  1.00  0.00     0.000 C 
BRANCH  15  16
ATOM     16  C   UNL     1       1.462  10.244  -1.597  1.00  0.00     0.000 C 
BRANCH  16  17
ATOM     17  C   UNL     1       0.955   9.445  -0.387  1.00  0.00    -0.000 C 
BRANCH  17  18
ATOM     18  C   UNL     1       1.647   8.077  -0.302  1.00  0.00    -0.000 C 
BRANCH  18  19
ATOM     19  C   UNL     1       1.515   7.433   1.086  1.00  0.00    -0.003 C 
ATOM     20  C   UNL     1       2.765   6.655   1.498  1.00  0.00     0.004 C 
ENDBRANCH  18  19
ENDBRANCH  17  18
ENDBRANCH  16  17
ENDBRANCH  15  16
ENDBRANCH  14  15
ENDBRANCH  13  14
ENDBRANCH   2  13
TORSDOF 15
ENDMDL
MODEL 5
REMARK VINA RESULT:    -3.794      3.802      8.199
REMARK INTER + INTRA:          -8.757
REMARK INTER:                  -7.174
REMARK INTRA:                  -1.582
REMARK UNBOUND:                -1.635
REMARK SMILES CCCCCCCCC=CCCCCCCCC(=O)[O-]
REMARK SMILES IDX 10 1 9 2 11 3 12 4 13 5 14 6 15 7 16 8 17 9 18 10 19 11
REMARK SMILES IDX 20 12 8 13 7 14 6 15 5 16 4 17 3 18 2 19 1 20
REMARK H PARENT
REMARK Flexibility Score: inf
ROOT
ATOM      1  C   UNL     1      -0.648  12.324  -4.277  1.00  0.00    -0.031 C 
ATOM      2  C   UNL     1       0.575  12.212  -3.725  1.00  0.00    -0.031 C 
ENDROOT
BRANCH   1   3
ATOM      3  C   UNL     1      -1.679  11.222  -4.313  1.00  0.00     0.027 C 
BRANCH   3   4
ATOM      4  C   UNL     1      -3.082  11.749  -4.664  1.00  0.00     0.004 C 
BRANCH   4   5
ATOM      5  C   UNL     1      -3.090  12.929  -5.653  1.00  0.00     0.000 C 
BRANCH   5   6
ATOM      6  C   UNL     1      -3.466  14.263  -4.986  1.00  0.00     0.000 C 
BRANCH   6   7
ATOM      7  C   UNL     1      -2.558  15.422  -5.429  1.00  0.00     0.000 C 
BRANCH   7   8
ATOM      8  C   UNL     1      -1.536  15.821  -4.351  1.00  0.00     0.006 C 
BRANCH   8   9
ATOM      9  C   UNL     1      -0.121  15.979  -4.924  1.00  0.00     0.053 C 
BRANCH   9  10
ATOM     10  C   UNL     1       0.455  17.328  -4.619  1.00  0.00     0.041 C 
ATOM     11  O   UNL     1      -0.287  18.345  -4.595  1.00  0.00    -0.550 OA
ATOM     12  O   UNL     1       1.808  17.456  -4.330  1.00  0.00    -0.550 OA
ENDBRANCH   9  10
ENDBRANCH   8   9
ENDBRANCH   7   8
ENDBRANCH   6   7
ENDBRANCH   5   6
ENDBRANCH   4   5
ENDBRANCH   3   4
ENDBRANCH   1   3
BRANCH   2  13
ATOM     13  C   UNL     1       1.141  10.941  -3.145  1.00  0.00     0.027 C 
BRANCH  13  14
ATOM     14  C   UNL     1       0.903  10.883  -1.632  1.00  0.00     0.004 C 
BRANCH  14  15
ATOM     15  C   UNL     1       0.394   9.496  -1.211  1.00  0.00     0.000 C 
BRANCH  15  16
ATOM     16  C   UNL     1       0.723   9.164   0.253  1.00  0.00     0.000 C 
BRANCH  16  17
ATOM     17  C   UNL     1       1.476   7.833   0.404  1.00  0.00    -0.000 C 
BRANCH  17  18
ATOM     18  C   UNL     1       2.994   8.063   0.442  1.00  0.00    -0.000 C 
BRANCH  18  19
ATOM     19  C   UNL     1       3.682   7.683  -0.878  1.00  0.00    -0.003 C 
ATOM     20  C   UNL     1       4.063   8.901  -1.719  1.00  0.00     0.004 C 
ENDBRANCH  18  19
ENDBRANCH  17  18
ENDBRANCH  16  17
ENDBRANCH  15  16
ENDBRANCH  14  15
ENDBRANCH  13  14
ENDBRANCH   2  13
TORSDOF 15
ENDMDL
MODEL 6
REMARK VINA RESULT:    -3.653      3.445      7.620
REMARK INTER + INTRA:          -8.491
REMARK INTER:                  -6.972
REMARK INTRA:                  -1.519
REMARK UNBOUND:                -1.635
REMARK SMILES CCCCCCCCC=CCCCCCCCC(=O)[O-]
REMARK SMILES IDX 10 1 9 2 11 3 12 4 13 5 14 6 15 7 16 8 17 9 18 10 19 11
REMARK SMILES IDX 20 12 8 13 7 14 6 15 5 16 4 17 3 18 2 19 1 20
REMARK H PARENT
REMARK Flexibility Score: inf
ROOT
ATOM      1  C   UNL     1      -2.728  11.679  -4.475  1.00  0.00    -0.031 C 
ATOM      2  C   UNL     1      -1.527  11.580  -3.875  1.00  0.00    -0.031 C 
ENDROOT
BRANCH   1   3
ATOM      3  C   UNL     1      -3.035  12.587  -5.641  1.00  0.00     0.027 C 
BRANCH   3   4
ATOM      4  C   UNL     1      -3.368  14.020  -5.190  1.00  0.00     0.004 C 
BRANCH   4   5
ATOM      5  C   UNL     1      -2.464  15.106  -5.801  1.00  0.00     0.000 C 
BRANCH   5   6
ATOM      6  C   UNL     1      -2.191  16.270  -4.832  1.00  0.00     0.000 C 
BRANCH   6   7
ATOM      7  C   UNL     1      -1.818  15.787  -3.421  1.00  0.00     0.000 C 
BRANCH   7   8
ATOM      8  C   UNL     1      -0.303  15.827  -3.161  1.00  0.00     0.006 C 
BRANCH   8   9
ATOM      9  C   UNL     1       0.386  16.966  -3.923  1.00  0.00     0.053 C 
BRANCH   9  10
ATOM     10  C   UNL     1       1.462  16.457  -4.833  1.00  0.00     0.041 C 
ATOM     11  O   UNL     1       1.328  15.349  -5.416  1.00  0.00    -0.550 OA
ATOM     12  O   UNL     1       2.598  17.223  -5.062  1.00  0.00    -0.550 OA
ENDBRANCH   9  10
ENDBRANCH   8   9
ENDBRANCH   7   8
ENDBRANCH   6   7
ENDBRANCH   5   6
ENDBRANCH   4   5
ENDBRANCH   3   4
ENDBRANCH   1   3
BRANCH   2  13
ATOM     13  C   UNL     1      -0.328  12.432  -4.210  1.00  0.00     0.027 C 
BRANCH  13  14
ATOM     14  C   UNL     1       0.963  11.765  -3.721  1.00  0.00     0.004 C 
BRANCH  14  15
ATOM     15  C   UNL     1       0.725  11.011  -2.403  1.00  0.00     0.000 C 
BRANCH  15  16
ATOM     16  C   UNL     1       1.854  10.022  -2.075  1.00  0.00     0.000 C 
BRANCH  16  17
ATOM     17  C   UNL     1       1.639   9.299  -0.736  1.00  0.00    -0.000 C 
BRANCH  17  18
ATOM     18  C   UNL     1       2.982   8.965  -0.071  1.00  0.00    -0.000 C 
BRANCH  18  19
ATOM     19  C   UNL     1       2.923   7.675   0.762  1.00  0.00    -0.003 C 
ATOM     20  C   UNL     1       1.492   7.218   1.044  1.00  0.00     0.004 C 
ENDBRANCH  18  19
ENDBRANCH  17  18
ENDBRANCH  16  17
ENDBRANCH  15  16
ENDBRANCH  14  15
ENDBRANCH  13  14
ENDBRANCH   2  13
TORSDOF 15
ENDMDL
MODEL 7
REMARK VINA RESULT:    -3.502      3.046      7.101
REMARK INTER + INTRA:          -8.208
REMARK INTER:                  -6.840
REMARK INTRA:                  -1.367
REMARK UNBOUND:                -1.635
REMARK SMILES CCCCCCCCC=CCCCCCCCC(=O)[O-]
REMARK SMILES IDX 10 1 9 2 11 3 12 4 13 5 14 6 15 7 16 8 17 9 18 10 19 11
REMARK SMILES IDX 20 12 8 13 7 14 6 15 5 16 4 17 3 18 2 19 1 20
REMARK H PARENT
REMARK Flexibility Score: inf
ROOT
ATOM      1  C   UNL     1      -3.063  14.709  -4.608  1.00  0.00    -0.031 C 
ATOM      2  C   UNL     1      -3.159  13.389  -4.364  1.00  0.00    -0.031 C 
ENDROOT
BRANCH   1   3
ATOM      3  C   UNL     1      -2.506  15.312  -5.875  1.00  0.00     0.027 C 
BRANCH   3   4
ATOM      4  C   UNL     1      -3.027  16.739  -6.118  1.00  0.00     0.004 C 
BRANCH   4   5
ATOM      5  C   UNL     1      -2.011  17.851  -5.800  1.00  0.00     0.000 C 
BRANCH   5   6
ATOM      6  C   UNL     1      -0.558  17.346  -5.792  1.00  0.00     0.000 C 
BRANCH   6   7
ATOM      7  C   UNL     1       0.308  18.055  -4.738  1.00  0.00     0.000 C 
BRANCH   7   8
ATOM      8  C   UNL     1       0.978  17.074  -3.761  1.00  0.00     0.006 C 
BRANCH   8   9
ATOM      9  C   UNL     1       0.098  15.849  -3.477  1.00  0.00     0.053 C 
BRANCH   9  10
ATOM     10  C   UNL     1      -0.562  15.937  -2.135  1.00  0.00     0.041 C 
ATOM     11  O   UNL     1      -1.782  16.239  -2.047  1.00  0.00    -0.550 OA
ATOM     12  O   UNL     1       0.163  15.654  -0.985  1.00  0.00    -0.550 OA
ENDBRANCH   9  10
ENDBRANCH   8   9
ENDBRANCH   7   8
ENDBRANCH   6   7
ENDBRANCH   5   6
ENDBRANCH   4   5
ENDBRANCH   3   4
ENDBRANCH   1   3
BRANCH   2  13
ATOM     13  C   UNL     1      -2.636  12.308  -5.277  1.00  0.00     0.027 C 
BRANCH  13  14
ATOM     14  C   UNL     1      -1.663  11.391  -4.527  1.00  0.00     0.004 C 
BRANCH  14  15
ATOM     15  C   UNL     1      -0.564  12.209  -3.832  1.00  0.00     0.000 C 
BRANCH  15  16
ATOM     16  C   UNL     1       0.662  11.360  -3.462  1.00  0.00     0.000 C 
BRANCH  16  17
ATOM     17  C   UNL     1       0.700  10.990  -1.972  1.00  0.00    -0.000 C 
BRANCH  17  18
ATOM     18  C   UNL     1       1.772   9.925  -1.697  1.00  0.00    -0.000 C 
BRANCH  18  19
ATOM     19  C   UNL     1       1.356   8.939  -0.595  1.00  0.00    -0.003 C 
ATOM     20  C   UNL     1       2.474   8.671   0.412  1.00  0.00     0.004 C 
ENDBRANCH  18  19
ENDBRANCH  17  18
ENDBRANCH  16  17
ENDBRANCH  15  16
ENDBRANCH  14  15
ENDBRANCH  13  14
ENDBRANCH   2  13
TORSDOF 15
ENDMDL
MODEL 8
REMARK VINA RESULT:    -3.379      1.343      2.012
REMARK INTER + INTRA:          -7.977
REMARK INTER:                  -6.189
REMARK INTRA:                  -1.789
REMARK UNBOUND:                -1.635
REMARK SMILES CCCCCCCCC=CCCCCCCCC(=O)[O-]
REMARK SMILES IDX 10 1 9 2 11 3 12 4 13 5 14 6 15 7 16 8 17 9 18 10 19 11
REMARK SMILES IDX 20 12 8 13 7 14 6 15 5 16 4 17 3 18 2 19 1 20
REMARK H PARENT
REMARK Flexibility Score: inf
ROOT
ATOM      1  C   UNL     1      -1.992  11.390  -4.158  1.00  0.00    -0.031 C 
ATOM      2  C   UNL     1      -2.968  12.061  -4.798  1.00  0.00    -0.031 C 
ENDROOT
BRANCH   1   3
ATOM      3  C   UNL     1      -0.524  11.734  -4.227  1.00  0.00     0.027 C 
BRANCH   3   4
ATOM      4  C   UNL     1       0.236  11.294  -2.963  1.00  0.00     0.004 C 
BRANCH   4   5
ATOM      5  C   UNL     1       1.767  11.257  -3.121  1.00  0.00     0.000 C 
BRANCH   5   6
ATOM      6  C   UNL     1       2.338   9.829  -3.066  1.00  0.00     0.000 C 
BRANCH   6   7
ATOM      7  C   UNL     1       3.717   9.771  -2.389  1.00  0.00     0.000 C 
BRANCH   7   8
ATOM      8  C   UNL     1       3.695   8.989  -1.064  1.00  0.00     0.006 C 
BRANCH   8   9
ATOM      9  C   UNL     1       2.485   8.051  -0.965  1.00  0.00     0.053 C 
BRANCH   9  10
ATOM     10  C   UNL     1       1.630   8.370   0.224  1.00  0.00     0.041 C 
ATOM     11  O   UNL     1       1.023   9.470   0.292  1.00  0.00    -0.550 OA
ATOM     12  O   UNL     1       1.481   7.436   1.242  1.00  0.00    -0.550 OA
ENDBRANCH   9  10
ENDBRANCH   8   9
ENDBRANCH   7   8
ENDBRANCH   6   7
ENDBRANCH   5   6
ENDBRANCH   4   5
ENDBRANCH   3   4
ENDBRANCH   1   3
BRANCH   2  13
ATOM     13  C   UNL     1      -2.737  13.199  -5.760  1.00  0.00     0.027 C 
BRANCH  13  14
ATOM     14  C   UNL     1      -3.390  14.486  -5.243  1.00  0.00     0.004 C 
BRANCH  14  15
ATOM     15  C   UNL     1      -2.335  15.576  -5.000  1.00  0.00     0.000 C 
BRANCH  15  16
ATOM     16  C   UNL     1      -1.864  15.629  -3.538  1.00  0.00     0.000 C 
BRANCH  16  17
ATOM     17  C   UNL     1      -0.348  15.424  -3.396  1.00  0.00    -0.000 C 
BRANCH  17  18
ATOM     18  C   UNL     1       0.328  15.355  -4.773  1.00  0.00    -0.000 C 
BRANCH  18  19
ATOM     19  C   UNL     1       1.433  16.409  -4.942  1.00  0.00    -0.003 C 
ATOM     20  C   UNL     1       0.926  17.836  -4.736  1.00  0.00     0.004 C 
ENDBRANCH  18  19
ENDBRANCH  17  18
ENDBRANCH  16  17
ENDBRANCH  15  16
ENDBRANCH  14  15
ENDBRANCH  13  14
ENDBRANCH   2  13
TORSDOF 15
ENDMDL
MODEL 9
REMARK VINA RESULT:    -3.280      3.453      7.564
REMARK INTER + INTRA:          -7.791
REMARK INTER:                  -6.469
REMARK INTRA:                  -1.322
REMARK UNBOUND:                -1.635
REMARK SMILES CCCCCCCCC=CCCCCCCCC(=O)[O-]
REMARK SMILES IDX 10 1 9 2 11 3 12 4 13 5 14 6 15 7 16 8 17 9 18 10 19 11
REMARK SMILES IDX 20 12 8 13 7 14 6 15 5 16 4 17 3 18 2 19 1 20
REMARK H PARENT
REMARK Flexibility Score: inf
ROOT
ATOM      1  C   UNL     1       1.096  14.907  -5.101  1.00  0.00    -0.031 C 
ATOM      2  C   UNL     1       1.783  13.822  -5.504  1.00  0.00    -0.031 C 
ENDROOT
BRANCH   1   3
ATOM      3  C   UNL     1       1.667  16.301  -5.007  1.00  0.00     0.027 C 
BRANCH   3   4
ATOM      4  C   UNL     1       0.597  17.384  -5.229  1.00  0.00     0.004 C 
BRANCH   4   5
ATOM      5  C   UNL     1      -0.576  16.946  -6.125  1.00  0.00     0.000 C 
BRANCH   5   6
ATOM      6  C   UNL     1      -1.946  17.156  -5.457  1.00  0.00     0.000 C 
BRANCH   6   7
ATOM      7  C   UNL     1      -2.943  16.035  -5.793  1.00  0.00     0.000 C 
BRANCH   7   8
ATOM      8  C   UNL     1      -2.753  14.788  -4.912  1.00  0.00     0.006 C 
BRANCH   8   9
ATOM      9  C   UNL     1      -2.668  13.500  -5.742  1.00  0.00     0.053 C 
BRANCH   9  10
ATOM     10  C   UNL     1      -2.411  12.300  -4.883  1.00  0.00     0.041 C 
ATOM     11  O   UNL     1      -3.353  11.516  -4.589  1.00  0.00    -0.550 OA
ATOM     12  O   UNL     1      -1.125  12.030  -4.433  1.00  0.00    -0.550 OA
ENDBRANCH   9  10
ENDBRANCH   8   9
ENDBRANCH   7   8
ENDBRANCH   6   7
ENDBRANCH   5   6
ENDBRANCH   4   5
ENDBRANCH   3   4
ENDBRANCH   1   3
BRANCH   2  13
ATOM     13  C   UNL     1       3.256  13.812  -5.830  1.00  0.00     0.027 C 
BRANCH  13  14
ATOM     14  C   UNL     1       3.749  12.378  -6.059  1.00  0.00     0.004 C 
BRANCH  14  15
ATOM     15  C   UNL     1       4.117  11.706  -4.728  1.00  0.00     0.000 C 
BRANCH  15  16
ATOM     16  C   UNL     1       4.104  10.172  -4.816  1.00  0.00     0.000 C 
BRANCH  16  17
ATOM     17  C   UNL     1       3.952   9.501  -3.442  1.00  0.00    -0.000 C 
BRANCH  17  18
ATOM     18  C   UNL     1       2.585   9.825  -2.821  1.00  0.00    -0.000 C 
BRANCH  18  19
ATOM     19  C   UNL     1       2.517   9.474  -1.327  1.00  0.00    -0.003 C 
ATOM     20  C   UNL     1       1.105   9.595  -0.755  1.00  0.00     0.004 C 
ENDBRANCH  18  19
ENDBRANCH  17  18
ENDBRANCH  16  17
ENDBRANCH  15  16
ENDBRANCH  14  15
ENDBRANCH  13  14
ENDBRANCH   2  13
TORSDOF 15
ENDMDL
