MODEL 1
REMARK VINA RESULT:    -5.706      0.000      0.000
REMARK INTER + INTRA:          -6.269
REMARK INTER:                  -6.206
REMARK INTRA:                  -0.063
REMARK UNBOUND:                -0.063
REMARK SMILES COc1cc2ccc(=O)oc2cc1O
REMARK SMILES IDX 3 1 13 2 12 3 11 4 5 5 4 6 6 7 7 8 8 9 9 10 10 11 2 12 1 13
REMARK SMILES IDX 14 14
REMARK H PARENT 14 15
REMARK Flexibility Score: inf
ROOT
ATOM      1  C   UNL     1      47.167  66.574  92.354  1.00  0.00     0.161 A 
ATOM      2  C   UNL     1      48.105  66.564  91.310  1.00  0.00     0.161 A 
ATOM      3  C   UNL     1      49.448  66.883  91.561  1.00  0.00     0.098 A 
ATOM      4  C   UNL     1      49.863  67.213  92.854  1.00  0.00     0.142 A 
ATOM      5  C   UNL     1      48.927  67.224  93.908  1.00  0.00     0.022 A 
ATOM      6  C   UNL     1      47.585  66.907  93.659  1.00  0.00     0.062 A 
ATOM      7  C   UNL     1      49.374  67.558  95.192  1.00  0.00     0.019 A 
ATOM      8  C   UNL     1      50.719  67.868  95.389  1.00  0.00     0.094 A 
ATOM      9  C   UNL     1      51.590  67.834  94.295  1.00  0.00     0.336 A 
ATOM     10  O   UNL     1      52.808  68.110  94.453  1.00  0.00    -0.246 OA
ATOM     11  O   UNL     1      51.139  67.514  93.085  1.00  0.00    -0.423 OA
ENDROOT
BRANCH   1  12
ATOM     12  O   UNL     1      45.834  66.250  92.057  1.00  0.00    -0.493 OA
ATOM     13  C   UNL     1      45.252  64.966  92.263  1.00  0.00     0.278 C 
ENDBRANCH   1  12
BRANCH   2  14
ATOM     14  O   UNL     1      47.693  66.237  90.020  1.00  0.00    -0.504 OA
ATOM     15  H   UNL     1      47.062  65.463  89.844  1.00  0.00     0.293 HD
ENDBRANCH   2  14
TORSDOF 2
ENDMDL
MODEL 2
REMARK VINA RESULT:    -5.580      8.549      9.012
REMARK INTER + INTRA:          -6.132
REMARK INTER:                  -6.066
REMARK INTRA:                  -0.065
REMARK UNBOUND:                -0.063
REMARK SMILES COc1cc2ccc(=O)oc2cc1O
REMARK SMILES IDX 3 1 13 2 12 3 11 4 5 5 4 6 6 7 7 8 8 9 9 10 10 11 2 12 1 13
REMARK SMILES IDX 14 14
REMARK H PARENT 14 15
REMARK Flexibility Score: inf
ROOT
ATOM      1  C   UNL     1      52.302  57.509  93.820  1.00  0.00     0.161 A 
ATOM      2  C   UNL     1      52.918  58.430  92.958  1.00  0.00     0.161 A 
ATOM      3  C   UNL     1      52.368  59.708  92.777  1.00  0.00     0.098 A 
ATOM      4  C   UNL     1      51.202  60.075  93.454  1.00  0.00     0.142 A 
ATOM      5  C   UNL     1      50.578  59.156  94.322  1.00  0.00     0.022 A 
ATOM      6  C   UNL     1      51.126  57.879  94.504  1.00  0.00     0.062 A 
ATOM      7  C   UNL     1      49.412  59.553  94.986  1.00  0.00     0.019 A 
ATOM      8  C   UNL     1      48.905  60.835  94.772  1.00  0.00     0.094 A 
ATOM      9  C   UNL     1      49.579  61.692  93.896  1.00  0.00     0.336 A 
ATOM     10  O   UNL     1      49.138  62.853  93.690  1.00  0.00    -0.246 OA
ATOM     11  O   UNL     1      50.686  61.289  93.278  1.00  0.00    -0.423 OA
ENDROOT
BRANCH   1  12
ATOM     12  O   UNL     1      52.887  56.242  93.971  1.00  0.00    -0.493 OA
ATOM     13  C   UNL     1      52.421  55.058  93.331  1.00  0.00     0.278 C 
ENDBRANCH   1  12
BRANCH   2  14
ATOM     14  O   UNL     1      54.080  58.066  92.281  1.00  0.00    -0.504 OA
ATOM     15  H   UNL     1      54.295  57.097  92.077  1.00  0.00     0.293 HD
ENDBRANCH   2  14
TORSDOF 2
ENDMDL
MODEL 3
REMARK VINA RESULT:    -5.508      1.243      2.372
REMARK INTER + INTRA:          -6.054
REMARK INTER:                  -6.044
REMARK INTRA:                  -0.010
REMARK UNBOUND:                -0.063
REMARK SMILES COc1cc2ccc(=O)oc2cc1O
REMARK SMILES IDX 3 1 13 2 12 3 11 4 5 5 4 6 6 7 7 8 8 9 9 10 10 11 2 12 1 13
REMARK SMILES IDX 14 14
REMARK H PARENT 14 15
REMARK Flexibility Score: inf
ROOT
ATOM      1  C   UNL     1      47.598  66.747  92.751  1.00  0.00     0.161 A 
ATOM      2  C   UNL     1      47.479  67.299  94.038  1.00  0.00     0.161 A 
ATOM      3  C   UNL     1      48.624  67.664  94.760  1.00  0.00     0.098 A 
ATOM      4  C   UNL     1      49.894  67.483  94.206  1.00  0.00     0.142 A 
ATOM      5  C   UNL     1      50.023  66.931  92.915  1.00  0.00     0.022 A 
ATOM      6  C   UNL     1      48.880  66.565  92.192  1.00  0.00     0.062 A 
ATOM      7  C   UNL     1      51.308  66.762  92.388  1.00  0.00     0.019 A 
ATOM      8  C   UNL     1      52.414  67.141  93.147  1.00  0.00     0.094 A 
ATOM      9  C   UNL     1      52.209  67.683  94.420  1.00  0.00     0.336 A 
ATOM     10  O   UNL     1      53.195  68.031  95.120  1.00  0.00    -0.246 OA
ATOM     11  O   UNL     1      50.977  67.832  94.897  1.00  0.00    -0.423 OA
ENDROOT
BRANCH   1  12
ATOM     12  O   UNL     1      46.426  66.396  92.065  1.00  0.00    -0.493 OA
ATOM     13  C   UNL     1      45.747  65.152  92.212  1.00  0.00     0.278 C 
ENDBRANCH   1  12
BRANCH   2  14
ATOM     14  O   UNL     1      46.214  67.480  94.592  1.00  0.00    -0.504 OA
ATOM     15  H   UNL     1      46.062  67.435  95.594  1.00  0.00     0.293 HD
ENDBRANCH   2  14
TORSDOF 2
ENDMDL
MODEL 4
REMARK VINA RESULT:    -5.420      1.606      5.564
REMARK INTER + INTRA:          -5.959
REMARK INTER:                  -5.908
REMARK INTRA:                  -0.051
REMARK UNBOUND:                -0.063
REMARK SMILES COc1cc2ccc(=O)oc2cc1O
REMARK SMILES IDX 3 1 13 2 12 3 11 4 5 5 4 6 6 7 7 8 8 9 9 10 10 11 2 12 1 13
REMARK SMILES IDX 14 14
REMARK H PARENT 14 15
REMARK Flexibility Score: inf
ROOT
ATOM      1  C   UNL     1      52.081  67.908  94.014  1.00  0.00     0.161 A 
ATOM      2  C   UNL     1      51.001  67.925  94.912  1.00  0.00     0.161 A 
ATOM      3  C   UNL     1      49.691  67.742  94.446  1.00  0.00     0.098 A 
ATOM      4  C   UNL     1      49.449  67.542  93.085  1.00  0.00     0.142 A 
ATOM      5  C   UNL     1      50.528  67.524  92.177  1.00  0.00     0.022 A 
ATOM      6  C   UNL     1      51.838  67.706  92.640  1.00  0.00     0.062 A 
ATOM      7  C   UNL     1      50.253  67.321  90.820  1.00  0.00     0.019 A 
ATOM      8  C   UNL     1      48.932  67.145  90.408  1.00  0.00     0.094 A 
ATOM      9  C   UNL     1      47.914  67.174  91.366  1.00  0.00     0.336 A 
ATOM     10  O   UNL     1      46.716  67.016  91.014  1.00  0.00    -0.246 OA
ATOM     11  O   UNL     1      48.203  67.369  92.650  1.00  0.00    -0.423 OA
ENDROOT
BRANCH   1  12
ATOM     12  O   UNL     1      53.376  68.096  94.524  1.00  0.00    -0.493 OA
ATOM     13  C   UNL     1      54.523  67.369  94.098  1.00  0.00     0.278 C 
ENDBRANCH   1  12
BRANCH   2  14
ATOM     14  O   UNL     1      51.240  68.125  96.270  1.00  0.00    -0.504 OA
ATOM     15  H   UNL     1      50.946  68.972  96.742  1.00  0.00     0.293 HD
ENDBRANCH   2  14
TORSDOF 2
ENDMDL
MODEL 5
REMARK VINA RESULT:    -5.356     10.101     10.561
REMARK INTER + INTRA:          -5.888
REMARK INTER:                  -5.920
REMARK INTRA:                   0.032
REMARK UNBOUND:                -0.063
REMARK SMILES COc1cc2ccc(=O)oc2cc1O
REMARK SMILES IDX 3 1 13 2 12 3 11 4 5 5 4 6 6 7 7 8 8 9 9 10 10 11 2 12 1 13
REMARK SMILES IDX 14 14
REMARK H PARENT 14 15
REMARK Flexibility Score: inf
ROOT
ATOM      1  C   UNL     1      50.777  59.217  93.910  1.00  0.00     0.161 A 
ATOM      2  C   UNL     1      50.021  58.785  92.808  1.00  0.00     0.161 A 
ATOM      3  C   UNL     1      50.204  57.496  92.287  1.00  0.00     0.098 A 
ATOM      4  C   UNL     1      51.140  56.630  92.859  1.00  0.00     0.142 A 
ATOM      5  C   UNL     1      51.902  57.057  93.966  1.00  0.00     0.022 A 
ATOM      6  C   UNL     1      51.721  58.344  94.488  1.00  0.00     0.062 A 
ATOM      7  C   UNL     1      52.831  56.167  94.517  1.00  0.00     0.019 A 
ATOM      8  C   UNL     1      52.975  54.896  93.961  1.00  0.00     0.094 A 
ATOM      9  C   UNL     1      52.183  54.543  92.863  1.00  0.00     0.336 A 
ATOM     10  O   UNL     1      52.298  53.401  92.348  1.00  0.00    -0.246 OA
ATOM     11  O   UNL     1      51.308  55.409  92.359  1.00  0.00    -0.423 OA
ENDROOT
BRANCH   1  12
ATOM     12  O   UNL     1      50.561  60.515  94.399  1.00  0.00    -0.493 OA
ATOM     13  C   UNL     1      49.480  60.888  95.247  1.00  0.00     0.278 C 
ENDBRANCH   1  12
BRANCH   2  14
ATOM     14  O   UNL     1      49.088  59.646  92.235  1.00  0.00    -0.504 OA
ATOM     15  H   UNL     1      49.288  60.630  92.096  1.00  0.00     0.293 HD
ENDBRANCH   2  14
TORSDOF 2
ENDMDL
MODEL 6
REMARK VINA RESULT:    -5.347      1.488      2.007
REMARK INTER + INTRA:          -5.879
REMARK INTER:                  -5.814
REMARK INTRA:                  -0.065
REMARK UNBOUND:                -0.063
REMARK SMILES COc1cc2ccc(=O)oc2cc1O
REMARK SMILES IDX 3 1 13 2 12 3 11 4 5 5 4 6 6 7 7 8 8 9 9 10 10 11 2 12 1 13
REMARK SMILES IDX 14 14
REMARK H PARENT 14 15
REMARK Flexibility Score: inf
ROOT
ATOM      1  C   UNL     1      48.953  67.621  92.372  1.00  0.00     0.161 A 
ATOM      2  C   UNL     1      49.877  67.581  91.315  1.00  0.00     0.161 A 
ATOM      3  C   UNL     1      51.254  67.630  91.577  1.00  0.00     0.098 A 
ATOM      4  C   UNL     1      51.719  67.719  92.892  1.00  0.00     0.142 A 
ATOM      5  C   UNL     1      50.797  67.759  93.959  1.00  0.00     0.022 A 
ATOM      6  C   UNL     1      49.421  67.710  93.699  1.00  0.00     0.062 A 
ATOM      7  C   UNL     1      51.293  67.848  95.264  1.00  0.00     0.019 A 
ATOM      8  C   UNL     1      52.671  67.895  95.471  1.00  0.00     0.094 A 
ATOM      9  C   UNL     1      53.525  67.849  94.364  1.00  0.00     0.336 A 
ATOM     10  O   UNL     1      54.772  67.889  94.531  1.00  0.00    -0.246 OA
ATOM     11  O   UNL     1      53.026  67.765  93.134  1.00  0.00    -0.423 OA
ENDROOT
BRANCH   1  12
ATOM     12  O   UNL     1      47.585  67.570  92.063  1.00  0.00    -0.493 OA
ATOM     13  C   UNL     1      46.766  66.415  92.218  1.00  0.00     0.278 C 
ENDBRANCH   1  12
BRANCH   2  14
ATOM     14  O   UNL     1      49.417  67.493  90.003  1.00  0.00    -0.504 OA
ATOM     15  H   UNL     1      49.858  68.008  89.250  1.00  0.00     0.293 HD
ENDBRANCH   2  14
TORSDOF 2
ENDMDL
MODEL 7
REMARK VINA RESULT:    -5.315     10.593     11.132
REMARK INTER + INTRA:          -5.844
REMARK INTER:                  -5.794
REMARK INTRA:                  -0.050
REMARK UNBOUND:                -0.063
REMARK SMILES COc1cc2ccc(=O)oc2cc1O
REMARK SMILES IDX 3 1 13 2 12 3 11 4 5 5 4 6 6 7 7 8 8 9 9 10 10 11 2 12 1 13
REMARK SMILES IDX 14 14
REMARK H PARENT 14 15
REMARK Flexibility Score: inf
ROOT
ATOM      1  C   UNL     1      52.270  55.215  93.251  1.00  0.00     0.161 A 
ATOM      2  C   UNL     1      52.647  55.566  94.557  1.00  0.00     0.161 A 
ATOM      3  C   UNL     1      52.188  56.762  95.128  1.00  0.00     0.098 A 
ATOM      4  C   UNL     1      51.351  57.614  94.403  1.00  0.00     0.142 A 
ATOM      5  C   UNL     1      50.968  57.268  93.091  1.00  0.00     0.022 A 
ATOM      6  C   UNL     1      51.425  56.074  92.518  1.00  0.00     0.062 A 
ATOM      7  C   UNL     1      50.129  58.142  92.389  1.00  0.00     0.019 A 
ATOM      8  C   UNL     1      49.701  59.319  93.003  1.00  0.00     0.094 A 
ATOM      9  C   UNL     1      50.122  59.595  94.308  1.00  0.00     0.336 A 
ATOM     10  O   UNL     1      49.745  60.652  94.878  1.00  0.00    -0.246 OA
ATOM     11  O   UNL     1      50.919  58.747  94.951  1.00  0.00    -0.423 OA
ENDROOT
BRANCH   1  12
ATOM     12  O   UNL     1      52.753  54.009  92.719  1.00  0.00    -0.493 OA
ATOM     13  C   UNL     1      52.005  53.145  91.870  1.00  0.00     0.278 C 
ENDBRANCH   1  12
BRANCH   2  14
ATOM     14  O   UNL     1      53.482  54.719  95.283  1.00  0.00    -0.504 OA
ATOM     15  H   UNL     1      54.119  54.079  94.822  1.00  0.00     0.293 HD
ENDBRANCH   2  14
TORSDOF 2
ENDMDL
MODEL 8
REMARK VINA RESULT:    -5.238     19.125     20.004
REMARK INTER + INTRA:          -5.760
REMARK INTER:                  -5.723
REMARK INTRA:                  -0.037
REMARK UNBOUND:                -0.063
REMARK SMILES COc1cc2ccc(=O)oc2cc1O
REMARK SMILES IDX 3 1 13 2 12 3 11 4 5 5 4 6 6 7 7 8 8 9 9 10 10 11 2 12 1 13
REMARK SMILES IDX 14 14
REMARK H PARENT 14 15
REMARK Flexibility Score: inf
ROOT
ATOM      1  C   UNL     1      55.088  48.070  94.116  1.00  0.00     0.161 A 
ATOM      2  C   UNL     1      55.313  47.989  92.732  1.00  0.00     0.161 A 
ATOM      3  C   UNL     1      54.230  47.933  91.841  1.00  0.00     0.098 A 
ATOM      4  C   UNL     1      52.919  47.959  92.323  1.00  0.00     0.142 A 
ATOM      5  C   UNL     1      52.685  48.041  93.712  1.00  0.00     0.022 A 
ATOM      6  C   UNL     1      53.765  48.097  94.603  1.00  0.00     0.062 A 
ATOM      7  C   UNL     1      51.361  48.066  94.164  1.00  0.00     0.019 A 
ATOM      8  C   UNL     1      50.320  48.007  93.237  1.00  0.00     0.094 A 
ATOM      9  C   UNL     1      50.629  47.928  91.875  1.00  0.00     0.336 A 
ATOM     10  O   UNL     1      49.704  47.875  91.023  1.00  0.00    -0.246 OA
ATOM     11  O   UNL     1      51.897  47.906  91.473  1.00  0.00    -0.423 OA
ENDROOT
BRANCH   1  12
ATOM     12  O   UNL     1      56.200  48.123  94.970  1.00  0.00    -0.493 OA
ATOM     13  C   UNL     1      56.838  49.325  95.390  1.00  0.00     0.278 C 
ENDBRANCH   1  12
BRANCH   2  14
ATOM     14  O   UNL     1      56.619  47.962  92.249  1.00  0.00    -0.504 OA
ATOM     15  H   UNL     1      57.257  47.209  92.482  1.00  0.00     0.293 HD
ENDBRANCH   2  14
TORSDOF 2
ENDMDL
MODEL 9
REMARK VINA RESULT:    -5.200      1.373      4.982
REMARK INTER + INTRA:          -5.719
REMARK INTER:                  -5.677
REMARK INTRA:                  -0.041
REMARK UNBOUND:                -0.063
REMARK SMILES COc1cc2ccc(=O)oc2cc1O
REMARK SMILES IDX 3 1 13 2 12 3 11 4 5 5 4 6 6 7 7 8 8 9 9 10 10 11 2 12 1 13
REMARK SMILES IDX 14 14
REMARK H PARENT 14 15
REMARK Flexibility Score: inf
ROOT
ATOM      1  C   UNL     1      49.863  67.722  92.583  1.00  0.00     0.161 A 
ATOM      2  C   UNL     1      49.695  67.673  91.189  1.00  0.00     0.161 A 
ATOM      3  C   UNL     1      48.468  67.275  90.638  1.00  0.00     0.098 A 
ATOM      4  C   UNL     1      47.402  66.924  91.470  1.00  0.00     0.142 A 
ATOM      5  C   UNL     1      47.563  66.971  92.870  1.00  0.00     0.022 A 
ATOM      6  C   UNL     1      48.787  67.368  93.424  1.00  0.00     0.062 A 
ATOM      7  C   UNL     1      46.477  66.614  93.677  1.00  0.00     0.019 A 
ATOM      8  C   UNL     1      45.278  66.225  93.079  1.00  0.00     0.094 A 
ATOM      9  C   UNL     1      45.193  66.204  91.683  1.00  0.00     0.336 A 
ATOM     10  O   UNL     1      44.120  65.857  91.125  1.00  0.00    -0.246 OA
ATOM     11  O   UNL     1      46.241  66.548  90.940  1.00  0.00    -0.423 OA
ENDROOT
BRANCH   1  12
ATOM     12  O   UNL     1      51.108  68.125  93.091  1.00  0.00    -0.493 OA
ATOM     13  C   UNL     1      52.181  67.239  93.392  1.00  0.00     0.278 C 
ENDBRANCH   1  12
BRANCH   2  14
ATOM     14  O   UNL     1      50.757  68.022  90.357  1.00  0.00    -0.504 OA
ATOM     15  H   UNL     1      50.822  68.942  89.936  1.00  0.00     0.293 HD
ENDBRANCH   2  14
TORSDOF 2
ENDMDL
