MODEL 1
REMARK VINA RESULT:    -3.846      0.000      0.000
REMARK INTER + INTRA:         -12.176
REMARK INTER:                  -8.342
REMARK INTRA:                  -3.834
REMARK UNBOUND:                -3.834
REMARK SMILES CCCCCCCCCCCCCCCCCCCCCC(=O)[O-]
REMARK SMILES IDX 12 1 11 2 10 3 9 4 8 5 7 6 6 7 5 8 4 9 3 10 2 11 1 12 13 13
REMARK SMILES IDX 14 14 15 15 16 16 17 17 18 18 19 19 20 20 21 21 22 22 23 23
REMARK SMILES IDX 24 24
REMARK H PARENT
REMARK Flexibility Score: inf
ROOT
ATOM      1  C   UNL     1      41.519  12.822  23.579  1.00  0.00     0.000 C 
ENDROOT
BRANCH   1   2
ATOM      2  C   UNL     1      42.897  12.145  23.610  1.00  0.00     0.000 C 
BRANCH   2   3
ATOM      3  C   UNL     1      43.318  11.579  22.242  1.00  0.00     0.000 C 
BRANCH   3   4
ATOM      4  C   UNL     1      44.826  11.669  21.933  1.00  0.00    -0.000 C 
BRANCH   4   5
ATOM      5  C   UNL     1      45.446  10.403  21.312  1.00  0.00    -0.000 C 
BRANCH   5   6
ATOM      6  C   UNL     1      44.439   9.292  20.968  1.00  0.00    -0.000 C 
BRANCH   6   7
ATOM      7  C   UNL     1      44.689   7.996  21.757  1.00  0.00    -0.000 C 
BRANCH   7   8
ATOM      8  C   UNL     1      45.902   8.098  22.700  1.00  0.00    -0.000 C 
BRANCH   8   9
ATOM      9  C   UNL     1      45.568   8.009  24.203  1.00  0.00    -0.000 C 
BRANCH   9  10
ATOM     10  C   UNL     1      44.332   8.813  24.645  1.00  0.00    -0.000 C 
BRANCH  10  11
ATOM     11  C   UNL     1      44.633   9.787  25.792  1.00  0.00    -0.003 C 
ATOM     12  C   UNL     1      45.775  10.731  25.425  1.00  0.00     0.004 C 
ENDBRANCH  10  11
ENDBRANCH   9  10
ENDBRANCH   8   9
ENDBRANCH   7   8
ENDBRANCH   6   7
ENDBRANCH   5   6
ENDBRANCH   4   5
ENDBRANCH   3   4
ENDBRANCH   2   3
ENDBRANCH   1   2
BRANCH   1  13
ATOM     13  C   UNL     1      40.871  12.808  24.972  1.00  0.00     0.000 C 
BRANCH  13  14
ATOM     14  C   UNL     1      41.840  12.338  26.069  1.00  0.00     0.000 C 
BRANCH  14  15
ATOM     15  C   UNL     1      42.338  13.495  26.954  1.00  0.00     0.000 C 
BRANCH  15  16
ATOM     16  C   UNL     1      43.850  13.733  26.817  1.00  0.00     0.000 C 
BRANCH  16  17
ATOM     17  C   UNL     1      44.184  14.859  25.822  1.00  0.00     0.000 C 
BRANCH  17  18
ATOM     18  C   UNL     1      45.253  14.446  24.798  1.00  0.00     0.000 C 
BRANCH  18  19
ATOM     19  C   UNL     1      45.515  15.532  23.744  1.00  0.00     0.000 C 
BRANCH  19  20
ATOM     20  C   UNL     1      44.866  15.162  22.403  1.00  0.00     0.006 C 
BRANCH  20  21
ATOM     21  C   UNL     1      43.428  15.686  22.287  1.00  0.00     0.053 C 
BRANCH  21  22
ATOM     22  C   UNL     1      43.203  16.423  21.002  1.00  0.00     0.041 C 
ATOM     23  O   UNL     1      44.066  16.378  20.086  1.00  0.00    -0.550 OA
ATOM     24  O   UNL     1      42.025  17.133  20.803  1.00  0.00    -0.550 OA
ENDBRANCH  21  22
ENDBRANCH  20  21
ENDBRANCH  19  20
ENDBRANCH  18  19
ENDBRANCH  17  18
ENDBRANCH  16  17
ENDBRANCH  15  16
ENDBRANCH  14  15
ENDBRANCH  13  14
ENDBRANCH   1  13
TORSDOF 20
ENDMDL
MODEL 2
REMARK VINA RESULT:    -3.806      2.798      6.890
REMARK INTER + INTRA:         -12.091
REMARK INTER:                  -8.423
REMARK INTRA:                  -3.669
REMARK UNBOUND:                -3.834
REMARK SMILES CCCCCCCCCCCCCCCCCCCCCC(=O)[O-]
REMARK SMILES IDX 12 1 11 2 10 3 9 4 8 5 7 6 6 7 5 8 4 9 3 10 2 11 1 12 13 13
REMARK SMILES IDX 14 14 15 15 16 16 17 17 18 18 19 19 20 20 21 21 22 22 23 23
REMARK SMILES IDX 24 24
REMARK H PARENT
REMARK Flexibility Score: inf
ROOT
ATOM      1  C   UNL     1      43.154  11.604  22.621  1.00  0.00     0.000 C 
ENDROOT
BRANCH   1   2
ATOM      2  C   UNL     1      42.321  12.890  22.725  1.00  0.00     0.000 C 
BRANCH   2   3
ATOM      3  C   UNL     1      42.018  13.291  24.179  1.00  0.00     0.000 C 
BRANCH   3   4
ATOM      4  C   UNL     1      41.810  14.801  24.411  1.00  0.00    -0.000 C 
BRANCH   4   5
ATOM      5  C   UNL     1      42.968  15.522  25.129  1.00  0.00    -0.000 C 
BRANCH   5   6
ATOM      6  C   UNL     1      44.231  14.668  25.337  1.00  0.00    -0.000 C 
BRANCH   6   7
ATOM      7  C   UNL     1      45.299  14.910  24.259  1.00  0.00    -0.000 C 
BRANCH   7   8
ATOM      8  C   UNL     1      45.435  16.396  23.877  1.00  0.00    -0.000 C 
BRANCH   8   9
ATOM      9  C   UNL     1      45.239  16.705  22.379  1.00  0.00    -0.000 C 
BRANCH   9  10
ATOM     10  C   UNL     1      44.247  15.781  21.648  1.00  0.00    -0.000 C 
BRANCH  10  11
ATOM     11  C   UNL     1      43.307  16.545  20.705  1.00  0.00    -0.003 C 
ATOM     12  C   UNL     1      41.853  16.403  21.147  1.00  0.00     0.004 C 
ENDBRANCH  10  11
ENDBRANCH   9  10
ENDBRANCH   8   9
ENDBRANCH   7   8
ENDBRANCH   6   7
ENDBRANCH   5   6
ENDBRANCH   4   5
ENDBRANCH   3   4
ENDBRANCH   2   3
ENDBRANCH   1   2
BRANCH   1  13
ATOM     13  C   UNL     1      44.589  11.917  22.173  1.00  0.00     0.000 C 
BRANCH  13  14
ATOM     14  C   UNL     1      45.262  10.727  21.470  1.00  0.00     0.000 C 
BRANCH  14  15
ATOM     15  C   UNL     1      44.275   9.585  21.164  1.00  0.00     0.000 C 
BRANCH  15  16
ATOM     16  C   UNL     1      44.655   8.273  21.870  1.00  0.00     0.000 C 
BRANCH  16  17
ATOM     17  C   UNL     1      45.744   8.472  22.940  1.00  0.00     0.000 C 
BRANCH  17  18
ATOM     18  C   UNL     1      45.166   8.567  24.361  1.00  0.00     0.000 C 
BRANCH  18  19
ATOM     19  C   UNL     1      45.608   9.840  25.097  1.00  0.00     0.000 C 
BRANCH  19  20
ATOM     20  C   UNL     1      44.458  10.416  25.936  1.00  0.00     0.006 C 
BRANCH  20  21
ATOM     21  C   UNL     1      43.121   9.721  25.647  1.00  0.00     0.053 C 
BRANCH  21  22
ATOM     22  C   UNL     1      42.006  10.288  26.473  1.00  0.00     0.041 C 
ATOM     23  O   UNL     1      42.253  10.837  27.579  1.00  0.00    -0.550 OA
ATOM     24  O   UNL     1      40.699  10.239  26.005  1.00  0.00    -0.550 OA
ENDBRANCH  21  22
ENDBRANCH  20  21
ENDBRANCH  19  20
ENDBRANCH  18  19
ENDBRANCH  17  18
ENDBRANCH  16  17
ENDBRANCH  15  16
ENDBRANCH  14  15
ENDBRANCH  13  14
ENDBRANCH   1  13
TORSDOF 20
ENDMDL
MODEL 3
REMARK VINA RESULT:    -3.794      2.598      6.499
REMARK INTER + INTRA:         -12.065
REMARK INTER:                  -8.353
REMARK INTRA:                  -3.712
REMARK UNBOUND:                -3.834
REMARK SMILES CCCCCCCCCCCCCCCCCCCCCC(=O)[O-]
REMARK SMILES IDX 12 1 11 2 10 3 9 4 8 5 7 6 6 7 5 8 4 9 3 10 2 11 1 12 13 13
REMARK SMILES IDX 14 14 15 15 16 16 17 17 18 18 19 19 20 20 21 21 22 22 23 23
REMARK SMILES IDX 24 24
REMARK H PARENT
REMARK Flexibility Score: inf
ROOT
ATOM      1  C   UNL     1      45.314  13.242  22.386  1.00  0.00     0.000 C 
ENDROOT
BRANCH   1   2
ATOM      2  C   UNL     1      45.355  14.298  21.272  1.00  0.00     0.000 C 
BRANCH   2   3
ATOM      3  C   UNL     1      45.718  15.702  21.790  1.00  0.00     0.000 C 
BRANCH   3   4
ATOM      4  C   UNL     1      44.605  16.759  21.647  1.00  0.00    -0.000 C 
BRANCH   4   5
ATOM      5  C   UNL     1      43.420  16.350  20.749  1.00  0.00    -0.000 C 
BRANCH   5   6
ATOM      6  C   UNL     1      42.049  16.351  21.448  1.00  0.00    -0.000 C 
BRANCH   6   7
ATOM      7  C   UNL     1      41.584  14.942  21.850  1.00  0.00    -0.000 C 
BRANCH   7   8
ATOM      8  C   UNL     1      41.979  14.574  23.293  1.00  0.00    -0.000 C 
BRANCH   8   9
ATOM      9  C   UNL     1      41.572  15.608  24.363  1.00  0.00    -0.000 C 
BRANCH   9  10
ATOM     10  C   UNL     1      42.659  15.928  25.405  1.00  0.00    -0.000 C 
BRANCH  10  11
ATOM     11  C   UNL     1      43.895  15.028  25.272  1.00  0.00    -0.003 C 
ATOM     12  C   UNL     1      45.181  15.848  25.338  1.00  0.00     0.004 C 
ENDBRANCH  10  11
ENDBRANCH   9  10
ENDBRANCH   8   9
ENDBRANCH   7   8
ENDBRANCH   6   7
ENDBRANCH   5   6
ENDBRANCH   4   5
ENDBRANCH   3   4
ENDBRANCH   2   3
ENDBRANCH   1   2
BRANCH   1  13
ATOM     13  C   UNL     1      44.644  11.952  21.891  1.00  0.00     0.000 C 
BRANCH  13  14
ATOM     14  C   UNL     1      45.663  10.868  21.501  1.00  0.00     0.000 C 
BRANCH  14  15
ATOM     15  C   UNL     1      45.002   9.644  20.842  1.00  0.00     0.000 C 
BRANCH  15  16
ATOM     16  C   UNL     1      44.775   8.492  21.833  1.00  0.00     0.000 C 
BRANCH  16  17
ATOM     17  C   UNL     1      45.812   8.478  22.971  1.00  0.00     0.000 C 
BRANCH  17  18
ATOM     18  C   UNL     1      45.164   8.404  24.361  1.00  0.00     0.000 C 
BRANCH  18  19
ATOM     19  C   UNL     1      44.781   9.786  24.912  1.00  0.00     0.000 C 
BRANCH  19  20
ATOM     20  C   UNL     1      43.256   9.960  24.946  1.00  0.00     0.006 C 
BRANCH  20  21
ATOM     21  C   UNL     1      42.839  11.436  25.001  1.00  0.00     0.053 C 
BRANCH  21  22
ATOM     22  C   UNL     1      41.627  11.642  25.858  1.00  0.00     0.041 C 
ATOM     23  O   UNL     1      40.648  10.855  25.771  1.00  0.00    -0.550 OA
ATOM     24  O   UNL     1      41.593  12.684  26.777  1.00  0.00    -0.550 OA
ENDBRANCH  21  22
ENDBRANCH  20  21
ENDBRANCH  19  20
ENDBRANCH  18  19
ENDBRANCH  17  18
ENDBRANCH  16  17
ENDBRANCH  15  16
ENDBRANCH  14  15
ENDBRANCH  13  14
ENDBRANCH   1  13
TORSDOF 20
ENDMDL
MODEL 4
REMARK VINA RESULT:    -3.793      3.106      6.708
REMARK INTER + INTRA:         -12.062
REMARK INTER:                  -9.202
REMARK INTRA:                  -2.860
REMARK UNBOUND:                -3.834
REMARK SMILES CCCCCCCCCCCCCCCCCCCCCC(=O)[O-]
REMARK SMILES IDX 12 1 11 2 10 3 9 4 8 5 7 6 6 7 5 8 4 9 3 10 2 11 1 12 13 13
REMARK SMILES IDX 14 14 15 15 16 16 17 17 18 18 19 19 20 20 21 21 22 22 23 23
REMARK SMILES IDX 24 24
REMARK H PARENT
REMARK Flexibility Score: inf
ROOT
ATOM      1  C   UNL     1      43.965   9.660  21.417  1.00  0.00     0.000 C 
ENDROOT
BRANCH   1   2
ATOM      2  C   UNL     1      45.299  10.349  21.094  1.00  0.00     0.000 C 
BRANCH   2   3
ATOM      3  C   UNL     1      45.507  11.652  21.886  1.00  0.00     0.000 C 
BRANCH   3   4
ATOM      4  C   UNL     1      44.214  12.333  22.376  1.00  0.00    -0.000 C 
BRANCH   4   5
ATOM      5  C   UNL     1      44.405  13.718  23.025  1.00  0.00    -0.000 C 
BRANCH   5   6
ATOM      6  C   UNL     1      45.857  14.228  23.043  1.00  0.00    -0.000 C 
BRANCH   6   7
ATOM      7  C   UNL     1      46.071  15.451  22.136  1.00  0.00    -0.000 C 
BRANCH   7   8
ATOM      8  C   UNL     1      45.768  15.155  20.656  1.00  0.00    -0.000 C 
BRANCH   8   9
ATOM      9  C   UNL     1      44.517  15.861  20.093  1.00  0.00    -0.000 C 
BRANCH   9  10
ATOM     10  C   UNL     1      43.817  16.822  21.070  1.00  0.00    -0.000 C 
BRANCH  10  11
ATOM     11  C   UNL     1      42.288  16.804  20.931  1.00  0.00    -0.003 C 
ATOM     12  C   UNL     1      41.684  15.615  21.674  1.00  0.00     0.004 C 
ENDBRANCH  10  11
ENDBRANCH   9  10
ENDBRANCH   8   9
ENDBRANCH   7   8
ENDBRANCH   6   7
ENDBRANCH   5   6
ENDBRANCH   4   5
ENDBRANCH   3   4
ENDBRANCH   2   3
ENDBRANCH   1   2
BRANCH   1  13
ATOM     13  C   UNL     1      44.199   8.237  21.947  1.00  0.00     0.000 C 
BRANCH  13  14
ATOM     14  C   UNL     1      45.660   7.992  22.358  1.00  0.00     0.000 C 
BRANCH  14  15
ATOM     15  C   UNL     1      45.822   7.796  23.876  1.00  0.00     0.000 C 
BRANCH  15  16
ATOM     16  C   UNL     1      45.786   9.124  24.649  1.00  0.00     0.000 C 
BRANCH  16  17
ATOM     17  C   UNL     1      44.518   9.274  25.509  1.00  0.00     0.000 C 
BRANCH  17  18
ATOM     18  C   UNL     1      43.951  10.701  25.484  1.00  0.00     0.000 C 
BRANCH  18  19
ATOM     19  C   UNL     1      42.461  10.741  25.110  1.00  0.00     0.000 C 
BRANCH  19  20
ATOM     20  C   UNL     1      41.637  11.419  26.213  1.00  0.00     0.006 C 
BRANCH  20  21
ATOM     21  C   UNL     1      40.287  11.936  25.698  1.00  0.00     0.053 C 
BRANCH  21  22
ATOM     22  C   UNL     1      39.156  11.039  26.101  1.00  0.00     0.041 C 
ATOM     23  O   UNL     1      37.985  11.495  26.188  1.00  0.00    -0.550 OA
ATOM     24  O   UNL     1      39.389   9.692  26.348  1.00  0.00    -0.550 OA
ENDBRANCH  21  22
ENDBRANCH  20  21
ENDBRANCH  19  20
ENDBRANCH  18  19
ENDBRANCH  17  18
ENDBRANCH  16  17
ENDBRANCH  15  16
ENDBRANCH  14  15
ENDBRANCH  13  14
ENDBRANCH   1  13
TORSDOF 20
ENDMDL
MODEL 5
REMARK VINA RESULT:    -3.750      2.166      3.593
REMARK INTER + INTRA:         -11.969
REMARK INTER:                  -8.878
REMARK INTRA:                  -3.091
REMARK UNBOUND:                -3.834
REMARK SMILES CCCCCCCCCCCCCCCCCCCCCC(=O)[O-]
REMARK SMILES IDX 12 1 11 2 10 3 9 4 8 5 7 6 6 7 5 8 4 9 3 10 2 11 1 12 13 13
REMARK SMILES IDX 14 14 15 15 16 16 17 17 18 18 19 19 20 20 21 21 22 22 23 23
REMARK SMILES IDX 24 24
REMARK H PARENT
REMARK Flexibility Score: inf
ROOT
ATOM      1  C   UNL     1      42.194  12.795  23.534  1.00  0.00     0.000 C 
ENDROOT
BRANCH   1   2
ATOM      2  C   UNL     1      43.624  13.294  23.791  1.00  0.00     0.000 C 
BRANCH   2   3
ATOM      3  C   UNL     1      44.698  12.275  23.374  1.00  0.00     0.000 C 
BRANCH   3   4
ATOM      4  C   UNL     1      44.793  12.008  21.858  1.00  0.00    -0.000 C 
BRANCH   4   5
ATOM      5  C   UNL     1      45.552  10.726  21.462  1.00  0.00    -0.000 C 
BRANCH   5   6
ATOM      6  C   UNL     1      44.659   9.570  20.980  1.00  0.00    -0.000 C 
BRANCH   6   7
ATOM      7  C   UNL     1      44.821   8.298  21.828  1.00  0.00    -0.000 C 
BRANCH   7   8
ATOM      8  C   UNL     1      45.807   8.483  22.997  1.00  0.00    -0.000 C 
BRANCH   8   9
ATOM      9  C   UNL     1      45.245   8.121  24.387  1.00  0.00    -0.000 C 
BRANCH   9  10
ATOM     10  C   UNL     1      43.806   8.600  24.652  1.00  0.00    -0.000 C 
BRANCH  10  11
ATOM     11  C   UNL     1      43.736   9.731  25.688  1.00  0.00    -0.003 C 
ATOM     12  C   UNL     1      42.289  10.112  25.987  1.00  0.00     0.004 C 
ENDBRANCH  10  11
ENDBRANCH   9  10
ENDBRANCH   8   9
ENDBRANCH   7   8
ENDBRANCH   6   7
ENDBRANCH   5   6
ENDBRANCH   4   5
ENDBRANCH   3   4
ENDBRANCH   2   3
ENDBRANCH   1   2
BRANCH   1  13
ATOM     13  C   UNL     1      41.375  13.851  22.777  1.00  0.00     0.000 C 
BRANCH  13  14
ATOM     14  C   UNL     1      42.103  15.202  22.673  1.00  0.00     0.000 C 
BRANCH  14  15
ATOM     15  C   UNL     1      41.608  16.050  21.488  1.00  0.00     0.000 C 
BRANCH  15  16
ATOM     16  C   UNL     1      42.758  16.731  20.729  1.00  0.00     0.000 C 
BRANCH  16  17
ATOM     17  C   UNL     1      44.092  15.975  20.877  1.00  0.00     0.000 C 
BRANCH  17  18
ATOM     18  C   UNL     1      45.184  16.828  21.539  1.00  0.00     0.000 C 
BRANCH  18  19
ATOM     19  C   UNL     1      45.862  16.114  22.718  1.00  0.00     0.000 C 
BRANCH  19  20
ATOM     20  C   UNL     1      45.659  16.896  24.024  1.00  0.00     0.006 C 
BRANCH  20  21
ATOM     21  C   UNL     1      45.666  15.983  25.257  1.00  0.00     0.053 C 
BRANCH  21  22
ATOM     22  C   UNL     1      44.539  16.299  26.192  1.00  0.00     0.041 C 
ATOM     23  O   UNL     1      43.376  16.486  25.745  1.00  0.00    -0.550 OA
ATOM     24  O   UNL     1      44.766  16.356  27.562  1.00  0.00    -0.550 OA
ENDBRANCH  21  22
ENDBRANCH  20  21
ENDBRANCH  19  20
ENDBRANCH  18  19
ENDBRANCH  17  18
ENDBRANCH  16  17
ENDBRANCH  15  16
ENDBRANCH  14  15
ENDBRANCH  13  14
ENDBRANCH   1  13
TORSDOF 20
ENDMDL
MODEL 6
REMARK VINA RESULT:    -3.737      2.201      4.674
REMARK INTER + INTRA:         -11.940
REMARK INTER:                  -8.039
REMARK INTRA:                  -3.901
REMARK UNBOUND:                -3.834
REMARK SMILES CCCCCCCCCCCCCCCCCCCCCC(=O)[O-]
REMARK SMILES IDX 12 1 11 2 10 3 9 4 8 5 7 6 6 7 5 8 4 9 3 10 2 11 1 12 13 13
REMARK SMILES IDX 14 14 15 15 16 16 17 17 18 18 19 19 20 20 21 21 22 22 23 23
REMARK SMILES IDX 24 24
REMARK H PARENT
REMARK Flexibility Score: inf
ROOT
ATOM      1  C   UNL     1      41.281  14.288  22.131  1.00  0.00     0.000 C 
ENDROOT
BRANCH   1   2
ATOM      2  C   UNL     1      41.933  13.327  23.137  1.00  0.00     0.000 C 
BRANCH   2   3
ATOM      3  C   UNL     1      40.968  12.878  24.247  1.00  0.00     0.000 C 
BRANCH   3   4
ATOM      4  C   UNL     1      41.607  12.031  25.366  1.00  0.00    -0.000 C 
BRANCH   4   5
ATOM      5  C   UNL     1      42.778  11.132  24.923  1.00  0.00    -0.000 C 
BRANCH   5   6
ATOM      6  C   UNL     1      43.948  11.057  25.920  1.00  0.00    -0.000 C 
BRANCH   6   7
ATOM      7  C   UNL     1      45.246  11.665  25.362  1.00  0.00    -0.000 C 
BRANCH   7   8
ATOM      8  C   UNL     1      45.744  10.943  24.096  1.00  0.00    -0.000 C 
BRANCH   8   9
ATOM      9  C   UNL     1      46.001  11.860  22.882  1.00  0.00    -0.000 C 
BRANCH   9  10
ATOM     10  C   UNL     1      45.051  11.643  21.690  1.00  0.00    -0.000 C 
BRANCH  10  11
ATOM     11  C   UNL     1      44.337  10.285  21.737  1.00  0.00    -0.003 C 
ATOM     12  C   UNL     1      45.026   9.271  20.828  1.00  0.00     0.004 C 
ENDBRANCH  10  11
ENDBRANCH   9  10
ENDBRANCH   8   9
ENDBRANCH   7   8
ENDBRANCH   6   7
ENDBRANCH   5   6
ENDBRANCH   4   5
ENDBRANCH   3   4
ENDBRANCH   2   3
ENDBRANCH   1   2
BRANCH   1  13
ATOM     13  C   UNL     1      41.825  15.714  22.307  1.00  0.00     0.000 C 
BRANCH  13  14
ATOM     14  C   UNL     1      42.339  16.318  20.990  1.00  0.00     0.000 C 
BRANCH  14  15
ATOM     15  C   UNL     1      43.800  16.792  21.087  1.00  0.00     0.000 C 
BRANCH  15  16
ATOM     16  C   UNL     1      44.797  15.744  20.567  1.00  0.00     0.000 C 
BRANCH  16  17
ATOM     17  C   UNL     1      45.822  15.323  21.636  1.00  0.00     0.000 C 
BRANCH  17  18
ATOM     18  C   UNL     1      45.651  16.090  22.956  1.00  0.00     0.000 C 
BRANCH  18  19
ATOM     19  C   UNL     1      45.095  15.211  24.086  1.00  0.00     0.000 C 
BRANCH  19  20
ATOM     20  C   UNL     1      44.085  15.989  24.941  1.00  0.00     0.006 C 
BRANCH  20  21
ATOM     21  C   UNL     1      43.500  15.136  26.074  1.00  0.00     0.053 C 
BRANCH  21  22
ATOM     22  C   UNL     1      42.189  15.675  26.560  1.00  0.00     0.041 C 
ATOM     23  O   UNL     1      41.293  16.001  25.737  1.00  0.00    -0.550 OA
ATOM     24  O   UNL     1      41.945  15.788  27.923  1.00  0.00    -0.550 OA
ENDBRANCH  21  22
ENDBRANCH  20  21
ENDBRANCH  19  20
ENDBRANCH  18  19
ENDBRANCH  17  18
ENDBRANCH  16  17
ENDBRANCH  15  16
ENDBRANCH  14  15
ENDBRANCH  13  14
ENDBRANCH   1  13
TORSDOF 20
ENDMDL
MODEL 7
REMARK VINA RESULT:    -3.732      3.427      5.705
REMARK INTER + INTRA:         -11.931
REMARK INTER:                  -9.692
REMARK INTRA:                  -2.239
REMARK UNBOUND:                -3.834
REMARK SMILES CCCCCCCCCCCCCCCCCCCCCC(=O)[O-]
REMARK SMILES IDX 12 1 11 2 10 3 9 4 8 5 7 6 6 7 5 8 4 9 3 10 2 11 1 12 13 13
REMARK SMILES IDX 14 14 15 15 16 16 17 17 18 18 19 19 20 20 21 21 22 22 23 23
REMARK SMILES IDX 24 24
REMARK H PARENT
REMARK Flexibility Score: inf
ROOT
ATOM      1  C   UNL     1      43.748  16.344  20.279  1.00  0.00     0.000 C 
ENDROOT
BRANCH   1   2
ATOM      2  C   UNL     1      45.029  16.398  21.125  1.00  0.00     0.000 C 
BRANCH   2   3
ATOM      3  C   UNL     1      45.748  15.040  21.210  1.00  0.00     0.000 C 
BRANCH   3   4
ATOM      4  C   UNL     1      45.704  14.362  22.594  1.00  0.00    -0.000 C 
BRANCH   4   5
ATOM      5  C   UNL     1      45.950  12.840  22.588  1.00  0.00    -0.000 C 
BRANCH   5   6
ATOM      6  C   UNL     1      44.792  12.001  22.020  1.00  0.00    -0.000 C 
BRANCH   6   7
ATOM      7  C   UNL     1      45.274  10.727  21.307  1.00  0.00    -0.000 C 
BRANCH   7   8
ATOM      8  C   UNL     1      44.208   9.615  21.289  1.00  0.00    -0.000 C 
BRANCH   8   9
ATOM      9  C   UNL     1      44.700   8.234  21.769  1.00  0.00    -0.000 C 
BRANCH   9  10
ATOM     10  C   UNL     1      45.865   8.270  22.773  1.00  0.00    -0.000 C 
BRANCH  10  11
ATOM     11  C   UNL     1      45.401   8.135  24.230  1.00  0.00    -0.003 C 
ATOM     12  C   UNL     1      44.986   9.489  24.801  1.00  0.00     0.004 C 
ENDBRANCH  10  11
ENDBRANCH   9  10
ENDBRANCH   8   9
ENDBRANCH   7   8
ENDBRANCH   6   7
ENDBRANCH   5   6
ENDBRANCH   4   5
ENDBRANCH   3   4
ENDBRANCH   2   3
ENDBRANCH   1   2
BRANCH   1  13
ATOM     13  C   UNL     1      42.528  16.773  21.108  1.00  0.00     0.000 C 
BRANCH  13  14
ATOM     14  C   UNL     1      41.612  15.591  21.466  1.00  0.00     0.000 C 
BRANCH  14  15
ATOM     15  C   UNL     1      42.123  14.793  22.680  1.00  0.00     0.000 C 
BRANCH  15  16
ATOM     16  C   UNL     1      41.390  13.454  22.855  1.00  0.00     0.000 C 
BRANCH  16  17
ATOM     17  C   UNL     1      41.167  13.092  24.335  1.00  0.00     0.000 C 
BRANCH  17  18
ATOM     18  C   UNL     1      42.179  12.057  24.850  1.00  0.00     0.000 C 
BRANCH  18  19
ATOM     19  C   UNL     1      41.531  10.985  25.739  1.00  0.00     0.000 C 
BRANCH  19  20
ATOM     20  C   UNL     1      40.019  11.220  25.869  1.00  0.00     0.006 C 
BRANCH  20  21
ATOM     21  C   UNL     1      39.408  10.451  27.048  1.00  0.00     0.053 C 
BRANCH  21  22
ATOM     22  C   UNL     1      38.070   9.872  26.704  1.00  0.00     0.041 C 
ATOM     23  O   UNL     1      37.069  10.624  26.570  1.00  0.00    -0.550 OA
ATOM     24  O   UNL     1      37.935   8.504  26.497  1.00  0.00    -0.550 OA
ENDBRANCH  21  22
ENDBRANCH  20  21
ENDBRANCH  19  20
ENDBRANCH  18  19
ENDBRANCH  17  18
ENDBRANCH  16  17
ENDBRANCH  15  16
ENDBRANCH  14  15
ENDBRANCH  13  14
ENDBRANCH   1  13
TORSDOF 20
ENDMDL
MODEL 8
REMARK VINA RESULT:    -3.729      1.961      4.548
REMARK INTER + INTRA:         -11.924
REMARK INTER:                  -8.836
REMARK INTRA:                  -3.087
REMARK UNBOUND:                -3.834
REMARK SMILES CCCCCCCCCCCCCCCCCCCCCC(=O)[O-]
REMARK SMILES IDX 12 1 11 2 10 3 9 4 8 5 7 6 6 7 5 8 4 9 3 10 2 11 1 12 13 13
REMARK SMILES IDX 14 14 15 15 16 16 17 17 18 18 19 19 20 20 21 21 22 22 23 23
REMARK SMILES IDX 24 24
REMARK H PARENT
REMARK Flexibility Score: inf
ROOT
ATOM      1  C   UNL     1      44.646  11.937  21.913  1.00  0.00     0.000 C 
ENDROOT
BRANCH   1   2
ATOM      2  C   UNL     1      45.640  10.827  21.538  1.00  0.00     0.000 C 
BRANCH   2   3
ATOM      3  C   UNL     1      44.975   9.653  20.798  1.00  0.00     0.000 C 
BRANCH   3   4
ATOM      4  C   UNL     1      44.583   8.457  21.687  1.00  0.00    -0.000 C 
BRANCH   4   5
ATOM      5  C   UNL     1      45.618   8.069  22.761  1.00  0.00    -0.000 C 
BRANCH   5   6
ATOM      6  C   UNL     1      45.199   8.385  24.208  1.00  0.00    -0.000 C 
BRANCH   6   7
ATOM      7  C   UNL     1      43.821   9.062  24.294  1.00  0.00    -0.000 C 
BRANCH   7   8
ATOM      8  C   UNL     1      43.396   9.365  25.743  1.00  0.00    -0.000 C 
BRANCH   8   9
ATOM      9  C   UNL     1      42.905  10.806  25.990  1.00  0.00    -0.000 C 
BRANCH   9  10
ATOM     10  C   UNL     1      42.257  11.491  24.774  1.00  0.00    -0.000 C 
BRANCH  10  11
ATOM     11  C   UNL     1      40.871  12.073  25.086  1.00  0.00    -0.003 C 
ATOM     12  C   UNL     1      40.833  12.678  26.487  1.00  0.00     0.004 C 
ENDBRANCH  10  11
ENDBRANCH   9  10
ENDBRANCH   8   9
ENDBRANCH   7   8
ENDBRANCH   6   7
ENDBRANCH   5   6
ENDBRANCH   4   5
ENDBRANCH   3   4
ENDBRANCH   2   3
ENDBRANCH   1   2
BRANCH   1  13
ATOM     13  C   UNL     1      45.389  13.211  22.343  1.00  0.00     0.000 C 
BRANCH  13  14
ATOM     14  C   UNL     1      45.897  14.033  21.147  1.00  0.00     0.000 C 
BRANCH  14  15
ATOM     15  C   UNL     1      45.532  15.524  21.257  1.00  0.00     0.000 C 
BRANCH  15  16
ATOM     16  C   UNL     1      44.308  15.896  20.405  1.00  0.00     0.000 C 
BRANCH  16  17
ATOM     17  C   UNL     1      43.296  16.767  21.172  1.00  0.00     0.000 C 
BRANCH  17  18
ATOM     18  C   UNL     1      41.943  16.068  21.369  1.00  0.00     0.000 C 
BRANCH  18  19
ATOM     19  C   UNL     1      42.008  14.930  22.400  1.00  0.00     0.000 C 
BRANCH  19  20
ATOM     20  C   UNL     1      41.935  15.482  23.831  1.00  0.00     0.006 C 
BRANCH  20  21
ATOM     21  C   UNL     1      43.124  15.031  24.690  1.00  0.00     0.053 C 
BRANCH  21  22
ATOM     22  C   UNL     1      43.922  16.196  25.193  1.00  0.00     0.041 C 
ATOM     23  O   UNL     1      43.526  16.852  26.192  1.00  0.00    -0.550 OA
ATOM     24  O   UNL     1      45.121  16.536  24.578  1.00  0.00    -0.550 OA
ENDBRANCH  21  22
ENDBRANCH  20  21
ENDBRANCH  19  20
ENDBRANCH  18  19
ENDBRANCH  17  18
ENDBRANCH  16  17
ENDBRANCH  15  16
ENDBRANCH  14  15
ENDBRANCH  13  14
ENDBRANCH   1  13
TORSDOF 20
ENDMDL
MODEL 9
REMARK VINA RESULT:    -3.719      3.366      6.958
REMARK INTER + INTRA:         -11.901
REMARK INTER:                  -8.385
REMARK INTRA:                  -3.516
REMARK UNBOUND:                -3.834
REMARK SMILES CCCCCCCCCCCCCCCCCCCCCC(=O)[O-]
REMARK SMILES IDX 12 1 11 2 10 3 9 4 8 5 7 6 6 7 5 8 4 9 3 10 2 11 1 12 13 13
REMARK SMILES IDX 14 14 15 15 16 16 17 17 18 18 19 19 20 20 21 21 22 22 23 23
REMARK SMILES IDX 24 24
REMARK H PARENT
REMARK Flexibility Score: inf
ROOT
ATOM      1  C   UNL     1      43.410  12.161  23.767  1.00  0.00     0.000 C 
ENDROOT
BRANCH   1   2
ATOM      2  C   UNL     1      42.495  13.356  24.074  1.00  0.00     0.000 C 
BRANCH   2   3
ATOM      3  C   UNL     1      41.880  13.979  22.808  1.00  0.00     0.000 C 
BRANCH   3   4
ATOM      4  C   UNL     1      41.970  15.516  22.727  1.00  0.00    -0.000 C 
BRANCH   4   5
ATOM      5  C   UNL     1      42.206  16.087  21.315  1.00  0.00    -0.000 C 
BRANCH   5   6
ATOM      6  C   UNL     1      43.615  16.659  21.077  1.00  0.00    -0.000 C 
BRANCH   6   7
ATOM      7  C   UNL     1      44.580  15.630  20.466  1.00  0.00    -0.000 C 
BRANCH   7   8
ATOM      8  C   UNL     1      45.966  15.642  21.137  1.00  0.00    -0.000 C 
BRANCH   8   9
ATOM      9  C   UNL     1      45.966  16.043  22.626  1.00  0.00    -0.000 C 
BRANCH   9  10
ATOM     10  C   UNL     1      45.898  14.866  23.617  1.00  0.00    -0.000 C 
BRANCH  10  11
ATOM     11  C   UNL     1      45.615  15.316  25.057  1.00  0.00    -0.003 C 
ATOM     12  C   UNL     1      44.577  16.435  25.089  1.00  0.00     0.004 C 
ENDBRANCH  10  11
ENDBRANCH   9  10
ENDBRANCH   8   9
ENDBRANCH   7   8
ENDBRANCH   6   7
ENDBRANCH   5   6
ENDBRANCH   4   5
ENDBRANCH   3   4
ENDBRANCH   2   3
ENDBRANCH   1   2
BRANCH   1  13
ATOM     13  C   UNL     1      43.621  12.010  22.253  1.00  0.00     0.000 C 
BRANCH  13  14
ATOM     14  C   UNL     1      45.105  11.884  21.872  1.00  0.00     0.000 C 
BRANCH  14  15
ATOM     15  C   UNL     1      45.480  10.463  21.414  1.00  0.00     0.000 C 
BRANCH  15  16
ATOM     16  C   UNL     1      44.247   9.587  21.143  1.00  0.00     0.000 C 
BRANCH  16  17
ATOM     17  C   UNL     1      44.272   8.269  21.940  1.00  0.00     0.000 C 
BRANCH  17  18
ATOM     18  C   UNL     1      45.694   7.846  22.339  1.00  0.00     0.000 C 
BRANCH  18  19
ATOM     19  C   UNL     1      45.895   7.801  23.861  1.00  0.00     0.000 C 
BRANCH  19  20
ATOM     20  C   UNL     1      44.769   8.552  24.586  1.00  0.00     0.006 C 
BRANCH  20  21
ATOM     21  C   UNL     1      45.305   9.619  25.549  1.00  0.00     0.053 C 
BRANCH  21  22
ATOM     22  C   UNL     1      45.119   9.222  26.982  1.00  0.00     0.041 C 
ATOM     23  O   UNL     1      46.002   9.497  27.836  1.00  0.00    -0.550 OA
ATOM     24  O   UNL     1      43.954   8.578  27.380  1.00  0.00    -0.550 OA
ENDBRANCH  21  22
ENDBRANCH  20  21
ENDBRANCH  19  20
ENDBRANCH  18  19
ENDBRANCH  17  18
ENDBRANCH  16  17
ENDBRANCH  15  16
ENDBRANCH  14  15
ENDBRANCH  13  14
ENDBRANCH   1  13
TORSDOF 20
ENDMDL
