MODEL 1
REMARK VINA RESULT:    -7.700      0.000      0.000
REMARK INTER + INTRA:          -9.284
REMARK INTER:                  -9.050
REMARK INTRA:                  -0.234
REMARK UNBOUND:                -0.234
REMARK SMILES O=c1c(O)c(-c2ccc(O)cc2)oc2cc(O)cc(O)c12
REMARK SMILES IDX 5 1 3 2 2 3 1 4 21 5 19 6 18 7 16 8 15 9 14 10 13 11 6 12
REMARK SMILES IDX 7 13 8 14 9 15 12 16 11 17 10 18 4 20 20 22 17 24
REMARK H PARENT 10 19 4 21 20 23 17 25
REMARK Flexibility Score: inf
ROOT
ATOM      1  C   UNL     1       4.988  -6.955   6.779  1.00  0.00     0.180 A 
ATOM      2  C   UNL     1       5.144  -6.603   8.130  1.00  0.00     0.208 A 
ATOM      3  C   UNL     1       6.433  -6.593   8.686  1.00  0.00     0.238 A 
ATOM      4  O   UNL     1       6.573  -6.206   9.876  1.00  0.00    -0.285 OA
ATOM      5  C   UNL     1       7.544  -6.987   7.902  1.00  0.00     0.111 A 
ATOM      6  C   UNL     1       8.889  -7.057   8.375  1.00  0.00     0.134 A 
ATOM      7  C   UNL     1       9.922  -7.358   7.477  1.00  0.00     0.093 A 
ATOM      8  C   UNL     1       9.651  -7.653   6.139  1.00  0.00     0.123 A 
ATOM      9  C   UNL     1       8.336  -7.642   5.681  1.00  0.00     0.094 A 
ATOM     10  C   UNL     1       7.288  -7.307   6.542  1.00  0.00     0.146 A 
ATOM     11  O   UNL     1       6.053  -7.288   6.057  1.00  0.00    -0.452 OA
ENDROOT
BRANCH   1  12
ATOM     12  C   UNL     1       3.664  -6.975   6.117  1.00  0.00     0.021 A 
ATOM     13  C   UNL     1       2.789  -8.048   6.354  1.00  0.00     0.016 A 
ATOM     14  C   UNL     1       1.543  -8.098   5.722  1.00  0.00     0.047 A 
ATOM     15  C   UNL     1       1.161  -7.084   4.834  1.00  0.00     0.115 A 
ATOM     16  C   UNL     1       3.283  -5.970   5.207  1.00  0.00     0.016 A 
ATOM     17  C   UNL     1       2.035  -6.025   4.577  1.00  0.00     0.047 A 
BRANCH  15  18
ATOM     18  O   UNL     1      -0.078  -7.124   4.200  1.00  0.00    -0.508 OA
ATOM     19  H   UNL     1      -0.369  -6.395   3.560  1.00  0.00     0.293 HD
ENDBRANCH  15  18
ENDBRANCH   1  12
BRANCH   2  20
ATOM     20  O   UNL     1       4.027  -6.292   8.910  1.00  0.00    -0.502 OA
ATOM     21  H   UNL     1       3.143  -6.010   8.505  1.00  0.00     0.293 HD
ENDBRANCH   2  20
BRANCH   6  22
ATOM     22  O   UNL     1       9.262  -6.866   9.709  1.00  0.00    -0.507 OA
ATOM     23  H   UNL     1       9.028  -7.488  10.467  1.00  0.00     0.293 HD
ENDBRANCH   6  22
BRANCH   8  24
ATOM     24  O   UNL     1      10.683  -7.969   5.257  1.00  0.00    -0.508 OA
ATOM     25  H   UNL     1      11.203  -7.248   4.771  1.00  0.00     0.293 HD
ENDBRANCH   8  24
TORSDOF 5
ENDMDL
MODEL 2
REMARK VINA RESULT:    -7.585      8.240     12.728
REMARK INTER + INTRA:          -9.149
REMARK INTER:                  -8.859
REMARK INTRA:                  -0.290
REMARK UNBOUND:                -0.234
REMARK SMILES O=c1c(O)c(-c2ccc(O)cc2)oc2cc(O)cc(O)c12
REMARK SMILES IDX 5 1 3 2 2 3 1 4 21 5 19 6 18 7 16 8 15 9 14 10 13 11 6 12
REMARK SMILES IDX 7 13 8 14 9 15 12 16 11 17 10 18 4 20 20 22 17 24
REMARK H PARENT 10 19 4 21 20 23 17 25
REMARK Flexibility Score: inf
ROOT
ATOM      1  C   UNL     1      12.339  -4.011  15.131  1.00  0.00     0.180 A 
ATOM      2  C   UNL     1      12.277  -4.916  14.057  1.00  0.00     0.208 A 
ATOM      3  C   UNL     1      11.081  -5.031  13.332  1.00  0.00     0.238 A 
ATOM      4  O   UNL     1      11.056  -5.788  12.327  1.00  0.00    -0.285 OA
ATOM      5  C   UNL     1       9.944  -4.283  13.722  1.00  0.00     0.111 A 
ATOM      6  C   UNL     1       8.667  -4.354  13.088  1.00  0.00     0.134 A 
ATOM      7  C   UNL     1       7.645  -3.487  13.494  1.00  0.00     0.093 A 
ATOM      8  C   UNL     1       7.833  -2.597  14.554  1.00  0.00     0.123 A 
ATOM      9  C   UNL     1       9.058  -2.558  15.215  1.00  0.00     0.094 A 
ATOM     10  C   UNL     1      10.109  -3.383  14.808  1.00  0.00     0.146 A 
ATOM     11  O   UNL     1      11.266  -3.297  15.453  1.00  0.00    -0.452 OA
ENDROOT
BRANCH   1  12
ATOM     12  C   UNL     1      13.569  -3.822  15.933  1.00  0.00     0.021 A 
ATOM     13  C   UNL     1      13.797  -4.641  17.051  1.00  0.00     0.016 A 
ATOM     14  C   UNL     1      14.940  -4.465  17.836  1.00  0.00     0.047 A 
ATOM     15  C   UNL     1      15.863  -3.459  17.522  1.00  0.00     0.115 A 
ATOM     16  C   UNL     1      14.489  -2.800  15.636  1.00  0.00     0.016 A 
ATOM     17  C   UNL     1      15.632  -2.627  16.424  1.00  0.00     0.047 A 
BRANCH  15  18
ATOM     18  O   UNL     1      17.006  -3.276  18.297  1.00  0.00    -0.508 OA
ATOM     19  H   UNL     1      17.313  -3.976  18.962  1.00  0.00     0.293 HD
ENDBRANCH  15  18
ENDBRANCH   1  12
BRANCH   2  20
ATOM     20  O   UNL     1      13.386  -5.702  13.735  1.00  0.00    -0.502 OA
ATOM     21  H   UNL     1      14.310  -5.310  13.597  1.00  0.00     0.293 HD
ENDBRANCH   2  20
BRANCH   6  22
ATOM     22  O   UNL     1       8.343  -5.267  12.080  1.00  0.00    -0.507 OA
ATOM     23  H   UNL     1       7.592  -5.938  12.128  1.00  0.00     0.293 HD
ENDBRANCH   6  22
BRANCH   8  24
ATOM     24  O   UNL     1       6.805  -1.750  14.962  1.00  0.00    -0.508 OA
ATOM     25  H   UNL     1       6.936  -0.746  15.021  1.00  0.00     0.293 HD
ENDBRANCH   8  24
TORSDOF 5
ENDMDL
MODEL 3
REMARK VINA RESULT:    -7.510      8.772     11.138
REMARK INTER + INTRA:          -9.061
REMARK INTER:                  -8.773
REMARK INTRA:                  -0.288
REMARK UNBOUND:                -0.234
REMARK SMILES O=c1c(O)c(-c2ccc(O)cc2)oc2cc(O)cc(O)c12
REMARK SMILES IDX 5 1 3 2 2 3 1 4 21 5 19 6 18 7 16 8 15 9 14 10 13 11 6 12
REMARK SMILES IDX 7 13 8 14 9 15 12 16 11 17 10 18 4 20 20 22 17 24
REMARK H PARENT 10 19 4 21 20 23 17 25
REMARK Flexibility Score: inf
ROOT
ATOM      1  C   UNL     1      11.798  -4.294  13.858  1.00  0.00     0.180 A 
ATOM      2  C   UNL     1      11.607  -4.971  12.642  1.00  0.00     0.208 A 
ATOM      3  C   UNL     1      11.878  -4.301  11.439  1.00  0.00     0.238 A 
ATOM      4  O   UNL     1      11.774  -4.937  10.358  1.00  0.00    -0.285 OA
ATOM      5  C   UNL     1      12.284  -2.945  11.462  1.00  0.00     0.111 A 
ATOM      6  C   UNL     1      12.542  -2.154  10.302  1.00  0.00     0.134 A 
ATOM      7  C   UNL     1      13.042  -0.854  10.451  1.00  0.00     0.093 A 
ATOM      8  C   UNL     1      13.232  -0.294  11.716  1.00  0.00     0.123 A 
ATOM      9  C   UNL     1      12.930  -1.038  12.853  1.00  0.00     0.094 A 
ATOM     10  C   UNL     1      12.467  -2.352  12.739  1.00  0.00     0.146 A 
ATOM     11  O   UNL     1      12.212  -3.032  13.850  1.00  0.00    -0.452 OA
ENDROOT
BRANCH   1  12
ATOM     12  C   UNL     1      11.549  -4.937  15.168  1.00  0.00     0.021 A 
ATOM     13  C   UNL     1      12.574  -5.676  15.781  1.00  0.00     0.016 A 
ATOM     14  C   UNL     1      12.354  -6.310  17.007  1.00  0.00     0.047 A 
ATOM     15  C   UNL     1      11.102  -6.227  17.629  1.00  0.00     0.115 A 
ATOM     16  C   UNL     1      10.287  -4.875  15.788  1.00  0.00     0.016 A 
ATOM     17  C   UNL     1      10.071  -5.511  17.014  1.00  0.00     0.047 A 
BRANCH  15  18
ATOM     18  O   UNL     1      10.871  -6.854  18.851  1.00  0.00    -0.508 OA
ATOM     19  H   UNL     1      11.368  -7.696  19.116  1.00  0.00     0.293 HD
ENDBRANCH  15  18
ENDBRANCH   1  12
BRANCH   2  20
ATOM     20  O   UNL     1      11.131  -6.285  12.636  1.00  0.00    -0.502 OA
ATOM     21  H   UNL     1      10.145  -6.507  12.571  1.00  0.00     0.293 HD
ENDBRANCH   2  20
BRANCH   6  22
ATOM     22  O   UNL     1      12.305  -2.582   8.993  1.00  0.00    -0.507 OA
ATOM     23  H   UNL     1      12.508  -3.505   8.642  1.00  0.00     0.293 HD
ENDBRANCH   6  22
BRANCH   8  24
ATOM     24  O   UNL     1      13.712   1.006  11.854  1.00  0.00    -0.508 OA
ATOM     25  H   UNL     1      13.823   1.437  12.766  1.00  0.00     0.293 HD
ENDBRANCH   8  24
TORSDOF 5
ENDMDL
MODEL 4
REMARK VINA RESULT:    -7.335     11.513     15.410
REMARK INTER + INTRA:          -8.856
REMARK INTER:                  -8.567
REMARK INTRA:                  -0.289
REMARK UNBOUND:                -0.234
REMARK SMILES O=c1c(O)c(-c2ccc(O)cc2)oc2cc(O)cc(O)c12
REMARK SMILES IDX 5 1 3 2 2 3 1 4 21 5 19 6 18 7 16 8 15 9 14 10 13 11 6 12
REMARK SMILES IDX 7 13 8 14 9 15 12 16 11 17 10 18 4 20 20 22 17 24
REMARK H PARENT 10 19 4 21 20 23 17 25
REMARK Flexibility Score: inf
ROOT
ATOM      1  C   UNL     1      16.379  -6.360  16.839  1.00  0.00     0.180 A 
ATOM      2  C   UNL     1      16.946  -5.244  17.477  1.00  0.00     0.208 A 
ATOM      3  C   UNL     1      16.379  -3.977  17.265  1.00  0.00     0.238 A 
ATOM      4  O   UNL     1      16.846  -2.994  17.897  1.00  0.00    -0.285 OA
ATOM      5  C   UNL     1      15.288  -3.833  16.375  1.00  0.00     0.111 A 
ATOM      6  C   UNL     1      14.662  -2.591  16.050  1.00  0.00     0.134 A 
ATOM      7  C   UNL     1      13.521  -2.584  15.239  1.00  0.00     0.093 A 
ATOM      8  C   UNL     1      13.020  -3.766  14.688  1.00  0.00     0.123 A 
ATOM      9  C   UNL     1      13.655  -4.976  14.954  1.00  0.00     0.094 A 
ATOM     10  C   UNL     1      14.773  -5.021  15.792  1.00  0.00     0.146 A 
ATOM     11  O   UNL     1      15.334  -6.199  16.035  1.00  0.00    -0.452 OA
ENDROOT
BRANCH   1  12
ATOM     12  C   UNL     1      16.911  -7.729  17.024  1.00  0.00     0.021 A 
ATOM     13  C   UNL     1      16.411  -8.529  18.065  1.00  0.00     0.016 A 
ATOM     14  C   UNL     1      16.914  -9.817  18.273  1.00  0.00     0.047 A 
ATOM     15  C   UNL     1      17.933 -10.316  17.452  1.00  0.00     0.115 A 
ATOM     16  C   UNL     1      17.949  -8.230  16.216  1.00  0.00     0.016 A 
ATOM     17  C   UNL     1      18.450  -9.518  16.427  1.00  0.00     0.047 A 
BRANCH  15  18
ATOM     18  O   UNL     1      18.441 -11.598  17.649  1.00  0.00    -0.508 OA
ATOM     19  H   UNL     1      19.321 -11.752  18.127  1.00  0.00     0.293 HD
ENDBRANCH  15  18
ENDBRANCH   1  12
BRANCH   2  20
ATOM     20  O   UNL     1      18.072  -5.395  18.292  1.00  0.00    -0.502 OA
ATOM     21  H   UNL     1      18.912  -4.844  18.167  1.00  0.00     0.293 HD
ENDBRANCH   2  20
BRANCH   6  22
ATOM     22  O   UNL     1      15.131  -1.344  16.474  1.00  0.00    -0.507 OA
ATOM     23  H   UNL     1      15.847  -1.202  17.170  1.00  0.00     0.293 HD
ENDBRANCH   6  22
BRANCH   8  24
ATOM     24  O   UNL     1      11.894  -3.747  13.868  1.00  0.00    -0.508 OA
ATOM     25  H   UNL     1      10.979  -4.010  14.217  1.00  0.00     0.293 HD
ENDBRANCH   8  24
TORSDOF 5
ENDMDL
MODEL 5
REMARK VINA RESULT:    -7.255      2.415      3.515
REMARK INTER + INTRA:          -8.762
REMARK INTER:                  -8.603
REMARK INTRA:                  -0.159
REMARK UNBOUND:                -0.234
REMARK SMILES O=c1c(O)c(-c2ccc(O)cc2)oc2cc(O)cc(O)c12
REMARK SMILES IDX 5 1 3 2 2 3 1 4 21 5 19 6 18 7 16 8 15 9 14 10 13 11 6 12
REMARK SMILES IDX 7 13 8 14 9 15 12 16 11 17 10 18 4 20 20 22 17 24
REMARK H PARENT 10 19 4 21 20 23 17 25
REMARK Flexibility Score: inf
ROOT
ATOM      1  C   UNL     1       3.968  -8.531   7.347  1.00  0.00     0.180 A 
ATOM      2  C   UNL     1       3.426  -7.242   7.489  1.00  0.00     0.208 A 
ATOM      3  C   UNL     1       4.248  -6.205   7.959  1.00  0.00     0.238 A 
ATOM      4  O   UNL     1       3.776  -5.040   8.014  1.00  0.00    -0.285 OA
ATOM      5  C   UNL     1       5.585  -6.480   8.331  1.00  0.00     0.111 A 
ATOM      6  C   UNL     1       6.496  -5.515   8.862  1.00  0.00     0.134 A 
ATOM      7  C   UNL     1       7.828  -5.879   9.095  1.00  0.00     0.093 A 
ATOM      8  C   UNL     1       8.267  -7.187   8.878  1.00  0.00     0.123 A 
ATOM      9  C   UNL     1       7.374  -8.148   8.414  1.00  0.00     0.094 A 
ATOM     10  C   UNL     1       6.048  -7.808   8.135  1.00  0.00     0.146 A 
ATOM     11  O   UNL     1       5.236  -8.751   7.673  1.00  0.00    -0.452 OA
ENDROOT
BRANCH   1  12
ATOM     12  C   UNL     1       3.169  -9.671   6.844  1.00  0.00     0.021 A 
ATOM     13  C   UNL     1       3.453 -10.209   5.578  1.00  0.00     0.016 A 
ATOM     14  C   UNL     1       2.698 -11.272   5.074  1.00  0.00     0.047 A 
ATOM     15  C   UNL     1       1.639 -11.802   5.824  1.00  0.00     0.115 A 
ATOM     16  C   UNL     1       2.091 -10.194   7.583  1.00  0.00     0.016 A 
ATOM     17  C   UNL     1       1.337 -11.258   7.075  1.00  0.00     0.047 A 
BRANCH  15  18
ATOM     18  O   UNL     1       0.880 -12.861   5.332  1.00  0.00    -0.508 OA
ATOM     19  H   UNL     1      -0.081 -12.732   5.038  1.00  0.00     0.293 HD
ENDBRANCH  15  18
ENDBRANCH   1  12
BRANCH   2  20
ATOM     20  O   UNL     1       2.081  -7.007   7.189  1.00  0.00    -0.502 OA
ATOM     21  H   UNL     1       1.500  -6.389   7.742  1.00  0.00     0.293 HD
ENDBRANCH   2  20
BRANCH   6  22
ATOM     22  O   UNL     1       6.141  -4.205   9.197  1.00  0.00    -0.507 OA
ATOM     23  H   UNL     1       6.774  -3.420   9.206  1.00  0.00     0.293 HD
ENDBRANCH   6  22
BRANCH   8  24
ATOM     24  O   UNL     1       9.590  -7.544   9.130  1.00  0.00    -0.508 OA
ATOM     25  H   UNL     1      10.360  -7.110   8.633  1.00  0.00     0.293 HD
ENDBRANCH   8  24
TORSDOF 5
ENDMDL
MODEL 6
REMARK VINA RESULT:    -7.161      1.899      6.679
REMARK INTER + INTRA:          -8.651
REMARK INTER:                  -8.358
REMARK INTRA:                  -0.293
REMARK UNBOUND:                -0.234
REMARK SMILES O=c1c(O)c(-c2ccc(O)cc2)oc2cc(O)cc(O)c12
REMARK SMILES IDX 5 1 3 2 2 3 1 4 21 5 19 6 18 7 16 8 15 9 14 10 13 11 6 12
REMARK SMILES IDX 7 13 8 14 9 15 12 16 11 17 10 18 4 20 20 22 17 24
REMARK H PARENT 10 19 4 21 20 23 17 25
REMARK Flexibility Score: inf
ROOT
ATOM      1  C   UNL     1       5.166  -7.248   7.572  1.00  0.00     0.180 A 
ATOM      2  C   UNL     1       4.258  -8.263   7.921  1.00  0.00     0.208 A 
ATOM      3  C   UNL     1       3.071  -8.398   7.183  1.00  0.00     0.238 A 
ATOM      4  O   UNL     1       2.299  -9.355   7.454  1.00  0.00    -0.285 OA
ATOM      5  C   UNL     1       2.779  -7.484   6.143  1.00  0.00     0.111 A 
ATOM      6  C   UNL     1       1.585  -7.498   5.360  1.00  0.00     0.134 A 
ATOM      7  C   UNL     1       1.453  -6.608   4.286  1.00  0.00     0.093 A 
ATOM      8  C   UNL     1       2.443  -5.663   4.007  1.00  0.00     0.123 A 
ATOM      9  C   UNL     1       3.586  -5.604   4.799  1.00  0.00     0.094 A 
ATOM     10  C   UNL     1       3.764  -6.504   5.854  1.00  0.00     0.146 A 
ATOM     11  O   UNL     1       4.880  -6.425   6.569  1.00  0.00    -0.452 OA
ENDROOT
BRANCH   1  12
ATOM     12  C   UNL     1       6.444  -7.052   8.292  1.00  0.00     0.021 A 
ATOM     13  C   UNL     1       6.485  -6.202   9.409  1.00  0.00     0.016 A 
ATOM     14  C   UNL     1       7.686  -5.984  10.091  1.00  0.00     0.047 A 
ATOM     15  C   UNL     1       8.865  -6.602   9.655  1.00  0.00     0.115 A 
ATOM     16  C   UNL     1       7.637  -7.653   7.847  1.00  0.00     0.016 A 
ATOM     17  C   UNL     1       8.836  -7.432   8.531  1.00  0.00     0.047 A 
BRANCH  15  18
ATOM     18  O   UNL     1      10.068  -6.393  10.327  1.00  0.00    -0.508 OA
ATOM     19  H   UNL     1      10.634  -7.168  10.652  1.00  0.00     0.293 HD
ENDBRANCH  15  18
ENDBRANCH   1  12
BRANCH   2  20
ATOM     20  O   UNL     1       4.529  -9.108   9.000  1.00  0.00    -0.502 OA
ATOM     21  H   UNL     1       3.893  -9.841   9.291  1.00  0.00     0.293 HD
ENDBRANCH   2  20
BRANCH   6  22
ATOM     22  O   UNL     1       0.497  -8.341   5.606  1.00  0.00    -0.507 OA
ATOM     23  H   UNL     1       0.567  -9.305   5.891  1.00  0.00     0.293 HD
ENDBRANCH   6  22
BRANCH   8  24
ATOM     24  O   UNL     1       2.295  -4.770   2.948  1.00  0.00    -0.508 OA
ATOM     25  H   UNL     1       1.469  -4.778   2.359  1.00  0.00     0.293 HD
ENDBRANCH   8  24
TORSDOF 5
ENDMDL
MODEL 7
REMARK VINA RESULT:    -7.107      3.899      8.168
REMARK INTER + INTRA:          -8.587
REMARK INTER:                  -8.306
REMARK INTRA:                  -0.281
REMARK UNBOUND:                -0.234
REMARK SMILES O=c1c(O)c(-c2ccc(O)cc2)oc2cc(O)cc(O)c12
REMARK SMILES IDX 5 1 3 2 2 3 1 4 21 5 19 6 18 7 16 8 15 9 14 10 13 11 6 12
REMARK SMILES IDX 7 13 8 14 9 15 12 16 11 17 10 18 4 20 20 22 17 24
REMARK H PARENT 10 19 4 21 20 23 17 25
REMARK Flexibility Score: inf
ROOT
ATOM      1  C   UNL     1       8.272  -4.446  10.314  1.00  0.00     0.180 A 
ATOM      2  C   UNL     1       7.624  -5.692  10.361  1.00  0.00     0.208 A 
ATOM      3  C   UNL     1       6.441  -5.873   9.627  1.00  0.00     0.238 A 
ATOM      4  O   UNL     1       5.907  -7.012   9.616  1.00  0.00    -0.285 OA
ATOM      5  C   UNL     1       5.890  -4.791   8.899  1.00  0.00     0.111 A 
ATOM      6  C   UNL     1       4.672  -4.848   8.155  1.00  0.00     0.134 A 
ATOM      7  C   UNL     1       4.281  -3.745   7.386  1.00  0.00     0.093 A 
ATOM      8  C   UNL     1       5.028  -2.565   7.384  1.00  0.00     0.123 A 
ATOM      9  C   UNL     1       6.188  -2.480   8.150  1.00  0.00     0.094 A 
ATOM     10  C   UNL     1       6.626  -3.577   8.897  1.00  0.00     0.146 A 
ATOM     11  O   UNL     1       7.749  -3.459   9.595  1.00  0.00    -0.452 OA
ENDROOT
BRANCH   1  12
ATOM     12  C   UNL     1       9.530  -4.182  11.048  1.00  0.00     0.021 A 
ATOM     13  C   UNL     1       9.474  -3.791  12.396  1.00  0.00     0.016 A 
ATOM     14  C   UNL     1      10.649  -3.515  13.103  1.00  0.00     0.047 A 
ATOM     15  C   UNL     1      11.893  -3.613  12.467  1.00  0.00     0.115 A 
ATOM     16  C   UNL     1      10.782  -4.259  10.410  1.00  0.00     0.016 A 
ATOM     17  C   UNL     1      11.955  -3.982  11.120  1.00  0.00     0.047 A 
BRANCH  15  18
ATOM     18  O   UNL     1      13.070  -3.342  13.161  1.00  0.00    -0.508 OA
ATOM     19  H   UNL     1      13.851  -3.986  13.151  1.00  0.00     0.293 HD
ENDBRANCH  15  18
ENDBRANCH   1  12
BRANCH   2  20
ATOM     20  O   UNL     1       8.142  -6.724  11.148  1.00  0.00    -0.502 OA
ATOM     21  H   UNL     1       9.044  -6.662  11.603  1.00  0.00     0.293 HD
ENDBRANCH   2  20
BRANCH   6  22
ATOM     22  O   UNL     1       3.805  -5.944   8.156  1.00  0.00    -0.507 OA
ATOM     23  H   UNL     1       3.502  -6.440   8.980  1.00  0.00     0.293 HD
ENDBRANCH   6  22
BRANCH   8  24
ATOM     24  O   UNL     1       4.621  -1.467   6.630  1.00  0.00    -0.508 OA
ATOM     25  H   UNL     1       3.948  -1.560   5.877  1.00  0.00     0.293 HD
ENDBRANCH   8  24
TORSDOF 5
ENDMDL
MODEL 8
REMARK VINA RESULT:    -7.102      2.379      6.618
REMARK INTER + INTRA:          -8.581
REMARK INTER:                  -8.568
REMARK INTRA:                  -0.013
REMARK UNBOUND:                -0.234
REMARK SMILES O=c1c(O)c(-c2ccc(O)cc2)oc2cc(O)cc(O)c12
REMARK SMILES IDX 5 1 3 2 2 3 1 4 21 5 19 6 18 7 16 8 15 9 14 10 13 11 6 12
REMARK SMILES IDX 7 13 8 14 9 15 12 16 11 17 10 18 4 20 20 22 17 24
REMARK H PARENT 10 19 4 21 20 23 17 25
REMARK Flexibility Score: inf
ROOT
ATOM      1  C   UNL     1       5.545  -7.563   8.112  1.00  0.00     0.180 A 
ATOM      2  C   UNL     1       4.403  -6.751   8.017  1.00  0.00     0.208 A 
ATOM      3  C   UNL     1       3.183  -7.332   7.634  1.00  0.00     0.238 A 
ATOM      4  O   UNL     1       2.151  -6.613   7.623  1.00  0.00    -0.285 OA
ATOM      5  C   UNL     1       3.132  -8.706   7.298  1.00  0.00     0.111 A 
ATOM      6  C   UNL     1       1.960  -9.390   6.853  1.00  0.00     0.134 A 
ATOM      7  C   UNL     1       2.005 -10.776   6.651  1.00  0.00     0.093 A 
ATOM      8  C   UNL     1       3.193 -11.490   6.815  1.00  0.00     0.123 A 
ATOM      9  C   UNL     1       4.355 -10.823   7.194  1.00  0.00     0.094 A 
ATOM     10  C   UNL     1       4.334  -9.448   7.441  1.00  0.00     0.146 A 
ATOM     11  O   UNL     1       5.459  -8.857   7.822  1.00  0.00    -0.452 OA
ENDROOT
BRANCH   1  12
ATOM     12  C   UNL     1       6.863  -7.027   8.523  1.00  0.00     0.021 A 
ATOM     13  C   UNL     1       7.999  -7.322   7.752  1.00  0.00     0.016 A 
ATOM     14  C   UNL     1       9.257  -6.845   8.134  1.00  0.00     0.047 A 
ATOM     15  C   UNL     1       9.397  -6.080   9.298  1.00  0.00     0.115 A 
ATOM     16  C   UNL     1       7.014  -6.275   9.703  1.00  0.00     0.016 A 
ATOM     17  C   UNL     1       8.273  -5.800  10.081  1.00  0.00     0.047 A 
BRANCH  15  18
ATOM     18  O   UNL     1      10.645  -5.599   9.688  1.00  0.00    -0.508 OA
ATOM     19  H   UNL     1      10.779  -4.631   9.957  1.00  0.00     0.293 HD
ENDBRANCH  15  18
ENDBRANCH   1  12
BRANCH   2  20
ATOM     20  O   UNL     1       4.490  -5.381   8.279  1.00  0.00    -0.502 OA
ATOM     21  H   UNL     1       3.893  -4.701   7.825  1.00  0.00     0.293 HD
ENDBRANCH   2  20
BRANCH   6  22
ATOM     22  O   UNL     1       0.743  -8.760   6.574  1.00  0.00    -0.507 OA
ATOM     23  H   UNL     1       0.466  -7.858   6.929  1.00  0.00     0.293 HD
ENDBRANCH   6  22
BRANCH   8  24
ATOM     24  O   UNL     1       3.232 -12.865   6.594  1.00  0.00    -0.508 OA
ATOM     25  H   UNL     1       2.808 -13.519   7.243  1.00  0.00     0.293 HD
ENDBRANCH   8  24
TORSDOF 5
ENDMDL
MODEL 9
REMARK VINA RESULT:    -7.072      2.766      6.906
REMARK INTER + INTRA:          -8.546
REMARK INTER:                  -8.399
REMARK INTRA:                  -0.146
REMARK UNBOUND:                -0.234
REMARK SMILES O=c1c(O)c(-c2ccc(O)cc2)oc2cc(O)cc(O)c12
REMARK SMILES IDX 5 1 3 2 2 3 1 4 21 5 19 6 18 7 16 8 15 9 14 10 13 11 6 12
REMARK SMILES IDX 7 13 8 14 9 15 12 16 11 17 10 18 4 20 20 22 17 24
REMARK H PARENT 10 19 4 21 20 23 17 25
REMARK Flexibility Score: inf
ROOT
ATOM      1  C   UNL     1       8.172  -6.339   9.217  1.00  0.00     0.180 A 
ATOM      2  C   UNL     1       6.847  -5.945   9.465  1.00  0.00     0.208 A 
ATOM      3  C   UNL     1       5.801  -6.631   8.827  1.00  0.00     0.238 A 
ATOM      4  O   UNL     1       4.615  -6.320   9.110  1.00  0.00    -0.285 OA
ATOM      5  C   UNL     1       6.095  -7.666   7.907  1.00  0.00     0.111 A 
ATOM      6  C   UNL     1       5.117  -8.400   7.169  1.00  0.00     0.134 A 
ATOM      7  C   UNL     1       5.521  -9.475   6.368  1.00  0.00     0.093 A 
ATOM      8  C   UNL     1       6.871  -9.803   6.227  1.00  0.00     0.123 A 
ATOM      9  C   UNL     1       7.837  -9.059   6.899  1.00  0.00     0.094 A 
ATOM     10  C   UNL     1       7.463  -8.005   7.737  1.00  0.00     0.146 A 
ATOM     11  O   UNL     1       8.416  -7.337   8.375  1.00  0.00    -0.452 OA
ENDROOT
BRANCH   1  12
ATOM     12  C   UNL     1       9.327  -5.675   9.863  1.00  0.00     0.021 A 
ATOM     13  C   UNL     1      10.292  -5.038   9.066  1.00  0.00     0.016 A 
ATOM     14  C   UNL     1      11.403  -4.423   9.653  1.00  0.00     0.047 A 
ATOM     15  C   UNL     1      11.569  -4.450  11.044  1.00  0.00     0.115 A 
ATOM     16  C   UNL     1       9.511  -5.715  11.258  1.00  0.00     0.016 A 
ATOM     17  C   UNL     1      10.623  -5.099  11.841  1.00  0.00     0.047 A 
BRANCH  15  18
ATOM     18  O   UNL     1      12.671  -3.840  11.639  1.00  0.00    -0.508 OA
ATOM     19  H   UNL     1      13.554  -3.748  11.151  1.00  0.00     0.293 HD
ENDBRANCH  15  18
ENDBRANCH   1  12
BRANCH   2  20
ATOM     20  O   UNL     1       6.580  -4.869  10.317  1.00  0.00    -0.502 OA
ATOM     21  H   UNL     1       7.303  -4.236  10.636  1.00  0.00     0.293 HD
ENDBRANCH   2  20
BRANCH   6  22
ATOM     22  O   UNL     1       3.751  -8.102   7.168  1.00  0.00    -0.507 OA
ATOM     23  H   UNL     1       3.011  -8.786   7.136  1.00  0.00     0.293 HD
ENDBRANCH   6  22
BRANCH   8  24
ATOM     24  O   UNL     1       7.264 -10.864   5.413  1.00  0.00    -0.508 OA
ATOM     25  H   UNL     1       6.598 -11.364   4.836  1.00  0.00     0.293 HD
ENDBRANCH   8  24
TORSDOF 5
ENDMDL
