MODEL 1
REMARK VINA RESULT:     1.219      0.000      0.000
REMARK INTER + INTRA:           1.714
REMARK INTER:                   1.469
REMARK INTRA:                   0.245
REMARK UNBOUND:                 0.245
REMARK SMILES O=c1c(O)c(-c2ccc(O)c(O)c2)oc2cc(O)cc(O)c12
REMARK SMILES IDX 5 1 3 2 2 3 1 4 22 5 20 6 19 7 17 8 16 9 15 10 14 11 6 12
REMARK SMILES IDX 7 13 8 14 9 15 13 16 11 17 10 18 12 20 4 22 21 24 18 26
REMARK H PARENT 10 19 12 21 4 23 21 25 18 27
REMARK Flexibility Score: inf
ROOT
ATOM      1  C   UNL     1      -9.086 -19.778  11.293  1.00  0.00     0.180 A 
ATOM      2  C   UNL     1      -9.790 -20.664  12.126  1.00  0.00     0.208 A 
ATOM      3  C   UNL     1     -10.096 -20.268  13.438  1.00  0.00     0.238 A 
ATOM      4  O   UNL     1     -10.679 -21.087  14.196  1.00  0.00    -0.285 OA
ATOM      5  C   UNL     1      -9.709 -18.985  13.896  1.00  0.00     0.111 A 
ATOM      6  C   UNL     1     -10.002 -18.465  15.192  1.00  0.00     0.134 A 
ATOM      7  C   UNL     1      -9.456 -17.236  15.581  1.00  0.00     0.093 A 
ATOM      8  C   UNL     1      -8.684 -16.479  14.701  1.00  0.00     0.123 A 
ATOM      9  C   UNL     1      -8.441 -16.951  13.410  1.00  0.00     0.094 A 
ATOM     10  C   UNL     1      -8.941 -18.190  13.005  1.00  0.00     0.146 A 
ATOM     11  O   UNL     1      -8.679 -18.608  11.772  1.00  0.00    -0.452 OA
ENDROOT
BRANCH   1  12
ATOM     12  C   UNL     1      -8.749 -20.114   9.890  1.00  0.00     0.025 A 
ATOM     13  C   UNL     1      -8.775 -19.106   8.914  1.00  0.00     0.016 A 
ATOM     14  C   UNL     1      -8.480 -19.405   7.581  1.00  0.00     0.051 A 
ATOM     15  C   UNL     1      -8.172 -20.719   7.203  1.00  0.00     0.157 A 
ATOM     16  C   UNL     1      -8.460 -21.434   9.504  1.00  0.00     0.062 A 
ATOM     17  C   UNL     1      -8.166 -21.738   8.169  1.00  0.00     0.158 A 
BRANCH  15  18
ATOM     18  O   UNL     1      -7.876 -21.014   5.873  1.00  0.00    -0.504 OA
ATOM     19  H   UNL     1      -8.222 -20.440   5.112  1.00  0.00     0.293 HD
ENDBRANCH  15  18
BRANCH  17  20
ATOM     20  O   UNL     1      -7.877 -23.057   7.823  1.00  0.00    -0.504 OA
ATOM     21  H   UNL     1      -8.562 -23.798   7.906  1.00  0.00     0.293 HD
ENDBRANCH  17  20
ENDBRANCH   1  12
BRANCH   2  22
ATOM     22  O   UNL     1     -10.144 -21.934  11.661  1.00  0.00    -0.502 OA
ATOM     23  H   UNL     1      -9.577 -22.755  11.836  1.00  0.00     0.293 HD
ENDBRANCH   2  22
BRANCH   6  24
ATOM     24  O   UNL     1     -10.838 -19.098  16.116  1.00  0.00    -0.507 OA
ATOM     25  H   UNL     1     -11.125 -18.702  16.997  1.00  0.00     0.293 HD
ENDBRANCH   6  24
BRANCH   8  26
ATOM     26  O   UNL     1      -8.170 -15.253  15.118  1.00  0.00    -0.508 OA
ATOM     27  H   UNL     1      -7.950 -15.073  16.090  1.00  0.00     0.293 HD
ENDBRANCH   8  26
TORSDOF 6
ENDMDL
MODEL 2
REMARK VINA RESULT:     1.254      1.208      2.951
REMARK INTER + INTRA:           1.756
REMARK INTER:                   1.505
REMARK INTRA:                   0.251
REMARK UNBOUND:                 0.245
REMARK SMILES O=c1c(O)c(-c2ccc(O)c(O)c2)oc2cc(O)cc(O)c12
REMARK SMILES IDX 5 1 3 2 2 3 1 4 22 5 20 6 19 7 17 8 16 9 15 10 14 11 6 12
REMARK SMILES IDX 7 13 8 14 9 15 13 16 11 17 10 18 12 20 4 22 21 24 18 26
REMARK H PARENT 10 19 12 21 4 23 21 25 18 27
REMARK Flexibility Score: inf
ROOT
ATOM      1  C   UNL     1      -9.144 -19.458  11.356  1.00  0.00     0.180 A 
ATOM      2  C   UNL     1      -8.789 -18.201  11.873  1.00  0.00     0.208 A 
ATOM      3  C   UNL     1      -9.135 -17.887  13.198  1.00  0.00     0.238 A 
ATOM      4  O   UNL     1      -8.863 -16.740  13.638  1.00  0.00    -0.285 OA
ATOM      5  C   UNL     1      -9.818 -18.840  13.993  1.00  0.00     0.111 A 
ATOM      6  C   UNL     1     -10.181 -18.644  15.359  1.00  0.00     0.134 A 
ATOM      7  C   UNL     1     -10.969 -19.603  16.008  1.00  0.00     0.093 A 
ATOM      8  C   UNL     1     -11.349 -20.778  15.363  1.00  0.00     0.123 A 
ATOM      9  C   UNL     1     -10.949 -21.007  14.046  1.00  0.00     0.094 A 
ATOM     10  C   UNL     1     -10.194 -20.053  13.360  1.00  0.00     0.146 A 
ATOM     11  O   UNL     1      -9.842 -20.305  12.105  1.00  0.00    -0.452 OA
ENDROOT
BRANCH   1  12
ATOM     12  C   UNL     1      -8.793 -19.871   9.978  1.00  0.00     0.025 A 
ATOM     13  C   UNL     1      -8.821 -18.923   8.944  1.00  0.00     0.016 A 
ATOM     14  C   UNL     1      -8.513 -19.295   7.633  1.00  0.00     0.051 A 
ATOM     15  C   UNL     1      -8.189 -20.625   7.334  1.00  0.00     0.157 A 
ATOM     16  C   UNL     1      -8.487 -21.209   9.671  1.00  0.00     0.062 A 
ATOM     17  C   UNL     1      -8.180 -21.587   8.358  1.00  0.00     0.158 A 
BRANCH  15  18
ATOM     18  O   UNL     1      -7.880 -20.994   6.025  1.00  0.00    -0.504 OA
ATOM     19  H   UNL     1      -7.346 -20.386   5.414  1.00  0.00     0.293 HD
ENDBRANCH  15  18
BRANCH  17  20
ATOM     20  O   UNL     1      -7.875 -22.921   8.090  1.00  0.00    -0.504 OA
ATOM     21  H   UNL     1      -8.595 -23.621   7.956  1.00  0.00     0.293 HD
ENDBRANCH  17  20
ENDBRANCH   1  12
BRANCH   2  22
ATOM     22  O   UNL     1      -8.136 -17.267  11.065  1.00  0.00    -0.502 OA
ATOM     23  H   UNL     1      -7.181 -16.972  11.236  1.00  0.00     0.293 HD
ENDBRANCH   2  22
BRANCH   6  24
ATOM     24  O   UNL     1      -9.775 -17.547  16.125  1.00  0.00    -0.507 OA
ATOM     25  H   UNL     1      -8.925 -17.026  15.977  1.00  0.00     0.293 HD
ENDBRANCH   6  24
BRANCH   8  26
ATOM     26  O   UNL     1     -12.120 -21.717  16.044  1.00  0.00    -0.508 OA
ATOM     27  H   UNL     1     -12.816 -22.279  15.568  1.00  0.00     0.293 HD
ENDBRANCH   8  26
TORSDOF 6
ENDMDL
MODEL 3
REMARK VINA RESULT:     3.127      2.962      4.798
REMARK INTER + INTRA:           4.012
REMARK INTER:                   3.528
REMARK INTRA:                   0.484
REMARK UNBOUND:                 0.245
REMARK SMILES O=c1c(O)c(-c2ccc(O)c(O)c2)oc2cc(O)cc(O)c12
REMARK SMILES IDX 5 1 3 2 2 3 1 4 22 5 20 6 19 7 17 8 16 9 15 10 14 11 6 12
REMARK SMILES IDX 7 13 8 14 9 15 13 16 11 17 10 18 12 20 4 22 21 24 18 26
REMARK H PARENT 10 19 12 21 4 23 21 25 18 27
REMARK Flexibility Score: inf
ROOT
ATOM      1  C   UNL     1      -9.804 -19.581  12.458  1.00  0.00     0.180 A 
ATOM      2  C   UNL     1      -9.063 -19.882  13.613  1.00  0.00     0.208 A 
ATOM      3  C   UNL     1      -9.553 -20.851  14.504  1.00  0.00     0.238 A 
ATOM      4  O   UNL     1      -8.913 -21.077  15.563  1.00  0.00    -0.285 OA
ATOM      5  C   UNL     1     -10.770 -21.517  14.220  1.00  0.00     0.111 A 
ATOM      6  C   UNL     1     -11.339 -22.544  15.031  1.00  0.00     0.134 A 
ATOM      7  C   UNL     1     -12.611 -23.041  14.723  1.00  0.00     0.093 A 
ATOM      8  C   UNL     1     -13.305 -22.597  13.599  1.00  0.00     0.123 A 
ATOM      9  C   UNL     1     -12.732 -21.636  12.765  1.00  0.00     0.094 A 
ATOM     10  C   UNL     1     -11.480 -21.095  13.066  1.00  0.00     0.146 A 
ATOM     11  O   UNL     1     -10.974 -20.175  12.253  1.00  0.00    -0.452 OA
ENDROOT
BRANCH   1  12
ATOM     12  C   UNL     1      -9.340 -18.590  11.460  1.00  0.00     0.025 A 
ATOM     13  C   UNL     1      -8.336 -17.675  11.811  1.00  0.00     0.016 A 
ATOM     14  C   UNL     1      -7.898 -16.718  10.891  1.00  0.00     0.051 A 
ATOM     15  C   UNL     1      -8.470 -16.652   9.614  1.00  0.00     0.157 A 
ATOM     16  C   UNL     1      -9.926 -18.508  10.184  1.00  0.00     0.062 A 
ATOM     17  C   UNL     1      -9.491 -17.549   9.261  1.00  0.00     0.158 A 
BRANCH  15  18
ATOM     18  O   UNL     1      -8.029 -15.697   8.698  1.00  0.00    -0.504 OA
ATOM     19  H   UNL     1      -8.426 -15.631   7.767  1.00  0.00     0.293 HD
ENDBRANCH  15  18
BRANCH  17  20
ATOM     20  O   UNL     1     -10.090 -17.500   8.003  1.00  0.00    -0.504 OA
ATOM     21  H   UNL     1      -9.771 -16.868   7.279  1.00  0.00     0.293 HD
ENDBRANCH  17  20
ENDBRANCH   1  12
BRANCH   2  22
ATOM     22  O   UNL     1      -7.875 -19.197  13.885  1.00  0.00    -0.502 OA
ATOM     23  H   UNL     1      -7.506 -19.100  14.823  1.00  0.00     0.293 HD
ENDBRANCH   2  22
BRANCH   6  24
ATOM     24  O   UNL     1     -10.690 -23.124  16.125  1.00  0.00    -0.507 OA
ATOM     25  H   UNL     1      -9.820 -23.630  16.075  1.00  0.00     0.293 HD
ENDBRANCH   6  24
BRANCH   8  26
ATOM     26  O   UNL     1     -14.563 -23.125  13.314  1.00  0.00    -0.508 OA
ATOM     27  H   UNL     1     -15.120 -22.782  12.540  1.00  0.00     0.293 HD
ENDBRANCH   8  26
TORSDOF 6
ENDMDL
