MODEL 1
REMARK VINA RESULT:    -2.953      0.000      0.000
REMARK INTER + INTRA:          -8.014
REMARK INTER:                  -5.370
REMARK INTRA:                  -2.644
REMARK UNBOUND:                -2.644
REMARK SMILES CCCCCCCCCCCCCCCC(=O)[O-]
REMARK SMILES IDX 9 1 10 2 11 3 12 4 13 5 14 6 15 7 16 8 17 9 18 10 8 11 7 12
REMARK SMILES IDX 6 13 5 14 4 15 3 16 2 17 1 18
REMARK H PARENT
REMARK Flexibility Score: inf
ROOT
ATOM      1  C   UNL     1      10.503   8.095  31.312  1.00  0.00     0.000 C 
ENDROOT
BRANCH   1   2
ATOM      2  C   UNL     1       9.334   7.791  30.363  1.00  0.00     0.000 C 
BRANCH   2   3
ATOM      3  C   UNL     1       8.134   7.156  31.084  1.00  0.00     0.000 C 
BRANCH   3   4
ATOM      4  C   UNL     1       8.207   5.619  31.111  1.00  0.00     0.000 C 
BRANCH   4   5
ATOM      5  C   UNL     1       9.031   5.037  29.948  1.00  0.00     0.000 C 
BRANCH   5   6
ATOM      6  C   UNL     1      10.222   4.151  30.359  1.00  0.00     0.006 C 
BRANCH   6   7
ATOM      7  C   UNL     1      11.352   4.091  29.315  1.00  0.00     0.053 C 
BRANCH   7   8
ATOM      8  C   UNL     1      12.392   5.149  29.536  1.00  0.00     0.041 C 
ATOM      9  O   UNL     1      12.349   6.226  28.886  1.00  0.00    -0.550 OA
ATOM     10  O   UNL     1      13.434   4.929  30.429  1.00  0.00    -0.550 OA
ENDBRANCH   7   8
ENDBRANCH   6   7
ENDBRANCH   5   6
ENDBRANCH   4   5
ENDBRANCH   3   4
ENDBRANCH   2   3
ENDBRANCH   1   2
BRANCH   1  11
ATOM     11  C   UNL     1      10.003   8.312  32.747  1.00  0.00     0.000 C 
BRANCH  11  12
ATOM     12  C   UNL     1      10.866   7.535  33.754  1.00  0.00    -0.000 C 
BRANCH  12  13
ATOM     13  C   UNL     1      11.615   6.358  33.111  1.00  0.00    -0.000 C 
BRANCH  13  14
ATOM     14  C   UNL     1      11.352   5.024  33.832  1.00  0.00    -0.000 C 
BRANCH  14  15
ATOM     15  C   UNL     1      10.171   5.106  34.813  1.00  0.00    -0.000 C 
BRANCH  15  16
ATOM     16  C   UNL     1       8.977   4.240  34.373  1.00  0.00    -0.000 C 
BRANCH  16  17
ATOM     17  C   UNL     1       9.417   2.942  33.679  1.00  0.00    -0.003 C 
ATOM     18  C   UNL     1       8.271   2.238  32.954  1.00  0.00     0.004 C 
ENDBRANCH  16  17
ENDBRANCH  15  16
ENDBRANCH  14  15
ENDBRANCH  13  14
ENDBRANCH  12  13
ENDBRANCH  11  12
ENDBRANCH   1  11
TORSDOF 14
ENDMDL
MODEL 2
REMARK VINA RESULT:    -2.948     10.201     12.320
REMARK INTER + INTRA:          -8.005
REMARK INTER:                  -5.921
REMARK INTRA:                  -2.084
REMARK UNBOUND:                -2.644
REMARK SMILES CCCCCCCCCCCCCCCC(=O)[O-]
REMARK SMILES IDX 9 1 10 2 11 3 12 4 13 5 14 6 15 7 16 8 17 9 18 10 8 11 7 12
REMARK SMILES IDX 6 13 5 14 4 15 3 16 2 17 1 18
REMARK H PARENT
REMARK Flexibility Score: inf
ROOT
ATOM      1  C   UNL     1      22.417   7.440  38.842  1.00  0.00     0.000 C 
ENDROOT
BRANCH   1   2
ATOM      2  C   UNL     1      22.373   8.960  39.060  1.00  0.00     0.000 C 
BRANCH   2   3
ATOM      3  C   UNL     1      22.835   9.751  37.826  1.00  0.00     0.000 C 
BRANCH   3   4
ATOM      4  C   UNL     1      21.669  10.125  36.894  1.00  0.00     0.000 C 
BRANCH   4   5
ATOM      5  C   UNL     1      21.352   9.029  35.861  1.00  0.00     0.000 C 
BRANCH   5   6
ATOM      6  C   UNL     1      19.856   8.709  35.676  1.00  0.00     0.006 C 
BRANCH   6   7
ATOM      7  C   UNL     1      19.515   7.211  35.786  1.00  0.00     0.053 C 
BRANCH   7   8
ATOM      8  C   UNL     1      20.524   6.342  35.096  1.00  0.00     0.041 C 
ATOM      9  O   UNL     1      20.595   6.328  33.839  1.00  0.00    -0.550 OA
ATOM     10  O   UNL     1      21.358   5.515  35.839  1.00  0.00    -0.550 OA
ENDBRANCH   7   8
ENDBRANCH   6   7
ENDBRANCH   5   6
ENDBRANCH   4   5
ENDBRANCH   3   4
ENDBRANCH   2   3
ENDBRANCH   1   2
BRANCH   1  11
ATOM     11  C   UNL     1      21.078   6.792  39.217  1.00  0.00     0.000 C 
BRANCH  11  12
ATOM     12  C   UNL     1      20.599   7.275  40.594  1.00  0.00    -0.000 C 
BRANCH  12  13
ATOM     13  C   UNL     1      19.129   7.724  40.589  1.00  0.00    -0.000 C 
BRANCH  13  14
ATOM     14  C   UNL     1      18.976   9.249  40.460  1.00  0.00    -0.000 C 
BRANCH  14  15
ATOM     15  C   UNL     1      18.697   9.694  39.015  1.00  0.00    -0.000 C 
BRANCH  15  16
ATOM     16  C   UNL     1      17.452   9.016  38.417  1.00  0.00    -0.000 C 
BRANCH  16  17
ATOM     17  C   UNL     1      16.150   9.739  38.796  1.00  0.00    -0.003 C 
ATOM     18  C   UNL     1      15.570   9.259  40.126  1.00  0.00     0.004 C 
ENDBRANCH  16  17
ENDBRANCH  15  16
ENDBRANCH  14  15
ENDBRANCH  13  14
ENDBRANCH  12  13
ENDBRANCH  11  12
ENDBRANCH   1  11
TORSDOF 14
ENDMDL
MODEL 3
REMARK VINA RESULT:    -2.920      2.783      5.061
REMARK INTER + INTRA:          -7.953
REMARK INTER:                  -5.333
REMARK INTRA:                  -2.621
REMARK UNBOUND:                -2.644
REMARK SMILES CCCCCCCCCCCCCCCC(=O)[O-]
REMARK SMILES IDX 9 1 10 2 11 3 12 4 13 5 14 6 15 7 16 8 17 9 18 10 8 11 7 12
REMARK SMILES IDX 6 13 5 14 4 15 3 16 2 17 1 18
REMARK H PARENT
REMARK Flexibility Score: inf
ROOT
ATOM      1  C   UNL     1      10.176   7.906  31.227  1.00  0.00     0.000 C 
ENDROOT
BRANCH   1   2
ATOM      2  C   UNL     1      10.824   8.407  32.526  1.00  0.00     0.000 C 
BRANCH   2   3
ATOM      3  C   UNL     1      10.823   7.346  33.638  1.00  0.00     0.000 C 
BRANCH   3   4
ATOM      4  C   UNL     1      11.849   6.226  33.386  1.00  0.00     0.000 C 
BRANCH   4   5
ATOM      5  C   UNL     1      11.245   4.817  33.526  1.00  0.00     0.000 C 
BRANCH   5   6
ATOM      6  C   UNL     1       9.717   4.769  33.715  1.00  0.00     0.006 C 
BRANCH   6   7
ATOM      7  C   UNL     1       9.264   4.038  34.993  1.00  0.00     0.053 C 
BRANCH   7   8
ATOM      8  C   UNL     1       9.705   4.741  36.242  1.00  0.00     0.041 C 
ATOM      9  O   UNL     1       9.087   5.760  36.648  1.00  0.00    -0.550 OA
ATOM     10  O   UNL     1      10.827   4.299  36.933  1.00  0.00    -0.550 OA
ENDBRANCH   7   8
ENDBRANCH   6   7
ENDBRANCH   5   6
ENDBRANCH   4   5
ENDBRANCH   3   4
ENDBRANCH   2   3
ENDBRANCH   1   2
BRANCH   1  11
ATOM     11  C   UNL     1       8.647   7.999  31.304  1.00  0.00     0.000 C 
BRANCH  11  12
ATOM     12  C   UNL     1       7.994   6.656  30.942  1.00  0.00    -0.000 C 
BRANCH  12  13
ATOM     13  C   UNL     1       8.764   5.896  29.851  1.00  0.00    -0.000 C 
BRANCH  13  14
ATOM     14  C   UNL     1       8.975   4.412  30.199  1.00  0.00    -0.000 C 
BRANCH  14  15
ATOM     15  C   UNL     1      10.418   3.945  29.949  1.00  0.00    -0.000 C 
BRANCH  15  16
ATOM     16  C   UNL     1      11.240   4.972  29.149  1.00  0.00    -0.000 C 
BRANCH  16  17
ATOM     17  C   UNL     1      12.583   5.300  29.820  1.00  0.00    -0.003 C 
ATOM     18  C   UNL     1      13.231   4.083  30.479  1.00  0.00     0.004 C 
ENDBRANCH  16  17
ENDBRANCH  15  16
ENDBRANCH  14  15
ENDBRANCH  13  14
ENDBRANCH  12  13
ENDBRANCH  11  12
ENDBRANCH   1  11
TORSDOF 14
ENDMDL
MODEL 4
REMARK VINA RESULT:    -2.896     10.378     12.808
REMARK INTER + INTRA:          -7.909
REMARK INTER:                  -5.875
REMARK INTRA:                  -2.035
REMARK UNBOUND:                -2.644
REMARK SMILES CCCCCCCCCCCCCCCC(=O)[O-]
REMARK SMILES IDX 9 1 10 2 11 3 12 4 13 5 14 6 15 7 16 8 17 9 18 10 8 11 7 12
REMARK SMILES IDX 6 13 5 14 4 15 3 16 2 17 1 18
REMARK H PARENT
REMARK Flexibility Score: inf
ROOT
ATOM      1  C   UNL     1      21.621   3.358  32.661  1.00  0.00     0.000 C 
ENDROOT
BRANCH   1   2
ATOM      2  C   UNL     1      20.096   3.179  32.692  1.00  0.00     0.000 C 
BRANCH   2   3
ATOM      3  C   UNL     1      19.339   4.467  32.331  1.00  0.00     0.000 C 
BRANCH   3   4
ATOM      4  C   UNL     1      19.042   4.575  30.825  1.00  0.00     0.000 C 
BRANCH   4   5
ATOM      5  C   UNL     1      19.874   5.666  30.127  1.00  0.00     0.000 C 
BRANCH   5   6
ATOM      6  C   UNL     1      20.564   5.235  28.819  1.00  0.00     0.006 C 
BRANCH   6   7
ATOM      7  C   UNL     1      21.783   4.316  29.023  1.00  0.00     0.053 C 
BRANCH   7   8
ATOM      8  C   UNL     1      22.857   4.556  28.004  1.00  0.00     0.041 C 
ATOM      9  O   UNL     1      22.936   5.665  27.414  1.00  0.00    -0.550 OA
ATOM     10  O   UNL     1      23.745   3.539  27.674  1.00  0.00    -0.550 OA
ENDBRANCH   7   8
ENDBRANCH   6   7
ENDBRANCH   5   6
ENDBRANCH   4   5
ENDBRANCH   3   4
ENDBRANCH   2   3
ENDBRANCH   1   2
BRANCH   1  11
ATOM     11  C   UNL     1      22.043   4.609  33.443  1.00  0.00     0.000 C 
BRANCH  11  12
ATOM     12  C   UNL     1      22.847   5.570  32.554  1.00  0.00    -0.000 C 
BRANCH  12  13
ATOM     13  C   UNL     1      22.286   7.000  32.566  1.00  0.00    -0.000 C 
BRANCH  13  14
ATOM     14  C   UNL     1      22.859   7.870  31.434  1.00  0.00    -0.000 C 
BRANCH  14  15
ATOM     15  C   UNL     1      23.787   7.082  30.495  1.00  0.00    -0.000 C 
BRANCH  15  16
ATOM     16  C   UNL     1      25.137   7.786  30.272  1.00  0.00    -0.000 C 
BRANCH  16  17
ATOM     17  C   UNL     1      25.273   8.357  28.852  1.00  0.00    -0.003 C 
ATOM     18  C   UNL     1      25.086   9.873  28.801  1.00  0.00     0.004 C 
ENDBRANCH  16  17
ENDBRANCH  15  16
ENDBRANCH  14  15
ENDBRANCH  13  14
ENDBRANCH  12  13
ENDBRANCH  11  12
ENDBRANCH   1  11
TORSDOF 14
ENDMDL
MODEL 5
REMARK VINA RESULT:    -2.895      1.566      3.551
REMARK INTER + INTRA:          -7.908
REMARK INTER:                  -5.399
REMARK INTRA:                  -2.509
REMARK UNBOUND:                -2.644
REMARK SMILES CCCCCCCCCCCCCCCC(=O)[O-]
REMARK SMILES IDX 9 1 10 2 11 3 12 4 13 5 14 6 15 7 16 8 17 9 18 10 8 11 7 12
REMARK SMILES IDX 6 13 5 14 4 15 3 16 2 17 1 18
REMARK H PARENT
REMARK Flexibility Score: inf
ROOT
ATOM      1  C   UNL     1       8.322   5.128  31.846  1.00  0.00     0.000 C 
ENDROOT
BRANCH   1   2
ATOM      2  C   UNL     1       9.126   4.170  30.954  1.00  0.00     0.000 C 
BRANCH   2   3
ATOM      3  C   UNL     1      10.090   3.279  31.756  1.00  0.00     0.000 C 
BRANCH   3   4
ATOM      4  C   UNL     1      11.513   3.273  31.171  1.00  0.00     0.000 C 
BRANCH   4   5
ATOM      5  C   UNL     1      11.628   4.078  29.864  1.00  0.00     0.000 C 
BRANCH   5   6
ATOM      6  C   UNL     1      12.752   5.132  29.833  1.00  0.00     0.006 C 
BRANCH   6   7
ATOM      7  C   UNL     1      13.034   5.709  28.434  1.00  0.00     0.053 C 
BRANCH   7   8
ATOM      8  C   UNL     1      14.490   6.002  28.219  1.00  0.00     0.041 C 
ATOM      9  O   UNL     1      14.847   6.840  27.351  1.00  0.00    -0.550 OA
ATOM     10  O   UNL     1      15.455   5.316  28.948  1.00  0.00    -0.550 OA
ENDBRANCH   7   8
ENDBRANCH   6   7
ENDBRANCH   5   6
ENDBRANCH   4   5
ENDBRANCH   3   4
ENDBRANCH   2   3
ENDBRANCH   1   2
BRANCH   1  11
ATOM     11  C   UNL     1       8.031   6.444  31.114  1.00  0.00     0.000 C 
BRANCH  11  12
ATOM     12  C   UNL     1       9.178   6.810  30.160  1.00  0.00    -0.000 C 
BRANCH  12  13
ATOM     13  C   UNL     1      10.241   7.700  30.823  1.00  0.00    -0.000 C 
BRANCH  13  14
ATOM     14  C   UNL     1       9.749   8.333  32.136  1.00  0.00    -0.000 C 
BRANCH  14  15
ATOM     15  C   UNL     1      10.637   7.967  33.337  1.00  0.00    -0.000 C 
BRANCH  15  16
ATOM     16  C   UNL     1      11.608   6.815  33.024  1.00  0.00    -0.000 C 
BRANCH  16  17
ATOM     17  C   UNL     1      11.549   5.694  34.074  1.00  0.00    -0.003 C 
ATOM     18  C   UNL     1      12.880   4.960  34.234  1.00  0.00     0.004 C 
ENDBRANCH  16  17
ENDBRANCH  15  16
ENDBRANCH  14  15
ENDBRANCH  13  14
ENDBRANCH  12  13
ENDBRANCH  11  12
ENDBRANCH   1  11
TORSDOF 14
ENDMDL
MODEL 6
REMARK VINA RESULT:    -2.845      2.288      4.739
REMARK INTER + INTRA:          -7.817
REMARK INTER:                  -5.376
REMARK INTRA:                  -2.441
REMARK UNBOUND:                -2.644
REMARK SMILES CCCCCCCCCCCCCCCC(=O)[O-]
REMARK SMILES IDX 9 1 10 2 11 3 12 4 13 5 14 6 15 7 16 8 17 9 18 10 8 11 7 12
REMARK SMILES IDX 6 13 5 14 4 15 3 16 2 17 1 18
REMARK H PARENT
REMARK Flexibility Score: inf
ROOT
ATOM      1  C   UNL     1      10.944   7.616  33.489  1.00  0.00     0.000 C 
ENDROOT
BRANCH   1   2
ATOM      2  C   UNL     1      11.917   6.436  33.347  1.00  0.00     0.000 C 
BRANCH   2   3
ATOM      3  C   UNL     1      11.377   5.141  33.973  1.00  0.00     0.000 C 
BRANCH   3   4
ATOM      4  C   UNL     1      10.129   5.380  34.841  1.00  0.00     0.000 C 
BRANCH   4   5
ATOM      5  C   UNL     1       9.155   4.190  34.832  1.00  0.00     0.000 C 
BRANCH   5   6
ATOM      6  C   UNL     1       9.490   3.068  33.830  1.00  0.00     0.006 C 
BRANCH   6   7
ATOM      7  C   UNL     1       8.303   2.635  32.950  1.00  0.00     0.053 C 
BRANCH   7   8
ATOM      8  C   UNL     1       8.571   1.354  32.218  1.00  0.00     0.041 C 
ATOM      9  O   UNL     1       8.361   1.275  30.979  1.00  0.00    -0.550 OA
ATOM     10  O   UNL     1       9.011   0.232  32.911  1.00  0.00    -0.550 OA
ENDBRANCH   7   8
ENDBRANCH   6   7
ENDBRANCH   5   6
ENDBRANCH   4   5
ENDBRANCH   3   4
ENDBRANCH   2   3
ENDBRANCH   1   2
BRANCH   1  11
ATOM     11  C   UNL     1      10.596   8.209  32.118  1.00  0.00     0.000 C 
BRANCH  11  12
ATOM     12  C   UNL     1       9.075   8.259  31.908  1.00  0.00    -0.000 C 
BRANCH  12  13
ATOM     13  C   UNL     1       8.618   7.462  30.676  1.00  0.00    -0.000 C 
BRANCH  13  14
ATOM     14  C   UNL     1       8.110   6.056  31.035  1.00  0.00    -0.000 C 
BRANCH  14  15
ATOM     15  C   UNL     1       8.723   4.961  30.145  1.00  0.00    -0.000 C 
BRANCH  15  16
ATOM     16  C   UNL     1      10.171   4.622  30.540  1.00  0.00    -0.000 C 
BRANCH  16  17
ATOM     17  C   UNL     1      11.140   4.709  29.350  1.00  0.00    -0.003 C 
ATOM     18  C   UNL     1      11.894   6.037  29.293  1.00  0.00     0.004 C 
ENDBRANCH  16  17
ENDBRANCH  15  16
ENDBRANCH  14  15
ENDBRANCH  13  14
ENDBRANCH  12  13
ENDBRANCH  11  12
ENDBRANCH   1  11
TORSDOF 14
ENDMDL
MODEL 7
REMARK VINA RESULT:    -2.828      1.455      3.336
REMARK INTER + INTRA:          -7.786
REMARK INTER:                  -4.999
REMARK INTRA:                  -2.787
REMARK UNBOUND:                -2.644
REMARK SMILES CCCCCCCCCCCCCCCC(=O)[O-]
REMARK SMILES IDX 9 1 10 2 11 3 12 4 13 5 14 6 15 7 16 8 17 9 18 10 8 11 7 12
REMARK SMILES IDX 6 13 5 14 4 15 3 16 2 17 1 18
REMARK H PARENT
REMARK Flexibility Score: inf
ROOT
ATOM      1  C   UNL     1      11.335   7.822  33.178  1.00  0.00     0.000 C 
ENDROOT
BRANCH   1   2
ATOM      2  C   UNL     1      10.513   6.826  34.010  1.00  0.00     0.000 C 
BRANCH   2   3
ATOM      3  C   UNL     1      11.254   5.501  34.252  1.00  0.00     0.000 C 
BRANCH   3   4
ATOM      4  C   UNL     1      12.594   5.428  33.499  1.00  0.00     0.000 C 
BRANCH   4   5
ATOM      5  C   UNL     1      12.686   4.217  32.554  1.00  0.00     0.000 C 
BRANCH   5   6
ATOM      6  C   UNL     1      13.235   4.518  31.146  1.00  0.00     0.006 C 
BRANCH   6   7
ATOM      7  C   UNL     1      12.359   5.478  30.320  1.00  0.00     0.053 C 
BRANCH   7   8
ATOM      8  C   UNL     1      12.657   5.405  28.852  1.00  0.00     0.041 C 
ATOM      9  O   UNL     1      13.564   6.120  28.353  1.00  0.00    -0.550 OA
ATOM     10  O   UNL     1      11.902   4.580  28.026  1.00  0.00    -0.550 OA
ENDBRANCH   7   8
ENDBRANCH   6   7
ENDBRANCH   5   6
ENDBRANCH   4   5
ENDBRANCH   3   4
ENDBRANCH   2   3
ENDBRANCH   1   2
BRANCH   1  11
ATOM     11  C   UNL     1      10.527   8.332  31.977  1.00  0.00     0.000 C 
BRANCH  11  12
ATOM     12  C   UNL     1       9.239   7.516  31.794  1.00  0.00    -0.000 C 
BRANCH  12  13
ATOM     13  C   UNL     1       9.067   6.990  30.360  1.00  0.00    -0.000 C 
BRANCH  13  14
ATOM     14  C   UNL     1       8.607   5.523  30.319  1.00  0.00    -0.000 C 
BRANCH  14  15
ATOM     15  C   UNL     1       8.663   4.847  31.699  1.00  0.00    -0.000 C 
BRANCH  15  16
ATOM     16  C   UNL     1       9.141   3.386  31.622  1.00  0.00    -0.000 C 
BRANCH  16  17
ATOM     17  C   UNL     1       9.632   3.002  30.218  1.00  0.00    -0.003 C 
ATOM     18  C   UNL     1      10.705   1.914  30.242  1.00  0.00     0.004 C 
ENDBRANCH  16  17
ENDBRANCH  15  16
ENDBRANCH  14  15
ENDBRANCH  13  14
ENDBRANCH  12  13
ENDBRANCH  11  12
ENDBRANCH   1  11
TORSDOF 14
ENDMDL
MODEL 8
REMARK VINA RESULT:    -2.822      1.507      3.535
REMARK INTER + INTRA:          -7.775
REMARK INTER:                  -5.172
REMARK INTRA:                  -2.603
REMARK UNBOUND:                -2.644
REMARK SMILES CCCCCCCCCCCCCCCC(=O)[O-]
REMARK SMILES IDX 9 1 10 2 11 3 12 4 13 5 14 6 15 7 16 8 17 9 18 10 8 11 7 12
REMARK SMILES IDX 6 13 5 14 4 15 3 16 2 17 1 18
REMARK H PARENT
REMARK Flexibility Score: inf
ROOT
ATOM      1  C   UNL     1      10.955   5.761  34.311  1.00  0.00     0.000 C 
ENDROOT
BRANCH   1   2
ATOM      2  C   UNL     1      12.365   5.660  33.710  1.00  0.00     0.000 C 
BRANCH   2   3
ATOM      3  C   UNL     1      12.505   4.496  32.716  1.00  0.00     0.000 C 
BRANCH   3   4
ATOM      4  C   UNL     1      13.168   4.924  31.395  1.00  0.00     0.000 C 
BRANCH   4   5
ATOM      5  C   UNL     1      12.147   5.295  30.305  1.00  0.00     0.000 C 
BRANCH   5   6
ATOM      6  C   UNL     1      11.853   4.191  29.271  1.00  0.00     0.006 C 
BRANCH   6   7
ATOM      7  C   UNL     1      12.296   4.538  27.837  1.00  0.00     0.053 C 
BRANCH   7   8
ATOM      8  C   UNL     1      13.685   5.102  27.788  1.00  0.00     0.041 C 
ATOM      9  O   UNL     1      14.677   4.365  28.022  1.00  0.00    -0.550 OA
ATOM     10  O   UNL     1      13.881   6.453  27.527  1.00  0.00    -0.550 OA
ENDBRANCH   7   8
ENDBRANCH   6   7
ENDBRANCH   5   6
ENDBRANCH   4   5
ENDBRANCH   3   4
ENDBRANCH   2   3
ENDBRANCH   1   2
BRANCH   1  11
ATOM     11  C   UNL     1      10.341   7.141  34.043  1.00  0.00     0.000 C 
BRANCH  11  12
ATOM     12  C   UNL     1      11.270   7.997  33.169  1.00  0.00    -0.000 C 
BRANCH  12  13
ATOM     13  C   UNL     1      10.668   8.311  31.790  1.00  0.00    -0.000 C 
BRANCH  13  14
ATOM     14  C   UNL     1       9.223   7.804  31.646  1.00  0.00    -0.000 C 
BRANCH  14  15
ATOM     15  C   UNL     1       8.918   7.282  30.233  1.00  0.00    -0.000 C 
BRANCH  15  16
ATOM     16  C   UNL     1       8.506   5.799  30.227  1.00  0.00    -0.000 C 
BRANCH  16  17
ATOM     17  C   UNL     1       8.489   5.189  31.637  1.00  0.00    -0.003 C 
ATOM     18  C   UNL     1       9.001   3.749  31.667  1.00  0.00     0.004 C 
ENDBRANCH  16  17
ENDBRANCH  15  16
ENDBRANCH  14  15
ENDBRANCH  13  14
ENDBRANCH  12  13
ENDBRANCH  11  12
ENDBRANCH   1  11
TORSDOF 14
ENDMDL
MODEL 9
REMARK VINA RESULT:    -2.776      1.893      3.863
REMARK INTER + INTRA:          -7.691
REMARK INTER:                  -5.424
REMARK INTRA:                  -2.267
REMARK UNBOUND:                -2.644
REMARK SMILES CCCCCCCCCCCCCCCC(=O)[O-]
REMARK SMILES IDX 9 1 10 2 11 3 12 4 13 5 14 6 15 7 16 8 17 9 18 10 8 11 7 12
REMARK SMILES IDX 6 13 5 14 4 15 3 16 2 17 1 18
REMARK H PARENT
REMARK Flexibility Score: inf
ROOT
ATOM      1  C   UNL     1       7.930   6.405  30.958  1.00  0.00     0.000 C 
ENDROOT
BRANCH   1   2
ATOM      2  C   UNL     1       8.446   7.840  31.145  1.00  0.00     0.000 C 
BRANCH   2   3
ATOM      3  C   UNL     1       9.980   7.920  31.185  1.00  0.00     0.000 C 
BRANCH   3   4
ATOM      4  C   UNL     1      10.512   8.383  32.553  1.00  0.00     0.000 C 
BRANCH   4   5
ATOM      5  C   UNL     1      10.865   7.212  33.487  1.00  0.00     0.000 C 
BRANCH   5   6
ATOM      6  C   UNL     1      11.986   6.281  32.985  1.00  0.00     0.006 C 
BRANCH   6   7
ATOM      7  C   UNL     1      12.703   5.500  34.101  1.00  0.00     0.053 C 
BRANCH   7   8
ATOM      8  C   UNL     1      12.838   4.041  33.782  1.00  0.00     0.041 C 
ATOM      9  O   UNL     1      12.543   3.612  32.637  1.00  0.00    -0.550 OA
ATOM     10  O   UNL     1      13.247   3.146  34.765  1.00  0.00    -0.550 OA
ENDBRANCH   7   8
ENDBRANCH   6   7
ENDBRANCH   5   6
ENDBRANCH   4   5
ENDBRANCH   3   4
ENDBRANCH   2   3
ENDBRANCH   1   2
BRANCH   1  11
ATOM     11  C   UNL     1       9.046   5.484  30.448  1.00  0.00     0.000 C 
BRANCH  11  12
ATOM     12  C   UNL     1       9.226   4.272  31.374  1.00  0.00    -0.000 C 
BRANCH  12  13
ATOM     13  C   UNL     1       8.486   4.430  32.712  1.00  0.00    -0.000 C 
BRANCH  13  14
ATOM     14  C   UNL     1       9.217   3.744  33.878  1.00  0.00    -0.000 C 
BRANCH  14  15
ATOM     15  C   UNL     1       8.620   4.109  35.247  1.00  0.00    -0.000 C 
BRANCH  15  16
ATOM     16  C   UNL     1       9.549   5.015  36.074  1.00  0.00    -0.000 C 
BRANCH  16  17
ATOM     17  C   UNL     1      10.542   4.212  36.930  1.00  0.00    -0.003 C 
ATOM     18  C   UNL     1      10.521   4.619  38.403  1.00  0.00     0.004 C 
ENDBRANCH  16  17
ENDBRANCH  15  16
ENDBRANCH  14  15
ENDBRANCH  13  14
ENDBRANCH  12  13
ENDBRANCH  11  12
ENDBRANCH   1  11
TORSDOF 14
ENDMDL
