MODEL 1
REMARK VINA RESULT:    -4.458      0.000      0.000
REMARK INTER + INTRA:         -15.941
REMARK INTER:                 -11.756
REMARK INTRA:                  -4.184
REMARK UNBOUND:                -4.184
REMARK SMILES CCCCCCCCCCCCCCCCCCCCCCCCCCCCCC(=O)[O-]
REMARK SMILES IDX 16 1 17 2 18 3 19 4 20 5 21 6 22 7 23 8 24 9 25 10 26 11
REMARK SMILES IDX 27 12 28 13 29 14 30 15 31 16 32 17 15 18 14 19 13 20 12 21
REMARK SMILES IDX 11 22 10 23 9 24 8 25 7 26 6 27 5 28 4 29 3 30 2 31 1 32
REMARK H PARENT
REMARK Flexibility Score: inf
ROOT
ATOM      1  C   UNL     1      39.877  -6.920   7.608  1.00  0.00     0.000 C 
ENDROOT
BRANCH   1   2
ATOM      2  C   UNL     1      41.168  -7.681   7.960  1.00  0.00     0.000 C 
BRANCH   2   3
ATOM      3  C   UNL     1      41.070  -9.196   7.695  1.00  0.00     0.000 C 
BRANCH   3   4
ATOM      4  C   UNL     1      42.052 -10.071   8.497  1.00  0.00     0.000 C 
BRANCH   4   5
ATOM      5  C   UNL     1      43.242 -10.569   7.658  1.00  0.00     0.000 C 
BRANCH   5   6
ATOM      6  C   UNL     1      44.394  -9.554   7.618  1.00  0.00     0.000 C 
BRANCH   6   7
ATOM      7  C   UNL     1      44.358  -8.665   6.363  1.00  0.00     0.000 C 
BRANCH   7   8
ATOM      8  C   UNL     1      44.312  -9.499   5.064  1.00  0.00     0.000 C 
BRANCH   8   9
ATOM      9  C   UNL     1      43.432  -8.886   3.962  1.00  0.00     0.000 C 
BRANCH   9  10
ATOM     10  C   UNL     1      41.931  -9.143   4.180  1.00  0.00     0.000 C 
BRANCH  10  11
ATOM     11  C   UNL     1      41.042  -8.004   3.646  1.00  0.00     0.000 C 
BRANCH  11  12
ATOM     12  C   UNL     1      41.355  -6.610   4.222  1.00  0.00     0.000 C 
BRANCH  12  13
ATOM     13  C   UNL     1      40.327  -5.544   3.802  1.00  0.00     0.006 C 
BRANCH  13  14
ATOM     14  C   UNL     1      40.385  -5.243   2.298  1.00  0.00     0.053 C 
BRANCH  14  15
ATOM     15  C   UNL     1      41.754  -4.812   1.868  1.00  0.00     0.041 C 
ATOM     16  O   UNL     1      42.508  -5.615   1.258  1.00  0.00    -0.550 OA
ATOM     17  O   UNL     1      42.190  -3.517   2.123  1.00  0.00    -0.550 OA
ENDBRANCH  14  15
ENDBRANCH  13  14
ENDBRANCH  12  13
ENDBRANCH  11  12
ENDBRANCH  10  11
ENDBRANCH   9  10
ENDBRANCH   8   9
ENDBRANCH   7   8
ENDBRANCH   6   7
ENDBRANCH   5   6
ENDBRANCH   4   5
ENDBRANCH   3   4
ENDBRANCH   2   3
ENDBRANCH   1   2
BRANCH   1  18
ATOM     18  C   UNL     1      39.254  -6.229   8.832  1.00  0.00     0.000 C 
BRANCH  18  19
ATOM     19  C   UNL     1      38.415  -7.194   9.689  1.00  0.00     0.000 C 
BRANCH  19  20
ATOM     20  C   UNL     1      39.193  -7.722  10.905  1.00  0.00     0.000 C 
BRANCH  20  21
ATOM     21  C   UNL     1      39.268  -9.260  10.924  1.00  0.00     0.000 C 
BRANCH  21  22
ATOM     22  C   UNL     1      38.364  -9.910   9.865  1.00  0.00     0.000 C 
BRANCH  22  23
ATOM     23  C   UNL     1      37.428 -10.979  10.457  1.00  0.00     0.000 C 
BRANCH  23  24
ATOM     24  C   UNL     1      36.148 -10.364  11.062  1.00  0.00    -0.000 C 
BRANCH  24  25
ATOM     25  C   UNL     1      36.112 -10.402  12.600  1.00  0.00    -0.000 C 
BRANCH  25  26
ATOM     26  C   UNL     1      36.509  -9.067  13.242  1.00  0.00    -0.000 C 
BRANCH  26  27
ATOM     27  C   UNL     1      35.891  -7.885  12.477  1.00  0.00    -0.000 C 
BRANCH  27  28
ATOM     28  C   UNL     1      34.967  -7.026  13.356  1.00  0.00    -0.000 C 
BRANCH  28  29
ATOM     29  C   UNL     1      35.452  -6.935  14.814  1.00  0.00    -0.000 C 
BRANCH  29  30
ATOM     30  C   UNL     1      34.498  -7.652  15.791  1.00  0.00    -0.000 C 
BRANCH  30  31
ATOM     31  C   UNL     1      33.294  -8.317  15.100  1.00  0.00    -0.003 C 
ATOM     32  C   UNL     1      31.953  -7.735  15.540  1.00  0.00     0.004 C 
ENDBRANCH  30  31
ENDBRANCH  29  30
ENDBRANCH  28  29
ENDBRANCH  27  28
ENDBRANCH  26  27
ENDBRANCH  25  26
ENDBRANCH  24  25
ENDBRANCH  23  24
ENDBRANCH  22  23
ENDBRANCH  21  22
ENDBRANCH  20  21
ENDBRANCH  19  20
ENDBRANCH  18  19
ENDBRANCH   1  18
TORSDOF 28
ENDMDL
MODEL 2
REMARK VINA RESULT:    -4.319      5.237     11.485
REMARK INTER + INTRA:         -15.572
REMARK INTER:                 -11.905
REMARK INTRA:                  -3.666
REMARK UNBOUND:                -4.184
REMARK SMILES CCCCCCCCCCCCCCCCCCCCCCCCCCCCCC(=O)[O-]
REMARK SMILES IDX 16 1 17 2 18 3 19 4 20 5 21 6 22 7 23 8 24 9 25 10 26 11
REMARK SMILES IDX 27 12 28 13 29 14 30 15 31 16 32 17 15 18 14 19 13 20 12 21
REMARK SMILES IDX 11 22 10 23 9 24 8 25 7 26 6 27 5 28 4 29 3 30 2 31 1 32
REMARK H PARENT
REMARK Flexibility Score: inf
ROOT
ATOM      1  C   UNL     1      39.916  -6.503   9.424  1.00  0.00     0.000 C 
ENDROOT
BRANCH   1   2
ATOM      2  C   UNL     1      38.411  -6.816   9.484  1.00  0.00     0.000 C 
BRANCH   2   3
ATOM      3  C   UNL     1      37.960  -7.368  10.851  1.00  0.00     0.000 C 
BRANCH   3   4
ATOM      4  C   UNL     1      39.043  -8.116  11.650  1.00  0.00     0.000 C 
BRANCH   4   5
ATOM      5  C   UNL     1      39.137  -9.610  11.293  1.00  0.00     0.000 C 
BRANCH   5   6
ATOM      6  C   UNL     1      37.820 -10.158  10.723  1.00  0.00     0.000 C 
BRANCH   6   7
ATOM      7  C   UNL     1      36.991 -10.920  11.772  1.00  0.00     0.000 C 
BRANCH   7   8
ATOM      8  C   UNL     1      35.822 -10.069  12.314  1.00  0.00     0.000 C 
BRANCH   8   9
ATOM      9  C   UNL     1      36.008  -9.613  13.772  1.00  0.00     0.000 C 
BRANCH   9  10
ATOM     10  C   UNL     1      36.071  -8.083  13.919  1.00  0.00     0.000 C 
BRANCH  10  11
ATOM     11  C   UNL     1      34.711  -7.458  14.284  1.00  0.00     0.000 C 
BRANCH  11  12
ATOM     12  C   UNL     1      33.622  -8.466  14.699  1.00  0.00     0.000 C 
BRANCH  12  13
ATOM     13  C   UNL     1      33.350  -8.466  16.214  1.00  0.00     0.006 C 
BRANCH  13  14
ATOM     14  C   UNL     1      31.849  -8.475  16.533  1.00  0.00     0.053 C 
BRANCH  14  15
ATOM     15  C   UNL     1      31.570  -9.058  17.885  1.00  0.00     0.041 C 
ATOM     16  O   UNL     1      32.343  -8.819  18.850  1.00  0.00    -0.550 OA
ATOM     17  O   UNL     1      30.445  -9.848  18.085  1.00  0.00    -0.550 OA
ENDBRANCH  14  15
ENDBRANCH  13  14
ENDBRANCH  12  13
ENDBRANCH  11  12
ENDBRANCH  10  11
ENDBRANCH   9  10
ENDBRANCH   8   9
ENDBRANCH   7   8
ENDBRANCH   6   7
ENDBRANCH   5   6
ENDBRANCH   4   5
ENDBRANCH   3   4
ENDBRANCH   2   3
ENDBRANCH   1   2
BRANCH   1  18
ATOM     18  C   UNL     1      40.572  -7.035   8.139  1.00  0.00     0.000 C 
BRANCH  18  19
ATOM     19  C   UNL     1      40.510  -8.570   8.039  1.00  0.00     0.000 C 
BRANCH  19  20
ATOM     20  C   UNL     1      41.885  -9.225   8.251  1.00  0.00     0.000 C 
BRANCH  20  21
ATOM     21  C   UNL     1      43.042  -8.236   8.016  1.00  0.00     0.000 C 
BRANCH  21  22
ATOM     22  C   UNL     1      44.402  -8.939   7.877  1.00  0.00     0.000 C 
BRANCH  22  23
ATOM     23  C   UNL     1      44.318 -10.242   7.064  1.00  0.00     0.000 C 
BRANCH  23  24
ATOM     24  C   UNL     1      44.943 -10.097   5.661  1.00  0.00    -0.000 C 
BRANCH  24  25
ATOM     25  C   UNL     1      44.082  -9.281   4.681  1.00  0.00    -0.000 C 
BRANCH  25  26
ATOM     26  C   UNL     1      42.632  -9.775   4.601  1.00  0.00    -0.000 C 
BRANCH  26  27
ATOM     27  C   UNL     1      41.736  -8.735   3.909  1.00  0.00    -0.000 C 
BRANCH  27  28
ATOM     28  C   UNL     1      41.795  -7.356   4.588  1.00  0.00    -0.000 C 
BRANCH  28  29
ATOM     29  C   UNL     1      40.435  -6.635   4.585  1.00  0.00    -0.000 C 
BRANCH  29  30
ATOM     30  C   UNL     1      40.307  -5.639   3.414  1.00  0.00    -0.000 C 
BRANCH  30  31
ATOM     31  C   UNL     1      41.413  -4.569   3.391  1.00  0.00    -0.003 C 
ATOM     32  C   UNL     1      40.877  -3.156   3.176  1.00  0.00     0.004 C 
ENDBRANCH  30  31
ENDBRANCH  29  30
ENDBRANCH  28  29
ENDBRANCH  27  28
ENDBRANCH  26  27
ENDBRANCH  25  26
ENDBRANCH  24  25
ENDBRANCH  23  24
ENDBRANCH  22  23
ENDBRANCH  21  22
ENDBRANCH  20  21
ENDBRANCH  19  20
ENDBRANCH  18  19
ENDBRANCH   1  18
TORSDOF 28
ENDMDL
MODEL 3
REMARK VINA RESULT:    -4.227      2.691      6.353
REMARK INTER + INTRA:         -15.329
REMARK INTER:                 -12.376
REMARK INTRA:                  -2.953
REMARK UNBOUND:                -4.184
REMARK SMILES CCCCCCCCCCCCCCCCCCCCCCCCCCCCCC(=O)[O-]
REMARK SMILES IDX 16 1 17 2 18 3 19 4 20 5 21 6 22 7 23 8 24 9 25 10 26 11
REMARK SMILES IDX 27 12 28 13 29 14 30 15 31 16 32 17 15 18 14 19 13 20 12 21
REMARK SMILES IDX 11 22 10 23 9 24 8 25 7 26 6 27 5 28 4 29 3 30 2 31 1 32
REMARK H PARENT
REMARK Flexibility Score: inf
ROOT
ATOM      1  C   UNL     1      36.437  -6.260  13.647  1.00  0.00     0.000 C 
ENDROOT
BRANCH   1   2
ATOM      2  C   UNL     1      37.234  -7.132  12.661  1.00  0.00     0.000 C 
BRANCH   2   3
ATOM      3  C   UNL     1      36.345  -8.092  11.846  1.00  0.00     0.000 C 
BRANCH   3   4
ATOM      4  C   UNL     1      36.909  -9.512  11.656  1.00  0.00     0.000 C 
BRANCH   4   5
ATOM      5  C   UNL     1      38.385  -9.639  12.074  1.00  0.00     0.000 C 
BRANCH   5   6
ATOM      6  C   UNL     1      39.273 -10.158  10.932  1.00  0.00     0.000 C 
BRANCH   6   7
ATOM      7  C   UNL     1      39.486  -9.112   9.824  1.00  0.00     0.000 C 
BRANCH   7   8
ATOM      8  C   UNL     1      39.845  -7.724  10.400  1.00  0.00     0.000 C 
BRANCH   8   9
ATOM      9  C   UNL     1      40.462  -6.763   9.368  1.00  0.00     0.000 C 
BRANCH   9  10
ATOM     10  C   UNL     1      39.907  -6.970   7.949  1.00  0.00     0.000 C 
BRANCH  10  11
ATOM     11  C   UNL     1      40.987  -7.402   6.939  1.00  0.00     0.000 C 
BRANCH  11  12
ATOM     12  C   UNL     1      42.252  -8.020   7.563  1.00  0.00     0.000 C 
BRANCH  12  13
ATOM     13  C   UNL     1      43.528  -7.716   6.758  1.00  0.00     0.006 C 
BRANCH  13  14
ATOM     14  C   UNL     1      44.250  -8.994   6.309  1.00  0.00     0.053 C 
BRANCH  14  15
ATOM     15  C   UNL     1      44.167  -9.189   4.826  1.00  0.00     0.041 C 
ATOM     16  O   UNL     1      45.217  -9.220   4.132  1.00  0.00    -0.550 OA
ATOM     17  O   UNL     1      42.932  -9.360   4.213  1.00  0.00    -0.550 OA
ENDBRANCH  14  15
ENDBRANCH  13  14
ENDBRANCH  12  13
ENDBRANCH  11  12
ENDBRANCH  10  11
ENDBRANCH   9  10
ENDBRANCH   8   9
ENDBRANCH   7   8
ENDBRANCH   6   7
ENDBRANCH   5   6
ENDBRANCH   4   5
ENDBRANCH   3   4
ENDBRANCH   2   3
ENDBRANCH   1   2
BRANCH   1  18
ATOM     18  C   UNL     1      35.021  -6.805  13.896  1.00  0.00     0.000 C 
BRANCH  18  19
ATOM     19  C   UNL     1      34.887  -7.491  15.268  1.00  0.00     0.000 C 
BRANCH  19  20
ATOM     20  C   UNL     1      34.223  -8.874  15.166  1.00  0.00     0.000 C 
BRANCH  20  21
ATOM     21  C   UNL     1      32.820  -8.800  14.537  1.00  0.00     0.000 C 
BRANCH  21  22
ATOM     22  C   UNL     1      32.021 -10.101  14.717  1.00  0.00     0.000 C 
BRANCH  22  23
ATOM     23  C   UNL     1      30.789  -9.921  15.621  1.00  0.00     0.000 C 
BRANCH  23  24
ATOM     24  C   UNL     1      30.935 -10.669  16.963  1.00  0.00    -0.000 C 
BRANCH  24  25
ATOM     25  C   UNL     1      30.846  -9.751  18.195  1.00  0.00    -0.000 C 
BRANCH  25  26
ATOM     26  C   UNL     1      32.012  -8.758  18.290  1.00  0.00    -0.000 C 
BRANCH  26  27
ATOM     27  C   UNL     1      33.322  -9.483  18.634  1.00  0.00    -0.000 C 
BRANCH  27  28
ATOM     28  C   UNL     1      34.267  -8.625  19.491  1.00  0.00    -0.000 C 
BRANCH  28  29
ATOM     29  C   UNL     1      34.566  -7.255  18.856  1.00  0.00    -0.000 C 
BRANCH  29  30
ATOM     30  C   UNL     1      34.595  -6.122  19.902  1.00  0.00    -0.000 C 
BRANCH  30  31
ATOM     31  C   UNL     1      34.895  -4.736  19.303  1.00  0.00    -0.003 C 
ATOM     32  C   UNL     1      35.245  -3.689  20.357  1.00  0.00     0.004 C 
ENDBRANCH  30  31
ENDBRANCH  29  30
ENDBRANCH  28  29
ENDBRANCH  27  28
ENDBRANCH  26  27
ENDBRANCH  25  26
ENDBRANCH  24  25
ENDBRANCH  23  24
ENDBRANCH  22  23
ENDBRANCH  21  22
ENDBRANCH  20  21
ENDBRANCH  19  20
ENDBRANCH  18  19
ENDBRANCH   1  18
TORSDOF 28
ENDMDL
MODEL 4
REMARK VINA RESULT:    -4.150      3.476      7.613
REMARK INTER + INTRA:         -15.128
REMARK INTER:                 -12.355
REMARK INTRA:                  -2.772
REMARK UNBOUND:                -4.184
REMARK SMILES CCCCCCCCCCCCCCCCCCCCCCCCCCCCCC(=O)[O-]
REMARK SMILES IDX 16 1 17 2 18 3 19 4 20 5 21 6 22 7 23 8 24 9 25 10 26 11
REMARK SMILES IDX 27 12 28 13 29 14 30 15 31 16 32 17 15 18 14 19 13 20 12 21
REMARK SMILES IDX 11 22 10 23 9 24 8 25 7 26 6 27 5 28 4 29 3 30 2 31 1 32
REMARK H PARENT
REMARK Flexibility Score: inf
ROOT
ATOM      1  C   UNL     1      33.993  -7.807  14.431  1.00  0.00     0.000 C 
ENDROOT
BRANCH   1   2
ATOM      2  C   UNL     1      35.525  -7.945  14.399  1.00  0.00     0.000 C 
BRANCH   2   3
ATOM      3  C   UNL     1      36.067  -8.374  13.021  1.00  0.00     0.000 C 
BRANCH   3   4
ATOM      4  C   UNL     1      36.138  -9.895  12.784  1.00  0.00     0.000 C 
BRANCH   4   5
ATOM      5  C   UNL     1      37.486 -10.509  13.202  1.00  0.00     0.000 C 
BRANCH   5   6
ATOM      6  C   UNL     1      38.530 -10.448  12.077  1.00  0.00     0.000 C 
BRANCH   6   7
ATOM      7  C   UNL     1      37.942 -10.813  10.702  1.00  0.00     0.000 C 
BRANCH   7   8
ATOM      8  C   UNL     1      38.298  -9.765   9.625  1.00  0.00     0.000 C 
BRANCH   8   9
ATOM      9  C   UNL     1      38.992  -8.510  10.183  1.00  0.00     0.000 C 
BRANCH   9  10
ATOM     10  C   UNL     1      38.220  -7.214   9.884  1.00  0.00     0.000 C 
BRANCH  10  11
ATOM     11  C   UNL     1      38.828  -6.406   8.722  1.00  0.00     0.000 C 
BRANCH  11  12
ATOM     12  C   UNL     1      40.222  -6.876   8.263  1.00  0.00     0.000 C 
BRANCH  12  13
ATOM     13  C   UNL     1      40.336  -7.008   6.734  1.00  0.00     0.006 C 
BRANCH  13  14
ATOM     14  C   UNL     1      41.715  -7.520   6.297  1.00  0.00     0.053 C 
BRANCH  14  15
ATOM     15  C   UNL     1      42.189  -8.651   7.158  1.00  0.00     0.041 C 
ATOM     16  O   UNL     1      41.556  -9.739   7.178  1.00  0.00    -0.550 OA
ATOM     17  O   UNL     1      43.341  -8.511   7.922  1.00  0.00    -0.550 OA
ENDBRANCH  14  15
ENDBRANCH  13  14
ENDBRANCH  12  13
ENDBRANCH  11  12
ENDBRANCH  10  11
ENDBRANCH   9  10
ENDBRANCH   8   9
ENDBRANCH   7   8
ENDBRANCH   6   7
ENDBRANCH   5   6
ENDBRANCH   4   5
ENDBRANCH   3   4
ENDBRANCH   2   3
ENDBRANCH   1   2
BRANCH   1  18
ATOM     18  C   UNL     1      33.299  -9.105  14.877  1.00  0.00     0.000 C 
BRANCH  18  19
ATOM     19  C   UNL     1      31.766  -8.972  14.906  1.00  0.00     0.000 C 
BRANCH  19  20
ATOM     20  C   UNL     1      31.060 -10.324  14.713  1.00  0.00     0.000 C 
BRANCH  20  21
ATOM     21  C   UNL     1      30.038 -10.611  15.830  1.00  0.00     0.000 C 
BRANCH  21  22
ATOM     22  C   UNL     1      30.501 -10.096  17.202  1.00  0.00     0.000 C 
BRANCH  22  23
ATOM     23  C   UNL     1      31.517 -11.034  17.877  1.00  0.00     0.000 C 
BRANCH  23  24
ATOM     24  C   UNL     1      32.801 -10.292  18.306  1.00  0.00    -0.000 C 
BRANCH  24  25
ATOM     25  C   UNL     1      32.613  -8.774  18.470  1.00  0.00    -0.000 C 
BRANCH  25  26
ATOM     26  C   UNL     1      33.939  -8.003  18.490  1.00  0.00    -0.000 C 
BRANCH  26  27
ATOM     27  C   UNL     1      34.669  -8.203  19.828  1.00  0.00    -0.000 C 
BRANCH  27  28
ATOM     28  C   UNL     1      34.397  -7.067  20.828  1.00  0.00    -0.000 C 
BRANCH  28  29
ATOM     29  C   UNL     1      34.267  -5.694  20.144  1.00  0.00    -0.000 C 
BRANCH  29  30
ATOM     30  C   UNL     1      35.317  -4.687  20.656  1.00  0.00    -0.000 C 
BRANCH  30  31
ATOM     31  C   UNL     1      35.706  -3.620  19.617  1.00  0.00    -0.003 C 
ATOM     32  C   UNL     1      36.513  -2.468  20.212  1.00  0.00     0.004 C 
ENDBRANCH  30  31
ENDBRANCH  29  30
ENDBRANCH  28  29
ENDBRANCH  27  28
ENDBRANCH  26  27
ENDBRANCH  25  26
ENDBRANCH  24  25
ENDBRANCH  23  24
ENDBRANCH  22  23
ENDBRANCH  21  22
ENDBRANCH  20  21
ENDBRANCH  19  20
ENDBRANCH  18  19
ENDBRANCH   1  18
TORSDOF 28
ENDMDL
MODEL 5
REMARK VINA RESULT:    -4.144      4.930     11.446
REMARK INTER + INTRA:         -15.113
REMARK INTER:                 -12.138
REMARK INTRA:                  -2.975
REMARK UNBOUND:                -4.184
REMARK SMILES CCCCCCCCCCCCCCCCCCCCCCCCCCCCCC(=O)[O-]
REMARK SMILES IDX 16 1 17 2 18 3 19 4 20 5 21 6 22 7 23 8 24 9 25 10 26 11
REMARK SMILES IDX 27 12 28 13 29 14 30 15 31 16 32 17 15 18 14 19 13 20 12 21
REMARK SMILES IDX 11 22 10 23 9 24 8 25 7 26 6 27 5 28 4 29 3 30 2 31 1 32
REMARK H PARENT
REMARK Flexibility Score: inf
ROOT
ATOM      1  C   UNL     1      39.872  -6.546   9.595  1.00  0.00     0.000 C 
ENDROOT
BRANCH   1   2
ATOM      2  C   UNL     1      38.813  -7.248  10.464  1.00  0.00     0.000 C 
BRANCH   2   3
ATOM      3  C   UNL     1      39.395  -8.382  11.330  1.00  0.00     0.000 C 
BRANCH   3   4
ATOM      4  C   UNL     1      39.331  -9.789  10.705  1.00  0.00     0.000 C 
BRANCH   4   5
ATOM      5  C   UNL     1      38.327  -9.891   9.544  1.00  0.00     0.000 C 
BRANCH   5   6
ATOM      6  C   UNL     1      37.104 -10.748   9.903  1.00  0.00     0.000 C 
BRANCH   6   7
ATOM      7  C   UNL     1      36.992 -11.018  11.414  1.00  0.00     0.000 C 
BRANCH   7   8
ATOM      8  C   UNL     1      35.947 -10.103  12.089  1.00  0.00     0.000 C 
BRANCH   8   9
ATOM      9  C   UNL     1      36.363  -9.610  13.487  1.00  0.00     0.000 C 
BRANCH   9  10
ATOM     10  C   UNL     1      36.438  -8.077  13.584  1.00  0.00     0.000 C 
BRANCH  10  11
ATOM     11  C   UNL     1      35.249  -7.464  14.348  1.00  0.00     0.000 C 
BRANCH  11  12
ATOM     12  C   UNL     1      34.138  -8.461  14.731  1.00  0.00     0.000 C 
BRANCH  12  13
ATOM     13  C   UNL     1      32.942  -7.787  15.427  1.00  0.00     0.006 C 
BRANCH  13  14
ATOM     14  C   UNL     1      32.384  -8.640  16.576  1.00  0.00     0.053 C 
BRANCH  14  15
ATOM     15  C   UNL     1      33.222  -8.526  17.812  1.00  0.00     0.041 C 
ATOM     16  O   UNL     1      33.098  -9.367  18.741  1.00  0.00    -0.550 OA
ATOM     17  O   UNL     1      34.155  -7.503  17.930  1.00  0.00    -0.550 OA
ENDBRANCH  14  15
ENDBRANCH  13  14
ENDBRANCH  12  13
ENDBRANCH  11  12
ENDBRANCH  10  11
ENDBRANCH   9  10
ENDBRANCH   8   9
ENDBRANCH   7   8
ENDBRANCH   6   7
ENDBRANCH   5   6
ENDBRANCH   4   5
ENDBRANCH   3   4
ENDBRANCH   2   3
ENDBRANCH   1   2
BRANCH   1  18
ATOM     18  C   UNL     1      39.419  -6.391   8.134  1.00  0.00     0.000 C 
BRANCH  18  19
ATOM     19  C   UNL     1      40.274  -7.224   7.161  1.00  0.00     0.000 C 
BRANCH  19  20
ATOM     20  C   UNL     1      41.314  -8.088   7.892  1.00  0.00     0.000 C 
BRANCH  20  21
ATOM     21  C   UNL     1      42.755  -7.738   7.478  1.00  0.00     0.000 C 
BRANCH  21  22
ATOM     22  C   UNL     1      43.489  -8.921   6.827  1.00  0.00     0.000 C 
BRANCH  22  23
ATOM     23  C   UNL     1      42.664  -9.595   5.717  1.00  0.00     0.000 C 
BRANCH  23  24
ATOM     24  C   UNL     1      42.764  -8.839   4.375  1.00  0.00    -0.000 C 
BRANCH  24  25
ATOM     25  C   UNL     1      41.399  -8.480   3.764  1.00  0.00    -0.000 C 
BRANCH  25  26
ATOM     26  C   UNL     1      41.410  -7.143   3.013  1.00  0.00    -0.000 C 
BRANCH  26  27
ATOM     27  C   UNL     1      40.685  -6.055   3.821  1.00  0.00    -0.000 C 
BRANCH  27  28
ATOM     28  C   UNL     1      40.115  -4.936   2.933  1.00  0.00    -0.000 C 
BRANCH  28  29
ATOM     29  C   UNL     1      40.534  -3.532   3.405  1.00  0.00    -0.000 C 
BRANCH  29  30
ATOM     30  C   UNL     1      41.897  -3.105   2.821  1.00  0.00    -0.000 C 
BRANCH  30  31
ATOM     31  C   UNL     1      41.781  -2.238   1.555  1.00  0.00    -0.003 C 
ATOM     32  C   UNL     1      40.356  -1.764   1.280  1.00  0.00     0.004 C 
ENDBRANCH  30  31
ENDBRANCH  29  30
ENDBRANCH  28  29
ENDBRANCH  27  28
ENDBRANCH  26  27
ENDBRANCH  25  26
ENDBRANCH  24  25
ENDBRANCH  23  24
ENDBRANCH  22  23
ENDBRANCH  21  22
ENDBRANCH  20  21
ENDBRANCH  19  20
ENDBRANCH  18  19
ENDBRANCH   1  18
TORSDOF 28
ENDMDL
MODEL 6
REMARK VINA RESULT:    -4.132      1.912      3.182
REMARK INTER + INTRA:         -15.080
REMARK INTER:                 -12.678
REMARK INTRA:                  -2.402
REMARK UNBOUND:                -4.184
REMARK SMILES CCCCCCCCCCCCCCCCCCCCCCCCCCCCCC(=O)[O-]
REMARK SMILES IDX 16 1 17 2 18 3 19 4 20 5 21 6 22 7 23 8 24 9 25 10 26 11
REMARK SMILES IDX 27 12 28 13 29 14 30 15 31 16 32 17 15 18 14 19 13 20 12 21
REMARK SMILES IDX 11 22 10 23 9 24 8 25 7 26 6 27 5 28 4 29 3 30 2 31 1 32
REMARK H PARENT
REMARK Flexibility Score: inf
ROOT
ATOM      1  C   UNL     1      38.989  -6.494   8.321  1.00  0.00     0.000 C 
ENDROOT
BRANCH   1   2
ATOM      2  C   UNL     1      40.275  -6.949   7.610  1.00  0.00     0.000 C 
BRANCH   2   3
ATOM      3  C   UNL     1      41.164  -7.855   8.485  1.00  0.00     0.000 C 
BRANCH   3   4
ATOM      4  C   UNL     1      42.595  -8.081   7.962  1.00  0.00     0.000 C 
BRANCH   4   5
ATOM      5  C   UNL     1      42.999  -9.566   7.927  1.00  0.00     0.000 C 
BRANCH   5   6
ATOM      6  C   UNL     1      44.141  -9.837   6.936  1.00  0.00     0.000 C 
BRANCH   6   7
ATOM      7  C   UNL     1      44.156  -8.842   5.762  1.00  0.00     0.000 C 
BRANCH   7   8
ATOM      8  C   UNL     1      43.469  -9.421   4.506  1.00  0.00     0.000 C 
BRANCH   8   9
ATOM      9  C   UNL     1      42.663  -8.383   3.704  1.00  0.00     0.000 C 
BRANCH   9  10
ATOM     10  C   UNL     1      41.626  -7.637   4.561  1.00  0.00     0.000 C 
BRANCH  10  11
ATOM     11  C   UNL     1      40.625  -6.824   3.719  1.00  0.00     0.000 C 
BRANCH  11  12
ATOM     12  C   UNL     1      41.071  -6.541   2.272  1.00  0.00     0.000 C 
BRANCH  12  13
ATOM     13  C   UNL     1      41.071  -5.041   1.927  1.00  0.00     0.006 C 
BRANCH  13  14
ATOM     14  C   UNL     1      39.667  -4.426   2.012  1.00  0.00     0.053 C 
BRANCH  14  15
ATOM     15  C   UNL     1      39.649  -3.191   2.860  1.00  0.00     0.041 C 
ATOM     16  O   UNL     1      40.416  -3.095   3.854  1.00  0.00    -0.550 OA
ATOM     17  O   UNL     1      38.802  -2.138   2.540  1.00  0.00    -0.550 OA
ENDBRANCH  14  15
ENDBRANCH  13  14
ENDBRANCH  12  13
ENDBRANCH  11  12
ENDBRANCH  10  11
ENDBRANCH   9  10
ENDBRANCH   8   9
ENDBRANCH   7   8
ENDBRANCH   6   7
ENDBRANCH   5   6
ENDBRANCH   4   5
ENDBRANCH   3   4
ENDBRANCH   2   3
ENDBRANCH   1   2
BRANCH   1  18
ATOM     18  C   UNL     1      39.036  -6.752   9.836  1.00  0.00     0.000 C 
BRANCH  18  19
ATOM     19  C   UNL     1      37.752  -7.420  10.359  1.00  0.00     0.000 C 
BRANCH  19  20
ATOM     20  C   UNL     1      38.032  -8.771  11.038  1.00  0.00     0.000 C 
BRANCH  20  21
ATOM     21  C   UNL     1      37.351  -8.882  12.415  1.00  0.00     0.000 C 
BRANCH  21  22
ATOM     22  C   UNL     1      36.336  -7.755  12.666  1.00  0.00     0.000 C 
BRANCH  22  23
ATOM     23  C   UNL     1      36.536  -7.068  14.028  1.00  0.00     0.000 C 
BRANCH  23  24
ATOM     24  C   UNL     1      35.255  -7.093  14.889  1.00  0.00    -0.000 C 
BRANCH  24  25
ATOM     25  C   UNL     1      34.439  -8.389  14.746  1.00  0.00    -0.000 C 
BRANCH  25  26
ATOM     26  C   UNL     1      32.980  -8.233  15.191  1.00  0.00    -0.000 C 
BRANCH  26  27
ATOM     27  C   UNL     1      32.901  -7.772  16.655  1.00  0.00    -0.000 C 
BRANCH  27  28
ATOM     28  C   UNL     1      33.427  -8.829  17.640  1.00  0.00    -0.000 C 
BRANCH  28  29
ATOM     29  C   UNL     1      34.199  -8.209  18.819  1.00  0.00    -0.000 C 
BRANCH  29  30
ATOM     30  C   UNL     1      34.581  -6.738  18.556  1.00  0.00    -0.000 C 
BRANCH  30  31
ATOM     31  C   UNL     1      34.572  -5.862  19.821  1.00  0.00    -0.003 C 
ATOM     32  C   UNL     1      35.338  -4.553  19.652  1.00  0.00     0.004 C 
ENDBRANCH  30  31
ENDBRANCH  29  30
ENDBRANCH  28  29
ENDBRANCH  27  28
ENDBRANCH  26  27
ENDBRANCH  25  26
ENDBRANCH  24  25
ENDBRANCH  23  24
ENDBRANCH  22  23
ENDBRANCH  21  22
ENDBRANCH  20  21
ENDBRANCH  19  20
ENDBRANCH  18  19
ENDBRANCH   1  18
TORSDOF 28
ENDMDL
MODEL 7
REMARK VINA RESULT:    -4.115      2.540      5.133
REMARK INTER + INTRA:         -15.034
REMARK INTER:                 -12.723
REMARK INTRA:                  -2.312
REMARK UNBOUND:                -4.184
REMARK SMILES CCCCCCCCCCCCCCCCCCCCCCCCCCCCCC(=O)[O-]
REMARK SMILES IDX 16 1 17 2 18 3 19 4 20 5 21 6 22 7 23 8 24 9 25 10 26 11
REMARK SMILES IDX 27 12 28 13 29 14 30 15 31 16 32 17 15 18 14 19 13 20 12 21
REMARK SMILES IDX 11 22 10 23 9 24 8 25 7 26 6 27 5 28 4 29 3 30 2 31 1 32
REMARK H PARENT
REMARK Flexibility Score: inf
ROOT
ATOM      1  C   UNL     1      36.973  -8.335  13.135  1.00  0.00     0.000 C 
ENDROOT
BRANCH   1   2
ATOM      2  C   UNL     1      37.666  -7.163  12.419  1.00  0.00     0.000 C 
BRANCH   2   3
ATOM      3  C   UNL     1      38.102  -7.504  10.980  1.00  0.00     0.000 C 
BRANCH   3   4
ATOM      4  C   UNL     1      39.622  -7.505  10.734  1.00  0.00     0.000 C 
BRANCH   4   5
ATOM      5  C   UNL     1      40.048  -6.590   9.572  1.00  0.00     0.000 C 
BRANCH   5   6
ATOM      6  C   UNL     1      39.881  -7.267   8.203  1.00  0.00     0.000 C 
BRANCH   6   7
ATOM      7  C   UNL     1      40.767  -8.516   8.047  1.00  0.00     0.000 C 
BRANCH   7   8
ATOM      8  C   UNL     1      42.268  -8.157   8.003  1.00  0.00     0.000 C 
BRANCH   8   9
ATOM      9  C   UNL     1      42.782  -7.800   6.597  1.00  0.00     0.000 C 
BRANCH   9  10
ATOM     10  C   UNL     1      41.985  -8.489   5.475  1.00  0.00     0.000 C 
BRANCH  10  11
ATOM     11  C   UNL     1      41.801  -7.596   4.234  1.00  0.00     0.000 C 
BRANCH  11  12
ATOM     12  C   UNL     1      41.003  -6.300   4.478  1.00  0.00     0.000 C 
BRANCH  12  13
ATOM     13  C   UNL     1      40.624  -5.576   3.174  1.00  0.00     0.006 C 
BRANCH  13  14
ATOM     14  C   UNL     1      40.855  -4.061   3.263  1.00  0.00     0.053 C 
BRANCH  14  15
ATOM     15  C   UNL     1      41.797  -3.577   2.204  1.00  0.00     0.041 C 
ATOM     16  O   UNL     1      42.543  -4.392   1.599  1.00  0.00    -0.550 OA
ATOM     17  O   UNL     1      41.837  -2.229   1.870  1.00  0.00    -0.550 OA
ENDBRANCH  14  15
ENDBRANCH  13  14
ENDBRANCH  12  13
ENDBRANCH  11  12
ENDBRANCH  10  11
ENDBRANCH   9  10
ENDBRANCH   8   9
ENDBRANCH   7   8
ENDBRANCH   6   7
ENDBRANCH   5   6
ENDBRANCH   4   5
ENDBRANCH   3   4
ENDBRANCH   2   3
ENDBRANCH   1   2
BRANCH   1  18
ATOM     18  C   UNL     1      36.076  -9.150  12.189  1.00  0.00     0.000 C 
BRANCH  18  19
ATOM     19  C   UNL     1      35.416 -10.350  12.891  1.00  0.00     0.000 C 
BRANCH  19  20
ATOM     20  C   UNL     1      35.185 -10.094  14.389  1.00  0.00     0.000 C 
BRANCH  20  21
ATOM     21  C   UNL     1      33.742  -9.644  14.686  1.00  0.00     0.000 C 
BRANCH  21  22
ATOM     22  C   UNL     1      33.604  -8.115  14.768  1.00  0.00     0.000 C 
BRANCH  22  23
ATOM     23  C   UNL     1      32.806  -7.655  16.000  1.00  0.00     0.000 C 
BRANCH  23  24
ATOM     24  C   UNL     1      32.154  -8.836  16.749  1.00  0.00    -0.000 C 
BRANCH  24  25
ATOM     25  C   UNL     1      32.620  -8.975  18.209  1.00  0.00    -0.000 C 
BRANCH  25  26
ATOM     26  C   UNL     1      34.054  -8.480  18.431  1.00  0.00    -0.000 C 
BRANCH  26  27
ATOM     27  C   UNL     1      34.293  -8.142  19.912  1.00  0.00    -0.000 C 
BRANCH  27  28
ATOM     28  C   UNL     1      34.302  -6.628  20.181  1.00  0.00    -0.000 C 
BRANCH  28  29
ATOM     29  C   UNL     1      34.648  -5.804  18.927  1.00  0.00    -0.000 C 
BRANCH  29  30
ATOM     30  C   UNL     1      35.120  -4.379  19.280  1.00  0.00    -0.000 C 
BRANCH  30  31
ATOM     31  C   UNL     1      33.980  -3.347  19.339  1.00  0.00    -0.003 C 
ATOM     32  C   UNL     1      33.596  -2.956  20.764  1.00  0.00     0.004 C 
ENDBRANCH  30  31
ENDBRANCH  29  30
ENDBRANCH  28  29
ENDBRANCH  27  28
ENDBRANCH  26  27
ENDBRANCH  25  26
ENDBRANCH  24  25
ENDBRANCH  23  24
ENDBRANCH  22  23
ENDBRANCH  21  22
ENDBRANCH  20  21
ENDBRANCH  19  20
ENDBRANCH  18  19
ENDBRANCH   1  18
TORSDOF 28
ENDMDL
MODEL 8
REMARK VINA RESULT:    -4.096      5.086     12.261
REMARK INTER + INTRA:         -14.985
REMARK INTER:                 -12.994
REMARK INTRA:                  -1.991
REMARK UNBOUND:                -4.184
REMARK SMILES CCCCCCCCCCCCCCCCCCCCCCCCCCCCCC(=O)[O-]
REMARK SMILES IDX 16 1 17 2 18 3 19 4 20 5 21 6 22 7 23 8 24 9 25 10 26 11
REMARK SMILES IDX 27 12 28 13 29 14 30 15 31 16 32 17 15 18 14 19 13 20 12 21
REMARK SMILES IDX 11 22 10 23 9 24 8 25 7 26 6 27 5 28 4 29 3 30 2 31 1 32
REMARK H PARENT
REMARK Flexibility Score: inf
ROOT
ATOM      1  C   UNL     1      40.167  -7.952   8.662  1.00  0.00     0.000 C 
ENDROOT
BRANCH   1   2
ATOM      2  C   UNL     1      39.124  -6.840   8.871  1.00  0.00     0.000 C 
BRANCH   2   3
ATOM      3  C   UNL     1      38.047  -7.208   9.911  1.00  0.00     0.000 C 
BRANCH   3   4
ATOM      4  C   UNL     1      38.580  -7.744  11.253  1.00  0.00     0.000 C 
BRANCH   4   5
ATOM      5  C   UNL     1      37.705  -7.345  12.454  1.00  0.00     0.000 C 
BRANCH   5   6
ATOM      6  C   UNL     1      36.204  -7.411  12.132  1.00  0.00     0.000 C 
BRANCH   6   7
ATOM      7  C   UNL     1      35.339  -6.698  13.186  1.00  0.00     0.000 C 
BRANCH   7   8
ATOM      8  C   UNL     1      35.374  -7.424  14.549  1.00  0.00     0.000 C 
BRANCH   8   9
ATOM      9  C   UNL     1      34.435  -8.640  14.630  1.00  0.00     0.000 C 
BRANCH   9  10
ATOM     10  C   UNL     1      32.955  -8.248  14.776  1.00  0.00     0.000 C 
BRANCH  10  11
ATOM     11  C   UNL     1      32.580  -7.844  16.214  1.00  0.00     0.000 C 
BRANCH  11  12
ATOM     12  C   UNL     1      31.976  -8.974  17.071  1.00  0.00     0.000 C 
BRANCH  12  13
ATOM     13  C   UNL     1      32.393  -8.891  18.550  1.00  0.00     0.006 C 
BRANCH  13  14
ATOM     14  C   UNL     1      33.909  -8.719  18.717  1.00  0.00     0.053 C 
BRANCH  14  15
ATOM     15  C   UNL     1      34.261  -7.364  19.251  1.00  0.00     0.041 C 
ATOM     16  O   UNL     1      34.947  -6.568  18.557  1.00  0.00    -0.550 OA
ATOM     17  O   UNL     1      33.813  -6.972  20.506  1.00  0.00    -0.550 OA
ENDBRANCH  14  15
ENDBRANCH  13  14
ENDBRANCH  12  13
ENDBRANCH  11  12
ENDBRANCH  10  11
ENDBRANCH   9  10
ENDBRANCH   8   9
ENDBRANCH   7   8
ENDBRANCH   6   7
ENDBRANCH   5   6
ENDBRANCH   4   5
ENDBRANCH   3   4
ENDBRANCH   2   3
ENDBRANCH   1   2
BRANCH   1  18
ATOM     18  C   UNL     1      40.990  -7.747   7.379  1.00  0.00     0.000 C 
BRANCH  18  19
ATOM     19  C   UNL     1      42.505  -7.730   7.648  1.00  0.00     0.000 C 
BRANCH  19  20
ATOM     20  C   UNL     1      43.093  -9.146   7.760  1.00  0.00     0.000 C 
BRANCH  20  21
ATOM     21  C   UNL     1      44.483  -9.253   7.105  1.00  0.00     0.000 C 
BRANCH  21  22
ATOM     22  C   UNL     1      44.499 -10.208   5.902  1.00  0.00     0.000 C 
BRANCH  22  23
ATOM     23  C   UNL     1      43.725  -9.655   4.692  1.00  0.00     0.000 C 
BRANCH  23  24
ATOM     24  C   UNL     1      42.339 -10.313   4.534  1.00  0.00    -0.000 C 
BRANCH  24  25
ATOM     25  C   UNL     1      41.433  -9.611   3.508  1.00  0.00    -0.000 C 
BRANCH  25  26
ATOM     26  C   UNL     1      41.448  -8.083   3.640  1.00  0.00    -0.000 C 
BRANCH  26  27
ATOM     27  C   UNL     1      41.175  -7.414   2.283  1.00  0.00    -0.000 C 
BRANCH  27  28
ATOM     28  C   UNL     1      41.340  -5.886   2.331  1.00  0.00    -0.000 C 
BRANCH  28  29
ATOM     29  C   UNL     1      40.359  -5.214   3.309  1.00  0.00    -0.000 C 
BRANCH  29  30
ATOM     30  C   UNL     1      40.598  -3.694   3.420  1.00  0.00    -0.000 C 
BRANCH  30  31
ATOM     31  C   UNL     1      39.561  -2.849   2.659  1.00  0.00    -0.003 C 
ATOM     32  C   UNL     1      38.475  -3.690   1.990  1.00  0.00     0.004 C 
ENDBRANCH  30  31
ENDBRANCH  29  30
ENDBRANCH  28  29
ENDBRANCH  27  28
ENDBRANCH  26  27
ENDBRANCH  25  26
ENDBRANCH  24  25
ENDBRANCH  23  24
ENDBRANCH  22  23
ENDBRANCH  21  22
ENDBRANCH  20  21
ENDBRANCH  19  20
ENDBRANCH  18  19
ENDBRANCH   1  18
TORSDOF 28
ENDMDL
MODEL 9
REMARK VINA RESULT:    -4.080      2.272      3.519
REMARK INTER + INTRA:         -14.941
REMARK INTER:                 -12.385
REMARK INTRA:                  -2.557
REMARK UNBOUND:                -4.184
REMARK SMILES CCCCCCCCCCCCCCCCCCCCCCCCCCCCCC(=O)[O-]
REMARK SMILES IDX 16 1 17 2 18 3 19 4 20 5 21 6 22 7 23 8 24 9 25 10 26 11
REMARK SMILES IDX 27 12 28 13 29 14 30 15 31 16 32 17 15 18 14 19 13 20 12 21
REMARK SMILES IDX 11 22 10 23 9 24 8 25 7 26 6 27 5 28 4 29 3 30 2 31 1 32
REMARK H PARENT
REMARK Flexibility Score: inf
ROOT
ATOM      1  C   UNL     1      38.640  -7.183   9.651  1.00  0.00     0.000 C 
ENDROOT
BRANCH   1   2
ATOM      2  C   UNL     1      39.571  -7.741   8.561  1.00  0.00     0.000 C 
BRANCH   2   3
ATOM      3  C   UNL     1      40.634  -8.712   9.111  1.00  0.00     0.000 C 
BRANCH   3   4
ATOM      4  C   UNL     1      40.714 -10.076   8.401  1.00  0.00     0.000 C 
BRANCH   4   5
ATOM      5  C   UNL     1      41.958 -10.892   8.794  1.00  0.00     0.000 C 
BRANCH   5   6
ATOM      6  C   UNL     1      42.943 -11.055   7.627  1.00  0.00     0.000 C 
BRANCH   6   7
ATOM      7  C   UNL     1      44.272 -10.316   7.865  1.00  0.00     0.000 C 
BRANCH   7   8
ATOM      8  C   UNL     1      44.987  -9.972   6.540  1.00  0.00     0.000 C 
BRANCH   8   9
ATOM      9  C   UNL     1      44.314  -8.839   5.746  1.00  0.00     0.000 C 
BRANCH   9  10
ATOM     10  C   UNL     1      43.609  -7.811   6.648  1.00  0.00     0.000 C 
BRANCH  10  11
ATOM     11  C   UNL     1      42.244  -7.362   6.094  1.00  0.00     0.000 C 
BRANCH  11  12
ATOM     12  C   UNL     1      41.728  -8.178   4.893  1.00  0.00     0.000 C 
BRANCH  12  13
ATOM     13  C   UNL     1      40.978  -7.318   3.861  1.00  0.00     0.006 C 
BRANCH  13  14
ATOM     14  C   UNL     1      40.816  -5.864   4.326  1.00  0.00     0.053 C 
BRANCH  14  15
ATOM     15  C   UNL     1      40.660  -4.923   3.171  1.00  0.00     0.041 C 
ATOM     16  O   UNL     1      39.535  -4.770   2.627  1.00  0.00    -0.550 OA
ATOM     17  O   UNL     1      41.751  -4.198   2.709  1.00  0.00    -0.550 OA
ENDBRANCH  14  15
ENDBRANCH  13  14
ENDBRANCH  12  13
ENDBRANCH  11  12
ENDBRANCH  10  11
ENDBRANCH   9  10
ENDBRANCH   8   9
ENDBRANCH   7   8
ENDBRANCH   6   7
ENDBRANCH   5   6
ENDBRANCH   4   5
ENDBRANCH   3   4
ENDBRANCH   2   3
ENDBRANCH   1   2
BRANCH   1  18
ATOM     18  C   UNL     1      39.097  -7.573  11.066  1.00  0.00     0.000 C 
BRANCH  18  19
ATOM     19  C   UNL     1      38.002  -7.343  12.123  1.00  0.00     0.000 C 
BRANCH  19  20
ATOM     20  C   UNL     1      36.618  -7.805  11.639  1.00  0.00     0.000 C 
BRANCH  20  21
ATOM     21  C   UNL     1      36.408  -9.317  11.835  1.00  0.00     0.000 C 
BRANCH  21  22
ATOM     22  C   UNL     1      36.568  -9.752  13.301  1.00  0.00     0.000 C 
BRANCH  22  23
ATOM     23  C   UNL     1      35.646  -8.975  14.256  1.00  0.00     0.000 C 
BRANCH  23  24
ATOM     24  C   UNL     1      34.422  -9.808  14.693  1.00  0.00    -0.000 C 
BRANCH  24  25
ATOM     25  C   UNL     1      33.321  -8.978  15.376  1.00  0.00    -0.000 C 
BRANCH  25  26
ATOM     26  C   UNL     1      33.770  -7.553  15.721  1.00  0.00    -0.000 C 
BRANCH  26  27
ATOM     27  C   UNL     1      33.773  -7.333  17.242  1.00  0.00    -0.000 C 
BRANCH  27  28
ATOM     28  C   UNL     1      35.030  -6.596  17.733  1.00  0.00    -0.000 C 
BRANCH  28  29
ATOM     29  C   UNL     1      34.860  -6.007  19.145  1.00  0.00    -0.000 C 
BRANCH  29  30
ATOM     30  C   UNL     1      34.604  -4.486  19.114  1.00  0.00    -0.000 C 
BRANCH  30  31
ATOM     31  C   UNL     1      35.065  -3.757  20.389  1.00  0.00    -0.003 C 
ATOM     32  C   UNL     1      36.530  -3.332  20.343  1.00  0.00     0.004 C 
ENDBRANCH  30  31
ENDBRANCH  29  30
ENDBRANCH  28  29
ENDBRANCH  27  28
ENDBRANCH  26  27
ENDBRANCH  25  26
ENDBRANCH  24  25
ENDBRANCH  23  24
ENDBRANCH  22  23
ENDBRANCH  21  22
ENDBRANCH  20  21
ENDBRANCH  19  20
ENDBRANCH  18  19
ENDBRANCH   1  18
TORSDOF 28
ENDMDL
