MODEL 1
REMARK VINA RESULT:    -4.140      0.000      0.000
REMARK INTER + INTRA:          -9.506
REMARK INTER:                  -7.528
REMARK INTRA:                  -1.977
REMARK UNBOUND:                -1.977
REMARK SMILES CCCCCCCCCCCCCCCC(=O)[O-]
REMARK SMILES IDX 9 1 10 2 11 3 12 4 13 5 14 6 15 7 16 8 17 9 18 10 8 11 7 12
REMARK SMILES IDX 6 13 5 14 4 15 3 16 2 17 1 18
REMARK H PARENT
REMARK Flexibility Score: inf
ROOT
ATOM      1  C   UNL     1      23.923   3.603  16.819  1.00  0.00     0.000 C 
ENDROOT
BRANCH   1   2
ATOM      2  C   UNL     1      22.658   4.478  16.903  1.00  0.00     0.000 C 
BRANCH   2   3
ATOM      3  C   UNL     1      22.933   5.865  17.509  1.00  0.00     0.000 C 
BRANCH   3   4
ATOM      4  C   UNL     1      22.920   6.981  16.453  1.00  0.00     0.000 C 
BRANCH   4   5
ATOM      5  C   UNL     1      24.334   7.419  16.034  1.00  0.00     0.000 C 
BRANCH   5   6
ATOM      6  C   UNL     1      24.840   6.682  14.780  1.00  0.00     0.006 C 
BRANCH   6   7
ATOM      7  C   UNL     1      26.349   6.390  14.786  1.00  0.00     0.053 C 
BRANCH   7   8
ATOM      8  C   UNL     1      26.908   6.293  13.400  1.00  0.00     0.041 C 
ATOM      9  O   UNL     1      27.562   7.253  12.912  1.00  0.00    -0.550 OA
ATOM     10  O   UNL     1      26.678   5.157  12.633  1.00  0.00    -0.550 OA
ENDBRANCH   7   8
ENDBRANCH   6   7
ENDBRANCH   5   6
ENDBRANCH   4   5
ENDBRANCH   3   4
ENDBRANCH   2   3
ENDBRANCH   1   2
BRANCH   1  11
ATOM     11  C   UNL     1      25.101   4.070  17.699  1.00  0.00     0.000 C 
BRANCH  11  12
ATOM     12  C   UNL     1      26.381   3.218  17.588  1.00  0.00    -0.000 C 
BRANCH  12  13
ATOM     13  C   UNL     1      26.745   2.417  18.852  1.00  0.00    -0.000 C 
BRANCH  13  14
ATOM     14  C   UNL     1      25.922   1.125  18.997  1.00  0.00    -0.000 C 
BRANCH  14  15
ATOM     15  C   UNL     1      24.983   1.158  20.213  1.00  0.00    -0.000 C 
BRANCH  15  16
ATOM     16  C   UNL     1      23.534   1.516  19.835  1.00  0.00    -0.000 C 
BRANCH  16  17
ATOM     17  C   UNL     1      22.818   2.311  20.938  1.00  0.00    -0.003 C 
ATOM     18  C   UNL     1      22.714   3.801  20.618  1.00  0.00     0.004 C 
ENDBRANCH  16  17
ENDBRANCH  15  16
ENDBRANCH  14  15
ENDBRANCH  13  14
ENDBRANCH  12  13
ENDBRANCH  11  12
ENDBRANCH   1  11
TORSDOF 14
ENDMDL
MODEL 2
REMARK VINA RESULT:    -3.961      7.154      9.508
REMARK INTER + INTRA:          -9.181
REMARK INTER:                  -7.367
REMARK INTRA:                  -1.814
REMARK UNBOUND:                -1.977
REMARK SMILES CCCCCCCCCCCCCCCC(=O)[O-]
REMARK SMILES IDX 9 1 10 2 11 3 12 4 13 5 14 6 15 7 16 8 17 9 18 10 8 11 7 12
REMARK SMILES IDX 6 13 5 14 4 15 3 16 2 17 1 18
REMARK H PARENT
REMARK Flexibility Score: inf
ROOT
ATOM      1  C   UNL     1      23.729   4.321   8.287  1.00  0.00     0.000 C 
ENDROOT
BRANCH   1   2
ATOM      2  C   UNL     1      22.254   4.123   7.891  1.00  0.00     0.000 C 
BRANCH   2   3
ATOM      3  C   UNL     1      21.307   4.116   9.104  1.00  0.00     0.000 C 
BRANCH   3   4
ATOM      4  C   UNL     1      19.932   4.718   8.780  1.00  0.00     0.000 C 
BRANCH   4   5
ATOM      5  C   UNL     1      19.878   6.238   9.018  1.00  0.00     0.000 C 
BRANCH   5   6
ATOM      6  C   UNL     1      18.576   6.686   9.708  1.00  0.00     0.006 C 
BRANCH   6   7
ATOM      7  C   UNL     1      18.125   8.108   9.339  1.00  0.00     0.053 C 
BRANCH   7   8
ATOM      8  C   UNL     1      17.084   8.106   8.262  1.00  0.00     0.041 C 
ATOM      9  O   UNL     1      15.888   8.390   8.537  1.00  0.00    -0.550 OA
ATOM     10  O   UNL     1      17.427   7.756   6.962  1.00  0.00    -0.550 OA
ENDBRANCH   7   8
ENDBRANCH   6   7
ENDBRANCH   5   6
ENDBRANCH   4   5
ENDBRANCH   3   4
ENDBRANCH   2   3
ENDBRANCH   1   2
BRANCH   1  11
ATOM     11  C   UNL     1      24.199   5.789   8.345  1.00  0.00     0.000 C 
BRANCH  11  12
ATOM     12  C   UNL     1      24.232   6.414   9.754  1.00  0.00    -0.000 C 
BRANCH  12  13
ATOM     13  C   UNL     1      23.148   7.472  10.024  1.00  0.00    -0.000 C 
BRANCH  13  14
ATOM     14  C   UNL     1      22.652   7.461  11.481  1.00  0.00    -0.000 C 
BRANCH  14  15
ATOM     15  C   UNL     1      22.268   6.053  11.961  1.00  0.00    -0.000 C 
BRANCH  15  16
ATOM     16  C   UNL     1      20.995   6.047  12.828  1.00  0.00    -0.000 C 
BRANCH  16  17
ATOM     17  C   UNL     1      21.051   7.083  13.961  1.00  0.00    -0.003 C 
ATOM     18  C   UNL     1      21.916   6.628  15.135  1.00  0.00     0.004 C 
ENDBRANCH  16  17
ENDBRANCH  15  16
ENDBRANCH  14  15
ENDBRANCH  13  14
ENDBRANCH  12  13
ENDBRANCH  11  12
ENDBRANCH   1  11
TORSDOF 14
ENDMDL
MODEL 3
REMARK VINA RESULT:    -3.928      3.382      6.607
REMARK INTER + INTRA:          -9.119
REMARK INTER:                  -7.070
REMARK INTRA:                  -2.050
REMARK UNBOUND:                -1.977
REMARK SMILES CCCCCCCCCCCCCCCC(=O)[O-]
REMARK SMILES IDX 9 1 10 2 11 3 12 4 13 5 14 6 15 7 16 8 17 9 18 10 8 11 7 12
REMARK SMILES IDX 6 13 5 14 4 15 3 16 2 17 1 18
REMARK H PARENT
REMARK Flexibility Score: inf
ROOT
ATOM      1  C   UNL     1      22.546   4.074  14.727  1.00  0.00     0.000 C 
ENDROOT
BRANCH   1   2
ATOM      2  C   UNL     1      22.383   4.807  16.072  1.00  0.00     0.000 C 
BRANCH   2   3
ATOM      3  C   UNL     1      22.330   6.336  15.915  1.00  0.00     0.000 C 
BRANCH   3   4
ATOM      4  C   UNL     1      23.563   7.032  16.512  1.00  0.00     0.000 C 
BRANCH   4   5
ATOM      5  C   UNL     1      24.722   7.153  15.506  1.00  0.00     0.000 C 
BRANCH   5   6
ATOM      6  C   UNL     1      25.719   5.983  15.602  1.00  0.00     0.006 C 
BRANCH   6   7
ATOM      7  C   UNL     1      27.135   6.321  15.108  1.00  0.00     0.053 C 
BRANCH   7   8
ATOM      8  C   UNL     1      27.255   6.203  13.621  1.00  0.00     0.041 C 
ATOM      9  O   UNL     1      27.025   5.103  13.052  1.00  0.00    -0.550 OA
ATOM     10  O   UNL     1      27.655   7.298  12.864  1.00  0.00    -0.550 OA
ENDBRANCH   7   8
ENDBRANCH   6   7
ENDBRANCH   5   6
ENDBRANCH   4   5
ENDBRANCH   3   4
ENDBRANCH   2   3
ENDBRANCH   1   2
BRANCH   1  11
ATOM     11  C   UNL     1      22.378   4.960  13.475  1.00  0.00     0.000 C 
BRANCH  11  12
ATOM     12  C   UNL     1      23.626   5.075  12.579  1.00  0.00    -0.000 C 
BRANCH  12  13
ATOM     13  C   UNL     1      23.896   6.480  12.010  1.00  0.00    -0.000 C 
BRANCH  13  14
ATOM     14  C   UNL     1      23.445   6.628  10.546  1.00  0.00    -0.000 C 
BRANCH  14  15
ATOM     15  C   UNL     1      22.301   7.640  10.381  1.00  0.00    -0.000 C 
BRANCH  15  16
ATOM     16  C   UNL     1      20.914   6.971  10.362  1.00  0.00    -0.000 C 
BRANCH  16  17
ATOM     17  C   UNL     1      20.949   5.561   9.752  1.00  0.00    -0.003 C 
ATOM     18  C   UNL     1      20.157   4.544  10.572  1.00  0.00     0.004 C 
ENDBRANCH  16  17
ENDBRANCH  15  16
ENDBRANCH  14  15
ENDBRANCH  13  14
ENDBRANCH  12  13
ENDBRANCH  11  12
ENDBRANCH   1  11
TORSDOF 14
ENDMDL
MODEL 4
REMARK VINA RESULT:    -3.916      1.470      3.417
REMARK INTER + INTRA:          -9.098
REMARK INTER:                  -7.033
REMARK INTRA:                  -2.065
REMARK UNBOUND:                -1.977
REMARK SMILES CCCCCCCCCCCCCCCC(=O)[O-]
REMARK SMILES IDX 9 1 10 2 11 3 12 4 13 5 14 6 15 7 16 8 17 9 18 10 8 11 7 12
REMARK SMILES IDX 6 13 5 14 4 15 3 16 2 17 1 18
REMARK H PARENT
REMARK Flexibility Score: inf
ROOT
ATOM      1  C   UNL     1      22.657   4.176  20.196  1.00  0.00     0.000 C 
ENDROOT
BRANCH   1   2
ATOM      2  C   UNL     1      23.593   4.833  19.163  1.00  0.00     0.000 C 
BRANCH   2   3
ATOM      3  C   UNL     1      22.973   4.903  17.757  1.00  0.00     0.000 C 
BRANCH   3   4
ATOM      4  C   UNL     1      23.725   4.032  16.739  1.00  0.00     0.000 C 
BRANCH   4   5
ATOM      5  C   UNL     1      25.249   4.058  16.946  1.00  0.00     0.000 C 
BRANCH   5   6
ATOM      6  C   UNL     1      26.022   4.338  15.644  1.00  0.00     0.006 C 
BRANCH   6   7
ATOM      7  C   UNL     1      26.483   5.796  15.486  1.00  0.00     0.053 C 
BRANCH   7   8
ATOM      8  C   UNL     1      25.793   6.484  14.350  1.00  0.00     0.041 C 
ATOM      9  O   UNL     1      24.551   6.348  14.188  1.00  0.00    -0.550 OA
ATOM     10  O   UNL     1      26.525   7.247  13.448  1.00  0.00    -0.550 OA
ENDBRANCH   7   8
ENDBRANCH   6   7
ENDBRANCH   5   6
ENDBRANCH   4   5
ENDBRANCH   3   4
ENDBRANCH   2   3
ENDBRANCH   1   2
BRANCH   1  11
ATOM     11  C   UNL     1      22.761   2.639  20.286  1.00  0.00     0.000 C 
BRANCH  11  12
ATOM     12  C   UNL     1      24.190   2.086  20.453  1.00  0.00    -0.000 C 
BRANCH  12  13
ATOM     13  C   UNL     1      24.684   1.195  19.300  1.00  0.00    -0.000 C 
BRANCH  13  14
ATOM     14  C   UNL     1      26.179   0.845  19.413  1.00  0.00    -0.000 C 
BRANCH  14  15
ATOM     15  C   UNL     1      26.847   0.663  18.042  1.00  0.00    -0.000 C 
BRANCH  15  16
ATOM     16  C   UNL     1      27.998   1.658  17.804  1.00  0.00    -0.000 C 
BRANCH  16  17
ATOM     17  C   UNL     1      28.065   2.748  18.885  1.00  0.00    -0.003 C 
ATOM     18  C   UNL     1      28.703   4.041  18.380  1.00  0.00     0.004 C 
ENDBRANCH  16  17
ENDBRANCH  15  16
ENDBRANCH  14  15
ENDBRANCH  13  14
ENDBRANCH  12  13
ENDBRANCH  11  12
ENDBRANCH   1  11
TORSDOF 14
ENDMDL
MODEL 5
REMARK VINA RESULT:    -3.900      6.870      9.278
REMARK INTER + INTRA:          -9.068
REMARK INTER:                  -6.666
REMARK INTRA:                  -2.403
REMARK UNBOUND:                -1.977
REMARK SMILES CCCCCCCCCCCCCCCC(=O)[O-]
REMARK SMILES IDX 9 1 10 2 11 3 12 4 13 5 14 6 15 7 16 8 17 9 18 10 8 11 7 12
REMARK SMILES IDX 6 13 5 14 4 15 3 16 2 17 1 18
REMARK H PARENT
REMARK Flexibility Score: inf
ROOT
ATOM      1  C   UNL     1      22.639   4.886   8.788  1.00  0.00     0.000 C 
ENDROOT
BRANCH   1   2
ATOM      2  C   UNL     1      22.367   3.832   9.878  1.00  0.00     0.000 C 
BRANCH   2   3
ATOM      3  C   UNL     1      20.921   3.876  10.402  1.00  0.00     0.000 C 
BRANCH   3   4
ATOM      4  C   UNL     1      20.066   4.930   9.680  1.00  0.00     0.000 C 
BRANCH   4   5
ATOM      5  C   UNL     1      19.491   5.986  10.639  1.00  0.00     0.000 C 
BRANCH   5   6
ATOM      6  C   UNL     1      18.847   7.174   9.900  1.00  0.00     0.006 C 
BRANCH   6   7
ATOM      7  C   UNL     1      18.520   6.895   8.424  1.00  0.00     0.053 C 
BRANCH   7   8
ATOM      8  C   UNL     1      17.351   7.699   7.946  1.00  0.00     0.041 C 
ATOM      9  O   UNL     1      17.136   7.832   6.712  1.00  0.00    -0.550 OA
ATOM     10  O   UNL     1      16.519   8.332   8.861  1.00  0.00    -0.550 OA
ENDBRANCH   7   8
ENDBRANCH   6   7
ENDBRANCH   5   6
ENDBRANCH   4   5
ENDBRANCH   3   4
ENDBRANCH   2   3
ENDBRANCH   1   2
BRANCH   1  11
ATOM     11  C   UNL     1      24.080   5.434   8.754  1.00  0.00     0.000 C 
BRANCH  11  12
ATOM     12  C   UNL     1      24.289   6.780   9.476  1.00  0.00    -0.000 C 
BRANCH  12  13
ATOM     13  C   UNL     1      22.999   7.479   9.940  1.00  0.00    -0.000 C 
BRANCH  13  14
ATOM     14  C   UNL     1      22.770   7.365  11.458  1.00  0.00    -0.000 C 
BRANCH  14  15
ATOM     15  C   UNL     1      23.955   6.708  12.184  1.00  0.00    -0.000 C 
BRANCH  15  16
ATOM     16  C   UNL     1      23.520   5.559  13.112  1.00  0.00    -0.000 C 
BRANCH  16  17
ATOM     17  C   UNL     1      24.398   4.309  12.950  1.00  0.00    -0.003 C 
ATOM     18  C   UNL     1      25.636   4.564  12.091  1.00  0.00     0.004 C 
ENDBRANCH  16  17
ENDBRANCH  15  16
ENDBRANCH  14  15
ENDBRANCH  13  14
ENDBRANCH  12  13
ENDBRANCH  11  12
ENDBRANCH   1  11
TORSDOF 14
ENDMDL
MODEL 6
REMARK VINA RESULT:    -3.887     11.400     13.718
REMARK INTER + INTRA:          -9.045
REMARK INTER:                  -6.350
REMARK INTRA:                  -2.695
REMARK UNBOUND:                -1.977
REMARK SMILES CCCCCCCCCCCCCCCC(=O)[O-]
REMARK SMILES IDX 9 1 10 2 11 3 12 4 13 5 14 6 15 7 16 8 17 9 18 10 8 11 7 12
REMARK SMILES IDX 6 13 5 14 4 15 3 16 2 17 1 18
REMARK H PARENT
REMARK Flexibility Score: inf
ROOT
ATOM      1  C   UNL     1      28.068  -1.805   9.011  1.00  0.00     0.000 C 
ENDROOT
BRANCH   1   2
ATOM      2  C   UNL     1      27.853  -2.958   8.012  1.00  0.00     0.000 C 
BRANCH   2   3
ATOM      3  C   UNL     1      28.841  -4.118   8.220  1.00  0.00     0.000 C 
BRANCH   3   4
ATOM      4  C   UNL     1      29.549  -4.528   6.919  1.00  0.00     0.000 C 
BRANCH   4   5
ATOM      5  C   UNL     1      28.858  -3.965   5.664  1.00  0.00     0.000 C 
BRANCH   5   6
ATOM      6  C   UNL     1      29.781  -3.955   4.431  1.00  0.00     0.006 C 
BRANCH   6   7
ATOM      7  C   UNL     1      31.082  -3.159   4.623  1.00  0.00     0.053 C 
BRANCH   7   8
ATOM      8  C   UNL     1      31.171  -1.994   3.687  1.00  0.00     0.041 C 
ATOM      9  O   UNL     1      32.130  -1.905   2.876  1.00  0.00    -0.550 OA
ATOM     10  O   UNL     1      30.215  -0.987   3.734  1.00  0.00    -0.550 OA
ENDBRANCH   7   8
ENDBRANCH   6   7
ENDBRANCH   5   6
ENDBRANCH   4   5
ENDBRANCH   3   4
ENDBRANCH   2   3
ENDBRANCH   1   2
BRANCH   1  11
ATOM     11  C   UNL     1      28.458  -0.454   8.377  1.00  0.00     0.000 C 
BRANCH  11  12
ATOM     12  C   UNL     1      29.395  -0.547   7.157  1.00  0.00    -0.000 C 
BRANCH  12  13
ATOM     13  C   UNL     1      30.664   0.320   7.240  1.00  0.00    -0.000 C 
BRANCH  13  14
ATOM     14  C   UNL     1      31.772  -0.322   8.093  1.00  0.00    -0.000 C 
BRANCH  14  15
ATOM     15  C   UNL     1      32.006  -1.799   7.740  1.00  0.00    -0.000 C 
BRANCH  15  16
ATOM     16  C   UNL     1      32.130  -2.696   8.985  1.00  0.00    -0.000 C 
BRANCH  16  17
ATOM     17  C   UNL     1      31.564  -2.030  10.248  1.00  0.00    -0.003 C 
ATOM     18  C   UNL     1      30.869  -3.023  11.178  1.00  0.00     0.004 C 
ENDBRANCH  16  17
ENDBRANCH  15  16
ENDBRANCH  14  15
ENDBRANCH  13  14
ENDBRANCH  12  13
ENDBRANCH  11  12
ENDBRANCH   1  11
TORSDOF 14
ENDMDL
MODEL 7
REMARK VINA RESULT:    -3.879      3.458      6.679
REMARK INTER + INTRA:          -9.031
REMARK INTER:                  -6.986
REMARK INTRA:                  -2.045
REMARK UNBOUND:                -1.977
REMARK SMILES CCCCCCCCCCCCCCCC(=O)[O-]
REMARK SMILES IDX 9 1 10 2 11 3 12 4 13 5 14 6 15 7 16 8 17 9 18 10 8 11 7 12
REMARK SMILES IDX 6 13 5 14 4 15 3 16 2 17 1 18
REMARK H PARENT
REMARK Flexibility Score: inf
ROOT
ATOM      1  C   UNL     1      21.920   4.344  14.745  1.00  0.00     0.000 C 
ENDROOT
BRANCH   1   2
ATOM      2  C   UNL     1      22.193   5.097  16.061  1.00  0.00     0.000 C 
BRANCH   2   3
ATOM      3  C   UNL     1      23.676   5.464  16.240  1.00  0.00     0.000 C 
BRANCH   3   4
ATOM      4  C   UNL     1      23.919   6.980  16.175  1.00  0.00     0.000 C 
BRANCH   4   5
ATOM      5  C   UNL     1      25.197   7.344  15.400  1.00  0.00     0.000 C 
BRANCH   5   6
ATOM      6  C   UNL     1      25.291   6.634  14.037  1.00  0.00     0.006 C 
BRANCH   6   7
ATOM      7  C   UNL     1      26.630   5.919  13.790  1.00  0.00     0.053 C 
BRANCH   7   8
ATOM      8  C   UNL     1      27.765   6.886  13.654  1.00  0.00     0.041 C 
ATOM      9  O   UNL     1      27.958   7.488  12.564  1.00  0.00    -0.550 OA
ATOM     10  O   UNL     1      28.633   7.096  14.719  1.00  0.00    -0.550 OA
ENDBRANCH   7   8
ENDBRANCH   6   7
ENDBRANCH   5   6
ENDBRANCH   4   5
ENDBRANCH   3   4
ENDBRANCH   2   3
ENDBRANCH   1   2
BRANCH   1  11
ATOM     11  C   UNL     1      21.777   5.239  13.497  1.00  0.00     0.000 C 
BRANCH  11  12
ATOM     12  C   UNL     1      21.157   6.627  13.751  1.00  0.00    -0.000 C 
BRANCH  12  13
ATOM     13  C   UNL     1      20.994   7.510  12.500  1.00  0.00    -0.000 C 
BRANCH  13  14
ATOM     14  C   UNL     1      21.230   6.738  11.190  1.00  0.00    -0.000 C 
BRANCH  14  15
ATOM     15  C   UNL     1      22.351   7.353  10.338  1.00  0.00    -0.000 C 
BRANCH  15  16
ATOM     16  C   UNL     1      23.737   6.769  10.668  1.00  0.00    -0.000 C 
BRANCH  16  17
ATOM     17  C   UNL     1      23.922   5.346  10.120  1.00  0.00    -0.003 C 
ATOM     18  C   UNL     1      24.524   4.391  11.150  1.00  0.00     0.004 C 
ENDBRANCH  16  17
ENDBRANCH  15  16
ENDBRANCH  14  15
ENDBRANCH  13  14
ENDBRANCH  12  13
ENDBRANCH  11  12
ENDBRANCH   1  11
TORSDOF 14
ENDMDL
MODEL 8
REMARK VINA RESULT:    -3.874      2.524      3.768
REMARK INTER + INTRA:          -9.022
REMARK INTER:                  -7.315
REMARK INTRA:                  -1.707
REMARK UNBOUND:                -1.977
REMARK SMILES CCCCCCCCCCCCCCCC(=O)[O-]
REMARK SMILES IDX 9 1 10 2 11 3 12 4 13 5 14 6 15 7 16 8 17 9 18 10 8 11 7 12
REMARK SMILES IDX 6 13 5 14 4 15 3 16 2 17 1 18
REMARK H PARENT
REMARK Flexibility Score: inf
ROOT
ATOM      1  C   UNL     1      28.545   3.912  16.732  1.00  0.00     0.000 C 
ENDROOT
BRANCH   1   2
ATOM      2  C   UNL     1      28.223   5.259  16.058  1.00  0.00     0.000 C 
BRANCH   2   3
ATOM      3  C   UNL     1      27.026   5.173  15.096  1.00  0.00     0.000 C 
BRANCH   3   4
ATOM      4  C   UNL     1      25.997   6.289  15.336  1.00  0.00     0.000 C 
BRANCH   4   5
ATOM      5  C   UNL     1      24.707   5.776  15.999  1.00  0.00     0.000 C 
BRANCH   5   6
ATOM      6  C   UNL     1      23.545   6.781  15.898  1.00  0.00     0.006 C 
BRANCH   6   7
ATOM      7  C   UNL     1      22.193   6.146  15.533  1.00  0.00     0.053 C 
BRANCH   7   8
ATOM      8  C   UNL     1      21.609   6.744  14.290  1.00  0.00     0.041 C 
ATOM      9  O   UNL     1      22.219   6.644  13.192  1.00  0.00    -0.550 OA
ATOM     10  O   UNL     1      20.409   7.442  14.350  1.00  0.00    -0.550 OA
ENDBRANCH   7   8
ENDBRANCH   6   7
ENDBRANCH   5   6
ENDBRANCH   4   5
ENDBRANCH   3   4
ENDBRANCH   2   3
ENDBRANCH   1   2
BRANCH   1  11
ATOM     11  C   UNL     1      28.285   3.862  18.252  1.00  0.00     0.000 C 
BRANCH  11  12
ATOM     12  C   UNL     1      26.800   3.808  18.663  1.00  0.00    -0.000 C 
BRANCH  12  13
ATOM     13  C   UNL     1      26.096   2.465  18.395  1.00  0.00    -0.000 C 
BRANCH  13  14
ATOM     14  C   UNL     1      24.565   2.559  18.516  1.00  0.00    -0.000 C 
BRANCH  14  15
ATOM     15  C   UNL     1      24.083   2.486  19.973  1.00  0.00    -0.000 C 
BRANCH  15  16
ATOM     16  C   UNL     1      23.003   3.534  20.296  1.00  0.00    -0.000 C 
BRANCH  16  17
ATOM     17  C   UNL     1      22.798   4.539  19.151  1.00  0.00    -0.003 C 
ATOM     18  C   UNL     1      23.213   5.959  19.532  1.00  0.00     0.004 C 
ENDBRANCH  16  17
ENDBRANCH  15  16
ENDBRANCH  14  15
ENDBRANCH  13  14
ENDBRANCH  12  13
ENDBRANCH  11  12
ENDBRANCH   1  11
TORSDOF 14
ENDMDL
MODEL 9
REMARK VINA RESULT:    -3.832      7.003      9.111
REMARK INTER + INTRA:          -8.945
REMARK INTER:                  -6.332
REMARK INTRA:                  -2.612
REMARK UNBOUND:                -1.977
REMARK SMILES CCCCCCCCCCCCCCCC(=O)[O-]
REMARK SMILES IDX 9 1 10 2 11 3 12 4 13 5 14 6 15 7 16 8 17 9 18 10 8 11 7 12
REMARK SMILES IDX 6 13 5 14 4 15 3 16 2 17 1 18
REMARK H PARENT
REMARK Flexibility Score: inf
ROOT
ATOM      1  C   UNL     1      24.082   5.984  11.688  1.00  0.00     0.000 C 
ENDROOT
BRANCH   1   2
ATOM      2  C   UNL     1      22.898   6.621  12.441  1.00  0.00     0.000 C 
BRANCH   2   3
ATOM      3  C   UNL     1      22.055   7.548  11.549  1.00  0.00     0.000 C 
BRANCH   3   4
ATOM      4  C   UNL     1      20.600   7.073  11.416  1.00  0.00     0.000 C 
BRANCH   4   5
ATOM      5  C   UNL     1      20.053   7.226   9.986  1.00  0.00     0.000 C 
BRANCH   5   6
ATOM      6  C   UNL     1      18.751   6.435   9.759  1.00  0.00     0.006 C 
BRANCH   6   7
ATOM      7  C   UNL     1      18.248   6.454   8.306  1.00  0.00     0.053 C 
BRANCH   7   8
ATOM      8  C   UNL     1      17.387   7.647   8.026  1.00  0.00     0.041 C 
ATOM      9  O   UNL     1      16.810   8.248   8.970  1.00  0.00    -0.550 OA
ATOM     10  O   UNL     1      17.192   8.074   6.718  1.00  0.00    -0.550 OA
ENDBRANCH   7   8
ENDBRANCH   6   7
ENDBRANCH   5   6
ENDBRANCH   4   5
ENDBRANCH   3   4
ENDBRANCH   2   3
ENDBRANCH   1   2
BRANCH   1  11
ATOM     11  C   UNL     1      24.416   6.630  10.328  1.00  0.00     0.000 C 
BRANCH  11  12
ATOM     12  C   UNL     1      24.116   5.755   9.094  1.00  0.00    -0.000 C 
BRANCH  12  13
ATOM     13  C   UNL     1      23.364   4.445   9.389  1.00  0.00    -0.000 C 
BRANCH  13  14
ATOM     14  C   UNL     1      22.022   4.345   8.642  1.00  0.00    -0.000 C 
BRANCH  14  15
ATOM     15  C   UNL     1      20.937   3.638   9.470  1.00  0.00    -0.000 C 
BRANCH  15  16
ATOM     16  C   UNL     1      21.356   3.422  10.936  1.00  0.00    -0.000 C 
BRANCH  16  17
ATOM     17  C   UNL     1      20.165   3.496  11.904  1.00  0.00    -0.003 C 
ATOM     18  C   UNL     1      20.590   3.801  13.340  1.00  0.00     0.004 C 
ENDBRANCH  16  17
ENDBRANCH  15  16
ENDBRANCH  14  15
ENDBRANCH  13  14
ENDBRANCH  12  13
ENDBRANCH  11  12
ENDBRANCH   1  11
TORSDOF 14
ENDMDL
