MODEL 1
REMARK VINA RESULT:    -5.645      0.000      0.000
REMARK INTER + INTRA:         -11.496
REMARK INTER:                 -10.264
REMARK INTRA:                  -1.231
REMARK UNBOUND:                -1.231
REMARK SMILES CCCCCCCCCCCCCCCC(=O)[O-]
REMARK SMILES IDX 9 1 10 2 11 3 12 4 13 5 14 6 15 7 16 8 17 9 18 10 8 11 7 12
REMARK SMILES IDX 6 13 5 14 4 15 3 16 2 17 1 18
REMARK H PARENT
REMARK Flexibility Score: inf
ROOT
ATOM      1  C   UNL     1      10.088  11.316  38.972  1.00  0.00     0.000 C 
ENDROOT
BRANCH   1   2
ATOM      2  C   UNL     1       9.612  12.765  38.778  1.00  0.00     0.000 C 
BRANCH   2   3
ATOM      3  C   UNL     1       9.438  13.522  40.107  1.00  0.00     0.000 C 
BRANCH   3   4
ATOM      4  C   UNL     1       8.054  13.380  40.772  1.00  0.00     0.000 C 
BRANCH   4   5
ATOM      5  C   UNL     1       8.032  13.612  42.293  1.00  0.00     0.000 C 
BRANCH   5   6
ATOM      6  C   UNL     1       7.145  14.797  42.703  1.00  0.00     0.006 C 
BRANCH   6   7
ATOM      7  C   UNL     1       7.974  15.894  43.377  1.00  0.00     0.053 C 
BRANCH   7   8
ATOM      8  C   UNL     1       8.460  16.881  42.363  1.00  0.00     0.041 C 
ATOM      9  O   UNL     1       7.651  17.664  41.802  1.00  0.00    -0.550 OA
ATOM     10  O   UNL     1       9.802  16.904  42.004  1.00  0.00    -0.550 OA
ENDBRANCH   7   8
ENDBRANCH   6   7
ENDBRANCH   5   6
ENDBRANCH   4   5
ENDBRANCH   3   4
ENDBRANCH   2   3
ENDBRANCH   1   2
BRANCH   1  11
ATOM     11  C   UNL     1       8.949  10.288  38.849  1.00  0.00     0.000 C 
BRANCH  11  12
ATOM     12  C   UNL     1       8.846   9.284  40.012  1.00  0.00    -0.000 C 
BRANCH  12  13
ATOM     13  C   UNL     1       8.310   9.922  41.306  1.00  0.00    -0.000 C 
BRANCH  13  14
ATOM     14  C   UNL     1       8.739   9.156  42.567  1.00  0.00    -0.000 C 
BRANCH  14  15
ATOM     15  C   UNL     1       8.829  10.063  43.807  1.00  0.00    -0.000 C 
BRANCH  15  16
ATOM     16  C   UNL     1       9.366   9.329  45.048  1.00  0.00    -0.000 C 
BRANCH  16  17
ATOM     17  C   UNL     1      10.859   9.559  45.344  1.00  0.00    -0.003 C 
ATOM     18  C   UNL     1      11.669   8.264  45.379  1.00  0.00     0.004 C 
ENDBRANCH  16  17
ENDBRANCH  15  16
ENDBRANCH  14  15
ENDBRANCH  13  14
ENDBRANCH  12  13
ENDBRANCH  11  12
ENDBRANCH   1  11
TORSDOF 14
ENDMDL
MODEL 2
REMARK VINA RESULT:    -5.543     10.215     12.369
REMARK INTER + INTRA:         -11.311
REMARK INTER:                  -9.880
REMARK INTRA:                  -1.431
REMARK UNBOUND:                -1.231
REMARK SMILES CCCCCCCCCCCCCCCC(=O)[O-]
REMARK SMILES IDX 9 1 10 2 11 3 12 4 13 5 14 6 15 7 16 8 17 9 18 10 8 11 7 12
REMARK SMILES IDX 6 13 5 14 4 15 3 16 2 17 1 18
REMARK H PARENT
REMARK Flexibility Score: inf
ROOT
ATOM      1  C   UNL     1      20.085   9.231  45.239  1.00  0.00     0.000 C 
ENDROOT
BRANCH   1   2
ATOM      2  C   UNL     1      20.545  10.614  45.728  1.00  0.00     0.000 C 
BRANCH   2   3
ATOM      3  C   UNL     1      19.375  11.588  45.958  1.00  0.00     0.000 C 
BRANCH   3   4
ATOM      4  C   UNL     1      19.577  13.008  45.394  1.00  0.00     0.000 C 
BRANCH   4   5
ATOM      5  C   UNL     1      20.185  13.071  43.981  1.00  0.00     0.000 C 
BRANCH   5   6
ATOM      6  C   UNL     1      19.754  14.322  43.201  1.00  0.00     0.006 C 
BRANCH   6   7
ATOM      7  C   UNL     1      20.872  15.368  43.184  1.00  0.00     0.053 C 
BRANCH   7   8
ATOM      8  C   UNL     1      21.589  15.348  41.871  1.00  0.00     0.041 C 
ATOM      9  O   UNL     1      22.593  14.607  41.708  1.00  0.00    -0.550 OA
ATOM     10  O   UNL     1      21.175  16.183  40.841  1.00  0.00    -0.550 OA
ENDBRANCH   7   8
ENDBRANCH   6   7
ENDBRANCH   5   6
ENDBRANCH   4   5
ENDBRANCH   3   4
ENDBRANCH   2   3
ENDBRANCH   1   2
BRANCH   1  11
ATOM     11  C   UNL     1      20.619   8.881  43.838  1.00  0.00     0.000 C 
BRANCH  11  12
ATOM     12  C   UNL     1      21.949   9.557  43.459  1.00  0.00    -0.000 C 
BRANCH  12  13
ATOM     13  C   UNL     1      21.876  10.313  42.121  1.00  0.00    -0.000 C 
BRANCH  13  14
ATOM     14  C   UNL     1      20.588  10.014  41.340  1.00  0.00    -0.000 C 
BRANCH  14  15
ATOM     15  C   UNL     1      20.863   9.603  39.883  1.00  0.00    -0.000 C 
BRANCH  15  16
ATOM     16  C   UNL     1      19.843   8.584  39.344  1.00  0.00    -0.000 C 
BRANCH  16  17
ATOM     17  C   UNL     1      18.708   8.223  40.319  1.00  0.00    -0.003 C 
ATOM     18  C   UNL     1      17.337   8.167  39.648  1.00  0.00     0.004 C 
ENDBRANCH  16  17
ENDBRANCH  15  16
ENDBRANCH  14  15
ENDBRANCH  13  14
ENDBRANCH  12  13
ENDBRANCH  11  12
ENDBRANCH   1  11
TORSDOF 14
ENDMDL
MODEL 3
REMARK VINA RESULT:    -5.498     10.672     12.424
REMARK INTER + INTRA:         -11.230
REMARK INTER:                  -9.878
REMARK INTRA:                  -1.352
REMARK UNBOUND:                -1.231
REMARK SMILES CCCCCCCCCCCCCCCC(=O)[O-]
REMARK SMILES IDX 9 1 10 2 11 3 12 4 13 5 14 6 15 7 16 8 17 9 18 10 8 11 7 12
REMARK SMILES IDX 6 13 5 14 4 15 3 16 2 17 1 18
REMARK H PARENT
REMARK Flexibility Score: inf
ROOT
ATOM      1  C   UNL     1      19.744  11.519  45.585  1.00  0.00     0.000 C 
ENDROOT
BRANCH   1   2
ATOM      2  C   UNL     1      19.496  12.994  45.228  1.00  0.00     0.000 C 
BRANCH   2   3
ATOM      3  C   UNL     1      20.494  13.534  44.188  1.00  0.00     0.000 C 
BRANCH   3   4
ATOM      4  C   UNL     1      19.901  13.834  42.796  1.00  0.00     0.000 C 
BRANCH   4   5
ATOM      5  C   UNL     1      19.088  15.137  42.699  1.00  0.00     0.000 C 
BRANCH   5   6
ATOM      6  C   UNL     1      19.975  16.384  42.566  1.00  0.00     0.006 C 
BRANCH   6   7
ATOM      7  C   UNL     1      20.968  16.229  41.411  1.00  0.00     0.053 C 
BRANCH   7   8
ATOM      8  C   UNL     1      22.361  16.515  41.876  1.00  0.00     0.041 C 
ATOM      9  O   UNL     1      23.064  15.598  42.372  1.00  0.00    -0.550 OA
ATOM     10  O   UNL     1      22.866  17.808  41.803  1.00  0.00    -0.550 OA
ENDBRANCH   7   8
ENDBRANCH   6   7
ENDBRANCH   5   6
ENDBRANCH   4   5
ENDBRANCH   3   4
ENDBRANCH   2   3
ENDBRANCH   1   2
BRANCH   1  11
ATOM     11  C   UNL     1      20.990  10.935  44.893  1.00  0.00     0.000 C 
BRANCH  11  12
ATOM     12  C   UNL     1      20.955   9.413  44.662  1.00  0.00    -0.000 C 
BRANCH  12  13
ATOM     13  C   UNL     1      20.530   9.035  43.232  1.00  0.00    -0.000 C 
BRANCH  13  14
ATOM     14  C   UNL     1      20.717  10.186  42.233  1.00  0.00    -0.000 C 
BRANCH  14  15
ATOM     15  C   UNL     1      21.486   9.754  40.972  1.00  0.00    -0.000 C 
BRANCH  15  16
ATOM     16  C   UNL     1      20.595   9.032  39.945  1.00  0.00    -0.000 C 
BRANCH  16  17
ATOM     17  C   UNL     1      19.183   9.622  39.781  1.00  0.00    -0.003 C 
ATOM     18  C   UNL     1      18.126   8.565  39.463  1.00  0.00     0.004 C 
ENDBRANCH  16  17
ENDBRANCH  15  16
ENDBRANCH  14  15
ENDBRANCH  13  14
ENDBRANCH  12  13
ENDBRANCH  11  12
ENDBRANCH   1  11
TORSDOF 14
ENDMDL
MODEL 4
REMARK VINA RESULT:    -5.354      3.040      4.809
REMARK INTER + INTRA:         -10.967
REMARK INTER:                  -9.209
REMARK INTRA:                  -1.758
REMARK UNBOUND:                -1.231
REMARK SMILES CCCCCCCCCCCCCCCC(=O)[O-]
REMARK SMILES IDX 9 1 10 2 11 3 12 4 13 5 14 6 15 7 16 8 17 9 18 10 8 11 7 12
REMARK SMILES IDX 6 13 5 14 4 15 3 16 2 17 1 18
REMARK H PARENT
REMARK Flexibility Score: inf
ROOT
ATOM      1  C   UNL     1       9.553  13.931  41.065  1.00  0.00     0.000 C 
ENDROOT
BRANCH   1   2
ATOM      2  C   UNL     1       8.968  13.413  39.740  1.00  0.00     0.000 C 
BRANCH   2   3
ATOM      3  C   UNL     1       9.996  12.643  38.892  1.00  0.00     0.000 C 
BRANCH   3   4
ATOM      4  C   UNL     1       9.583  11.213  38.490  1.00  0.00     0.000 C 
BRANCH   4   5
ATOM      5  C   UNL     1       9.393  10.233  39.661  1.00  0.00     0.000 C 
BRANCH   5   6
ATOM      6  C   UNL     1       8.450   9.071  39.320  1.00  0.00     0.006 C 
BRANCH   6   7
ATOM      7  C   UNL     1       7.101   9.591  38.816  1.00  0.00     0.053 C 
BRANCH   7   8
ATOM      8  C   UNL     1       6.089   9.577  39.918  1.00  0.00     0.041 C 
ATOM      9  O   UNL     1       6.058   8.624  40.739  1.00  0.00    -0.550 OA
ATOM     10  O   UNL     1       5.149  10.596  40.010  1.00  0.00    -0.550 OA
ENDBRANCH   7   8
ENDBRANCH   6   7
ENDBRANCH   5   6
ENDBRANCH   4   5
ENDBRANCH   3   4
ENDBRANCH   2   3
ENDBRANCH   1   2
BRANCH   1  11
ATOM     11  C   UNL     1       9.011  13.180  42.295  1.00  0.00     0.000 C 
BRANCH  11  12
ATOM     12  C   UNL     1       7.593  12.603  42.135  1.00  0.00    -0.000 C 
BRANCH  12  13
ATOM     13  C   UNL     1       7.449  11.194  42.737  1.00  0.00    -0.000 C 
BRANCH  13  14
ATOM     14  C   UNL     1       8.795  10.595  43.174  1.00  0.00    -0.000 C 
BRANCH  14  15
ATOM     15  C   UNL     1       8.629   9.298  43.984  1.00  0.00    -0.000 C 
BRANCH  15  16
ATOM     16  C   UNL     1       9.267   9.378  45.382  1.00  0.00    -0.000 C 
BRANCH  16  17
ATOM     17  C   UNL     1      10.796   9.547  45.390  1.00  0.00    -0.003 C 
ATOM     18  C   UNL     1      11.546   8.217  45.326  1.00  0.00     0.004 C 
ENDBRANCH  16  17
ENDBRANCH  15  16
ENDBRANCH  14  15
ENDBRANCH  13  14
ENDBRANCH  12  13
ENDBRANCH  11  12
ENDBRANCH   1  11
TORSDOF 14
ENDMDL
MODEL 5
REMARK VINA RESULT:    -5.285     11.826     13.206
REMARK INTER + INTRA:         -10.842
REMARK INTER:                  -9.869
REMARK INTRA:                  -0.973
REMARK UNBOUND:                -1.231
REMARK SMILES CCCCCCCCCCCCCCCC(=O)[O-]
REMARK SMILES IDX 9 1 10 2 11 3 12 4 13 5 14 6 15 7 16 8 17 9 18 10 8 11 7 12
REMARK SMILES IDX 6 13 5 14 4 15 3 16 2 17 1 18
REMARK H PARENT
REMARK Flexibility Score: inf
ROOT
ATOM      1  C   UNL     1      19.878  14.073  43.479  1.00  0.00     0.000 C 
ENDROOT
BRANCH   1   2
ATOM      2  C   UNL     1      19.174  15.077  42.550  1.00  0.00     0.000 C 
BRANCH   2   3
ATOM      3  C   UNL     1      19.635  16.529  42.778  1.00  0.00     0.000 C 
BRANCH   3   4
ATOM      4  C   UNL     1      21.110  16.816  42.432  1.00  0.00     0.000 C 
BRANCH   4   5
ATOM      5  C   UNL     1      21.590  16.242  41.087  1.00  0.00     0.000 C 
BRANCH   5   6
ATOM      6  C   UNL     1      22.809  15.319  41.234  1.00  0.00     0.006 C 
BRANCH   6   7
ATOM      7  C   UNL     1      24.092  16.036  40.807  1.00  0.00     0.053 C 
BRANCH   7   8
ATOM      8  C   UNL     1      24.567  16.952  41.890  1.00  0.00     0.041 C 
ATOM      9  O   UNL     1      24.908  16.488  43.008  1.00  0.00    -0.550 OA
ATOM     10  O   UNL     1      24.587  18.325  41.678  1.00  0.00    -0.550 OA
ENDBRANCH   7   8
ENDBRANCH   6   7
ENDBRANCH   5   6
ENDBRANCH   4   5
ENDBRANCH   3   4
ENDBRANCH   2   3
ENDBRANCH   1   2
BRANCH   1  11
ATOM     11  C   UNL     1      20.591  12.944  42.712  1.00  0.00     0.000 C 
BRANCH  11  12
ATOM     12  C   UNL     1      20.957  11.711  43.557  1.00  0.00    -0.000 C 
BRANCH  12  13
ATOM     13  C   UNL     1      21.357  10.496  42.701  1.00  0.00    -0.000 C 
BRANCH  13  14
ATOM     14  C   UNL     1      20.492  10.348  41.440  1.00  0.00    -0.000 C 
BRANCH  14  15
ATOM     15  C   UNL     1      21.151   9.456  40.373  1.00  0.00    -0.000 C 
BRANCH  15  16
ATOM     16  C   UNL     1      20.142   8.553  39.641  1.00  0.00    -0.000 C 
BRANCH  16  17
ATOM     17  C   UNL     1      18.732   9.148  39.483  1.00  0.00    -0.003 C 
ATOM     18  C   UNL     1      17.626   8.097  39.559  1.00  0.00     0.004 C 
ENDBRANCH  16  17
ENDBRANCH  15  16
ENDBRANCH  14  15
ENDBRANCH  13  14
ENDBRANCH  12  13
ENDBRANCH  11  12
ENDBRANCH   1  11
TORSDOF 14
ENDMDL
MODEL 6
REMARK VINA RESULT:    -5.185      1.614      2.109
REMARK INTER + INTRA:         -10.660
REMARK INTER:                  -9.590
REMARK INTRA:                  -1.070
REMARK UNBOUND:                -1.231
REMARK SMILES CCCCCCCCCCCCCCCC(=O)[O-]
REMARK SMILES IDX 9 1 10 2 11 3 12 4 13 5 14 6 15 7 16 8 17 9 18 10 8 11 7 12
REMARK SMILES IDX 6 13 5 14 4 15 3 16 2 17 1 18
REMARK H PARENT
REMARK Flexibility Score: inf
ROOT
ATOM      1  C   UNL     1       9.752  11.803  38.941  1.00  0.00     0.000 C 
ENDROOT
BRANCH   1   2
ATOM      2  C   UNL     1       9.082  12.377  40.200  1.00  0.00     0.000 C 
BRANCH   2   3
ATOM      3  C   UNL     1       9.283  13.896  40.346  1.00  0.00     0.000 C 
BRANCH   3   4
ATOM      4  C   UNL     1       9.667  14.380  41.759  1.00  0.00     0.000 C 
BRANCH   4   5
ATOM      5  C   UNL     1       9.724  15.908  41.934  1.00  0.00     0.000 C 
BRANCH   5   6
ATOM      6  C   UNL     1       8.563  16.455  42.777  1.00  0.00     0.006 C 
BRANCH   6   7
ATOM      7  C   UNL     1       7.235  16.331  42.026  1.00  0.00     0.053 C 
BRANCH   7   8
ATOM      8  C   UNL     1       6.295  15.434  42.769  1.00  0.00     0.041 C 
ATOM      9  O   UNL     1       6.224  14.212  42.480  1.00  0.00    -0.550 OA
ATOM     10  O   UNL     1       5.462  15.960  43.749  1.00  0.00    -0.550 OA
ENDBRANCH   7   8
ENDBRANCH   6   7
ENDBRANCH   5   6
ENDBRANCH   4   5
ENDBRANCH   3   4
ENDBRANCH   2   3
ENDBRANCH   1   2
BRANCH   1  11
ATOM     11  C   UNL     1       9.401  10.324  38.695  1.00  0.00     0.000 C 
BRANCH  11  12
ATOM     12  C   UNL     1       8.477   9.688  39.750  1.00  0.00    -0.000 C 
BRANCH  12  13
ATOM     13  C   UNL     1       9.019   8.355  40.294  1.00  0.00    -0.000 C 
BRANCH  13  14
ATOM     14  C   UNL     1       8.802   8.198  41.807  1.00  0.00    -0.000 C 
BRANCH  14  15
ATOM     15  C   UNL     1       8.700   9.552  42.532  1.00  0.00    -0.000 C 
BRANCH  15  16
ATOM     16  C   UNL     1       9.182   9.487  43.992  1.00  0.00    -0.000 C 
BRANCH  16  17
ATOM     17  C   UNL     1      10.128   8.317  44.314  1.00  0.00    -0.003 C 
ATOM     18  C   UNL     1      11.161   8.659  45.386  1.00  0.00     0.004 C 
ENDBRANCH  16  17
ENDBRANCH  15  16
ENDBRANCH  14  15
ENDBRANCH  13  14
ENDBRANCH  12  13
ENDBRANCH  11  12
ENDBRANCH   1  11
TORSDOF 14
ENDMDL
MODEL 7
REMARK VINA RESULT:    -5.145      1.928      4.014
REMARK INTER + INTRA:         -10.588
REMARK INTER:                  -8.977
REMARK INTRA:                  -1.611
REMARK UNBOUND:                -1.231
REMARK SMILES CCCCCCCCCCCCCCCC(=O)[O-]
REMARK SMILES IDX 9 1 10 2 11 3 12 4 13 5 14 6 15 7 16 8 17 9 18 10 8 11 7 12
REMARK SMILES IDX 6 13 5 14 4 15 3 16 2 17 1 18
REMARK H PARENT
REMARK Flexibility Score: inf
ROOT
ATOM      1  C   UNL     1       7.204  11.296  42.576  1.00  0.00     0.000 C 
ENDROOT
BRANCH   1   2
ATOM      2  C   UNL     1       7.499  12.790  42.359  1.00  0.00     0.000 C 
BRANCH   2   3
ATOM      3  C   UNL     1       8.949  13.057  41.917  1.00  0.00     0.000 C 
BRANCH   3   4
ATOM      4  C   UNL     1       9.177  14.381  41.161  1.00  0.00     0.000 C 
BRANCH   4   5
ATOM      5  C   UNL     1       9.977  15.446  41.932  1.00  0.00     0.000 C 
BRANCH   5   6
ATOM      6  C   UNL     1       9.184  16.742  42.154  1.00  0.00     0.006 C 
BRANCH   6   7
ATOM      7  C   UNL     1       8.079  16.537  43.194  1.00  0.00     0.053 C 
BRANCH   7   8
ATOM      8  C   UNL     1       6.741  16.862  42.609  1.00  0.00     0.041 C 
ATOM      9  O   UNL     1       6.406  18.060  42.422  1.00  0.00    -0.550 OA
ATOM     10  O   UNL     1       5.845  15.842  42.314  1.00  0.00    -0.550 OA
ENDBRANCH   7   8
ENDBRANCH   6   7
ENDBRANCH   5   6
ENDBRANCH   4   5
ENDBRANCH   3   4
ENDBRANCH   2   3
ENDBRANCH   1   2
BRANCH   1  11
ATOM     11  C   UNL     1       8.407  10.524  43.150  1.00  0.00     0.000 C 
BRANCH  11  12
ATOM     12  C   UNL     1       8.306   8.991  43.051  1.00  0.00    -0.000 C 
BRANCH  12  13
ATOM     13  C   UNL     1       8.833   8.442  41.713  1.00  0.00    -0.000 C 
BRANCH  13  14
ATOM     14  C   UNL     1       7.722   8.256  40.669  1.00  0.00    -0.000 C 
BRANCH  14  15
ATOM     15  C   UNL     1       7.894   9.182  39.452  1.00  0.00    -0.000 C 
BRANCH  15  16
ATOM     16  C   UNL     1       9.091  10.139  39.592  1.00  0.00    -0.000 C 
BRANCH  16  17
ATOM     17  C   UNL     1       9.616  10.721  38.268  1.00  0.00    -0.003 C 
ATOM     18  C   UNL     1      10.065  12.177  38.389  1.00  0.00     0.004 C 
ENDBRANCH  16  17
ENDBRANCH  15  16
ENDBRANCH  14  15
ENDBRANCH  13  14
ENDBRANCH  12  13
ENDBRANCH  11  12
ENDBRANCH   1  11
TORSDOF 14
ENDMDL
MODEL 8
REMARK VINA RESULT:    -5.142      2.066      2.639
REMARK INTER + INTRA:         -10.581
REMARK INTER:                  -9.435
REMARK INTRA:                  -1.146
REMARK UNBOUND:                -1.231
REMARK SMILES CCCCCCCCCCCCCCCC(=O)[O-]
REMARK SMILES IDX 9 1 10 2 11 3 12 4 13 5 14 6 15 7 16 8 17 9 18 10 8 11 7 12
REMARK SMILES IDX 6 13 5 14 4 15 3 16 2 17 1 18
REMARK H PARENT
REMARK Flexibility Score: inf
ROOT
ATOM      1  C   UNL     1       8.606  12.440  42.141  1.00  0.00     0.000 C 
ENDROOT
BRANCH   1   2
ATOM      2  C   UNL     1       8.379  13.276  40.870  1.00  0.00     0.000 C 
BRANCH   2   3
ATOM      3  C   UNL     1       9.043  14.663  40.938  1.00  0.00     0.000 C 
BRANCH   3   4
ATOM      4  C   UNL     1       9.328  15.189  42.359  1.00  0.00     0.000 C 
BRANCH   4   5
ATOM      5  C   UNL     1       8.716  16.564  42.683  1.00  0.00     0.000 C 
BRANCH   5   6
ATOM      6  C   UNL     1       7.634  16.986  41.678  1.00  0.00     0.006 C 
BRANCH   6   7
ATOM      7  C   UNL     1       6.331  17.347  42.396  1.00  0.00     0.053 C 
BRANCH   7   8
ATOM      8  C   UNL     1       5.617  16.109  42.842  1.00  0.00     0.041 C 
ATOM      9  O   UNL     1       5.043  16.076  43.960  1.00  0.00    -0.550 OA
ATOM     10  O   UNL     1       5.627  14.975  42.039  1.00  0.00    -0.550 OA
ENDBRANCH   7   8
ENDBRANCH   6   7
ENDBRANCH   5   6
ENDBRANCH   4   5
ENDBRANCH   3   4
ENDBRANCH   2   3
ENDBRANCH   1   2
BRANCH   1  11
ATOM     11  C   UNL     1       7.725  11.178  42.195  1.00  0.00     0.000 C 
BRANCH  11  12
ATOM     12  C   UNL     1       8.462   9.854  41.924  1.00  0.00    -0.000 C 
BRANCH  12  13
ATOM     13  C   UNL     1       8.279   8.826  43.054  1.00  0.00    -0.000 C 
BRANCH  13  14
ATOM     14  C   UNL     1       7.392   9.349  44.195  1.00  0.00    -0.000 C 
BRANCH  14  15
ATOM     15  C   UNL     1       8.174   9.550  45.505  1.00  0.00    -0.000 C 
BRANCH  15  16
ATOM     16  C   UNL     1       9.407   8.635  45.614  1.00  0.00    -0.000 C 
BRANCH  16  17
ATOM     17  C   UNL     1      10.758   9.334  45.384  1.00  0.00    -0.003 C 
ATOM     18  C   UNL     1      11.935   8.362  45.335  1.00  0.00     0.004 C 
ENDBRANCH  16  17
ENDBRANCH  15  16
ENDBRANCH  14  15
ENDBRANCH  13  14
ENDBRANCH  12  13
ENDBRANCH  11  12
ENDBRANCH   1  11
TORSDOF 14
ENDMDL
MODEL 9
REMARK VINA RESULT:    -5.057      1.661      2.567
REMARK INTER + INTRA:         -10.426
REMARK INTER:                  -9.213
REMARK INTRA:                  -1.213
REMARK UNBOUND:                -1.231
REMARK SMILES CCCCCCCCCCCCCCCC(=O)[O-]
REMARK SMILES IDX 9 1 10 2 11 3 12 4 13 5 14 6 15 7 16 8 17 9 18 10 8 11 7 12
REMARK SMILES IDX 6 13 5 14 4 15 3 16 2 17 1 18
REMARK H PARENT
REMARK Flexibility Score: inf
ROOT
ATOM      1  C   UNL     1       7.322  12.684  42.373  1.00  0.00     0.000 C 
ENDROOT
BRANCH   1   2
ATOM      2  C   UNL     1       6.383  13.121  41.236  1.00  0.00     0.000 C 
BRANCH   2   3
ATOM      3  C   UNL     1       5.204  13.979  41.730  1.00  0.00     0.000 C 
BRANCH   3   4
ATOM      4  C   UNL     1       5.572  15.102  42.721  1.00  0.00     0.000 C 
BRANCH   4   5
ATOM      5  C   UNL     1       5.924  16.454  42.075  1.00  0.00     0.000 C 
BRANCH   5   6
ATOM      6  C   UNL     1       7.105  17.154  42.764  1.00  0.00     0.006 C 
BRANCH   6   7
ATOM      7  C   UNL     1       8.235  16.163  43.055  1.00  0.00     0.053 C 
BRANCH   7   8
ATOM      8  C   UNL     1       9.209  16.132  41.919  1.00  0.00     0.041 C 
ATOM      9  O   UNL     1       8.990  15.404  40.916  1.00  0.00    -0.550 OA
ATOM     10  O   UNL     1      10.383  16.871  41.991  1.00  0.00    -0.550 OA
ENDBRANCH   7   8
ENDBRANCH   6   7
ENDBRANCH   5   6
ENDBRANCH   4   5
ENDBRANCH   3   4
ENDBRANCH   2   3
ENDBRANCH   1   2
BRANCH   1  11
ATOM     11  C   UNL     1       8.559  11.918  41.869  1.00  0.00     0.000 C 
BRANCH  11  12
ATOM     12  C   UNL     1       8.264  10.799  40.852  1.00  0.00    -0.000 C 
BRANCH  12  13
ATOM     13  C   UNL     1       8.576   9.396  41.400  1.00  0.00    -0.000 C 
BRANCH  13  14
ATOM     14  C   UNL     1       8.246   9.255  42.894  1.00  0.00    -0.000 C 
BRANCH  14  15
ATOM     15  C   UNL     1       9.257   8.367  43.641  1.00  0.00    -0.000 C 
BRANCH  15  16
ATOM     16  C   UNL     1       9.440   8.775  45.114  1.00  0.00    -0.000 C 
BRANCH  16  17
ATOM     17  C   UNL     1      10.815   9.375  45.456  1.00  0.00    -0.003 C 
ATOM     18  C   UNL     1      11.949   8.355  45.383  1.00  0.00     0.004 C 
ENDBRANCH  16  17
ENDBRANCH  15  16
ENDBRANCH  14  15
ENDBRANCH  13  14
ENDBRANCH  12  13
ENDBRANCH  11  12
ENDBRANCH   1  11
TORSDOF 14
ENDMDL
