MODEL 1
REMARK VINA RESULT:    -6.352      0.000      0.000
REMARK INTER + INTRA:          -7.923
REMARK INTER:                  -7.651
REMARK INTRA:                  -0.272
REMARK UNBOUND:                -0.272
REMARK SMILES O=c1c(O)c(-c2ccc(O)c(O)c2)oc2cc(O)cc(O)c12
REMARK SMILES IDX 5 1 3 2 2 3 1 4 22 5 20 6 19 7 17 8 16 9 15 10 14 11 6 12
REMARK SMILES IDX 7 13 8 14 9 15 13 16 11 17 10 18 12 20 4 22 21 24 18 26
REMARK H PARENT 10 19 12 21 4 23 21 25 18 27
REMARK Flexibility Score: inf
ROOT
ATOM      1  C   UNL     1      29.000 -22.757 -32.786  1.00  0.00     0.180 A 
ATOM      2  C   UNL     1      30.015 -23.721 -32.658  1.00  0.00     0.208 A 
ATOM      3  C   UNL     1      30.697 -23.835 -31.437  1.00  0.00     0.238 A 
ATOM      4  O   UNL     1      31.553 -24.749 -31.307  1.00  0.00    -0.285 OA
ATOM      5  C   UNL     1      30.396 -22.948 -30.375  1.00  0.00     0.111 A 
ATOM      6  C   UNL     1      31.055 -22.942 -29.108  1.00  0.00     0.134 A 
ATOM      7  C   UNL     1      30.600 -22.087 -28.097  1.00  0.00     0.093 A 
ATOM      8  C   UNL     1      29.553 -21.195 -28.324  1.00  0.00     0.123 A 
ATOM      9  C   UNL     1      28.939 -21.151 -29.576  1.00  0.00     0.094 A 
ATOM     10  C   UNL     1      29.344 -22.018 -30.593  1.00  0.00     0.146 A 
ATOM     11  O   UNL     1      28.718 -21.960 -31.762  1.00  0.00    -0.452 OA
ENDROOT
BRANCH   1  12
ATOM     12  C   UNL     1      28.227 -22.586 -34.037  1.00  0.00     0.025 A 
ATOM     13  C   UNL     1      26.901 -23.040 -34.146  1.00  0.00     0.016 A 
ATOM     14  C   UNL     1      26.183 -22.846 -35.329  1.00  0.00     0.051 A 
ATOM     15  C   UNL     1      26.770 -22.187 -36.412  1.00  0.00     0.157 A 
ATOM     16  C   UNL     1      28.807 -21.906 -35.119  1.00  0.00     0.062 A 
ATOM     17  C   UNL     1      28.088 -21.711 -36.308  1.00  0.00     0.158 A 
BRANCH  15  18
ATOM     18  O   UNL     1      26.029 -22.009 -37.581  1.00  0.00    -0.504 OA
ATOM     19  H   UNL     1      25.136 -21.533 -37.586  1.00  0.00     0.293 HD
ENDBRANCH  15  18
BRANCH  17  20
ATOM     20  O   UNL     1      28.677 -21.046 -37.382  1.00  0.00    -0.504 OA
ATOM     21  H   UNL     1      28.537 -21.353 -38.338  1.00  0.00     0.293 HD
ENDBRANCH  17  20
ENDBRANCH   1  12
BRANCH   2  22
ATOM     22  O   UNL     1      30.350 -24.536 -33.743  1.00  0.00    -0.502 OA
ATOM     23  H   UNL     1      29.793 -24.572 -34.589  1.00  0.00     0.293 HD
ENDBRANCH   2  22
BRANCH   6  24
ATOM     24  O   UNL     1      32.168 -23.731 -28.802  1.00  0.00    -0.507 OA
ATOM     25  H   UNL     1      32.207 -24.413 -28.062  1.00  0.00     0.293 HD
ENDBRANCH   6  24
BRANCH   8  26
ATOM     26  O   UNL     1      29.138 -20.346 -27.299  1.00  0.00    -0.508 OA
ATOM     27  H   UNL     1      28.639 -20.697 -26.491  1.00  0.00     0.293 HD
ENDBRANCH   8  26
TORSDOF 6
ENDMDL
MODEL 2
REMARK VINA RESULT:    -6.294      1.525      7.048
REMARK INTER + INTRA:          -7.854
REMARK INTER:                  -7.560
REMARK INTRA:                  -0.293
REMARK UNBOUND:                -0.272
REMARK SMILES O=c1c(O)c(-c2ccc(O)c(O)c2)oc2cc(O)cc(O)c12
REMARK SMILES IDX 5 1 3 2 2 3 1 4 22 5 20 6 19 7 17 8 16 9 15 10 14 11 6 12
REMARK SMILES IDX 7 13 8 14 9 15 13 16 11 17 10 18 12 20 4 22 21 24 18 26
REMARK H PARENT 10 19 12 21 4 23 21 25 18 27
REMARK Flexibility Score: inf
ROOT
ATOM      1  C   UNL     1      28.589 -22.510 -31.837  1.00  0.00     0.180 A 
ATOM      2  C   UNL     1      27.431 -23.301 -31.927  1.00  0.00     0.208 A 
ATOM      3  C   UNL     1      26.802 -23.448 -33.173  1.00  0.00     0.238 A 
ATOM      4  O   UNL     1      25.809 -24.218 -33.260  1.00  0.00    -0.285 OA
ATOM      5  C   UNL     1      27.303 -22.757 -34.302  1.00  0.00     0.111 A 
ATOM      6  C   UNL     1      26.718 -22.796 -35.605  1.00  0.00     0.134 A 
ATOM      7  C   UNL     1      27.363 -22.157 -36.670  1.00  0.00     0.093 A 
ATOM      8  C   UNL     1      28.535 -21.428 -36.472  1.00  0.00     0.123 A 
ATOM      9  C   UNL     1      29.085 -21.336 -35.193  1.00  0.00     0.094 A 
ATOM     10  C   UNL     1      28.486 -21.995 -34.117  1.00  0.00     0.146 A 
ATOM     11  O   UNL     1      29.055 -21.899 -32.921  1.00  0.00    -0.452 OA
ENDROOT
BRANCH   1  12
ATOM     12  C   UNL     1      29.318 -22.319 -30.562  1.00  0.00     0.025 A 
ATOM     13  C   UNL     1      30.504 -23.020 -30.284  1.00  0.00     0.016 A 
ATOM     14  C   UNL     1      31.187 -22.806 -29.084  1.00  0.00     0.051 A 
ATOM     15  C   UNL     1      30.706 -21.882 -28.152  1.00  0.00     0.157 A 
ATOM     16  C   UNL     1      28.848 -21.376 -29.634  1.00  0.00     0.062 A 
ATOM     17  C   UNL     1      29.532 -21.160 -28.428  1.00  0.00     0.158 A 
BRANCH  15  18
ATOM     18  O   UNL     1      31.407 -21.690 -26.962  1.00  0.00    -0.504 OA
ATOM     19  H   UNL     1      32.368 -21.372 -26.949  1.00  0.00     0.293 HD
ENDBRANCH  15  18
BRANCH  17  20
ATOM     20  O   UNL     1      29.051 -20.232 -27.506  1.00  0.00    -0.504 OA
ATOM     21  H   UNL     1      29.188 -19.236 -27.635  1.00  0.00     0.293 HD
ENDBRANCH  17  20
ENDBRANCH   1  12
BRANCH   2  22
ATOM     22  O   UNL     1      26.908 -23.913 -30.785  1.00  0.00    -0.502 OA
ATOM     23  H   UNL     1      27.293 -23.760 -29.860  1.00  0.00     0.293 HD
ENDBRANCH   2  22
BRANCH   6  24
ATOM     24  O   UNL     1      25.503 -23.422 -35.899  1.00  0.00    -0.507 OA
ATOM     25  H   UNL     1      25.348 -24.051 -36.670  1.00  0.00     0.293 HD
ENDBRANCH   6  24
BRANCH   8  26
ATOM     26  O   UNL     1      29.140 -20.790 -37.553  1.00  0.00    -0.508 OA
ATOM     27  H   UNL     1      29.711 -19.963 -37.428  1.00  0.00     0.293 HD
ENDBRANCH   8  26
TORSDOF 6
ENDMDL
MODEL 3
REMARK VINA RESULT:    -6.281      1.609      6.836
REMARK INTER + INTRA:          -7.838
REMARK INTER:                  -7.620
REMARK INTRA:                  -0.218
REMARK UNBOUND:                -0.272
REMARK SMILES O=c1c(O)c(-c2ccc(O)c(O)c2)oc2cc(O)cc(O)c12
REMARK SMILES IDX 5 1 3 2 2 3 1 4 22 5 20 6 19 7 17 8 16 9 15 10 14 11 6 12
REMARK SMILES IDX 7 13 8 14 9 15 13 16 11 17 10 18 12 20 4 22 21 24 18 26
REMARK H PARENT 10 19 12 21 4 23 21 25 18 27
REMARK Flexibility Score: inf
ROOT
ATOM      1  C   UNL     1      29.233 -22.666 -32.575  1.00  0.00     0.180 A 
ATOM      2  C   UNL     1      28.764 -23.937 -32.951  1.00  0.00     0.208 A 
ATOM      3  C   UNL     1      28.494 -24.189 -34.305  1.00  0.00     0.238 A 
ATOM      4  O   UNL     1      28.146 -25.351 -34.644  1.00  0.00    -0.285 OA
ATOM      5  C   UNL     1      28.641 -23.154 -35.259  1.00  0.00     0.111 A 
ATOM      6  C   UNL     1      28.352 -23.285 -36.652  1.00  0.00     0.134 A 
ATOM      7  C   UNL     1      28.637 -22.223 -37.519  1.00  0.00     0.093 A 
ATOM      8  C   UNL     1      29.139 -21.015 -37.038  1.00  0.00     0.123 A 
ATOM      9  C   UNL     1      29.373 -20.856 -35.672  1.00  0.00     0.094 A 
ATOM     10  C   UNL     1      29.135 -21.910 -34.787  1.00  0.00     0.146 A 
ATOM     11  O   UNL     1      29.392 -21.724 -33.498  1.00  0.00    -0.452 OA
ENDROOT
BRANCH   1  12
ATOM     12  C   UNL     1      29.555 -22.328 -31.170  1.00  0.00     0.025 A 
ATOM     13  C   UNL     1      28.729 -21.479 -30.413  1.00  0.00     0.016 A 
ATOM     14  C   UNL     1      29.039 -21.193 -29.082  1.00  0.00     0.051 A 
ATOM     15  C   UNL     1      30.168 -21.759 -28.482  1.00  0.00     0.157 A 
ATOM     16  C   UNL     1      30.676 -22.912 -30.559  1.00  0.00     0.062 A 
ATOM     17  C   UNL     1      30.991 -22.625 -29.222  1.00  0.00     0.158 A 
BRANCH  15  18
ATOM     18  O   UNL     1      30.454 -21.454 -27.151  1.00  0.00    -0.504 OA
ATOM     19  H   UNL     1      30.130 -20.602 -26.712  1.00  0.00     0.293 HD
ENDBRANCH  15  18
BRANCH  17  20
ATOM     20  O   UNL     1      32.113 -23.199 -28.628  1.00  0.00    -0.504 OA
ATOM     21  H   UNL     1      33.043 -22.827 -28.782  1.00  0.00     0.293 HD
ENDBRANCH  17  20
ENDBRANCH   1  12
BRANCH   2  22
ATOM     22  O   UNL     1      28.553 -24.922 -31.983  1.00  0.00    -0.502 OA
ATOM     23  H   UNL     1      29.173 -25.050 -31.192  1.00  0.00     0.293 HD
ENDBRANCH   2  22
BRANCH   6  24
ATOM     24  O   UNL     1      27.766 -24.417 -37.227  1.00  0.00    -0.507 OA
ATOM     25  H   UNL     1      27.626 -25.297 -36.757  1.00  0.00     0.293 HD
ENDBRANCH   6  24
BRANCH   8  26
ATOM     26  O   UNL     1      29.394 -19.973 -37.928  1.00  0.00    -0.508 OA
ATOM     27  H   UNL     1      30.011 -20.094 -38.722  1.00  0.00     0.293 HD
ENDBRANCH   8  26
TORSDOF 6
ENDMDL
MODEL 4
REMARK VINA RESULT:    -6.241      1.518      6.966
REMARK INTER + INTRA:          -7.790
REMARK INTER:                  -7.486
REMARK INTRA:                  -0.303
REMARK UNBOUND:                -0.272
REMARK SMILES O=c1c(O)c(-c2ccc(O)c(O)c2)oc2cc(O)cc(O)c12
REMARK SMILES IDX 5 1 3 2 2 3 1 4 22 5 20 6 19 7 17 8 16 9 15 10 14 11 6 12
REMARK SMILES IDX 7 13 8 14 9 15 13 16 11 17 10 18 12 20 4 22 21 24 18 26
REMARK H PARENT 10 19 12 21 4 23 21 25 18 27
REMARK Flexibility Score: inf
ROOT
ATOM      1  C   UNL     1      29.378 -22.253 -32.642  1.00  0.00     0.180 A 
ATOM      2  C   UNL     1      30.168 -21.587 -33.595  1.00  0.00     0.208 A 
ATOM      3  C   UNL     1      29.724 -21.528 -34.925  1.00  0.00     0.238 A 
ATOM      4  O   UNL     1      30.400 -20.867 -35.757  1.00  0.00    -0.285 OA
ATOM      5  C   UNL     1      28.526 -22.181 -35.299  1.00  0.00     0.111 A 
ATOM      6  C   UNL     1      28.004 -22.225 -36.628  1.00  0.00     0.134 A 
ATOM      7  C   UNL     1      26.754 -22.812 -36.860  1.00  0.00     0.093 A 
ATOM      8  C   UNL     1      26.036 -23.412 -35.826  1.00  0.00     0.123 A 
ATOM      9  C   UNL     1      26.562 -23.425 -34.534  1.00  0.00     0.094 A 
ATOM     10  C   UNL     1      27.788 -22.814 -34.264  1.00  0.00     0.146 A 
ATOM     11  O   UNL     1      28.242 -22.830 -33.016  1.00  0.00    -0.452 OA
ENDROOT
BRANCH   1  12
ATOM     12  C   UNL     1      29.771 -22.346 -31.217  1.00  0.00     0.025 A 
ATOM     13  C   UNL     1      30.696 -23.307 -30.773  1.00  0.00     0.016 A 
ATOM     14  C   UNL     1      31.070 -23.359 -29.428  1.00  0.00     0.051 A 
ATOM     15  C   UNL     1      30.539 -22.448 -28.511  1.00  0.00     0.157 A 
ATOM     16  C   UNL     1      29.256 -21.418 -30.298  1.00  0.00     0.062 A 
ATOM     17  C   UNL     1      29.629 -21.470 -28.946  1.00  0.00     0.158 A 
BRANCH  15  18
ATOM     18  O   UNL     1      30.929 -22.526 -27.174  1.00  0.00    -0.504 OA
ATOM     19  H   UNL     1      31.584 -21.871 -26.765  1.00  0.00     0.293 HD
ENDBRANCH  15  18
BRANCH  17  20
ATOM     20  O   UNL     1      29.102 -20.553 -28.038  1.00  0.00    -0.504 OA
ATOM     21  H   UNL     1      28.592 -20.854 -27.216  1.00  0.00     0.293 HD
ENDBRANCH  17  20
ENDBRANCH   1  12
BRANCH   2  22
ATOM     22  O   UNL     1      31.386 -21.014 -33.221  1.00  0.00    -0.502 OA
ATOM     23  H   UNL     1      31.442 -20.147 -32.699  1.00  0.00     0.293 HD
ENDBRANCH   2  22
BRANCH   6  24
ATOM     24  O   UNL     1      28.678 -21.734 -37.750  1.00  0.00    -0.507 OA
ATOM     25  H   UNL     1      28.457 -20.875 -38.227  1.00  0.00     0.293 HD
ENDBRANCH   6  24
BRANCH   8  26
ATOM     26  O   UNL     1      24.803 -24.002 -36.097  1.00  0.00    -0.508 OA
ATOM     27  H   UNL     1      24.454 -24.090 -37.044  1.00  0.00     0.293 HD
ENDBRANCH   8  26
TORSDOF 6
ENDMDL
MODEL 5
REMARK VINA RESULT:    -6.056      3.791      6.192
REMARK INTER + INTRA:          -7.568
REMARK INTER:                  -7.354
REMARK INTRA:                  -0.213
REMARK UNBOUND:                -0.272
REMARK SMILES O=c1c(O)c(-c2ccc(O)c(O)c2)oc2cc(O)cc(O)c12
REMARK SMILES IDX 5 1 3 2 2 3 1 4 22 5 20 6 19 7 17 8 16 9 15 10 14 11 6 12
REMARK SMILES IDX 7 13 8 14 9 15 13 16 11 17 10 18 12 20 4 22 21 24 18 26
REMARK H PARENT 10 19 12 21 4 23 21 25 18 27
REMARK Flexibility Score: inf
ROOT
ATOM      1  C   UNL     1      26.729 -24.704 -35.727  1.00  0.00     0.180 A 
ATOM      2  C   UNL     1      27.308 -24.729 -34.447  1.00  0.00     0.208 A 
ATOM      3  C   UNL     1      28.251 -23.747 -34.107  1.00  0.00     0.238 A 
ATOM      4  O   UNL     1      28.709 -23.731 -32.934  1.00  0.00    -0.285 OA
ATOM      5  C   UNL     1      28.647 -22.785 -35.067  1.00  0.00     0.111 A 
ATOM      6  C   UNL     1      29.629 -21.771 -34.847  1.00  0.00     0.134 A 
ATOM      7  C   UNL     1      29.861 -20.809 -35.837  1.00  0.00     0.093 A 
ATOM      8  C   UNL     1      29.198 -20.860 -37.061  1.00  0.00     0.123 A 
ATOM      9  C   UNL     1      28.278 -21.878 -37.310  1.00  0.00     0.094 A 
ATOM     10  C   UNL     1      27.995 -22.830 -36.328  1.00  0.00     0.146 A 
ATOM     11  O   UNL     1      27.096 -23.770 -36.597  1.00  0.00    -0.452 OA
ENDROOT
BRANCH   1  12
ATOM     12  C   UNL     1      25.716 -25.696 -36.155  1.00  0.00     0.025 A 
ATOM     13  C   UNL     1      26.053 -27.045 -36.362  1.00  0.00     0.016 A 
ATOM     14  C   UNL     1      25.076 -27.967 -36.742  1.00  0.00     0.051 A 
ATOM     15  C   UNL     1      23.748 -27.563 -36.908  1.00  0.00     0.157 A 
ATOM     16  C   UNL     1      24.378 -25.296 -36.302  1.00  0.00     0.062 A 
ATOM     17  C   UNL     1      23.395 -26.221 -36.685  1.00  0.00     0.158 A 
BRANCH  15  18
ATOM     18  O   UNL     1      22.794 -28.505 -37.290  1.00  0.00    -0.504 OA
ATOM     19  H   UNL     1      22.791 -29.448 -36.922  1.00  0.00     0.293 HD
ENDBRANCH  15  18
BRANCH  17  20
ATOM     20  O   UNL     1      22.071 -25.812 -36.841  1.00  0.00    -0.504 OA
ATOM     21  H   UNL     1      21.642 -25.744 -37.756  1.00  0.00     0.293 HD
ENDBRANCH  17  20
ENDBRANCH   1  12
BRANCH   2  22
ATOM     22  O   UNL     1      26.960 -25.732 -33.538  1.00  0.00    -0.502 OA
ATOM     23  H   UNL     1      26.265 -25.593 -32.814  1.00  0.00     0.293 HD
ENDBRANCH   2  22
BRANCH   6  24
ATOM     24  O   UNL     1      30.414 -21.680 -33.693  1.00  0.00    -0.507 OA
ATOM     25  H   UNL     1      30.849 -22.460 -33.227  1.00  0.00     0.293 HD
ENDBRANCH   6  24
BRANCH   8  26
ATOM     26  O   UNL     1      29.468 -19.895 -38.030  1.00  0.00    -0.508 OA
ATOM     27  H   UNL     1      28.905 -19.057 -38.115  1.00  0.00     0.293 HD
ENDBRANCH   8  26
TORSDOF 6
ENDMDL
MODEL 6
REMARK VINA RESULT:    -6.005      1.518      2.113
REMARK INTER + INTRA:          -7.506
REMARK INTER:                  -7.343
REMARK INTRA:                  -0.163
REMARK UNBOUND:                -0.272
REMARK SMILES O=c1c(O)c(-c2ccc(O)c(O)c2)oc2cc(O)cc(O)c12
REMARK SMILES IDX 5 1 3 2 2 3 1 4 22 5 20 6 19 7 17 8 16 9 15 10 14 11 6 12
REMARK SMILES IDX 7 13 8 14 9 15 13 16 11 17 10 18 12 20 4 22 21 24 18 26
REMARK H PARENT 10 19 12 21 4 23 21 25 18 27
REMARK Flexibility Score: inf
ROOT
ATOM      1  C   UNL     1      29.010 -22.504 -32.718  1.00  0.00     0.180 A 
ATOM      2  C   UNL     1      28.882 -23.876 -32.441  1.00  0.00     0.208 A 
ATOM      3  C   UNL     1      28.846 -24.300 -31.103  1.00  0.00     0.238 A 
ATOM      4  O   UNL     1      28.656 -25.522 -30.863  1.00  0.00    -0.285 OA
ATOM      5  C   UNL     1      28.996 -23.356 -30.059  1.00  0.00     0.111 A 
ATOM      6  C   UNL     1      29.021 -23.679 -28.668  1.00  0.00     0.134 A 
ATOM      7  C   UNL     1      29.068 -22.649 -27.721  1.00  0.00     0.093 A 
ATOM      8  C   UNL     1      29.155 -21.314 -28.111  1.00  0.00     0.123 A 
ATOM      9  C   UNL     1      29.189 -20.989 -29.468  1.00  0.00     0.094 A 
ATOM     10  C   UNL     1      29.104 -21.991 -30.437  1.00  0.00     0.146 A 
ATOM     11  O   UNL     1      29.116 -21.638 -31.716  1.00  0.00    -0.452 OA
ENDROOT
BRANCH   1  12
ATOM     12  C   UNL     1      29.040 -21.978 -34.101  1.00  0.00     0.025 A 
ATOM     13  C   UNL     1      30.200 -21.393 -34.638  1.00  0.00     0.016 A 
ATOM     14  C   UNL     1      30.211 -20.926 -35.955  1.00  0.00     0.051 A 
ATOM     15  C   UNL     1      29.074 -21.046 -36.757  1.00  0.00     0.157 A 
ATOM     16  C   UNL     1      27.905 -22.116 -34.916  1.00  0.00     0.062 A 
ATOM     17  C   UNL     1      27.914 -21.646 -36.238  1.00  0.00     0.158 A 
BRANCH  15  18
ATOM     18  O   UNL     1      29.114 -20.568 -38.067  1.00  0.00    -0.504 OA
ATOM     19  H   UNL     1      29.151 -21.189 -38.866  1.00  0.00     0.293 HD
ENDBRANCH  15  18
BRANCH  17  20
ATOM     20  O   UNL     1      26.778 -21.776 -37.036  1.00  0.00    -0.504 OA
ATOM     21  H   UNL     1      26.836 -22.112 -37.990  1.00  0.00     0.293 HD
ENDBRANCH  17  20
ENDBRANCH   1  12
BRANCH   2  22
ATOM     22  O   UNL     1      28.812 -24.800 -33.486  1.00  0.00    -0.502 OA
ATOM     23  H   UNL     1      29.475 -25.560 -33.586  1.00  0.00     0.293 HD
ENDBRANCH   2  22
BRANCH   6  24
ATOM     24  O   UNL     1      29.028 -24.985 -28.167  1.00  0.00    -0.507 OA
ATOM     25  H   UNL     1      29.832 -25.592 -28.145  1.00  0.00     0.293 HD
ENDBRANCH   6  24
BRANCH   8  26
ATOM     26  O   UNL     1      29.218 -20.316 -27.141  1.00  0.00    -0.508 OA
ATOM     27  H   UNL     1      29.036 -20.514 -26.164  1.00  0.00     0.293 HD
ENDBRANCH   8  26
TORSDOF 6
ENDMDL
MODEL 7
REMARK VINA RESULT:    -6.000      2.299      3.495
REMARK INTER + INTRA:          -7.500
REMARK INTER:                  -7.343
REMARK INTRA:                  -0.157
REMARK UNBOUND:                -0.272
REMARK SMILES O=c1c(O)c(-c2ccc(O)c(O)c2)oc2cc(O)cc(O)c12
REMARK SMILES IDX 5 1 3 2 2 3 1 4 22 5 20 6 19 7 17 8 16 9 15 10 14 11 6 12
REMARK SMILES IDX 7 13 8 14 9 15 13 16 11 17 10 18 12 20 4 22 21 24 18 26
REMARK H PARENT 10 19 12 21 4 23 21 25 18 27
REMARK Flexibility Score: inf
ROOT
ATOM      1  C   UNL     1      28.420 -22.366 -31.625  1.00  0.00     0.180 A 
ATOM      2  C   UNL     1      28.812 -21.352 -30.735  1.00  0.00     0.208 A 
ATOM      3  C   UNL     1      28.902 -21.645 -29.366  1.00  0.00     0.238 A 
ATOM      4  O   UNL     1      29.325 -20.752 -28.584  1.00  0.00    -0.285 OA
ATOM      5  C   UNL     1      28.547 -22.932 -28.894  1.00  0.00     0.111 A 
ATOM      6  C   UNL     1      28.557 -23.326 -27.521  1.00  0.00     0.134 A 
ATOM      7  C   UNL     1      28.287 -24.658 -27.184  1.00  0.00     0.093 A 
ATOM      8  C   UNL     1      27.946 -25.594 -28.159  1.00  0.00     0.123 A 
ATOM      9  C   UNL     1      27.877 -25.207 -29.498  1.00  0.00     0.094 A 
ATOM     10  C   UNL     1      28.179 -23.895 -29.870  1.00  0.00     0.146 A 
ATOM     11  O   UNL     1      28.123 -23.574 -31.157  1.00  0.00    -0.452 OA
ENDROOT
BRANCH   1  12
ATOM     12  C   UNL     1      28.315 -22.139 -33.085  1.00  0.00     0.025 A 
ATOM     13  C   UNL     1      29.436 -21.778 -33.852  1.00  0.00     0.016 A 
ATOM     14  C   UNL     1      29.318 -21.592 -35.232  1.00  0.00     0.051 A 
ATOM     15  C   UNL     1      28.087 -21.776 -35.867  1.00  0.00     0.157 A 
ATOM     16  C   UNL     1      27.084 -22.344 -33.728  1.00  0.00     0.062 A 
ATOM     17  C   UNL     1      26.963 -22.157 -35.113  1.00  0.00     0.158 A 
BRANCH  15  18
ATOM     18  O   UNL     1      27.998 -21.582 -37.245  1.00  0.00    -0.504 OA
ATOM     19  H   UNL     1      27.225 -21.087 -37.670  1.00  0.00     0.293 HD
ENDBRANCH  15  18
BRANCH  17  20
ATOM     20  O   UNL     1      25.734 -22.350 -35.742  1.00  0.00    -0.504 OA
ATOM     21  H   UNL     1      25.062 -23.025 -35.396  1.00  0.00     0.293 HD
ENDBRANCH  17  20
ENDBRANCH   1  12
BRANCH   2  22
ATOM     22  O   UNL     1      29.085 -20.066 -31.211  1.00  0.00    -0.502 OA
ATOM     23  H   UNL     1      29.933 -19.566 -30.972  1.00  0.00     0.293 HD
ENDBRANCH   2  22
BRANCH   6  24
ATOM     24  O   UNL     1      28.799 -22.452 -26.457  1.00  0.00    -0.507 OA
ATOM     25  H   UNL     1      28.248 -21.635 -26.243  1.00  0.00     0.293 HD
ENDBRANCH   6  24
BRANCH   8  26
ATOM     26  O   UNL     1      27.667 -26.907 -27.785  1.00  0.00    -0.508 OA
ATOM     27  H   UNL     1      28.361 -27.487 -27.329  1.00  0.00     0.293 HD
ENDBRANCH   8  26
TORSDOF 6
ENDMDL
MODEL 8
REMARK VINA RESULT:    -5.913      1.768      7.090
REMARK INTER + INTRA:          -7.395
REMARK INTER:                  -7.073
REMARK INTRA:                  -0.322
REMARK UNBOUND:                -0.272
REMARK SMILES O=c1c(O)c(-c2ccc(O)c(O)c2)oc2cc(O)cc(O)c12
REMARK SMILES IDX 5 1 3 2 2 3 1 4 22 5 20 6 19 7 17 8 16 9 15 10 14 11 6 12
REMARK SMILES IDX 7 13 8 14 9 15 13 16 11 17 10 18 12 20 4 22 21 24 18 26
REMARK H PARENT 10 19 12 21 4 23 21 25 18 27
REMARK Flexibility Score: inf
ROOT
ATOM      1  C   UNL     1      28.580 -22.782 -33.169  1.00  0.00     0.180 A 
ATOM      2  C   UNL     1      28.939 -22.016 -34.291  1.00  0.00     0.208 A 
ATOM      3  C   UNL     1      28.205 -22.162 -35.478  1.00  0.00     0.238 A 
ATOM      4  O   UNL     1      28.486 -21.419 -36.456  1.00  0.00    -0.285 OA
ATOM      5  C   UNL     1      27.157 -23.111 -35.548  1.00  0.00     0.111 A 
ATOM      6  C   UNL     1      26.375 -23.375 -36.714  1.00  0.00     0.134 A 
ATOM      7  C   UNL     1      25.294 -24.261 -36.634  1.00  0.00     0.093 A 
ATOM      8  C   UNL     1      25.004 -24.940 -35.451  1.00  0.00     0.123 A 
ATOM      9  C   UNL     1      25.795 -24.733 -34.321  1.00  0.00     0.094 A 
ATOM     10  C   UNL     1      26.857 -23.826 -34.358  1.00  0.00     0.146 A 
ATOM     11  O   UNL     1      27.571 -23.642 -33.254  1.00  0.00    -0.452 OA
ENDROOT
BRANCH   1  12
ATOM     12  C   UNL     1      29.296 -22.674 -31.877  1.00  0.00     0.025 A 
ATOM     13  C   UNL     1      30.448 -23.435 -31.613  1.00  0.00     0.016 A 
ATOM     14  C   UNL     1      31.121 -23.298 -30.396  1.00  0.00     0.051 A 
ATOM     15  C   UNL     1      30.665 -22.393 -29.434  1.00  0.00     0.157 A 
ATOM     16  C   UNL     1      28.852 -21.751 -30.917  1.00  0.00     0.062 A 
ATOM     17  C   UNL     1      29.526 -21.613 -29.694  1.00  0.00     0.158 A 
BRANCH  15  18
ATOM     18  O   UNL     1      31.356 -22.280 -28.227  1.00  0.00    -0.504 OA
ATOM     19  H   UNL     1      32.326 -21.995 -28.187  1.00  0.00     0.293 HD
ENDBRANCH  15  18
BRANCH  17  20
ATOM     20  O   UNL     1      29.069 -20.703 -28.742  1.00  0.00    -0.504 OA
ATOM     21  H   UNL     1      29.012 -19.711 -28.941  1.00  0.00     0.293 HD
ENDBRANCH  17  20
ENDBRANCH   1  12
BRANCH   2  22
ATOM     22  O   UNL     1      30.026 -21.141 -34.225  1.00  0.00    -0.502 OA
ATOM     23  H   UNL     1      30.094 -20.408 -33.528  1.00  0.00     0.293 HD
ENDBRANCH   2  22
BRANCH   6  24
ATOM     24  O   UNL     1      26.631 -22.818 -37.971  1.00  0.00    -0.507 OA
ATOM     25  H   UNL     1      26.151 -23.066 -38.822  1.00  0.00     0.293 HD
ENDBRANCH   6  24
BRANCH   8  26
ATOM     26  O   UNL     1      23.930 -25.828 -35.414  1.00  0.00    -0.508 OA
ATOM     27  H   UNL     1      23.216 -25.825 -36.131  1.00  0.00     0.293 HD
ENDBRANCH   8  26
TORSDOF 6
ENDMDL
MODEL 9
REMARK VINA RESULT:    -5.889      1.861      7.116
REMARK INTER + INTRA:          -7.366
REMARK INTER:                  -7.081
REMARK INTRA:                  -0.285
REMARK UNBOUND:                -0.272
REMARK SMILES O=c1c(O)c(-c2ccc(O)c(O)c2)oc2cc(O)cc(O)c12
REMARK SMILES IDX 5 1 3 2 2 3 1 4 22 5 20 6 19 7 17 8 16 9 15 10 14 11 6 12
REMARK SMILES IDX 7 13 8 14 9 15 13 16 11 17 10 18 12 20 4 22 21 24 18 26
REMARK H PARENT 10 19 12 21 4 23 21 25 18 27
REMARK Flexibility Score: inf
ROOT
ATOM      1  C   UNL     1      28.877 -22.275 -30.570  1.00  0.00     0.180 A 
ATOM      2  C   UNL     1      27.738 -23.099 -30.605  1.00  0.00     0.208 A 
ATOM      3  C   UNL     1      27.110 -23.341 -31.836  1.00  0.00     0.238 A 
ATOM      4  O   UNL     1      26.136 -24.139 -31.870  1.00  0.00    -0.285 OA
ATOM      5  C   UNL     1      27.592 -22.714 -33.010  1.00  0.00     0.111 A 
ATOM      6  C   UNL     1      27.006 -22.852 -34.305  1.00  0.00     0.134 A 
ATOM      7  C   UNL     1      27.633 -22.268 -35.412  1.00  0.00     0.093 A 
ATOM      8  C   UNL     1      28.787 -21.500 -35.266  1.00  0.00     0.123 A 
ATOM      9  C   UNL     1      29.337 -21.311 -33.998  1.00  0.00     0.094 A 
ATOM     10  C   UNL     1      28.757 -21.913 -32.879  1.00  0.00     0.146 A 
ATOM     11  O   UNL     1      29.326 -21.726 -31.693  1.00  0.00    -0.452 OA
ENDROOT
BRANCH   1  12
ATOM     12  C   UNL     1      29.603 -21.984 -29.313  1.00  0.00     0.025 A 
ATOM     13  C   UNL     1      29.116 -21.047 -28.386  1.00  0.00     0.016 A 
ATOM     14  C   UNL     1      29.806 -20.807 -27.195  1.00  0.00     0.051 A 
ATOM     15  C   UNL     1      30.981 -21.506 -26.906  1.00  0.00     0.157 A 
ATOM     16  C   UNL     1      30.772 -22.700 -29.010  1.00  0.00     0.062 A 
ATOM     17  C   UNL     1      31.467 -22.460 -27.816  1.00  0.00     0.158 A 
BRANCH  15  18
ATOM     18  O   UNL     1      31.650 -21.244 -25.710  1.00  0.00    -0.504 OA
ATOM     19  H   UNL     1      32.613 -21.517 -25.561  1.00  0.00     0.293 HD
ENDBRANCH  15  18
BRANCH  17  20
ATOM     20  O   UNL     1      32.634 -23.167 -27.530  1.00  0.00    -0.504 OA
ATOM     21  H   UNL     1      33.469 -22.699 -27.196  1.00  0.00     0.293 HD
ENDBRANCH  17  20
ENDBRANCH   1  12
BRANCH   2  22
ATOM     22  O   UNL     1      27.232 -23.647 -29.423  1.00  0.00    -0.502 OA
ATOM     23  H   UNL     1      27.634 -24.471 -28.990  1.00  0.00     0.293 HD
ENDBRANCH   2  22
BRANCH   6  24
ATOM     24  O   UNL     1      25.805 -23.524 -34.554  1.00  0.00    -0.507 OA
ATOM     25  H   UNL     1      25.707 -24.333 -35.147  1.00  0.00     0.293 HD
ENDBRANCH   6  24
BRANCH   8  26
ATOM     26  O   UNL     1      29.374 -20.919 -36.388  1.00  0.00    -0.508 OA
ATOM     27  H   UNL     1      28.947 -20.986 -37.304  1.00  0.00     0.293 HD
ENDBRANCH   8  26
TORSDOF 6
ENDMDL
