MODEL 1
REMARK VINA RESULT:    -0.292      0.000      0.000
REMARK INTER + INTRA:          -0.226
REMARK INTER:                  -0.634
REMARK INTRA:                   0.408
REMARK UNBOUND:                 0.408
REMARK SMILES CCCCCCCCCCCCCCCCCCCCCC(=O)[O-]
REMARK SMILES IDX 12 1 11 2 10 3 9 4 8 5 7 6 6 7 5 8 4 9 3 10 2 11 1 12 13 13
REMARK SMILES IDX 14 14 15 15 16 16 17 17 18 18 19 19 20 20 21 21 22 22 23 23
REMARK SMILES IDX 24 24
REMARK H PARENT
REMARK Flexibility Score: inf
ROOT
ATOM      1  C   UNL     1      -3.158  -7.905   4.796  1.00  0.00     0.000 C 
ENDROOT
BRANCH   1   2
ATOM      2  C   UNL     1      -2.990  -6.934   3.608  1.00  0.00     0.000 C 
BRANCH   2   3
ATOM      3  C   UNL     1      -1.799  -5.977   3.791  1.00  0.00     0.000 C 
BRANCH   3   4
ATOM      4  C   UNL     1      -1.057  -6.189   5.125  1.00  0.00    -0.000 C 
BRANCH   4   5
ATOM      5  C   UNL     1       0.268  -6.966   5.019  1.00  0.00    -0.000 C 
BRANCH   5   6
ATOM      6  C   UNL     1       0.072  -8.435   4.606  1.00  0.00    -0.000 C 
BRANCH   6   7
ATOM      7  C   UNL     1       1.212  -9.341   5.098  1.00  0.00    -0.000 C 
BRANCH   7   8
ATOM      8  C   UNL     1       0.913 -10.834   4.898  1.00  0.00    -0.000 C 
BRANCH   8   9
ATOM      9  C   UNL     1      -0.572 -11.057   4.581  1.00  0.00    -0.000 C 
BRANCH   9  10
ATOM     10  C   UNL     1      -0.842 -10.914   3.076  1.00  0.00    -0.000 C 
BRANCH  10  11
ATOM     11  C   UNL     1       0.368 -10.356   2.310  1.00  0.00    -0.003 C 
ATOM     12  C   UNL     1       0.591 -11.055   0.969  1.00  0.00     0.004 C 
ENDBRANCH  10  11
ENDBRANCH   9  10
ENDBRANCH   8   9
ENDBRANCH   7   8
ENDBRANCH   6   7
ENDBRANCH   5   6
ENDBRANCH   4   5
ENDBRANCH   3   4
ENDBRANCH   2   3
ENDBRANCH   1   2
BRANCH   1  13
ATOM     13  C   UNL     1      -3.414  -9.366   4.376  1.00  0.00     0.000 C 
BRANCH  13  14
ATOM     14  C   UNL     1      -4.561 -10.070   5.125  1.00  0.00     0.000 C 
BRANCH  14  15
ATOM     15  C   UNL     1      -5.873 -10.197   4.330  1.00  0.00     0.000 C 
BRANCH  15  16
ATOM     16  C   UNL     1      -6.867  -9.062   4.635  1.00  0.00     0.000 C 
BRANCH  16  17
ATOM     17  C   UNL     1      -6.328  -7.682   4.228  1.00  0.00     0.000 C 
BRANCH  17  18
ATOM     18  C   UNL     1      -7.022  -7.126   2.972  1.00  0.00     0.000 C 
BRANCH  18  19
ATOM     19  C   UNL     1      -7.030  -8.126   1.802  1.00  0.00     0.000 C 
BRANCH  19  20
ATOM     20  C   UNL     1      -5.676  -8.801   1.518  1.00  0.00     0.006 C 
BRANCH  20  21
ATOM     21  C   UNL     1      -5.458  -9.097   0.028  1.00  0.00     0.053 C 
BRANCH  21  22
ATOM     22  C   UNL     1      -6.521 -10.016  -0.483  1.00  0.00     0.041 C 
ATOM     23  O   UNL     1      -6.962  -9.887  -1.655  1.00  0.00    -0.550 OA
ATOM     24  O   UNL     1      -6.994 -11.047   0.322  1.00  0.00    -0.550 OA
ENDBRANCH  21  22
ENDBRANCH  20  21
ENDBRANCH  19  20
ENDBRANCH  18  19
ENDBRANCH  17  18
ENDBRANCH  16  17
ENDBRANCH  15  16
ENDBRANCH  14  15
ENDBRANCH  13  14
ENDBRANCH   1  13
TORSDOF 20
ENDMDL
MODEL 2
REMARK VINA RESULT:    -0.045      2.497      3.626
REMARK INTER + INTRA:           0.311
REMARK INTER:                   2.079
REMARK INTRA:                  -1.768
REMARK UNBOUND:                 0.408
REMARK SMILES CCCCCCCCCCCCCCCCCCCCCC(=O)[O-]
REMARK SMILES IDX 12 1 11 2 10 3 9 4 8 5 7 6 6 7 5 8 4 9 3 10 2 11 1 12 13 13
REMARK SMILES IDX 14 14 15 15 16 16 17 17 18 18 19 19 20 20 21 21 22 22 23 23
REMARK SMILES IDX 24 24
REMARK H PARENT
REMARK Flexibility Score: inf
ROOT
ATOM      1  C   UNL     1      -2.079  -7.484   4.646  1.00  0.00     0.000 C 
ENDROOT
BRANCH   1   2
ATOM      2  C   UNL     1      -0.727  -6.913   5.125  1.00  0.00     0.000 C 
BRANCH   2   3
ATOM      3  C   UNL     1      -0.164  -5.847   4.169  1.00  0.00     0.000 C 
BRANCH   3   4
ATOM      4  C   UNL     1       1.050  -6.344   3.361  1.00  0.00    -0.000 C 
BRANCH   4   5
ATOM      5  C   UNL     1       0.974  -7.814   2.906  1.00  0.00    -0.000 C 
BRANCH   5   6
ATOM      6  C   UNL     1       0.035  -8.024   1.706  1.00  0.00    -0.000 C 
BRANCH   6   7
ATOM      7  C   UNL     1      -0.209  -9.512   1.405  1.00  0.00    -0.000 C 
BRANCH   7   8
ATOM      8  C   UNL     1       1.094 -10.301   1.212  1.00  0.00    -0.000 C 
BRANCH   8   9
ATOM      9  C   UNL     1       1.426 -11.125   2.463  1.00  0.00    -0.000 C 
BRANCH   9  10
ATOM     10  C   UNL     1       0.449 -10.809   3.606  1.00  0.00    -0.000 C 
BRANCH  10  11
ATOM     11  C   UNL     1       1.147 -10.731   4.973  1.00  0.00    -0.003 C 
ATOM     12  C   UNL     1       2.627 -11.109   4.904  1.00  0.00     0.004 C 
ENDBRANCH  10  11
ENDBRANCH   9  10
ENDBRANCH   8   9
ENDBRANCH   7   8
ENDBRANCH   6   7
ENDBRANCH   5   6
ENDBRANCH   4   5
ENDBRANCH   3   4
ENDBRANCH   2   3
ENDBRANCH   1   2
BRANCH   1  13
ATOM     13  C   UNL     1      -2.013  -8.962   4.211  1.00  0.00     0.000 C 
BRANCH  13  14
ATOM     14  C   UNL     1      -3.044  -9.888   4.883  1.00  0.00     0.000 C 
BRANCH  14  15
ATOM     15  C   UNL     1      -3.832 -10.791   3.917  1.00  0.00     0.000 C 
BRANCH  15  16
ATOM     16  C   UNL     1      -3.510 -10.508   2.439  1.00  0.00     0.000 C 
BRANCH  16  17
ATOM     17  C   UNL     1      -4.729 -10.703   1.524  1.00  0.00     0.000 C 
BRANCH  17  18
ATOM     18  C   UNL     1      -5.532  -9.405   1.328  1.00  0.00     0.000 C 
BRANCH  18  19
ATOM     19  C   UNL     1      -6.659  -9.239   2.362  1.00  0.00     0.000 C 
BRANCH  19  20
ATOM     20  C   UNL     1      -6.358  -8.238   3.493  1.00  0.00     0.006 C 
BRANCH  20  21
ATOM     21  C   UNL     1      -5.558  -7.019   3.013  1.00  0.00     0.053 C 
BRANCH  21  22
ATOM     22  C   UNL     1      -5.971  -5.795   3.767  1.00  0.00     0.041 C 
ATOM     23  O   UNL     1      -5.433  -4.685   3.518  1.00  0.00    -0.550 OA
ATOM     24  O   UNL     1      -6.985  -5.872   4.716  1.00  0.00    -0.550 OA
ENDBRANCH  21  22
ENDBRANCH  20  21
ENDBRANCH  19  20
ENDBRANCH  18  19
ENDBRANCH  17  18
ENDBRANCH  16  17
ENDBRANCH  15  16
ENDBRANCH  14  15
ENDBRANCH  13  14
ENDBRANCH   1  13
TORSDOF 20
ENDMDL
MODEL 3
REMARK VINA RESULT:     0.736      1.220      2.024
REMARK INTER + INTRA:           2.004
REMARK INTER:                   0.787
REMARK INTRA:                   1.216
REMARK UNBOUND:                 0.408
REMARK SMILES CCCCCCCCCCCCCCCCCCCCCC(=O)[O-]
REMARK SMILES IDX 12 1 11 2 10 3 9 4 8 5 7 6 6 7 5 8 4 9 3 10 2 11 1 12 13 13
REMARK SMILES IDX 14 14 15 15 16 16 17 17 18 18 19 19 20 20 21 21 22 22 23 23
REMARK SMILES IDX 24 24
REMARK H PARENT
REMARK Flexibility Score: inf
ROOT
ATOM      1  C   UNL     1      -2.514  -8.585   5.125  1.00  0.00     0.000 C 
ENDROOT
BRANCH   1   2
ATOM      2  C   UNL     1      -2.689  -7.485   4.056  1.00  0.00     0.000 C 
BRANCH   2   3
ATOM      3  C   UNL     1      -1.611  -6.391   4.152  1.00  0.00     0.000 C 
BRANCH   3   4
ATOM      4  C   UNL     1      -0.198  -6.958   4.393  1.00  0.00    -0.000 C 
BRANCH   4   5
ATOM      5  C   UNL     1       0.654  -7.151   3.125  1.00  0.00    -0.000 C 
BRANCH   5   6
ATOM      6  C   UNL     1      -0.024  -8.049   2.076  1.00  0.00    -0.000 C 
BRANCH   6   7
ATOM      7  C   UNL     1       0.950  -9.062   1.453  1.00  0.00    -0.000 C 
BRANCH   7   8
ATOM      8  C   UNL     1       0.549 -10.518   1.729  1.00  0.00    -0.000 C 
BRANCH   8   9
ATOM      9  C   UNL     1      -0.340 -10.615   2.976  1.00  0.00    -0.000 C 
BRANCH   9  10
ATOM     10  C   UNL     1       0.374 -10.038   4.208  1.00  0.00    -0.000 C 
BRANCH  10  11
ATOM     11  C   UNL     1       1.092 -11.118   5.031  1.00  0.00    -0.003 C 
ATOM     12  C   UNL     1       2.608 -10.918   5.074  1.00  0.00     0.004 C 
ENDBRANCH  10  11
ENDBRANCH   9  10
ENDBRANCH   8   9
ENDBRANCH   7   8
ENDBRANCH   6   7
ENDBRANCH   5   6
ENDBRANCH   4   5
ENDBRANCH   3   4
ENDBRANCH   2   3
ENDBRANCH   1   2
BRANCH   1  13
ATOM     13  C   UNL     1      -2.494 -10.016   4.550  1.00  0.00     0.000 C 
BRANCH  13  14
ATOM     14  C   UNL     1      -3.598 -10.949   5.082  1.00  0.00     0.000 C 
BRANCH  14  15
ATOM     15  C   UNL     1      -4.891 -10.967   4.246  1.00  0.00     0.000 C 
BRANCH  15  16
ATOM     16  C   UNL     1      -5.977 -10.033   4.808  1.00  0.00     0.000 C 
BRANCH  16  17
ATOM     17  C   UNL     1      -5.488  -8.584   4.956  1.00  0.00     0.000 C 
BRANCH  17  18
ATOM     18  C   UNL     1      -6.487  -7.563   4.382  1.00  0.00     0.000 C 
BRANCH  18  19
ATOM     19  C   UNL     1      -6.560  -7.600   2.845  1.00  0.00     0.000 C 
BRANCH  19  20
ATOM     20  C   UNL     1      -5.233  -7.937   2.141  1.00  0.00     0.006 C 
BRANCH  20  21
ATOM     21  C   UNL     1      -5.428  -8.411   0.695  1.00  0.00     0.053 C 
BRANCH  21  22
ATOM     22  C   UNL     1      -5.927  -9.821   0.671  1.00  0.00     0.041 C 
ATOM     23  O   UNL     1      -7.122 -10.066   0.363  1.00  0.00    -0.550 OA
ATOM     24  O   UNL     1      -5.057 -10.871   0.945  1.00  0.00    -0.550 OA
ENDBRANCH  21  22
ENDBRANCH  20  21
ENDBRANCH  19  20
ENDBRANCH  18  19
ENDBRANCH  17  18
ENDBRANCH  16  17
ENDBRANCH  15  16
ENDBRANCH  14  15
ENDBRANCH  13  14
ENDBRANCH   1  13
TORSDOF 20
ENDMDL
MODEL 4
REMARK VINA RESULT:     0.744      2.480      6.617
REMARK INTER + INTRA:           2.022
REMARK INTER:                   2.647
REMARK INTRA:                  -0.625
REMARK UNBOUND:                 0.408
REMARK SMILES CCCCCCCCCCCCCCCCCCCCCC(=O)[O-]
REMARK SMILES IDX 12 1 11 2 10 3 9 4 8 5 7 6 6 7 5 8 4 9 3 10 2 11 1 12 13 13
REMARK SMILES IDX 14 14 15 15 16 16 17 17 18 18 19 19 20 20 21 21 22 22 23 23
REMARK SMILES IDX 24 24
REMARK H PARENT
REMARK Flexibility Score: inf
ROOT
ATOM      1  C   UNL     1      -1.537  -6.717   4.996  1.00  0.00     0.000 C 
ENDROOT
BRANCH   1   2
ATOM      2  C   UNL     1      -2.879  -6.593   4.243  1.00  0.00     0.000 C 
BRANCH   2   3
ATOM      3  C   UNL     1      -3.869  -7.711   4.612  1.00  0.00     0.000 C 
BRANCH   3   4
ATOM      4  C   UNL     1      -3.271  -9.122   4.451  1.00  0.00    -0.000 C 
BRANCH   4   5
ATOM      5  C   UNL     1      -4.104 -10.259   5.070  1.00  0.00    -0.000 C 
BRANCH   5   6
ATOM      6  C   UNL     1      -5.613 -10.112   4.806  1.00  0.00    -0.000 C 
BRANCH   6   7
ATOM      7  C   UNL     1      -6.052 -10.802   3.505  1.00  0.00    -0.000 C 
BRANCH   7   8
ATOM      8  C   UNL     1      -4.953 -10.801   2.432  1.00  0.00    -0.000 C 
BRANCH   8   9
ATOM      9  C   UNL     1      -5.550 -10.566   1.037  1.00  0.00    -0.000 C 
BRANCH   9  10
ATOM     10  C   UNL     1      -5.424  -9.091   0.625  1.00  0.00    -0.000 C 
BRANCH  10  11
ATOM     11  C   UNL     1      -6.255  -8.755  -0.622  1.00  0.00    -0.003 C 
ATOM     12  C   UNL     1      -7.125  -9.923  -1.086  1.00  0.00     0.004 C 
ENDBRANCH  10  11
ENDBRANCH   9  10
ENDBRANCH   8   9
ENDBRANCH   7   8
ENDBRANCH   6   7
ENDBRANCH   5   6
ENDBRANCH   4   5
ENDBRANCH   3   4
ENDBRANCH   2   3
ENDBRANCH   1   2
BRANCH   1  13
ATOM     13  C   UNL     1      -0.643  -5.465   4.888  1.00  0.00     0.000 C 
BRANCH  13  14
ATOM     14  C   UNL     1      -0.239  -5.073   3.454  1.00  0.00     0.000 C 
BRANCH  14  15
ATOM     15  C   UNL     1       1.225  -5.376   3.087  1.00  0.00     0.000 C 
BRANCH  15  16
ATOM     16  C   UNL     1       1.377  -6.656   2.246  1.00  0.00     0.000 C 
BRANCH  16  17
ATOM     17  C   UNL     1       0.482  -7.800   2.749  1.00  0.00     0.000 C 
BRANCH  17  18
ATOM     18  C   UNL     1       1.047  -8.479   4.009  1.00  0.00     0.000 C 
BRANCH  18  19
ATOM     19  C   UNL     1       0.047  -9.448   4.664  1.00  0.00     0.000 C 
BRANCH  19  20
ATOM     20  C   UNL     1       0.223 -10.925   4.268  1.00  0.00     0.006 C 
BRANCH  20  21
ATOM     21  C   UNL     1       1.148 -11.113   3.058  1.00  0.00     0.053 C 
BRANCH  21  22
ATOM     22  C   UNL     1       0.373 -10.989   1.785  1.00  0.00     0.041 C 
ATOM     23  O   UNL     1      -0.882 -11.088   1.794  1.00  0.00    -0.550 OA
ATOM     24  O   UNL     1       1.034 -10.719   0.591  1.00  0.00    -0.550 OA
ENDBRANCH  21  22
ENDBRANCH  20  21
ENDBRANCH  19  20
ENDBRANCH  18  19
ENDBRANCH  17  18
ENDBRANCH  16  17
ENDBRANCH  15  16
ENDBRANCH  14  15
ENDBRANCH  13  14
ENDBRANCH   1  13
TORSDOF 20
ENDMDL
MODEL 5
REMARK VINA RESULT:     1.730      3.252      4.351
REMARK INTER + INTRA:           4.160
REMARK INTER:                   6.109
REMARK INTRA:                  -1.948
REMARK UNBOUND:                 0.408
REMARK SMILES CCCCCCCCCCCCCCCCCCCCCC(=O)[O-]
REMARK SMILES IDX 12 1 11 2 10 3 9 4 8 5 7 6 6 7 5 8 4 9 3 10 2 11 1 12 13 13
REMARK SMILES IDX 14 14 15 15 16 16 17 17 18 18 19 19 20 20 21 21 22 22 23 23
REMARK SMILES IDX 24 24
REMARK H PARENT
REMARK Flexibility Score: inf
ROOT
ATOM      1  C   UNL     1      -2.122  -8.167   5.124  1.00  0.00     0.000 C 
ENDROOT
BRANCH   1   2
ATOM      2  C   UNL     1      -2.319  -6.935   4.216  1.00  0.00     0.000 C 
BRANCH   2   3
ATOM      3  C   UNL     1      -1.309  -5.813   4.515  1.00  0.00     0.000 C 
BRANCH   3   4
ATOM      4  C   UNL     1       0.154  -6.297   4.485  1.00  0.00    -0.000 C 
BRANCH   4   5
ATOM      5  C   UNL     1       0.872  -6.122   3.134  1.00  0.00    -0.000 C 
BRANCH   5   6
ATOM      6  C   UNL     1       0.583  -7.265   2.147  1.00  0.00    -0.000 C 
BRANCH   6   7
ATOM      7  C   UNL     1       0.998  -6.918   0.708  1.00  0.00    -0.000 C 
BRANCH   7   8
ATOM      8  C   UNL     1       0.563  -5.506   0.288  1.00  0.00    -0.000 C 
BRANCH   8   9
ATOM      9  C   UNL     1       0.104  -5.487  -1.176  1.00  0.00    -0.000 C 
BRANCH   9  10
ATOM     10  C   UNL     1      -0.161  -4.051  -1.652  1.00  0.00    -0.000 C 
BRANCH  10  11
ATOM     11  C   UNL     1       1.134  -3.258  -1.884  1.00  0.00    -0.003 C 
ATOM     12  C   UNL     1       0.931  -2.049  -2.798  1.00  0.00     0.004 C 
ENDBRANCH  10  11
ENDBRANCH   9  10
ENDBRANCH   8   9
ENDBRANCH   7   8
ENDBRANCH   6   7
ENDBRANCH   5   6
ENDBRANCH   4   5
ENDBRANCH   3   4
ENDBRANCH   2   3
ENDBRANCH   1   2
BRANCH   1  13
ATOM     13  C   UNL     1      -1.442  -9.358   4.421  1.00  0.00     0.000 C 
BRANCH  13  14
ATOM     14  C   UNL     1      -2.286 -10.645   4.352  1.00  0.00     0.000 C 
BRANCH  14  15
ATOM     15  C   UNL     1      -3.104 -10.817   3.060  1.00  0.00     0.000 C 
BRANCH  15  16
ATOM     16  C   UNL     1      -4.591 -11.106   3.329  1.00  0.00     0.000 C 
BRANCH  16  17
ATOM     17  C   UNL     1      -5.091 -10.456   4.628  1.00  0.00     0.000 C 
BRANCH  17  18
ATOM     18  C   UNL     1      -6.373  -9.631   4.419  1.00  0.00     0.000 C 
BRANCH  18  19
ATOM     19  C   UNL     1      -6.646  -9.318   2.937  1.00  0.00     0.000 C 
BRANCH  19  20
ATOM     20  C   UNL     1      -5.951  -8.052   2.404  1.00  0.00     0.006 C 
BRANCH  20  21
ATOM     21  C   UNL     1      -4.975  -8.345   1.257  1.00  0.00     0.053 C 
BRANCH  21  22
ATOM     22  C   UNL     1      -5.680  -9.043   0.138  1.00  0.00     0.041 C 
ATOM     23  O   UNL     1      -6.404  -8.392  -0.660  1.00  0.00    -0.550 OA
ATOM     24  O   UNL     1      -5.502 -10.409  -0.052  1.00  0.00    -0.550 OA
ENDBRANCH  21  22
ENDBRANCH  20  21
ENDBRANCH  19  20
ENDBRANCH  18  19
ENDBRANCH  17  18
ENDBRANCH  16  17
ENDBRANCH  15  16
ENDBRANCH  14  15
ENDBRANCH  13  14
ENDBRANCH   1  13
TORSDOF 20
ENDMDL
MODEL 6
REMARK VINA RESULT:     2.291      4.072      5.398
REMARK INTER + INTRA:           5.378
REMARK INTER:                   6.803
REMARK INTRA:                  -1.425
REMARK UNBOUND:                 0.408
REMARK SMILES CCCCCCCCCCCCCCCCCCCCCC(=O)[O-]
REMARK SMILES IDX 12 1 11 2 10 3 9 4 8 5 7 6 6 7 5 8 4 9 3 10 2 11 1 12 13 13
REMARK SMILES IDX 14 14 15 15 16 16 17 17 18 18 19 19 20 20 21 21 22 22 23 23
REMARK SMILES IDX 24 24
REMARK H PARENT
REMARK Flexibility Score: inf
ROOT
ATOM      1  C   UNL     1      -1.706  -7.210   4.748  1.00  0.00     0.000 C 
ENDROOT
BRANCH   1   2
ATOM      2  C   UNL     1      -0.305  -6.578   4.890  1.00  0.00     0.000 C 
BRANCH   2   3
ATOM      3  C   UNL     1      -0.291  -5.083   4.529  1.00  0.00     0.000 C 
BRANCH   3   4
ATOM      4  C   UNL     1       0.699  -4.746   3.398  1.00  0.00    -0.000 C 
BRANCH   4   5
ATOM      5  C   UNL     1       1.435  -5.955   2.792  1.00  0.00    -0.000 C 
BRANCH   5   6
ATOM      6  C   UNL     1       0.887  -6.365   1.414  1.00  0.00    -0.000 C 
BRANCH   6   7
ATOM      7  C   UNL     1       0.806  -5.180   0.439  1.00  0.00    -0.000 C 
BRANCH   7   8
ATOM      8  C   UNL     1       0.348  -5.598  -0.966  1.00  0.00    -0.000 C 
BRANCH   8   9
ATOM      9  C   UNL     1      -0.453  -4.474  -1.638  1.00  0.00    -0.000 C 
BRANCH   9  10
ATOM     10  C   UNL     1       0.437  -3.254  -1.917  1.00  0.00    -0.000 C 
BRANCH  10  11
ATOM     11  C   UNL     1       1.663  -3.603  -2.774  1.00  0.00    -0.003 C 
ATOM     12  C   UNL     1       2.915  -2.829  -2.359  1.00  0.00     0.004 C 
ENDBRANCH  10  11
ENDBRANCH   9  10
ENDBRANCH   8   9
ENDBRANCH   7   8
ENDBRANCH   6   7
ENDBRANCH   5   6
ENDBRANCH   4   5
ENDBRANCH   3   4
ENDBRANCH   2   3
ENDBRANCH   1   2
BRANCH   1  13
ATOM     13  C   UNL     1      -1.733  -8.482   3.878  1.00  0.00     0.000 C 
BRANCH  13  14
ATOM     14  C   UNL     1      -1.975  -9.795   4.646  1.00  0.00     0.000 C 
BRANCH  14  15
ATOM     15  C   UNL     1      -3.187 -10.613   4.165  1.00  0.00     0.000 C 
BRANCH  15  16
ATOM     16  C   UNL     1      -3.254 -10.736   2.632  1.00  0.00     0.000 C 
BRANCH  16  17
ATOM     17  C   UNL     1      -4.647 -10.400   2.076  1.00  0.00     0.000 C 
BRANCH  17  18
ATOM     18  C   UNL     1      -4.787  -8.917   1.693  1.00  0.00     0.000 C 
BRANCH  18  19
ATOM     19  C   UNL     1      -5.968  -8.227   2.398  1.00  0.00     0.000 C 
BRANCH  19  20
ATOM     20  C   UNL     1      -6.186  -8.652   3.862  1.00  0.00     0.006 C 
BRANCH  20  21
ATOM     21  C   UNL     1      -6.352  -7.457   4.811  1.00  0.00     0.053 C 
BRANCH  21  22
ATOM     22  C   UNL     1      -5.990  -6.184   4.115  1.00  0.00     0.041 C 
ATOM     23  O   UNL     1      -4.844  -6.038   3.614  1.00  0.00    -0.550 OA
ATOM     24  O   UNL     1      -6.934  -5.172   3.980  1.00  0.00    -0.550 OA
ENDBRANCH  21  22
ENDBRANCH  20  21
ENDBRANCH  19  20
ENDBRANCH  18  19
ENDBRANCH  17  18
ENDBRANCH  16  17
ENDBRANCH  15  16
ENDBRANCH  14  15
ENDBRANCH  13  14
ENDBRANCH   1  13
TORSDOF 20
ENDMDL
MODEL 7
REMARK VINA RESULT:     2.664      7.273      9.453
REMARK INTER + INTRA:           6.186
REMARK INTER:                   7.147
REMARK INTRA:                  -0.960
REMARK UNBOUND:                 0.408
REMARK SMILES CCCCCCCCCCCCCCCCCCCCCC(=O)[O-]
REMARK SMILES IDX 12 1 11 2 10 3 9 4 8 5 7 6 6 7 5 8 4 9 3 10 2 11 1 12 13 13
REMARK SMILES IDX 14 14 15 15 16 16 17 17 18 18 19 19 20 20 21 21 22 22 23 23
REMARK SMILES IDX 24 24
REMARK H PARENT
REMARK Flexibility Score: inf
ROOT
ATOM      1  C   UNL     1       0.833  -5.187   0.525  1.00  0.00     0.000 C 
ENDROOT
BRANCH   1   2
ATOM      2  C   UNL     1       0.374  -5.557  -0.901  1.00  0.00     0.000 C 
BRANCH   2   3
ATOM      3  C   UNL     1      -0.297  -4.380  -1.631  1.00  0.00     0.000 C 
BRANCH   3   4
ATOM      4  C   UNL     1       0.697  -3.269  -2.020  1.00  0.00    -0.000 C 
BRANCH   4   5
ATOM      5  C   UNL     1       0.077  -2.065  -2.753  1.00  0.00    -0.000 C 
BRANCH   5   6
ATOM      6  C   UNL     1       0.788  -1.735  -4.076  1.00  0.00    -0.000 C 
BRANCH   6   7
ATOM      7  C   UNL     1       0.310  -0.408  -4.686  1.00  0.00    -0.000 C 
BRANCH   7   8
ATOM      8  C   UNL     1       0.729  -0.243  -6.154  1.00  0.00    -0.000 C 
BRANCH   8   9
ATOM      9  C   UNL     1       0.331   1.141  -6.685  1.00  0.00    -0.000 C 
BRANCH   9  10
ATOM     10  C   UNL     1       1.158   2.247  -6.015  1.00  0.00    -0.000 C 
BRANCH  10  11
ATOM     11  C   UNL     1       0.324   3.106  -5.051  1.00  0.00    -0.003 C 
ATOM     12  C   UNL     1      -0.977   3.605  -5.680  1.00  0.00     0.004 C 
ENDBRANCH  10  11
ENDBRANCH   9  10
ENDBRANCH   8   9
ENDBRANCH   7   8
ENDBRANCH   6   7
ENDBRANCH   5   6
ENDBRANCH   4   5
ENDBRANCH   3   4
ENDBRANCH   2   3
ENDBRANCH   1   2
BRANCH   1  13
ATOM     13  C   UNL     1       0.805  -6.368   1.516  1.00  0.00     0.000 C 
BRANCH  13  14
ATOM     14  C   UNL     1       1.144  -6.006   2.974  1.00  0.00     0.000 C 
BRANCH  14  15
ATOM     15  C   UNL     1       0.698  -7.043   4.020  1.00  0.00     0.000 C 
BRANCH  15  16
ATOM     16  C   UNL     1      -0.647  -6.687   4.678  1.00  0.00     0.000 C 
BRANCH  16  17
ATOM     17  C   UNL     1      -1.630  -7.869   4.685  1.00  0.00     0.000 C 
BRANCH  17  18
ATOM     18  C   UNL     1      -1.352  -8.873   3.552  1.00  0.00     0.000 C 
BRANCH  18  19
ATOM     19  C   UNL     1      -2.631  -9.541   3.019  1.00  0.00     0.000 C 
BRANCH  19  20
ATOM     20  C   UNL     1      -3.792  -8.573   2.722  1.00  0.00     0.006 C 
BRANCH  20  21
ATOM     21  C   UNL     1      -5.167  -9.249   2.803  1.00  0.00     0.053 C 
BRANCH  21  22
ATOM     22  C   UNL     1      -6.236  -8.314   2.334  1.00  0.00     0.041 C 
ATOM     23  O   UNL     1      -6.777  -8.482   1.209  1.00  0.00    -0.550 OA
ATOM     24  O   UNL     1      -6.668  -7.281   3.159  1.00  0.00    -0.550 OA
ENDBRANCH  21  22
ENDBRANCH  20  21
ENDBRANCH  19  20
ENDBRANCH  18  19
ENDBRANCH  17  18
ENDBRANCH  16  17
ENDBRANCH  15  16
ENDBRANCH  14  15
ENDBRANCH  13  14
ENDBRANCH   1  13
TORSDOF 20
ENDMDL
