MODEL 1
REMARK VINA RESULT:    -0.300      0.000      0.000
REMARK INTER + INTRA:          -0.236
REMARK INTER:                  -0.362
REMARK INTRA:                   0.126
REMARK UNBOUND:                 0.126
REMARK SMILES O=c1c(O)c(-c2ccc(O)cc2O)oc2cc(O)cc(O)c12
REMARK SMILES IDX 5 1 3 2 2 3 1 4 22 5 20 6 19 7 17 8 16 9 15 10 14 11 6 12
REMARK SMILES IDX 8 13 7 14 9 15 11 16 12 17 10 18 13 20 4 22 21 24 18 26
REMARK H PARENT 10 19 13 21 4 23 21 25 18 27
REMARK Flexibility Score: inf
ROOT
ATOM      1  C   UNL     1      13.039 -12.968  29.064  1.00  0.00     0.184 A 
ATOM      2  C   UNL     1      13.226 -13.464  27.761  1.00  0.00     0.208 A 
ATOM      3  C   UNL     1      13.949 -14.654  27.586  1.00  0.00     0.238 A 
ATOM      4  O   UNL     1      14.116 -15.113  26.423  1.00  0.00    -0.285 OA
ATOM      5  C   UNL     1      14.482 -15.318  28.710  1.00  0.00     0.111 A 
ATOM      6  C   UNL     1      15.224 -16.520  28.620  1.00  0.00     0.134 A 
ATOM      7  C   UNL     1      15.727 -17.115  29.786  1.00  0.00     0.093 A 
ATOM      8  C   UNL     1      15.504 -16.532  31.038  1.00  0.00     0.123 A 
ATOM      9  C   UNL     1      14.772 -15.347  31.132  1.00  0.00     0.094 A 
ATOM     10  C   UNL     1      14.261 -14.739  29.982  1.00  0.00     0.146 A 
ATOM     11  O   UNL     1      13.565 -13.614  30.101  1.00  0.00    -0.451 OA
ENDROOT
BRANCH   1  12
ATOM     12  C   UNL     1      12.272 -11.727  29.324  1.00  0.00     0.063 A 
ATOM     13  C   UNL     1      12.126  -9.502  30.301  1.00  0.00     0.047 A 
ATOM     14  C   UNL     1      12.839 -10.683  30.078  1.00  0.00     0.020 A 
ATOM     15  C   UNL     1      10.843  -9.342  29.766  1.00  0.00     0.119 A 
ATOM     16  C   UNL     1      10.277 -10.368  29.003  1.00  0.00     0.093 A 
ATOM     17  C   UNL     1      10.984 -11.559  28.777  1.00  0.00     0.130 A 
BRANCH  15  18
ATOM     18  O   UNL     1      10.124  -8.169  29.981  1.00  0.00    -0.508 OA
ATOM     19  H   UNL     1      10.516  -7.260  29.763  1.00  0.00     0.293 HD
ENDBRANCH  15  18
BRANCH  17  20
ATOM     20  O   UNL     1      10.404 -12.577  28.019  1.00  0.00    -0.507 OA
ATOM     21  H   UNL     1      10.922 -13.060  27.294  1.00  0.00     0.293 HD
ENDBRANCH  17  20
ENDBRANCH   1  12
BRANCH   2  22
ATOM     22  O   UNL     1      12.723 -12.763  26.661  1.00  0.00    -0.502 OA
ATOM     23  H   UNL     1      13.123 -12.849  25.734  1.00  0.00     0.293 HD
ENDBRANCH   2  22
BRANCH   6  24
ATOM     24  O   UNL     1      15.464 -17.125  27.386  1.00  0.00    -0.507 OA
ATOM     25  H   UNL     1      16.387 -17.138  26.969  1.00  0.00     0.293 HD
ENDBRANCH   6  24
BRANCH   8  26
ATOM     26  O   UNL     1      16.005 -17.123  32.196  1.00  0.00    -0.508 OA
ATOM     27  H   UNL     1      15.462 -17.155  33.052  1.00  0.00     0.293 HD
ENDBRANCH   8  26
TORSDOF 6
ENDMDL
MODEL 2
REMARK VINA RESULT:     2.406      1.795      6.360
REMARK INTER + INTRA:           3.025
REMARK INTER:                   3.327
REMARK INTRA:                  -0.302
REMARK UNBOUND:                 0.126
REMARK SMILES O=c1c(O)c(-c2ccc(O)cc2O)oc2cc(O)cc(O)c12
REMARK SMILES IDX 5 1 3 2 2 3 1 4 22 5 20 6 19 7 17 8 16 9 15 10 14 11 6 12
REMARK SMILES IDX 8 13 7 14 9 15 11 16 12 17 10 18 13 20 4 22 21 24 18 26
REMARK H PARENT 10 19 13 21 4 23 21 25 18 27
REMARK Flexibility Score: inf
ROOT
ATOM      1  C   UNL     1      13.440 -12.903  28.389  1.00  0.00     0.184 A 
ATOM      2  C   UNL     1      12.202 -12.415  27.933  1.00  0.00     0.208 A 
ATOM      3  C   UNL     1      11.598 -11.350  28.620  1.00  0.00     0.238 A 
ATOM      4  O   UNL     1      10.492 -10.899  28.216  1.00  0.00    -0.285 OA
ATOM      5  C   UNL     1      12.233 -10.803  29.754  1.00  0.00     0.111 A 
ATOM      6  C   UNL     1      11.691  -9.731  30.504  1.00  0.00     0.134 A 
ATOM      7  C   UNL     1      12.381  -9.248  31.625  1.00  0.00     0.093 A 
ATOM      8  C   UNL     1      13.600  -9.816  32.011  1.00  0.00     0.123 A 
ATOM      9  C   UNL     1      14.140 -10.872  31.274  1.00  0.00     0.094 A 
ATOM     10  C   UNL     1      13.468 -11.367  30.153  1.00  0.00     0.146 A 
ATOM     11  O   UNL     1      14.006 -12.370  29.468  1.00  0.00    -0.451 OA
ENDROOT
BRANCH   1  12
ATOM     12  C   UNL     1      14.142 -14.013  27.703  1.00  0.00     0.063 A 
ATOM     13  C   UNL     1      15.106 -14.971  25.683  1.00  0.00     0.047 A 
ATOM     14  C   UNL     1      14.419 -13.937  26.325  1.00  0.00     0.020 A 
ATOM     15  C   UNL     1      15.534 -16.089  26.407  1.00  0.00     0.119 A 
ATOM     16  C   UNL     1      15.276 -16.167  27.779  1.00  0.00     0.093 A 
ATOM     17  C   UNL     1      14.585 -15.135  28.432  1.00  0.00     0.130 A 
BRANCH  15  18
ATOM     18  O   UNL     1      16.220 -17.125  25.777  1.00  0.00    -0.508 OA
ATOM     19  H   UNL     1      17.027 -17.563  26.204  1.00  0.00     0.293 HD
ENDBRANCH  15  18
BRANCH  17  20
ATOM     20  O   UNL     1      14.328 -15.229  29.801  1.00  0.00    -0.507 OA
ATOM     21  H   UNL     1      15.036 -15.005  30.490  1.00  0.00     0.293 HD
ENDBRANCH  17  20
ENDBRANCH   1  12
BRANCH   2  22
ATOM     22  O   UNL     1      11.575 -13.004  26.831  1.00  0.00    -0.502 OA
ATOM     23  H   UNL     1      11.756 -12.704  25.880  1.00  0.00     0.293 HD
ENDBRANCH   2  22
BRANCH   6  24
ATOM     24  O   UNL     1      10.477  -9.146  30.143  1.00  0.00    -0.507 OA
ATOM     25  H   UNL     1      10.398  -8.535  29.339  1.00  0.00     0.293 HD
ENDBRANCH   6  24
BRANCH   8  26
ATOM     26  O   UNL     1      14.286  -9.336  33.125  1.00  0.00    -0.508 OA
ATOM     27  H   UNL     1      13.930  -8.562  33.674  1.00  0.00     0.293 HD
ENDBRANCH   8  26
TORSDOF 6
ENDMDL
