MODEL 1
REMARK VINA RESULT:    -7.688      0.000      0.000
REMARK INTER + INTRA:          -9.363
REMARK INTER:                  -9.261
REMARK INTRA:                  -0.102
REMARK UNBOUND:                -0.102
REMARK SMILES O=c1c(O)c(-c2ccc(O)c(O)c2)oc2cc(O)cc(O)c12
REMARK SMILES IDX 5 1 3 2 2 3 1 4 22 5 20 6 19 7 17 8 16 9 15 10 14 11 6 12
REMARK SMILES IDX 7 13 8 14 9 15 13 16 11 17 10 18 12 20 4 22 21 24 18 26
REMARK H PARENT 10 19 12 21 4 23 21 25 18 27
REMARK Flexibility Score: inf
ROOT
ATOM      1  C   UNL     1      47.784  44.010  78.012  1.00  0.00     0.180 A 
ATOM      2  C   UNL     1      47.574  43.331  76.800  1.00  0.00     0.208 A 
ATOM      3  C   UNL     1      48.579  43.361  75.819  1.00  0.00     0.238 A 
ATOM      4  O   UNL     1      48.408  42.705  74.758  1.00  0.00    -0.285 OA
ATOM      5  C   UNL     1      49.773  44.082  76.057  1.00  0.00     0.111 A 
ATOM      6  C   UNL     1      50.841  44.214  75.117  1.00  0.00     0.134 A 
ATOM      7  C   UNL     1      52.030  44.841  75.507  1.00  0.00     0.093 A 
ATOM      8  C   UNL     1      52.167  45.400  76.778  1.00  0.00     0.123 A 
ATOM      9  C   UNL     1      51.107  45.329  77.683  1.00  0.00     0.094 A 
ATOM     10  C   UNL     1      49.922  44.677  77.336  1.00  0.00     0.146 A 
ATOM     11  O   UNL     1      48.942  44.623  78.230  1.00  0.00    -0.452 OA
ENDROOT
BRANCH   1  12
ATOM     12  C   UNL     1      46.763  44.045  79.084  1.00  0.00     0.025 A 
ATOM     13  C   UNL     1      45.462  44.519  78.838  1.00  0.00     0.016 A 
ATOM     14  C   UNL     1      44.521  44.566  79.871  1.00  0.00     0.051 A 
ATOM     15  C   UNL     1      44.869  44.154  81.163  1.00  0.00     0.157 A 
ATOM     16  C   UNL     1      47.112  43.653  80.386  1.00  0.00     0.062 A 
ATOM     17  C   UNL     1      46.168  43.698  81.422  1.00  0.00     0.158 A 
BRANCH  15  18
ATOM     18  O   UNL     1      43.933  44.197  82.195  1.00  0.00    -0.504 OA
ATOM     19  H   UNL     1      42.945  44.050  82.021  1.00  0.00     0.293 HD
ENDBRANCH  15  18
BRANCH  17  20
ATOM     20  O   UNL     1      46.514  43.295  82.711  1.00  0.00    -0.504 OA
ATOM     21  H   UNL     1      47.348  43.645  83.169  1.00  0.00     0.293 HD
ENDBRANCH  17  20
ENDBRANCH   1  12
BRANCH   2  22
ATOM     22  O   UNL     1      46.397  42.606  76.596  1.00  0.00    -0.502 OA
ATOM     23  H   UNL     1      45.792  42.324  77.358  1.00  0.00     0.293 HD
ENDBRANCH   2  22
BRANCH   6  24
ATOM     24  O   UNL     1      50.773  43.773  73.792  1.00  0.00    -0.507 OA
ATOM     25  H   UNL     1      51.464  43.968  73.085  1.00  0.00     0.293 HD
ENDBRANCH   6  24
BRANCH   8  26
ATOM     26  O   UNL     1      53.359  46.031  77.127  1.00  0.00    -0.508 OA
ATOM     27  H   UNL     1      54.087  46.202  76.442  1.00  0.00     0.293 HD
ENDBRANCH   8  26
TORSDOF 6
ENDMDL
MODEL 2
REMARK VINA RESULT:    -6.860     16.324     18.540
REMARK INTER + INTRA:          -8.366
REMARK INTER:                  -8.045
REMARK INTRA:                  -0.320
REMARK UNBOUND:                -0.102
REMARK SMILES O=c1c(O)c(-c2ccc(O)c(O)c2)oc2cc(O)cc(O)c12
REMARK SMILES IDX 5 1 3 2 2 3 1 4 22 5 20 6 19 7 17 8 16 9 15 10 14 11 6 12
REMARK SMILES IDX 7 13 8 14 9 15 13 16 11 17 10 18 12 20 4 22 21 24 18 26
REMARK H PARENT 10 19 12 21 4 23 21 25 18 27
REMARK Flexibility Score: inf
ROOT
ATOM      1  C   UNL     1      45.412  31.394  64.702  1.00  0.00     0.180 A 
ATOM      2  C   UNL     1      46.182  30.637  63.803  1.00  0.00     0.208 A 
ATOM      3  C   UNL     1      47.543  30.949  63.640  1.00  0.00     0.238 A 
ATOM      4  O   UNL     1      48.240  30.233  62.876  1.00  0.00    -0.285 OA
ATOM      5  C   UNL     1      48.110  32.023  64.367  1.00  0.00     0.111 A 
ATOM      6  C   UNL     1      49.467  32.453  64.251  1.00  0.00     0.134 A 
ATOM      7  C   UNL     1      49.954  33.443  65.112  1.00  0.00     0.093 A 
ATOM      8  C   UNL     1      49.119  34.064  66.041  1.00  0.00     0.123 A 
ATOM      9  C   UNL     1      47.776  33.694  66.122  1.00  0.00     0.094 A 
ATOM     10  C   UNL     1      47.270  32.684  65.301  1.00  0.00     0.146 A 
ATOM     11  O   UNL     1      45.989  32.354  65.416  1.00  0.00    -0.452 OA
ENDROOT
BRANCH   1  12
ATOM     12  C   UNL     1      43.968  31.143  64.909  1.00  0.00     0.025 A 
ATOM     13  C   UNL     1      43.517  30.186  65.836  1.00  0.00     0.016 A 
ATOM     14  C   UNL     1      42.150  29.948  65.998  1.00  0.00     0.051 A 
ATOM     15  C   UNL     1      41.214  30.652  65.229  1.00  0.00     0.157 A 
ATOM     16  C   UNL     1      43.026  31.831  64.126  1.00  0.00     0.062 A 
ATOM     17  C   UNL     1      41.654  31.594  64.288  1.00  0.00     0.158 A 
BRANCH  15  18
ATOM     18  O   UNL     1      39.850  30.420  65.388  1.00  0.00    -0.504 OA
ATOM     19  H   UNL     1      39.443  29.509  65.212  1.00  0.00     0.293 HD
ENDBRANCH  15  18
BRANCH  17  20
ATOM     20  O   UNL     1      40.722  32.287  63.519  1.00  0.00    -0.504 OA
ATOM     21  H   UNL     1      40.803  32.343  62.510  1.00  0.00     0.293 HD
ENDBRANCH  17  20
ENDBRANCH   1  12
BRANCH   2  22
ATOM     22  O   UNL     1      45.607  29.566  63.113  1.00  0.00    -0.502 OA
ATOM     23  H   UNL     1      45.911  29.290  62.187  1.00  0.00     0.293 HD
ENDBRANCH   2  22
BRANCH   6  24
ATOM     24  O   UNL     1      50.361  31.962  63.294  1.00  0.00    -0.507 OA
ATOM     25  H   UNL     1      51.175  31.404  63.500  1.00  0.00     0.293 HD
ENDBRANCH   6  24
BRANCH   8  26
ATOM     26  O   UNL     1      49.634  35.057  66.872  1.00  0.00    -0.508 OA
ATOM     27  H   UNL     1      49.167  35.322  67.731  1.00  0.00     0.293 HD
ENDBRANCH   8  26
TORSDOF 6
ENDMDL
MODEL 3
REMARK VINA RESULT:    -6.528      3.401      8.045
REMARK INTER + INTRA:          -7.966
REMARK INTER:                  -7.659
REMARK INTRA:                  -0.306
REMARK UNBOUND:                -0.102
REMARK SMILES O=c1c(O)c(-c2ccc(O)c(O)c2)oc2cc(O)cc(O)c12
REMARK SMILES IDX 5 1 3 2 2 3 1 4 22 5 20 6 19 7 17 8 16 9 15 10 14 11 6 12
REMARK SMILES IDX 7 13 8 14 9 15 13 16 11 17 10 18 12 20 4 22 21 24 18 26
REMARK H PARENT 10 19 12 21 4 23 21 25 18 27
REMARK Flexibility Score: inf
ROOT
ATOM      1  C   UNL     1      49.305  44.106  73.998  1.00  0.00     0.180 A 
ATOM      2  C   UNL     1      49.029  44.617  75.278  1.00  0.00     0.208 A 
ATOM      3  C   UNL     1      48.267  43.844  76.170  1.00  0.00     0.238 A 
ATOM      4  O   UNL     1      48.071  44.282  77.333  1.00  0.00    -0.285 OA
ATOM      5  C   UNL     1      47.777  42.579  75.764  1.00  0.00     0.111 A 
ATOM      6  C   UNL     1      46.961  41.730  76.572  1.00  0.00     0.134 A 
ATOM      7  C   UNL     1      46.642  40.444  76.118  1.00  0.00     0.093 A 
ATOM      8  C   UNL     1      47.053  40.002  74.860  1.00  0.00     0.123 A 
ATOM      9  C   UNL     1      47.800  40.847  74.039  1.00  0.00     0.094 A 
ATOM     10  C   UNL     1      48.165  42.121  74.479  1.00  0.00     0.146 A 
ATOM     11  O   UNL     1      48.885  42.889  73.670  1.00  0.00    -0.452 OA
ENDROOT
BRANCH   1  12
ATOM     12  C   UNL     1      50.079  44.871  72.994  1.00  0.00     0.025 A 
ATOM     13  C   UNL     1      51.485  44.881  73.008  1.00  0.00     0.016 A 
ATOM     14  C   UNL     1      52.196  45.629  72.065  1.00  0.00     0.051 A 
ATOM     15  C   UNL     1      51.513  46.386  71.105  1.00  0.00     0.157 A 
ATOM     16  C   UNL     1      49.400  45.648  72.042  1.00  0.00     0.062 A 
ATOM     17  C   UNL     1      50.112  46.398  71.094  1.00  0.00     0.158 A 
BRANCH  15  18
ATOM     18  O   UNL     1      52.218  47.132  70.161  1.00  0.00    -0.504 OA
ATOM     19  H   UNL     1      52.984  46.730  69.634  1.00  0.00     0.293 HD
ENDBRANCH  15  18
BRANCH  17  20
ATOM     20  O   UNL     1      49.435  47.158  70.142  1.00  0.00    -0.504 OA
ATOM     21  H   UNL     1      49.559  46.997  69.149  1.00  0.00     0.293 HD
ENDBRANCH  17  20
ENDBRANCH   1  12
BRANCH   2  22
ATOM     22  O   UNL     1      49.542  45.858  75.666  1.00  0.00    -0.502 OA
ATOM     23  H   UNL     1      49.462  46.207  76.613  1.00  0.00     0.293 HD
ENDBRANCH   2  22
BRANCH   6  24
ATOM     24  O   UNL     1      46.421  42.109  77.804  1.00  0.00    -0.507 OA
ATOM     25  H   UNL     1      46.959  42.289  78.638  1.00  0.00     0.293 HD
ENDBRANCH   6  24
BRANCH   8  26
ATOM     26  O   UNL     1      46.703  38.722  74.434  1.00  0.00    -0.508 OA
ATOM     27  H   UNL     1      45.963  38.573  73.758  1.00  0.00     0.293 HD
ENDBRANCH   8  26
TORSDOF 6
ENDMDL
MODEL 4
REMARK VINA RESULT:    -6.287      1.284      2.809
REMARK INTER + INTRA:          -7.675
REMARK INTER:                  -8.004
REMARK INTRA:                   0.329
REMARK UNBOUND:                -0.102
REMARK SMILES O=c1c(O)c(-c2ccc(O)c(O)c2)oc2cc(O)cc(O)c12
REMARK SMILES IDX 5 1 3 2 2 3 1 4 22 5 20 6 19 7 17 8 16 9 15 10 14 11 6 12
REMARK SMILES IDX 7 13 8 14 9 15 13 16 11 17 10 18 12 20 4 22 21 24 18 26
REMARK H PARENT 10 19 12 21 4 23 21 25 18 27
REMARK Flexibility Score: inf
ROOT
ATOM      1  C   UNL     1      48.332  44.366  78.180  1.00  0.00     0.180 A 
ATOM      2  C   UNL     1      49.630  44.655  78.636  1.00  0.00     0.208 A 
ATOM      3  C   UNL     1      50.681  44.718  77.705  1.00  0.00     0.238 A 
ATOM      4  O   UNL     1      51.829  45.032  78.112  1.00  0.00    -0.285 OA
ATOM      5  C   UNL     1      50.422  44.477  76.335  1.00  0.00     0.111 A 
ATOM      6  C   UNL     1      51.418  44.475  75.311  1.00  0.00     0.134 A 
ATOM      7  C   UNL     1      51.030  44.352  73.971  1.00  0.00     0.093 A 
ATOM      8  C   UNL     1      49.692  44.165  73.623  1.00  0.00     0.123 A 
ATOM      9  C   UNL     1      48.719  44.105  74.620  1.00  0.00     0.094 A 
ATOM     10  C   UNL     1      49.070  44.261  75.963  1.00  0.00     0.146 A 
ATOM     11  O   UNL     1      48.112  44.207  76.880  1.00  0.00    -0.452 OA
ENDROOT
BRANCH   1  12
ATOM     12  C   UNL     1      47.179  44.257  79.102  1.00  0.00     0.025 A 
ATOM     13  C   UNL     1      45.878  44.596  78.689  1.00  0.00     0.016 A 
ATOM     14  C   UNL     1      44.807  44.508  79.583  1.00  0.00     0.051 A 
ATOM     15  C   UNL     1      45.022  44.093  80.903  1.00  0.00     0.157 A 
ATOM     16  C   UNL     1      47.391  43.861  80.433  1.00  0.00     0.062 A 
ATOM     17  C   UNL     1      46.317  43.772  81.330  1.00  0.00     0.158 A 
BRANCH  15  18
ATOM     18  O   UNL     1      43.957  44.002  81.797  1.00  0.00    -0.504 OA
ATOM     19  H   UNL     1      43.106  44.536  81.665  1.00  0.00     0.293 HD
ENDBRANCH  15  18
BRANCH  17  20
ATOM     20  O   UNL     1      46.529  43.366  82.646  1.00  0.00    -0.504 OA
ATOM     21  H   UNL     1      45.879  43.606  83.386  1.00  0.00     0.293 HD
ENDBRANCH  17  20
ENDBRANCH   1  12
BRANCH   2  22
ATOM     22  O   UNL     1      49.858  44.913  79.990  1.00  0.00    -0.502 OA
ATOM     23  H   UNL     1      49.885  44.178  80.687  1.00  0.00     0.293 HD
ENDBRANCH   2  22
BRANCH   6  24
ATOM     24  O   UNL     1      52.791  44.563  75.558  1.00  0.00    -0.507 OA
ATOM     25  H   UNL     1      53.412  45.231  75.127  1.00  0.00     0.293 HD
ENDBRANCH   6  24
BRANCH   8  26
ATOM     26  O   UNL     1      49.345  44.031  72.280  1.00  0.00    -0.508 OA
ATOM     27  H   UNL     1      48.609  44.591  71.865  1.00  0.00     0.293 HD
ENDBRANCH   8  26
TORSDOF 6
ENDMDL
MODEL 5
REMARK VINA RESULT:    -6.108     15.916     18.154
REMARK INTER + INTRA:          -7.459
REMARK INTER:                  -7.136
REMARK INTRA:                  -0.324
REMARK UNBOUND:                -0.102
REMARK SMILES O=c1c(O)c(-c2ccc(O)c(O)c2)oc2cc(O)cc(O)c12
REMARK SMILES IDX 5 1 3 2 2 3 1 4 22 5 20 6 19 7 17 8 16 9 15 10 14 11 6 12
REMARK SMILES IDX 7 13 8 14 9 15 13 16 11 17 10 18 12 20 4 22 21 24 18 26
REMARK H PARENT 10 19 12 21 4 23 21 25 18 27
REMARK Flexibility Score: inf
ROOT
ATOM      1  C   UNL     1      46.792  31.699  64.583  1.00  0.00     0.180 A 
ATOM      2  C   UNL     1      47.685  31.033  63.727  1.00  0.00     0.208 A 
ATOM      3  C   UNL     1      49.007  31.500  63.624  1.00  0.00     0.238 A 
ATOM      4  O   UNL     1      49.816  30.866  62.898  1.00  0.00    -0.285 OA
ATOM      5  C   UNL     1      49.413  32.635  64.366  1.00  0.00     0.111 A 
ATOM      6  C   UNL     1      50.715  33.218  64.308  1.00  0.00     0.134 A 
ATOM      7  C   UNL     1      51.045  34.260  65.182  1.00  0.00     0.093 A 
ATOM      8  C   UNL     1      50.101  34.784  66.066  1.00  0.00     0.123 A 
ATOM      9  C   UNL     1      48.808  34.261  66.089  1.00  0.00     0.094 A 
ATOM     10  C   UNL     1      48.460  33.197  65.255  1.00  0.00     0.146 A 
ATOM     11  O   UNL     1      47.221  32.722  65.315  1.00  0.00    -0.452 OA
ENDROOT
BRANCH   1  12
ATOM     12  C   UNL     1      45.379  31.284  64.727  1.00  0.00     0.025 A 
ATOM     13  C   UNL     1      44.361  31.874  63.955  1.00  0.00     0.016 A 
ATOM     14  C   UNL     1      43.030  31.483  64.124  1.00  0.00     0.051 A 
ATOM     15  C   UNL     1      42.695  30.508  65.072  1.00  0.00     0.157 A 
ATOM     16  C   UNL     1      45.034  30.322  65.690  1.00  0.00     0.062 A 
ATOM     17  C   UNL     1      43.699  29.928  65.859  1.00  0.00     0.158 A 
BRANCH  15  18
ATOM     18  O   UNL     1      41.369  30.113  65.242  1.00  0.00    -0.504 OA
ATOM     19  H   UNL     1      41.018  29.251  64.843  1.00  0.00     0.293 HD
ENDBRANCH  15  18
BRANCH  17  20
ATOM     20  O   UNL     1      43.362  28.964  66.807  1.00  0.00    -0.504 OA
ATOM     21  H   UNL     1      43.572  27.983  66.664  1.00  0.00     0.293 HD
ENDBRANCH  17  20
ENDBRANCH   1  12
BRANCH   2  22
ATOM     22  O   UNL     1      47.270  29.901  63.021  1.00  0.00    -0.502 OA
ATOM     23  H   UNL     1      47.878  29.408  62.378  1.00  0.00     0.293 HD
ENDBRANCH   2  22
BRANCH   6  24
ATOM     24  O   UNL     1      51.703  32.831  63.397  1.00  0.00    -0.507 OA
ATOM     25  H   UNL     1      51.739  31.935  62.934  1.00  0.00     0.293 HD
ENDBRANCH   6  24
BRANCH   8  26
ATOM     26  O   UNL     1      50.460  35.832  66.911  1.00  0.00    -0.508 OA
ATOM     27  H   UNL     1      51.419  36.150  66.982  1.00  0.00     0.293 HD
ENDBRANCH   8  26
TORSDOF 6
ENDMDL
MODEL 6
REMARK VINA RESULT:    -6.086      2.862      4.942
REMARK INTER + INTRA:          -7.433
REMARK INTER:                  -7.217
REMARK INTRA:                  -0.216
REMARK UNBOUND:                -0.102
REMARK SMILES O=c1c(O)c(-c2ccc(O)c(O)c2)oc2cc(O)cc(O)c12
REMARK SMILES IDX 5 1 3 2 2 3 1 4 22 5 20 6 19 7 17 8 16 9 15 10 14 11 6 12
REMARK SMILES IDX 7 13 8 14 9 15 13 16 11 17 10 18 12 20 4 22 21 24 18 26
REMARK H PARENT 10 19 12 21 4 23 21 25 18 27
REMARK Flexibility Score: inf
ROOT
ATOM      1  C   UNL     1      49.685  44.322  74.843  1.00  0.00     0.180 A 
ATOM      2  C   UNL     1      51.069  44.075  74.852  1.00  0.00     0.208 A 
ATOM      3  C   UNL     1      51.830  44.421  73.722  1.00  0.00     0.238 A 
ATOM      4  O   UNL     1      53.076  44.249  73.757  1.00  0.00    -0.285 OA
ATOM      5  C   UNL     1      51.194  44.993  72.594  1.00  0.00     0.111 A 
ATOM      6  C   UNL     1      51.861  45.344  71.380  1.00  0.00     0.134 A 
ATOM      7  C   UNL     1      51.158  46.022  70.378  1.00  0.00     0.093 A 
ATOM      8  C   UNL     1      49.798  46.304  70.516  1.00  0.00     0.123 A 
ATOM      9  C   UNL     1      49.124  45.911  71.673  1.00  0.00     0.094 A 
ATOM     10  C   UNL     1      49.807  45.266  72.706  1.00  0.00     0.146 A 
ATOM     11  O   UNL     1      49.130  44.918  73.794  1.00  0.00    -0.452 OA
ENDROOT
BRANCH   1  12
ATOM     12  C   UNL     1      48.813  43.963  75.984  1.00  0.00     0.025 A 
ATOM     13  C   UNL     1      48.880  44.661  77.203  1.00  0.00     0.016 A 
ATOM     14  C   UNL     1      48.064  44.289  78.275  1.00  0.00     0.051 A 
ATOM     15  C   UNL     1      47.180  43.210  78.150  1.00  0.00     0.157 A 
ATOM     16  C   UNL     1      47.940  42.869  75.871  1.00  0.00     0.062 A 
ATOM     17  C   UNL     1      47.120  42.496  76.946  1.00  0.00     0.158 A 
BRANCH  15  18
ATOM     18  O   UNL     1      46.362  42.838  79.215  1.00  0.00    -0.504 OA
ATOM     19  H   UNL     1      46.619  43.038  80.175  1.00  0.00     0.293 HD
ENDBRANCH  15  18
BRANCH  17  20
ATOM     20  O   UNL     1      46.245  41.418  76.825  1.00  0.00    -0.504 OA
ATOM     21  H   UNL     1      45.686  41.099  77.608  1.00  0.00     0.293 HD
ENDBRANCH  17  20
ENDBRANCH   1  12
BRANCH   2  22
ATOM     22  O   UNL     1      51.679  43.531  75.985  1.00  0.00    -0.502 OA
ATOM     23  H   UNL     1      51.499  42.585  76.298  1.00  0.00     0.293 HD
ENDBRANCH   2  22
BRANCH   6  24
ATOM     24  O   UNL     1      53.194  45.027  71.103  1.00  0.00    -0.507 OA
ATOM     25  H   UNL     1      53.991  45.449  71.554  1.00  0.00     0.293 HD
ENDBRANCH   6  24
BRANCH   8  26
ATOM     26  O   UNL     1      49.126  46.966  69.491  1.00  0.00    -0.508 OA
ATOM     27  H   UNL     1      48.360  47.600  69.684  1.00  0.00     0.293 HD
ENDBRANCH   8  26
TORSDOF 6
ENDMDL
MODEL 7
REMARK VINA RESULT:    -5.937      2.937      4.912
REMARK INTER + INTRA:          -7.253
REMARK INTER:                  -7.014
REMARK INTRA:                  -0.239
REMARK UNBOUND:                -0.102
REMARK SMILES O=c1c(O)c(-c2ccc(O)c(O)c2)oc2cc(O)cc(O)c12
REMARK SMILES IDX 5 1 3 2 2 3 1 4 22 5 20 6 19 7 17 8 16 9 15 10 14 11 6 12
REMARK SMILES IDX 7 13 8 14 9 15 13 16 11 17 10 18 12 20 4 22 21 24 18 26
REMARK H PARENT 10 19 12 21 4 23 21 25 18 27
REMARK Flexibility Score: inf
ROOT
ATOM      1  C   UNL     1      48.946  42.990  76.043  1.00  0.00     0.180 A 
ATOM      2  C   UNL     1      48.584  43.687  77.208  1.00  0.00     0.208 A 
ATOM      3  C   UNL     1      49.411  44.727  77.665  1.00  0.00     0.238 A 
ATOM      4  O   UNL     1      49.052  45.384  78.677  1.00  0.00    -0.285 OA
ATOM      5  C   UNL     1      50.596  45.045  76.960  1.00  0.00     0.111 A 
ATOM      6  C   UNL     1      51.528  46.052  77.355  1.00  0.00     0.134 A 
ATOM      7  C   UNL     1      52.600  46.370  76.513  1.00  0.00     0.093 A 
ATOM      8  C   UNL     1      52.812  45.674  75.323  1.00  0.00     0.123 A 
ATOM      9  C   UNL     1      51.941  44.647  74.957  1.00  0.00     0.094 A 
ATOM     10  C   UNL     1      50.841  44.332  75.758  1.00  0.00     0.146 A 
ATOM     11  O   UNL     1      50.031  43.355  75.368  1.00  0.00    -0.452 OA
ENDROOT
BRANCH   1  12
ATOM     12  C   UNL     1      48.141  41.867  75.513  1.00  0.00     0.025 A 
ATOM     13  C   UNL     1      47.342  42.017  74.365  1.00  0.00     0.016 A 
ATOM     14  C   UNL     1      46.570  40.950  73.897  1.00  0.00     0.051 A 
ATOM     15  C   UNL     1      46.577  39.723  74.573  1.00  0.00     0.157 A 
ATOM     16  C   UNL     1      48.127  40.641  76.198  1.00  0.00     0.062 A 
ATOM     17  C   UNL     1      47.355  39.569  75.728  1.00  0.00     0.158 A 
BRANCH  15  18
ATOM     18  O   UNL     1      45.812  38.655  74.107  1.00  0.00    -0.504 OA
ATOM     19  H   UNL     1      46.049  38.166  73.252  1.00  0.00     0.293 HD
ENDBRANCH  15  18
BRANCH  17  20
ATOM     20  O   UNL     1      47.354  38.350  76.403  1.00  0.00    -0.504 OA
ATOM     21  H   UNL     1      46.859  37.543  76.040  1.00  0.00     0.293 HD
ENDBRANCH  17  20
ENDBRANCH   1  12
BRANCH   2  22
ATOM     22  O   UNL     1      47.397  43.372  77.875  1.00  0.00    -0.502 OA
ATOM     23  H   UNL     1      47.386  42.904  78.773  1.00  0.00     0.293 HD
ENDBRANCH   2  22
BRANCH   6  24
ATOM     24  O   UNL     1      51.461  46.744  78.569  1.00  0.00    -0.507 OA
ATOM     25  H   UNL     1      52.124  47.441  78.871  1.00  0.00     0.293 HD
ENDBRANCH   6  24
BRANCH   8  26
ATOM     26  O   UNL     1      53.899  46.006  74.516  1.00  0.00    -0.508 OA
ATOM     27  H   UNL     1      54.243  45.372  73.804  1.00  0.00     0.293 HD
ENDBRANCH   8  26
TORSDOF 6
ENDMDL
MODEL 8
REMARK VINA RESULT:    -5.932      2.443      8.171
REMARK INTER + INTRA:          -7.248
REMARK INTER:                  -7.020
REMARK INTRA:                  -0.228
REMARK UNBOUND:                -0.102
REMARK SMILES O=c1c(O)c(-c2ccc(O)c(O)c2)oc2cc(O)cc(O)c12
REMARK SMILES IDX 5 1 3 2 2 3 1 4 22 5 20 6 19 7 17 8 16 9 15 10 14 11 6 12
REMARK SMILES IDX 7 13 8 14 9 15 13 16 11 17 10 18 12 20 4 22 21 24 18 26
REMARK H PARENT 10 19 12 21 4 23 21 25 18 27
REMARK Flexibility Score: inf
ROOT
ATOM      1  C   UNL     1      51.074  44.544  74.868  1.00  0.00     0.180 A 
ATOM      2  C   UNL     1      51.449  45.242  76.028  1.00  0.00     0.208 A 
ATOM      3  C   UNL     1      50.653  45.125  77.181  1.00  0.00     0.238 A 
ATOM      4  O   UNL     1      51.024  45.708  78.233  1.00  0.00    -0.285 OA
ATOM      5  C   UNL     1      49.486  44.325  77.152  1.00  0.00     0.111 A 
ATOM      6  C   UNL     1      48.585  44.167  78.248  1.00  0.00     0.134 A 
ATOM      7  C   UNL     1      47.532  43.249  78.151  1.00  0.00     0.093 A 
ATOM      8  C   UNL     1      47.309  42.532  76.975  1.00  0.00     0.123 A 
ATOM      9  C   UNL     1      48.148  42.724  75.876  1.00  0.00     0.094 A 
ATOM     10  C   UNL     1      49.228  43.605  75.956  1.00  0.00     0.146 A 
ATOM     11  O   UNL     1      50.008  43.751  74.892  1.00  0.00    -0.452 OA
ENDROOT
BRANCH   1  12
ATOM     12  C   UNL     1      51.846  44.637  73.608  1.00  0.00     0.025 A 
ATOM     13  C   UNL     1      53.112  44.039  73.481  1.00  0.00     0.016 A 
ATOM     14  C   UNL     1      53.834  44.159  72.290  1.00  0.00     0.051 A 
ATOM     15  C   UNL     1      53.308  44.888  71.216  1.00  0.00     0.157 A 
ATOM     16  C   UNL     1      51.332  45.384  72.535  1.00  0.00     0.062 A 
ATOM     17  C   UNL     1      52.055  45.504  71.339  1.00  0.00     0.158 A 
BRANCH  15  18
ATOM     18  O   UNL     1      54.023  45.009  70.025  1.00  0.00    -0.504 OA
ATOM     19  H   UNL     1      54.537  45.852  69.799  1.00  0.00     0.293 HD
ENDBRANCH  15  18
BRANCH  17  20
ATOM     20  O   UNL     1      51.537  46.235  70.272  1.00  0.00    -0.504 OA
ATOM     21  H   UNL     1      52.140  46.643  69.567  1.00  0.00     0.293 HD
ENDBRANCH  17  20
ENDBRANCH   1  12
BRANCH   2  22
ATOM     22  O   UNL     1      52.617  46.008  76.042  1.00  0.00    -0.502 OA
ATOM     23  H   UNL     1      53.395  45.824  75.419  1.00  0.00     0.293 HD
ENDBRANCH   2  22
BRANCH   6  24
ATOM     24  O   UNL     1      48.664  44.902  79.435  1.00  0.00    -0.507 OA
ATOM     25  H   UNL     1      49.308  45.660  79.601  1.00  0.00     0.293 HD
ENDBRANCH   6  24
BRANCH   8  26
ATOM     26  O   UNL     1      46.242  41.639  76.907  1.00  0.00    -0.508 OA
ATOM     27  H   UNL     1      45.998  41.046  77.692  1.00  0.00     0.293 HD
ENDBRANCH   8  26
TORSDOF 6
ENDMDL
MODEL 9
REMARK VINA RESULT:    -5.852     14.905     17.273
REMARK INTER + INTRA:          -7.152
REMARK INTER:                  -6.847
REMARK INTRA:                  -0.305
REMARK UNBOUND:                -0.102
REMARK SMILES O=c1c(O)c(-c2ccc(O)c(O)c2)oc2cc(O)cc(O)c12
REMARK SMILES IDX 5 1 3 2 2 3 1 4 22 5 20 6 19 7 17 8 16 9 15 10 14 11 6 12
REMARK SMILES IDX 7 13 8 14 9 15 13 16 11 17 10 18 12 20 4 22 21 24 18 26
REMARK H PARENT 10 19 12 21 4 23 21 25 18 27
REMARK Flexibility Score: inf
ROOT
ATOM      1  C   UNL     1      48.746  33.000  64.601  1.00  0.00     0.180 A 
ATOM      2  C   UNL     1      49.754  32.424  63.810  1.00  0.00     0.208 A 
ATOM      3  C   UNL     1      50.915  33.168  63.537  1.00  0.00     0.238 A 
ATOM      4  O   UNL     1      51.838  32.626  62.875  1.00  0.00    -0.285 OA
ATOM      5  C   UNL     1      51.043  34.483  64.044  1.00  0.00     0.111 A 
ATOM      6  C   UNL     1      52.157  35.342  63.796  1.00  0.00     0.134 A 
ATOM      7  C   UNL     1      52.238  36.575  64.454  1.00  0.00     0.093 A 
ATOM      8  C   UNL     1      51.217  37.008  65.300  1.00  0.00     0.123 A 
ATOM      9  C   UNL     1      50.096  36.203  65.502  1.00  0.00     0.094 A 
ATOM     10  C   UNL     1      50.003  34.952  64.889  1.00  0.00     0.146 A 
ATOM     11  O   UNL     1      48.925  34.212  65.116  1.00  0.00    -0.452 OA
ENDROOT
BRANCH   1  12
ATOM     12  C   UNL     1      47.485  32.289  64.912  1.00  0.00     0.025 A 
ATOM     13  C   UNL     1      46.306  32.540  64.187  1.00  0.00     0.016 A 
ATOM     14  C   UNL     1      45.121  31.875  64.513  1.00  0.00     0.051 A 
ATOM     15  C   UNL     1      45.093  30.961  65.574  1.00  0.00     0.157 A 
ATOM     16  C   UNL     1      47.446  31.388  65.988  1.00  0.00     0.062 A 
ATOM     17  C   UNL     1      46.257  30.719  66.315  1.00  0.00     0.158 A 
BRANCH  15  18
ATOM     18  O   UNL     1      43.914  30.294  65.901  1.00  0.00    -0.504 OA
ATOM     19  H   UNL     1      43.890  29.288  66.023  1.00  0.00     0.293 HD
ENDBRANCH  15  18
BRANCH  17  20
ATOM     20  O   UNL     1      46.225  29.815  67.375  1.00  0.00    -0.504 OA
ATOM     21  H   UNL     1      45.910  28.860  67.248  1.00  0.00     0.293 HD
ENDBRANCH  17  20
ENDBRANCH   1  12
BRANCH   2  22
ATOM     22  O   UNL     1      49.617  31.115  63.339  1.00  0.00    -0.502 OA
ATOM     23  H   UNL     1      49.275  30.361  63.921  1.00  0.00     0.293 HD
ENDBRANCH   2  22
BRANCH   6  24
ATOM     24  O   UNL     1      53.186  35.045  62.898  1.00  0.00    -0.507 OA
ATOM     25  H   UNL     1      54.096  35.480  62.900  1.00  0.00     0.293 HD
ENDBRANCH   6  24
BRANCH   8  26
ATOM     26  O   UNL     1      51.324  38.249  65.927  1.00  0.00    -0.508 OA
ATOM     27  H   UNL     1      51.816  38.356  66.806  1.00  0.00     0.293 HD
ENDBRANCH   8  26
TORSDOF 6
ENDMDL
