MODEL 1
REMARK VINA RESULT:    -4.956      0.000      0.000
REMARK INTER + INTRA:          -8.345
REMARK INTER:                  -7.853
REMARK INTRA:                  -0.491
REMARK UNBOUND:                -0.491
REMARK SMILES CCCCCCCCCCCC(=O)[O-]
REMARK SMILES IDX 7 1 8 2 9 3 10 4 11 5 12 6 13 7 14 8 6 9 5 10 4 11 3 12 2 13
REMARK SMILES IDX 1 14
REMARK H PARENT
REMARK Flexibility Score: inf
ROOT
ATOM      1  C   UNL     1       6.028   0.155  36.286  1.00  0.00     0.000 C 
ENDROOT
BRANCH   1   2
ATOM      2  C   UNL     1       7.090  -0.768  35.656  1.00  0.00     0.000 C 
BRANCH   2   3
ATOM      3  C   UNL     1       8.399  -0.069  35.251  1.00  0.00     0.000 C 
BRANCH   3   4
ATOM      4  C   UNL     1       8.638   1.241  36.021  1.00  0.00     0.006 C 
BRANCH   4   5
ATOM      5  C   UNL     1       9.940   1.207  36.832  1.00  0.00     0.053 C 
BRANCH   5   6
ATOM      6  C   UNL     1      11.103   1.706  36.030  1.00  0.00     0.041 C 
ATOM      7  O   UNL     1      10.942   2.620  35.180  1.00  0.00    -0.550 OA
ATOM      8  O   UNL     1      12.359   1.136  36.199  1.00  0.00    -0.550 OA
ENDBRANCH   5   6
ENDBRANCH   4   5
ENDBRANCH   3   4
ENDBRANCH   2   3
ENDBRANCH   1   2
BRANCH   1   9
ATOM      9  C   UNL     1       4.733  -0.549  36.739  1.00  0.00     0.000 C 
BRANCH   9  10
ATOM     10  C   UNL     1       3.710   0.361  37.442  1.00  0.00    -0.000 C 
BRANCH  10  11
ATOM     11  C   UNL     1       2.603  -0.426  38.158  1.00  0.00    -0.000 C 
BRANCH  11  12
ATOM     12  C   UNL     1       3.047  -1.870  38.433  1.00  0.00    -0.000 C 
BRANCH  12  13
ATOM     13  C   UNL     1       2.614  -2.367  39.821  1.00  0.00    -0.003 C 
ATOM     14  C   UNL     1       2.536  -1.242  40.854  1.00  0.00     0.004 C 
ENDBRANCH  12  13
ENDBRANCH  11  12
ENDBRANCH  10  11
ENDBRANCH   9  10
ENDBRANCH   1   9
TORSDOF 10
ENDMDL
MODEL 2
REMARK VINA RESULT:    -4.937      1.525      2.376
REMARK INTER + INTRA:          -8.315
REMARK INTER:                  -7.690
REMARK INTRA:                  -0.625
REMARK UNBOUND:                -0.491
REMARK SMILES CCCCCCCCCCCC(=O)[O-]
REMARK SMILES IDX 7 1 8 2 9 3 10 4 11 5 12 6 13 7 14 8 6 9 5 10 4 11 3 12 2 13
REMARK SMILES IDX 1 14
REMARK H PARENT
REMARK Flexibility Score: inf
ROOT
ATOM      1  C   UNL     1       6.451  -2.826  36.276  1.00  0.00     0.000 C 
ENDROOT
BRANCH   1   2
ATOM      2  C   UNL     1       6.301  -1.310  36.039  1.00  0.00     0.000 C 
BRANCH   2   3
ATOM      3  C   UNL     1       7.552  -0.614  35.476  1.00  0.00     0.000 C 
BRANCH   3   4
ATOM      4  C   UNL     1       7.774   0.787  36.071  1.00  0.00     0.006 C 
BRANCH   4   5
ATOM      5  C   UNL     1       9.239   1.027  36.457  1.00  0.00     0.053 C 
BRANCH   5   6
ATOM      6  C   UNL     1       9.905   1.991  35.523  1.00  0.00     0.041 C 
ATOM      7  O   UNL     1      10.946   2.603  35.880  1.00  0.00    -0.550 OA
ATOM      8  O   UNL     1       9.356   2.238  34.272  1.00  0.00    -0.550 OA
ENDBRANCH   5   6
ENDBRANCH   4   5
ENDBRANCH   3   4
ENDBRANCH   2   3
ENDBRANCH   1   2
BRANCH   1   9
ATOM      9  C   UNL     1       5.134  -3.627  36.253  1.00  0.00     0.000 C 
BRANCH   9  10
ATOM     10  C   UNL     1       4.418  -3.738  37.611  1.00  0.00    -0.000 C 
BRANCH  10  11
ATOM     11  C   UNL     1       3.095  -2.957  37.654  1.00  0.00    -0.000 C 
BRANCH  11  12
ATOM     12  C   UNL     1       2.959  -2.183  38.973  1.00  0.00    -0.000 C 
BRANCH  12  13
ATOM     13  C   UNL     1       2.514  -0.727  38.760  1.00  0.00    -0.003 C 
ATOM     14  C   UNL     1       3.448   0.045  37.827  1.00  0.00     0.004 C 
ENDBRANCH  12  13
ENDBRANCH  11  12
ENDBRANCH  10  11
ENDBRANCH   9  10
ENDBRANCH   1   9
TORSDOF 10
ENDMDL
MODEL 3
REMARK VINA RESULT:    -4.872      2.057      3.017
REMARK INTER + INTRA:          -8.211
REMARK INTER:                  -7.690
REMARK INTRA:                  -0.521
REMARK UNBOUND:                -0.491
REMARK SMILES CCCCCCCCCCCC(=O)[O-]
REMARK SMILES IDX 7 1 8 2 9 3 10 4 11 5 12 6 13 7 14 8 6 9 5 10 4 11 3 12 2 13
REMARK SMILES IDX 1 14
REMARK H PARENT
REMARK Flexibility Score: inf
ROOT
ATOM      1  C   UNL     1       8.259   0.907  36.057  1.00  0.00     0.000 C 
ENDROOT
BRANCH   1   2
ATOM      2  C   UNL     1       8.925   1.568  34.834  1.00  0.00     0.000 C 
BRANCH   2   3
ATOM      3  C   UNL     1       9.436   0.588  33.765  1.00  0.00     0.000 C 
BRANCH   3   4
ATOM      4  C   UNL     1      10.836   0.035  34.082  1.00  0.00     0.006 C 
BRANCH   4   5
ATOM      5  C   UNL     1      11.661   1.004  34.939  1.00  0.00     0.053 C 
BRANCH   5   6
ATOM      6  C   UNL     1      12.475   1.935  34.092  1.00  0.00     0.041 C 
ATOM      7  O   UNL     1      13.657   1.637  33.778  1.00  0.00    -0.550 OA
ATOM      8  O   UNL     1      11.937   3.147  33.678  1.00  0.00    -0.550 OA
ENDBRANCH   5   6
ENDBRANCH   4   5
ENDBRANCH   3   4
ENDBRANCH   2   3
ENDBRANCH   1   2
BRANCH   1   9
ATOM      9  C   UNL     1       7.159  -0.122  35.727  1.00  0.00     0.000 C 
BRANCH   9  10
ATOM     10  C   UNL     1       5.759   0.228  36.265  1.00  0.00    -0.000 C 
BRANCH  10  11
ATOM     11  C   UNL     1       4.961  -1.009  36.701  1.00  0.00    -0.000 C 
BRANCH  11  12
ATOM     12  C   UNL     1       5.710  -2.300  36.341  1.00  0.00    -0.000 C 
BRANCH  12  13
ATOM     13  C   UNL     1       4.879  -3.563  36.618  1.00  0.00    -0.003 C 
ATOM     14  C   UNL     1       4.195  -3.532  37.985  1.00  0.00     0.004 C 
ENDBRANCH  12  13
ENDBRANCH  11  12
ENDBRANCH  10  11
ENDBRANCH   9  10
ENDBRANCH   1   9
TORSDOF 10
ENDMDL
MODEL 4
REMARK VINA RESULT:    -4.856      1.447      2.739
REMARK INTER + INTRA:          -8.186
REMARK INTER:                  -7.578
REMARK INTRA:                  -0.607
REMARK UNBOUND:                -0.491
REMARK SMILES CCCCCCCCCCCC(=O)[O-]
REMARK SMILES IDX 7 1 8 2 9 3 10 4 11 5 12 6 13 7 14 8 6 9 5 10 4 11 3 12 2 13
REMARK SMILES IDX 1 14
REMARK H PARENT
REMARK Flexibility Score: inf
ROOT
ATOM      1  C   UNL     1       8.076  -0.475  34.253  1.00  0.00     0.000 C 
ENDROOT
BRANCH   1   2
ATOM      2  C   UNL     1       9.384   0.341  34.234  1.00  0.00     0.000 C 
BRANCH   2   3
ATOM      3  C   UNL     1       9.427   1.521  35.221  1.00  0.00     0.000 C 
BRANCH   3   4
ATOM      4  C   UNL     1      10.419   1.297  36.375  1.00  0.00     0.006 C 
BRANCH   4   5
ATOM      5  C   UNL     1      11.874   1.263  35.891  1.00  0.00     0.053 C 
BRANCH   5   6
ATOM      6  C   UNL     1      12.248   2.526  35.177  1.00  0.00     0.041 C 
ATOM      7  O   UNL     1      12.616   2.489  33.973  1.00  0.00    -0.550 OA
ATOM      8  O   UNL     1      12.221   3.740  35.852  1.00  0.00    -0.550 OA
ENDBRANCH   5   6
ENDBRANCH   4   5
ENDBRANCH   3   4
ENDBRANCH   2   3
ENDBRANCH   1   2
BRANCH   1   9
ATOM      9  C   UNL     1       7.282  -0.410  35.574  1.00  0.00     0.000 C 
BRANCH   9  10
ATOM     10  C   UNL     1       6.685  -1.751  36.038  1.00  0.00    -0.000 C 
BRANCH  10  11
ATOM     11  C   UNL     1       5.213  -1.633  36.463  1.00  0.00    -0.000 C 
BRANCH  11  12
ATOM     12  C   UNL     1       4.820  -0.164  36.674  1.00  0.00    -0.000 C 
BRANCH  12  13
ATOM     13  C   UNL     1       3.656  -0.000  37.664  1.00  0.00    -0.003 C 
ATOM     14  C   UNL     1       3.111  -1.339  38.162  1.00  0.00     0.004 C 
ENDBRANCH  12  13
ENDBRANCH  11  12
ENDBRANCH  10  11
ENDBRANCH   9  10
ENDBRANCH   1   9
TORSDOF 10
ENDMDL
MODEL 5
REMARK VINA RESULT:    -4.810      4.077      7.295
REMARK INTER + INTRA:          -8.112
REMARK INTER:                  -7.530
REMARK INTRA:                  -0.582
REMARK UNBOUND:                -0.491
REMARK SMILES CCCCCCCCCCCC(=O)[O-]
REMARK SMILES IDX 7 1 8 2 9 3 10 4 11 5 12 6 13 7 14 8 6 9 5 10 4 11 3 12 2 13
REMARK SMILES IDX 1 14
REMARK H PARENT
REMARK Flexibility Score: inf
ROOT
ATOM      1  C   UNL     1       6.602  -2.001  35.964  1.00  0.00     0.000 C 
ENDROOT
BRANCH   1   2
ATOM      2  C   UNL     1       5.189  -1.733  36.518  1.00  0.00     0.000 C 
BRANCH   2   3
ATOM      3  C   UNL     1       4.818  -0.246  36.657  1.00  0.00     0.000 C 
BRANCH   3   4
ATOM      4  C   UNL     1       3.746   0.004  37.731  1.00  0.00     0.006 C 
BRANCH   4   5
ATOM      5  C   UNL     1       2.877  -1.235  37.982  1.00  0.00     0.053 C 
BRANCH   5   6
ATOM      6  C   UNL     1       2.861  -1.615  39.431  1.00  0.00     0.041 C 
ATOM      7  O   UNL     1       2.706  -0.734  40.316  1.00  0.00    -0.550 OA
ATOM      8  O   UNL     1       3.052  -2.939  39.804  1.00  0.00    -0.550 OA
ENDBRANCH   5   6
ENDBRANCH   4   5
ENDBRANCH   3   4
ENDBRANCH   2   3
ENDBRANCH   1   2
BRANCH   1   9
ATOM      9  C   UNL     1       7.456  -0.743  35.707  1.00  0.00     0.000 C 
BRANCH   9  10
ATOM     10  C   UNL     1       7.968  -0.589  34.264  1.00  0.00    -0.000 C 
BRANCH  10  11
ATOM     11  C   UNL     1       9.324   0.127  34.185  1.00  0.00    -0.000 C 
BRANCH  11  12
ATOM     12  C   UNL     1       9.223   1.555  34.739  1.00  0.00    -0.000 C 
BRANCH  12  13
ATOM     13  C   UNL     1      10.165   1.795  35.929  1.00  0.00    -0.003 C 
ATOM     14  C   UNL     1       9.421   1.887  37.262  1.00  0.00     0.004 C 
ENDBRANCH  12  13
ENDBRANCH  11  12
ENDBRANCH  10  11
ENDBRANCH   9  10
ENDBRANCH   1   9
TORSDOF 10
ENDMDL
MODEL 6
REMARK VINA RESULT:    -4.777      4.630      8.470
REMARK INTER + INTRA:          -8.062
REMARK INTER:                  -7.051
REMARK INTRA:                  -1.010
REMARK UNBOUND:                -0.491
REMARK SMILES CCCCCCCCCCCC(=O)[O-]
REMARK SMILES IDX 7 1 8 2 9 3 10 4 11 5 12 6 13 7 14 8 6 9 5 10 4 11 3 12 2 13
REMARK SMILES IDX 1 14
REMARK H PARENT
REMARK Flexibility Score: inf
ROOT
ATOM      1  C   UNL     1      12.729   1.722  35.838  1.00  0.00     0.000 C 
ENDROOT
BRANCH   1   2
ATOM      2  C   UNL     1      12.717   0.676  34.705  1.00  0.00     0.000 C 
BRANCH   2   3
ATOM      3  C   UNL     1      11.323   0.340  34.148  1.00  0.00     0.000 C 
BRANCH   3   4
ATOM      4  C   UNL     1      10.204   1.171  34.798  1.00  0.00     0.006 C 
BRANCH   4   5
ATOM      5  C   UNL     1       9.279   0.314  35.672  1.00  0.00     0.053 C 
BRANCH   5   6
ATOM      6  C   UNL     1       7.960   0.071  35.005  1.00  0.00     0.041 C 
ATOM      7  O   UNL     1       6.926  -0.125  35.696  1.00  0.00    -0.550 OA
ATOM      8  O   UNL     1       7.879   0.026  33.619  1.00  0.00    -0.550 OA
ENDBRANCH   5   6
ENDBRANCH   4   5
ENDBRANCH   3   4
ENDBRANCH   2   3
ENDBRANCH   1   2
BRANCH   1   9
ATOM      9  C   UNL     1      13.340   3.087  35.463  1.00  0.00     0.000 C 
BRANCH   9  10
ATOM     10  C   UNL     1      12.337   4.121  34.923  1.00  0.00    -0.000 C 
BRANCH  10  11
ATOM     11  C   UNL     1      12.564   4.456  33.441  1.00  0.00    -0.000 C 
BRANCH  11  12
ATOM     12  C   UNL     1      11.444   3.870  32.569  1.00  0.00    -0.000 C 
BRANCH  12  13
ATOM     13  C   UNL     1      10.372   4.911  32.207  1.00  0.00    -0.003 C 
ATOM     14  C   UNL     1      10.908   6.342  32.226  1.00  0.00     0.004 C 
ENDBRANCH  12  13
ENDBRANCH  11  12
ENDBRANCH  10  11
ENDBRANCH   9  10
ENDBRANCH   1   9
TORSDOF 10
ENDMDL
MODEL 7
REMARK VINA RESULT:    -4.770      0.980      1.666
REMARK INTER + INTRA:          -8.050
REMARK INTER:                  -7.611
REMARK INTRA:                  -0.439
REMARK UNBOUND:                -0.491
REMARK SMILES CCCCCCCCCCCC(=O)[O-]
REMARK SMILES IDX 7 1 8 2 9 3 10 4 11 5 12 6 13 7 14 8 6 9 5 10 4 11 3 12 2 13
REMARK SMILES IDX 1 14
REMARK H PARENT
REMARK Flexibility Score: inf
ROOT
ATOM      1  C   UNL     1       7.177  -0.513  35.583  1.00  0.00     0.000 C 
ENDROOT
BRANCH   1   2
ATOM      2  C   UNL     1       8.581   0.121  35.644  1.00  0.00     0.000 C 
BRANCH   2   3
ATOM      3  C   UNL     1       8.695   1.359  36.550  1.00  0.00     0.000 C 
BRANCH   3   4
ATOM      4  C   UNL     1      10.067   2.049  36.448  1.00  0.00     0.006 C 
BRANCH   4   5
ATOM      5  C   UNL     1      11.198   1.050  36.172  1.00  0.00     0.053 C 
BRANCH   5   6
ATOM      6  C   UNL     1      12.277   1.656  35.328  1.00  0.00     0.041 C 
ATOM      7  O   UNL     1      12.450   2.903  35.320  1.00  0.00    -0.550 OA
ATOM      8  O   UNL     1      13.067   0.846  34.523  1.00  0.00    -0.550 OA
ENDBRANCH   5   6
ENDBRANCH   4   5
ENDBRANCH   3   4
ENDBRANCH   2   3
ENDBRANCH   1   2
BRANCH   1   9
ATOM      9  C   UNL     1       6.074   0.264  36.330  1.00  0.00     0.000 C 
BRANCH   9  10
ATOM     10  C   UNL     1       4.817  -0.557  36.668  1.00  0.00    -0.000 C 
BRANCH  10  11
ATOM     11  C   UNL     1       3.739   0.270  37.385  1.00  0.00    -0.000 C 
BRANCH  11  12
ATOM     12  C   UNL     1       2.939  -0.602  38.363  1.00  0.00    -0.000 C 
BRANCH  12  13
ATOM     13  C   UNL     1       3.236  -2.100  38.197  1.00  0.00    -0.003 C 
ATOM     14  C   UNL     1       3.019  -2.892  39.488  1.00  0.00     0.004 C 
ENDBRANCH  12  13
ENDBRANCH  11  12
ENDBRANCH  10  11
ENDBRANCH   9  10
ENDBRANCH   1   9
TORSDOF 10
ENDMDL
MODEL 8
REMARK VINA RESULT:    -4.760      4.003      8.393
REMARK INTER + INTRA:          -8.034
REMARK INTER:                  -7.250
REMARK INTRA:                  -0.785
REMARK UNBOUND:                -0.491
REMARK SMILES CCCCCCCCCCCC(=O)[O-]
REMARK SMILES IDX 7 1 8 2 9 3 10 4 11 5 12 6 13 7 14 8 6 9 5 10 4 11 3 12 2 13
REMARK SMILES IDX 1 14
REMARK H PARENT
REMARK Flexibility Score: inf
ROOT
ATOM      1  C   UNL     1      11.245   0.054  34.190  1.00  0.00     0.000 C 
ENDROOT
BRANCH   1   2
ATOM      2  C   UNL     1      10.293   1.243  33.948  1.00  0.00     0.000 C 
BRANCH   2   3
ATOM      3  C   UNL     1       9.794   1.945  35.222  1.00  0.00     0.000 C 
BRANCH   3   4
ATOM      4  C   UNL     1       8.766   1.107  36.001  1.00  0.00     0.006 C 
BRANCH   4   5
ATOM      5  C   UNL     1       7.907   0.237  35.075  1.00  0.00     0.053 C 
BRANCH   5   6
ATOM      6  C   UNL     1       6.799  -0.439  35.824  1.00  0.00     0.041 C 
ATOM      7  O   UNL     1       6.755  -1.695  35.894  1.00  0.00    -0.550 OA
ATOM      8  O   UNL     1       5.797   0.320  36.415  1.00  0.00    -0.550 OA
ENDBRANCH   5   6
ENDBRANCH   4   5
ENDBRANCH   3   4
ENDBRANCH   2   3
ENDBRANCH   1   2
BRANCH   1   9
ATOM      9  C   UNL     1      12.690   0.437  34.565  1.00  0.00     0.000 C 
BRANCH   9  10
ATOM     10  C   UNL     1      13.143   1.824  34.074  1.00  0.00    -0.000 C 
BRANCH  10  11
ATOM     11  C   UNL     1      13.284   2.844  35.214  1.00  0.00    -0.000 C 
BRANCH  11  12
ATOM     12  C   UNL     1      12.673   4.196  34.818  1.00  0.00    -0.000 C 
BRANCH  12  13
ATOM     13  C   UNL     1      12.346   4.281  33.319  1.00  0.00    -0.003 C 
ATOM     14  C   UNL     1      11.596   5.561  32.950  1.00  0.00     0.004 C 
ENDBRANCH  12  13
ENDBRANCH  11  12
ENDBRANCH  10  11
ENDBRANCH   9  10
ENDBRANCH   1   9
TORSDOF 10
ENDMDL
MODEL 9
REMARK VINA RESULT:    -4.736      1.822      2.372
REMARK INTER + INTRA:          -7.997
REMARK INTER:                  -7.371
REMARK INTRA:                  -0.626
REMARK UNBOUND:                -0.491
REMARK SMILES CCCCCCCCCCCC(=O)[O-]
REMARK SMILES IDX 7 1 8 2 9 3 10 4 11 5 12 6 13 7 14 8 6 9 5 10 4 11 3 12 2 13
REMARK SMILES IDX 1 14
REMARK H PARENT
REMARK Flexibility Score: inf
ROOT
ATOM      1  C   UNL     1       6.204  -1.391  36.005  1.00  0.00     0.000 C 
ENDROOT
BRANCH   1   2
ATOM      2  C   UNL     1       7.563  -0.767  35.627  1.00  0.00     0.000 C 
BRANCH   2   3
ATOM      3  C   UNL     1       7.689   0.738  35.919  1.00  0.00     0.000 C 
BRANCH   3   4
ATOM      4  C   UNL     1       8.840   1.402  35.144  1.00  0.00     0.006 C 
BRANCH   4   5
ATOM      5  C   UNL     1      10.208   0.831  35.538  1.00  0.00     0.053 C 
BRANCH   5   6
ATOM      6  C   UNL     1      10.967   0.341  34.343  1.00  0.00     0.041 C 
ATOM      7  O   UNL     1      10.388  -0.348  33.463  1.00  0.00    -0.550 OA
ATOM      8  O   UNL     1      12.323   0.616  34.220  1.00  0.00    -0.550 OA
ENDBRANCH   5   6
ENDBRANCH   4   5
ENDBRANCH   3   4
ENDBRANCH   2   3
ENDBRANCH   1   2
BRANCH   1   9
ATOM      9  C   UNL     1       6.162  -2.932  35.980  1.00  0.00     0.000 C 
BRANCH   9  10
ATOM     10  C   UNL     1       4.829  -3.553  36.438  1.00  0.00    -0.000 C 
BRANCH  10  11
ATOM     11  C   UNL     1       4.396  -3.075  37.832  1.00  0.00    -0.000 C 
BRANCH  11  12
ATOM     12  C   UNL     1       2.965  -2.520  37.801  1.00  0.00    -0.000 C 
BRANCH  12  13
ATOM     13  C   UNL     1       2.813  -1.231  38.624  1.00  0.00    -0.003 C 
ATOM     14  C   UNL     1       3.356   0.001  37.899  1.00  0.00     0.004 C 
ENDBRANCH  12  13
ENDBRANCH  11  12
ENDBRANCH  10  11
ENDBRANCH   9  10
ENDBRANCH   1   9
TORSDOF 10
ENDMDL
