MODEL 1
REMARK VINA RESULT:    -7.396      0.000      0.000
REMARK INTER + INTRA:          -8.995
REMARK INTER:                  -8.693
REMARK INTRA:                  -0.302
REMARK UNBOUND:                -0.302
REMARK SMILES O=c1cc(-c2ccc(O)c(O)c2)oc2cc(O)cc(O)c12
REMARK SMILES IDX 4 1 3 2 2 3 1 4 21 5 19 6 18 7 16 8 15 9 14 10 13 11 5 12
REMARK SMILES IDX 6 13 7 14 8 15 12 16 10 17 9 18 11 20 20 22 17 24
REMARK H PARENT 9 19 11 21 20 23 17 25
REMARK Flexibility Score: inf
ROOT
ATOM      1  C   UNL     1     -12.842  39.061  -5.860  1.00  0.00     0.138 A 
ATOM      2  C   UNL     1     -14.165  38.602  -5.802  1.00  0.00     0.100 A 
ATOM      3  C   UNL     1     -15.099  39.071  -6.727  1.00  0.00     0.197 A 
ATOM      4  O   UNL     1     -16.263  38.595  -6.689  1.00  0.00    -0.289 OA
ATOM      5  C   UNL     1     -14.712  40.028  -7.695  1.00  0.00     0.107 A 
ATOM      6  C   UNL     1     -15.587  40.608  -8.662  1.00  0.00     0.134 A 
ATOM      7  C   UNL     1     -15.064  41.457  -9.645  1.00  0.00     0.093 A 
ATOM      8  C   UNL     1     -13.712  41.796  -9.660  1.00  0.00     0.123 A 
ATOM      9  C   UNL     1     -12.857  41.278  -8.686  1.00  0.00     0.094 A 
ATOM     10  C   UNL     1     -13.340  40.400  -7.713  1.00  0.00     0.146 A 
ATOM     11  O   UNL     1     -12.491  39.918  -6.814  1.00  0.00    -0.456 OA
ENDROOT
BRANCH   1  12
ATOM     12  C   UNL     1     -11.809  38.596  -4.901  1.00  0.00     0.021 A 
ATOM     13  C   UNL     1     -11.846  37.270  -4.432  1.00  0.00     0.016 A 
ATOM     14  C   UNL     1     -10.880  36.806  -3.534  1.00  0.00     0.051 A 
ATOM     15  C   UNL     1      -9.855  37.655  -3.099  1.00  0.00     0.157 A 
ATOM     16  C   UNL     1     -10.767  39.439  -4.469  1.00  0.00     0.062 A 
ATOM     17  C   UNL     1      -9.796  38.972  -3.570  1.00  0.00     0.158 A 
BRANCH  15  18
ATOM     18  O   UNL     1      -8.890  37.196  -2.205  1.00  0.00    -0.504 OA
ATOM     19  H   UNL     1      -8.697  36.207  -2.096  1.00  0.00     0.293 HD
ENDBRANCH  15  18
BRANCH  17  20
ATOM     20  O   UNL     1      -8.768  39.811  -3.143  1.00  0.00    -0.504 OA
ATOM     21  H   UNL     1      -8.047  40.132  -3.777  1.00  0.00     0.293 HD
ENDBRANCH  17  20
ENDBRANCH   1  12
BRANCH   6  22
ATOM     22  O   UNL     1     -16.970  40.402  -8.685  1.00  0.00    -0.507 OA
ATOM     23  H   UNL     1     -17.471  39.782  -8.068  1.00  0.00     0.293 HD
ENDBRANCH   6  22
BRANCH   8  24
ATOM     24  O   UNL     1     -13.230  42.657 -10.643  1.00  0.00    -0.508 OA
ATOM     25  H   UNL     1     -13.857  43.189 -11.235  1.00  0.00     0.293 HD
ENDBRANCH   8  24
TORSDOF 5
ENDMDL
MODEL 2
REMARK VINA RESULT:    -7.389      4.594      7.511
REMARK INTER + INTRA:          -8.987
REMARK INTER:                  -8.691
REMARK INTRA:                  -0.296
REMARK UNBOUND:                -0.302
REMARK SMILES O=c1cc(-c2ccc(O)c(O)c2)oc2cc(O)cc(O)c12
REMARK SMILES IDX 4 1 3 2 2 3 1 4 21 5 19 6 18 7 16 8 15 9 14 10 13 11 5 12
REMARK SMILES IDX 6 13 7 14 8 15 12 16 10 17 9 18 11 20 20 22 17 24
REMARK H PARENT 9 19 11 21 20 23 17 25
REMARK Flexibility Score: inf
ROOT
ATOM      1  C   UNL     1     -11.658  39.719 -10.030  1.00  0.00     0.138 A 
ATOM      2  C   UNL     1     -10.602  40.564  -9.661  1.00  0.00     0.100 A 
ATOM      3  C   UNL     1      -9.294  40.228 -10.013  1.00  0.00     0.197 A 
ATOM      4  O   UNL     1      -8.375  41.036  -9.721  1.00  0.00    -0.289 OA
ATOM      5  C   UNL     1      -9.040  39.024 -10.712  1.00  0.00     0.107 A 
ATOM      6  C   UNL     1      -7.744  38.559 -11.087  1.00  0.00     0.134 A 
ATOM      7  C   UNL     1      -7.626  37.410 -11.880  1.00  0.00     0.093 A 
ATOM      8  C   UNL     1      -8.749  36.676 -12.258  1.00  0.00     0.123 A 
ATOM      9  C   UNL     1     -10.017  37.091 -11.851  1.00  0.00     0.094 A 
ATOM     10  C   UNL     1     -10.172  38.253 -11.090  1.00  0.00     0.146 A 
ATOM     11  O   UNL     1     -11.398  38.621 -10.735  1.00  0.00    -0.456 OA
ENDROOT
BRANCH   1  12
ATOM     12  C   UNL     1     -13.067  40.027  -9.682  1.00  0.00     0.021 A 
ATOM     13  C   UNL     1     -14.080  39.112 -10.021  1.00  0.00     0.016 A 
ATOM     14  C   UNL     1     -15.414  39.376  -9.697  1.00  0.00     0.051 A 
ATOM     15  C   UNL     1     -15.756  40.553  -9.019  1.00  0.00     0.157 A 
ATOM     16  C   UNL     1     -13.418  41.202  -8.988  1.00  0.00     0.062 A 
ATOM     17  C   UNL     1     -14.757  41.464  -8.661  1.00  0.00     0.158 A 
BRANCH  15  18
ATOM     18  O   UNL     1     -17.085  40.819  -8.694  1.00  0.00    -0.504 OA
ATOM     19  H   UNL     1     -17.402  41.760  -8.489  1.00  0.00     0.293 HD
ENDBRANCH  15  18
BRANCH  17  20
ATOM     20  O   UNL     1     -15.100  42.630  -7.977  1.00  0.00    -0.504 OA
ATOM     21  H   UNL     1     -14.755  42.819  -7.043  1.00  0.00     0.293 HD
ENDBRANCH  17  20
ENDBRANCH   1  12
BRANCH   6  22
ATOM     22  O   UNL     1      -6.551  39.171 -10.691  1.00  0.00    -0.507 OA
ATOM     23  H   UNL     1      -6.319  39.423  -9.744  1.00  0.00     0.293 HD
ENDBRANCH   6  22
BRANCH   8  24
ATOM     24  O   UNL     1      -8.592  35.530 -13.033  1.00  0.00    -0.508 OA
ATOM     25  H   UNL     1      -7.850  35.451 -13.719  1.00  0.00     0.293 HD
ENDBRANCH   8  24
TORSDOF 5
ENDMDL
MODEL 3
REMARK VINA RESULT:    -7.386      6.555      9.024
REMARK INTER + INTRA:          -8.983
REMARK INTER:                  -8.700
REMARK INTRA:                  -0.282
REMARK UNBOUND:                -0.302
REMARK SMILES O=c1cc(-c2ccc(O)c(O)c2)oc2cc(O)cc(O)c12
REMARK SMILES IDX 4 1 3 2 2 3 1 4 21 5 19 6 18 7 16 8 15 9 14 10 13 11 5 12
REMARK SMILES IDX 6 13 7 14 8 15 12 16 10 17 9 18 11 20 20 22 17 24
REMARK H PARENT 9 19 11 21 20 23 17 25
REMARK Flexibility Score: inf
ROOT
ATOM      1  C   UNL     1     -15.976  35.798  -1.632  1.00  0.00     0.138 A 
ATOM      2  C   UNL     1     -16.965  36.741  -1.945  1.00  0.00     0.100 A 
ATOM      3  C   UNL     1     -17.666  37.374  -0.918  1.00  0.00     0.197 A 
ATOM      4  O   UNL     1     -18.503  38.260  -1.228  1.00  0.00    -0.289 OA
ATOM      5  C   UNL     1     -17.396  37.035   0.430  1.00  0.00     0.107 A 
ATOM      6  C   UNL     1     -18.077  37.585   1.558  1.00  0.00     0.134 A 
ATOM      7  C   UNL     1     -17.643  37.261   2.850  1.00  0.00     0.093 A 
ATOM      8  C   UNL     1     -16.597  36.363   3.056  1.00  0.00     0.123 A 
ATOM      9  C   UNL     1     -15.961  35.778   1.961  1.00  0.00     0.094 A 
ATOM     10  C   UNL     1     -16.345  36.107   0.659  1.00  0.00     0.146 A 
ATOM     11  O   UNL     1     -15.704  35.539  -0.356  1.00  0.00    -0.456 OA
ENDROOT
BRANCH   1  12
ATOM     12  C   UNL     1     -15.201  35.095  -2.685  1.00  0.00     0.021 A 
ATOM     13  C   UNL     1     -14.860  33.743  -2.507  1.00  0.00     0.016 A 
ATOM     14  C   UNL     1     -14.137  33.057  -3.488  1.00  0.00     0.051 A 
ATOM     15  C   UNL     1     -13.753  33.709  -4.666  1.00  0.00     0.157 A 
ATOM     16  C   UNL     1     -14.822  35.740  -3.879  1.00  0.00     0.062 A 
ATOM     17  C   UNL     1     -14.099  35.050  -4.864  1.00  0.00     0.158 A 
BRANCH  15  18
ATOM     18  O   UNL     1     -13.032  33.029  -5.646  1.00  0.00    -0.504 OA
ATOM     19  H   UNL     1     -12.022  33.101  -5.706  1.00  0.00     0.293 HD
ENDBRANCH  15  18
BRANCH  17  20
ATOM     20  O   UNL     1     -13.723  35.693  -6.042  1.00  0.00    -0.504 OA
ATOM     21  H   UNL     1     -14.408  36.112  -6.660  1.00  0.00     0.293 HD
ENDBRANCH  17  20
ENDBRANCH   1  12
BRANCH   6  22
ATOM     22  O   UNL     1     -19.189  38.426   1.465  1.00  0.00    -0.507 OA
ATOM     23  H   UNL     1     -20.018  38.351   2.032  1.00  0.00     0.293 HD
ENDBRANCH   6  22
BRANCH   8  24
ATOM     24  O   UNL     1     -16.203  36.052   4.355  1.00  0.00    -0.508 OA
ATOM     25  H   UNL     1     -15.631  36.685   4.901  1.00  0.00     0.293 HD
ENDBRANCH   8  24
TORSDOF 5
ENDMDL
MODEL 4
REMARK VINA RESULT:    -7.338      5.844      9.473
REMARK INTER + INTRA:          -8.927
REMARK INTER:                  -8.630
REMARK INTRA:                  -0.296
REMARK UNBOUND:                -0.302
REMARK SMILES O=c1cc(-c2ccc(O)c(O)c2)oc2cc(O)cc(O)c12
REMARK SMILES IDX 4 1 3 2 2 3 1 4 21 5 19 6 18 7 16 8 15 9 14 10 13 11 5 12
REMARK SMILES IDX 6 13 7 14 8 15 12 16 10 17 9 18 11 20 20 22 17 24
REMARK H PARENT 9 19 11 21 20 23 17 25
REMARK Flexibility Score: inf
ROOT
ATOM      1  C   UNL     1     -15.547  38.377  -0.527  1.00  0.00     0.138 A 
ATOM      2  C   UNL     1     -16.439  38.020   0.493  1.00  0.00     0.100 A 
ATOM      3  C   UNL     1     -15.990  37.959   1.813  1.00  0.00     0.197 A 
ATOM      4  O   UNL     1     -16.828  37.696   2.714  1.00  0.00    -0.289 OA
ATOM      5  C   UNL     1     -14.631  38.227   2.107  1.00  0.00     0.107 A 
ATOM      6  C   UNL     1     -14.052  38.155   3.410  1.00  0.00     0.134 A 
ATOM      7  C   UNL     1     -12.723  38.556   3.596  1.00  0.00     0.093 A 
ATOM      8  C   UNL     1     -11.936  38.967   2.522  1.00  0.00     0.123 A 
ATOM      9  C   UNL     1     -12.476  38.989   1.236  1.00  0.00     0.094 A 
ATOM     10  C   UNL     1     -13.809  38.629   1.021  1.00  0.00     0.146 A 
ATOM     11  O   UNL     1     -14.289  38.678  -0.217  1.00  0.00    -0.456 OA
ENDROOT
BRANCH   1  12
ATOM     12  C   UNL     1     -15.971  38.457  -1.947  1.00  0.00     0.021 A 
ATOM     13  C   UNL     1     -15.074  38.953  -2.910  1.00  0.00     0.016 A 
ATOM     14  C   UNL     1     -15.448  39.031  -4.255  1.00  0.00     0.051 A 
ATOM     15  C   UNL     1     -16.718  38.604  -4.661  1.00  0.00     0.157 A 
ATOM     16  C   UNL     1     -17.242  38.017  -2.365  1.00  0.00     0.062 A 
ATOM     17  C   UNL     1     -17.615  38.094  -3.716  1.00  0.00     0.158 A 
BRANCH  15  18
ATOM     18  O   UNL     1     -17.094  38.681  -6.001  1.00  0.00    -0.504 OA
ATOM     19  H   UNL     1     -16.911  37.921  -6.646  1.00  0.00     0.293 HD
ENDBRANCH  15  18
BRANCH  17  20
ATOM     20  O   UNL     1     -18.875  37.660  -4.125  1.00  0.00    -0.504 OA
ATOM     21  H   UNL     1     -19.675  37.694  -3.505  1.00  0.00     0.293 HD
ENDBRANCH  17  20
ENDBRANCH   1  12
BRANCH   6  22
ATOM     22  O   UNL     1     -14.726  37.679   4.538  1.00  0.00    -0.507 OA
ATOM     23  H   UNL     1     -15.709  37.461   4.574  1.00  0.00     0.293 HD
ENDBRANCH   6  22
BRANCH   8  24
ATOM     24  O   UNL     1     -10.613  39.344   2.743  1.00  0.00    -0.508 OA
ATOM     25  H   UNL     1      -9.897  38.661   2.958  1.00  0.00     0.293 HD
ENDBRANCH   8  24
TORSDOF 5
ENDMDL
MODEL 5
REMARK VINA RESULT:    -7.337      4.579      7.170
REMARK INTER + INTRA:          -8.925
REMARK INTER:                  -8.662
REMARK INTRA:                  -0.263
REMARK UNBOUND:                -0.302
REMARK SMILES O=c1cc(-c2ccc(O)c(O)c2)oc2cc(O)cc(O)c12
REMARK SMILES IDX 4 1 3 2 2 3 1 4 21 5 19 6 18 7 16 8 15 9 14 10 13 11 5 12
REMARK SMILES IDX 6 13 7 14 8 15 12 16 10 17 9 18 11 20 20 22 17 24
REMARK H PARENT 9 19 11 21 20 23 17 25
REMARK Flexibility Score: inf
ROOT
ATOM      1  C   UNL     1     -11.771  38.532  -9.854  1.00  0.00     0.138 A 
ATOM      2  C   UNL     1     -11.454  37.247 -10.316  1.00  0.00     0.100 A 
ATOM      3  C   UNL     1     -10.175  36.988 -10.812  1.00  0.00     0.197 A 
ATOM      4  O   UNL     1      -9.901  35.811 -11.162  1.00  0.00    -0.289 OA
ATOM      5  C   UNL     1      -9.219  38.030 -10.872  1.00  0.00     0.107 A 
ATOM      6  C   UNL     1      -7.898  37.893 -11.395  1.00  0.00     0.134 A 
ATOM      7  C   UNL     1      -7.002  38.964 -11.295  1.00  0.00     0.093 A 
ATOM      8  C   UNL     1      -7.395  40.185 -10.749  1.00  0.00     0.123 A 
ATOM      9  C   UNL     1      -8.701  40.348 -10.284  1.00  0.00     0.094 A 
ATOM     10  C   UNL     1      -9.609  39.287 -10.336  1.00  0.00     0.146 A 
ATOM     11  O   UNL     1     -10.838  39.479  -9.870  1.00  0.00    -0.456 OA
ENDROOT
BRANCH   1  12
ATOM     12  C   UNL     1     -13.115  38.863  -9.318  1.00  0.00     0.021 A 
ATOM     13  C   UNL     1     -13.310  38.921  -7.926  1.00  0.00     0.016 A 
ATOM     14  C   UNL     1     -14.564  39.238  -7.397  1.00  0.00     0.051 A 
ATOM     15  C   UNL     1     -15.641  39.511  -8.249  1.00  0.00     0.157 A 
ATOM     16  C   UNL     1     -14.200  39.152 -10.168  1.00  0.00     0.062 A 
ATOM     17  C   UNL     1     -15.459  39.472  -9.635  1.00  0.00     0.158 A 
BRANCH  15  18
ATOM     18  O   UNL     1     -16.893  39.827  -7.725  1.00  0.00    -0.504 OA
ATOM     19  H   UNL     1     -17.306  40.744  -7.855  1.00  0.00     0.293 HD
ENDBRANCH  15  18
BRANCH  17  20
ATOM     20  O   UNL     1     -16.530  39.755 -10.481  1.00  0.00    -0.504 OA
ATOM     21  H   UNL     1     -16.388  40.033 -11.444  1.00  0.00     0.293 HD
ENDBRANCH  17  20
ENDBRANCH   1  12
BRANCH   6  22
ATOM     22  O   UNL     1      -7.429  36.744 -12.038  1.00  0.00    -0.507 OA
ATOM     23  H   UNL     1      -7.689  36.457 -12.968  1.00  0.00     0.293 HD
ENDBRANCH   6  22
BRANCH   8  24
ATOM     24  O   UNL     1      -6.481  41.234 -10.680  1.00  0.00    -0.508 OA
ATOM     25  H   UNL     1      -6.727  42.125 -10.266  1.00  0.00     0.293 HD
ENDBRANCH   8  24
TORSDOF 5
ENDMDL
MODEL 6
REMARK VINA RESULT:    -7.084      8.107      9.710
REMARK INTER + INTRA:          -8.628
REMARK INTER:                  -8.312
REMARK INTRA:                  -0.316
REMARK UNBOUND:                -0.302
REMARK SMILES O=c1cc(-c2ccc(O)c(O)c2)oc2cc(O)cc(O)c12
REMARK SMILES IDX 4 1 3 2 2 3 1 4 21 5 19 6 18 7 16 8 15 9 14 10 13 11 5 12
REMARK SMILES IDX 6 13 7 14 8 15 12 16 10 17 9 18 11 20 20 22 17 24
REMARK H PARENT 9 19 11 21 20 23 17 25
REMARK Flexibility Score: inf
ROOT
ATOM      1  C   UNL     1     -16.852  36.473   1.392  1.00  0.00     0.138 A 
ATOM      2  C   UNL     1     -15.622  35.866   1.101  1.00  0.00     0.100 A 
ATOM      3  C   UNL     1     -15.222  35.720  -0.228  1.00  0.00     0.197 A 
ATOM      4  O   UNL     1     -14.087  35.228  -0.455  1.00  0.00    -0.289 OA
ATOM      5  C   UNL     1     -16.073  36.157  -1.271  1.00  0.00     0.107 A 
ATOM      6  C   UNL     1     -15.788  36.022  -2.663  1.00  0.00     0.134 A 
ATOM      7  C   UNL     1     -16.652  36.597  -3.603  1.00  0.00     0.093 A 
ATOM      8  C   UNL     1     -17.820  37.247  -3.206  1.00  0.00     0.123 A 
ATOM      9  C   UNL     1     -18.136  37.337  -1.850  1.00  0.00     0.094 A 
ATOM     10  C   UNL     1     -17.277  36.805  -0.885  1.00  0.00     0.146 A 
ATOM     11  O   UNL     1     -17.608  36.925   0.396  1.00  0.00    -0.456 OA
ENDROOT
BRANCH   1  12
ATOM     12  C   UNL     1     -17.326  36.653   2.787  1.00  0.00     0.021 A 
ATOM     13  C   UNL     1     -16.663  35.990   3.835  1.00  0.00     0.016 A 
ATOM     14  C   UNL     1     -17.086  36.149   5.157  1.00  0.00     0.051 A 
ATOM     15  C   UNL     1     -18.172  36.982   5.456  1.00  0.00     0.157 A 
ATOM     16  C   UNL     1     -18.409  37.500   3.097  1.00  0.00     0.062 A 
ATOM     17  C   UNL     1     -18.831  37.661   4.426  1.00  0.00     0.158 A 
BRANCH  15  18
ATOM     18  O   UNL     1     -18.596  37.143   6.773  1.00  0.00    -0.504 OA
ATOM     19  H   UNL     1     -18.764  36.346   7.377  1.00  0.00     0.293 HD
ENDBRANCH  15  18
BRANCH  17  20
ATOM     20  O   UNL     1     -19.905  38.497   4.727  1.00  0.00    -0.504 OA
ATOM     21  H   UNL     1     -20.855  38.148   4.769  1.00  0.00     0.293 HD
ENDBRANCH  17  20
ENDBRANCH   1  12
BRANCH   6  22
ATOM     22  O   UNL     1     -14.692  35.319  -3.171  1.00  0.00    -0.507 OA
ATOM     23  H   UNL     1     -13.812  35.734  -3.434  1.00  0.00     0.293 HD
ENDBRANCH   6  22
BRANCH   8  24
ATOM     24  O   UNL     1     -18.664  37.794  -4.170  1.00  0.00    -0.508 OA
ATOM     25  H   UNL     1     -19.372  37.236  -4.632  1.00  0.00     0.293 HD
ENDBRANCH   8  24
TORSDOF 5
ENDMDL
MODEL 7
REMARK VINA RESULT:    -7.020      1.474      2.704
REMARK INTER + INTRA:          -8.553
REMARK INTER:                  -8.289
REMARK INTRA:                  -0.263
REMARK UNBOUND:                -0.302
REMARK SMILES O=c1cc(-c2ccc(O)c(O)c2)oc2cc(O)cc(O)c12
REMARK SMILES IDX 4 1 3 2 2 3 1 4 21 5 19 6 18 7 16 8 15 9 14 10 13 11 5 12
REMARK SMILES IDX 6 13 7 14 8 15 12 16 10 17 9 18 11 20 20 22 17 24
REMARK H PARENT 9 19 11 21 20 23 17 25
REMARK Flexibility Score: inf
ROOT
ATOM      1  C   UNL     1     -11.721  39.001  -6.938  1.00  0.00     0.138 A 
ATOM      2  C   UNL     1     -11.018  39.151  -8.141  1.00  0.00     0.100 A 
ATOM      3  C   UNL     1     -11.690  39.584  -9.285  1.00  0.00     0.197 A 
ATOM      4  O   UNL     1     -11.022  39.767 -10.334  1.00  0.00    -0.289 OA
ATOM      5  C   UNL     1     -13.082  39.838  -9.228  1.00  0.00     0.107 A 
ATOM      6  C   UNL     1     -13.880  40.244 -10.340  1.00  0.00     0.134 A 
ATOM      7  C   UNL     1     -15.225  40.580 -10.137  1.00  0.00     0.093 A 
ATOM      8  C   UNL     1     -15.815  40.466  -8.879  1.00  0.00     0.123 A 
ATOM      9  C   UNL     1     -15.058  40.018  -7.796  1.00  0.00     0.094 A 
ATOM     10  C   UNL     1     -13.705  39.709  -7.957  1.00  0.00     0.146 A 
ATOM     11  O   UNL     1     -13.016  39.300  -6.898  1.00  0.00    -0.456 OA
ENDROOT
BRANCH   1  12
ATOM     12  C   UNL     1     -11.055  38.543  -5.693  1.00  0.00     0.021 A 
ATOM     13  C   UNL     1     -11.216  37.211  -5.271  1.00  0.00     0.016 A 
ATOM     14  C   UNL     1     -10.593  36.754  -4.106  1.00  0.00     0.051 A 
ATOM     15  C   UNL     1      -9.790  37.617  -3.350  1.00  0.00     0.157 A 
ATOM     16  C   UNL     1     -10.235  39.401  -4.934  1.00  0.00     0.062 A 
ATOM     17  C   UNL     1      -9.608  38.941  -3.766  1.00  0.00     0.158 A 
BRANCH  15  18
ATOM     18  O   UNL     1      -9.168  37.165  -2.188  1.00  0.00    -0.504 OA
ATOM     19  H   UNL     1      -8.471  36.429  -2.212  1.00  0.00     0.293 HD
ENDBRANCH  15  18
BRANCH  17  20
ATOM     20  O   UNL     1      -8.800  39.794  -3.016  1.00  0.00    -0.504 OA
ATOM     21  H   UNL     1      -8.863  39.835  -2.006  1.00  0.00     0.293 HD
ENDBRANCH  17  20
ENDBRANCH   1  12
BRANCH   6  22
ATOM     22  O   UNL     1     -13.411  40.310 -11.654  1.00  0.00    -0.507 OA
ATOM     23  H   UNL     1     -12.507  40.664 -11.927  1.00  0.00     0.293 HD
ENDBRANCH   6  22
BRANCH   8  24
ATOM     24  O   UNL     1     -17.159  40.794  -8.718  1.00  0.00    -0.508 OA
ATOM     25  H   UNL     1     -17.470  41.406  -7.973  1.00  0.00     0.293 HD
ENDBRANCH   8  24
TORSDOF 5
ENDMDL
MODEL 8
REMARK VINA RESULT:    -7.007      6.320      7.992
REMARK INTER + INTRA:          -8.538
REMARK INTER:                  -8.221
REMARK INTRA:                  -0.317
REMARK UNBOUND:                -0.302
REMARK SMILES O=c1cc(-c2ccc(O)c(O)c2)oc2cc(O)cc(O)c12
REMARK SMILES IDX 4 1 3 2 2 3 1 4 21 5 19 6 18 7 16 8 15 9 14 10 13 11 5 12
REMARK SMILES IDX 6 13 7 14 8 15 12 16 10 17 9 18 11 20 20 22 17 24
REMARK H PARENT 9 19 11 21 20 23 17 25
REMARK Flexibility Score: inf
ROOT
ATOM      1  C   UNL     1     -16.314  36.370  -0.853  1.00  0.00     0.138 A 
ATOM      2  C   UNL     1     -17.143  37.020  -1.778  1.00  0.00     0.100 A 
ATOM      3  C   UNL     1     -16.860  36.930  -3.141  1.00  0.00     0.197 A 
ATOM      4  O   UNL     1     -17.656  37.473  -3.950  1.00  0.00    -0.289 OA
ATOM      5  C   UNL     1     -15.721  36.210  -3.578  1.00  0.00     0.107 A 
ATOM      6  C   UNL     1     -15.311  36.085  -4.939  1.00  0.00     0.134 A 
ATOM      7  C   UNL     1     -14.234  35.250  -5.260  1.00  0.00     0.093 A 
ATOM      8  C   UNL     1     -13.515  34.585  -4.268  1.00  0.00     0.123 A 
ATOM      9  C   UNL     1     -13.874  34.743  -2.929  1.00  0.00     0.094 A 
ATOM     10  C   UNL     1     -14.966  35.541  -2.578  1.00  0.00     0.146 A 
ATOM     11  O   UNL     1     -15.283  35.654  -1.293  1.00  0.00    -0.456 OA
ENDROOT
BRANCH   1  12
ATOM     12  C   UNL     1     -16.569  36.433   0.608  1.00  0.00     0.021 A 
ATOM     13  C   UNL     1     -17.540  37.320   1.103  1.00  0.00     0.016 A 
ATOM     14  C   UNL     1     -17.804  37.393   2.474  1.00  0.00     0.051 A 
ATOM     15  C   UNL     1     -17.109  36.572   3.371  1.00  0.00     0.157 A 
ATOM     16  C   UNL     1     -15.884  35.601   1.515  1.00  0.00     0.062 A 
ATOM     17  C   UNL     1     -16.151  35.673   2.891  1.00  0.00     0.158 A 
BRANCH  15  18
ATOM     18  O   UNL     1     -17.369  36.642   4.738  1.00  0.00    -0.504 OA
ATOM     19  H   UNL     1     -18.132  37.200   5.105  1.00  0.00     0.293 HD
ENDBRANCH  15  18
BRANCH  17  20
ATOM     20  O   UNL     1     -15.468  34.849   3.785  1.00  0.00    -0.504 OA
ATOM     21  H   UNL     1     -14.501  34.589   3.635  1.00  0.00     0.293 HD
ENDBRANCH  17  20
ENDBRANCH   1  12
BRANCH   6  22
ATOM     22  O   UNL     1     -15.908  36.772  -6.000  1.00  0.00    -0.507 OA
ATOM     23  H   UNL     1     -16.505  37.578  -5.902  1.00  0.00     0.293 HD
ENDBRANCH   6  22
BRANCH   8  24
ATOM     24  O   UNL     1     -12.440  33.775  -4.624  1.00  0.00    -0.508 OA
ATOM     25  H   UNL     1     -11.553  33.826  -4.136  1.00  0.00     0.293 HD
ENDBRANCH   8  24
TORSDOF 5
ENDMDL
MODEL 9
REMARK VINA RESULT:    -6.986      2.124      3.197
REMARK INTER + INTRA:          -8.512
REMARK INTER:                  -8.200
REMARK INTRA:                  -0.312
REMARK UNBOUND:                -0.302
REMARK SMILES O=c1cc(-c2ccc(O)c(O)c2)oc2cc(O)cc(O)c12
REMARK SMILES IDX 4 1 3 2 2 3 1 4 21 5 19 6 18 7 16 8 15 9 14 10 13 11 5 12
REMARK SMILES IDX 6 13 7 14 8 15 12 16 10 17 9 18 11 20 20 22 17 24
REMARK H PARENT 9 19 11 21 20 23 17 25
REMARK Flexibility Score: inf
ROOT
ATOM      1  C   UNL     1     -11.365  39.515  -5.344  1.00  0.00     0.138 A 
ATOM      2  C   UNL     1     -10.477  39.156  -6.368  1.00  0.00     0.100 A 
ATOM      3  C   UNL     1     -10.792  39.461  -7.693  1.00  0.00     0.197 A 
ATOM      4  O   UNL     1      -9.949  39.182  -8.583  1.00  0.00    -0.289 OA
ATOM      5  C   UNL     1     -12.018  40.102  -7.995  1.00  0.00     0.107 A 
ATOM      6  C   UNL     1     -12.464  40.426  -9.312  1.00  0.00     0.134 A 
ATOM      7  C   UNL     1     -13.641  41.165  -9.479  1.00  0.00     0.093 A 
ATOM      8  C   UNL     1     -14.420  41.540  -8.385  1.00  0.00     0.123 A 
ATOM      9  C   UNL     1     -14.022  41.181  -7.097  1.00  0.00     0.094 A 
ATOM     10  C   UNL     1     -12.834  40.475  -6.893  1.00  0.00     0.146 A 
ATOM     11  O   UNL     1     -12.483  40.166  -5.649  1.00  0.00    -0.456 OA
ENDROOT
BRANCH   1  12
ATOM     12  C   UNL     1     -11.080  39.215  -3.918  1.00  0.00     0.021 A 
ATOM     13  C   UNL     1      -9.756  38.958  -3.517  1.00  0.00     0.016 A 
ATOM     14  C   UNL     1      -9.461  38.680  -2.179  1.00  0.00     0.051 A 
ATOM     15  C   UNL     1     -10.481  38.664  -1.220  1.00  0.00     0.157 A 
ATOM     16  C   UNL     1     -12.098  39.210  -2.945  1.00  0.00     0.062 A 
ATOM     17  C   UNL     1     -11.800  38.933  -1.602  1.00  0.00     0.158 A 
BRANCH  15  18
ATOM     18  O   UNL     1     -10.191  38.387   0.115  1.00  0.00    -0.504 OA
ATOM     19  H   UNL     1      -9.622  39.012   0.674  1.00  0.00     0.293 HD
ENDBRANCH  15  18
BRANCH  17  20
ATOM     20  O   UNL     1     -12.812  38.926  -0.643  1.00  0.00    -0.504 OA
ATOM     21  H   UNL     1     -13.611  38.308  -0.718  1.00  0.00     0.293 HD
ENDBRANCH  17  20
ENDBRANCH   1  12
BRANCH   6  22
ATOM     22  O   UNL     1     -11.805  40.027 -10.478  1.00  0.00    -0.507 OA
ATOM     23  H   UNL     1     -11.091  39.317 -10.523  1.00  0.00     0.293 HD
ENDBRANCH   6  22
BRANCH   8  24
ATOM     24  O   UNL     1     -15.593  42.261  -8.591  1.00  0.00    -0.508 OA
ATOM     25  H   UNL     1     -16.425  41.823  -8.968  1.00  0.00     0.293 HD
ENDBRANCH   8  24
TORSDOF 5
ENDMDL
