MODEL 1
REMARK VINA RESULT:    -1.162      0.000      0.000
REMARK INTER + INTRA:          -2.713
REMARK INTER:                  -2.113
REMARK INTRA:                  -0.600
REMARK UNBOUND:                -0.600
REMARK SMILES CCCCCCCCCCCCCCCC(=O)[O-]
REMARK SMILES IDX 9 1 10 2 11 3 12 4 13 5 14 6 15 7 16 8 17 9 18 10 8 11 7 12
REMARK SMILES IDX 6 13 5 14 4 15 3 16 2 17 1 18
REMARK H PARENT
REMARK Flexibility Score: inf
ROOT
ATOM      1  C   UNL     1      23.130  35.252  18.732  1.00  0.00     0.000 C 
ENDROOT
BRANCH   1   2
ATOM      2  C   UNL     1      23.282  35.191  20.265  1.00  0.00     0.000 C 
BRANCH   2   3
ATOM      3  C   UNL     1      22.375  36.157  21.053  1.00  0.00     0.000 C 
BRANCH   3   4
ATOM      4  C   UNL     1      22.900  37.601  21.155  1.00  0.00     0.000 C 
BRANCH   4   5
ATOM      5  C   UNL     1      22.607  38.246  22.517  1.00  0.00     0.000 C 
BRANCH   5   6
ATOM      6  C   UNL     1      23.775  39.139  22.964  1.00  0.00     0.006 C 
BRANCH   6   7
ATOM      7  C   UNL     1      23.709  39.478  24.458  1.00  0.00     0.053 C 
BRANCH   7   8
ATOM      8  C   UNL     1      23.293  38.295  25.279  1.00  0.00     0.041 C 
ATOM      9  O   UNL     1      22.398  38.415  26.157  1.00  0.00    -0.550 OA
ATOM     10  O   UNL     1      23.869  37.053  25.048  1.00  0.00    -0.550 OA
ENDBRANCH   7   8
ENDBRANCH   6   7
ENDBRANCH   5   6
ENDBRANCH   4   5
ENDBRANCH   3   4
ENDBRANCH   2   3
ENDBRANCH   1   2
BRANCH   1  11
ATOM     11  C   UNL     1      24.434  35.062  17.935  1.00  0.00     0.000 C 
BRANCH  11  12
ATOM     12  C   UNL     1      25.288  36.339  17.875  1.00  0.00    -0.000 C 
BRANCH  12  13
ATOM     13  C   UNL     1      26.797  36.057  17.981  1.00  0.00    -0.000 C 
BRANCH  13  14
ATOM     14  C   UNL     1      27.705  37.301  17.903  1.00  0.00    -0.000 C 
BRANCH  14  15
ATOM     15  C   UNL     1      29.190  37.050  18.234  1.00  0.00    -0.000 C 
BRANCH  15  16
ATOM     16  C   UNL     1      29.616  37.454  19.659  1.00  0.00    -0.000 C 
BRANCH  16  17
ATOM     17  C   UNL     1      30.319  36.345  20.462  1.00  0.00    -0.003 C 
ATOM     18  C   UNL     1      29.773  34.951  20.156  1.00  0.00     0.004 C 
ENDBRANCH  16  17
ENDBRANCH  15  16
ENDBRANCH  14  15
ENDBRANCH  13  14
ENDBRANCH  12  13
ENDBRANCH  11  12
ENDBRANCH   1  11
TORSDOF 14
ENDMDL
MODEL 2
REMARK VINA RESULT:    -0.810      3.295      7.472
REMARK INTER + INTRA:          -2.073
REMARK INTER:                  -1.781
REMARK INTRA:                  -0.292
REMARK UNBOUND:                -0.600
REMARK SMILES CCCCCCCCCCCCCCCC(=O)[O-]
REMARK SMILES IDX 9 1 10 2 11 3 12 4 13 5 14 6 15 7 16 8 17 9 18 10 8 11 7 12
REMARK SMILES IDX 6 13 5 14 4 15 3 16 2 17 1 18
REMARK H PARENT
REMARK Flexibility Score: inf
ROOT
ATOM      1  C   UNL     1      24.274  35.962  17.875  1.00  0.00     0.000 C 
ENDROOT
BRANCH   1   2
ATOM      2  C   UNL     1      25.699  36.550  17.891  1.00  0.00     0.000 C 
BRANCH   2   3
ATOM      3  C   UNL     1      26.838  35.511  17.894  1.00  0.00     0.000 C 
BRANCH   3   4
ATOM      4  C   UNL     1      28.157  35.995  18.523  1.00  0.00     0.000 C 
BRANCH   4   5
ATOM      5  C   UNL     1      29.368  35.157  18.089  1.00  0.00     0.000 C 
BRANCH   5   6
ATOM      6  C   UNL     1      30.611  36.041  17.906  1.00  0.00     0.006 C 
BRANCH   6   7
ATOM      7  C   UNL     1      31.761  35.625  18.831  1.00  0.00     0.053 C 
BRANCH   7   8
ATOM      8  C   UNL     1      31.447  35.908  20.269  1.00  0.00     0.041 C 
ATOM      9  O   UNL     1      30.610  35.198  20.887  1.00  0.00    -0.550 OA
ATOM     10  O   UNL     1      32.104  36.934  20.934  1.00  0.00    -0.550 OA
ENDBRANCH   7   8
ENDBRANCH   6   7
ENDBRANCH   5   6
ENDBRANCH   4   5
ENDBRANCH   3   4
ENDBRANCH   2   3
ENDBRANCH   1   2
BRANCH   1  11
ATOM     11  C   UNL     1      23.961  34.971  19.011  1.00  0.00     0.000 C 
BRANCH  11  12
ATOM     12  C   UNL     1      22.885  35.491  19.977  1.00  0.00    -0.000 C 
BRANCH  12  13
ATOM     13  C   UNL     1      23.164  36.923  20.470  1.00  0.00    -0.000 C 
BRANCH  13  14
ATOM     14  C   UNL     1      22.260  37.408  21.622  1.00  0.00    -0.000 C 
BRANCH  14  15
ATOM     15  C   UNL     1      22.959  38.287  22.677  1.00  0.00    -0.000 C 
BRANCH  15  16
ATOM     16  C   UNL     1      22.408  38.148  24.109  1.00  0.00    -0.000 C 
BRANCH  16  17
ATOM     17  C   UNL     1      23.480  38.006  25.204  1.00  0.00    -0.003 C 
ATOM     18  C   UNL     1      23.907  39.349  25.796  1.00  0.00     0.004 C 
ENDBRANCH  16  17
ENDBRANCH  15  16
ENDBRANCH  14  15
ENDBRANCH  13  14
ENDBRANCH  12  13
ENDBRANCH  11  12
ENDBRANCH   1  11
TORSDOF 14
ENDMDL
MODEL 3
REMARK VINA RESULT:    -0.795      0.823      1.345
REMARK INTER + INTRA:          -2.046
REMARK INTER:                  -1.455
REMARK INTRA:                  -0.591
REMARK UNBOUND:                -0.600
REMARK SMILES CCCCCCCCCCCCCCCC(=O)[O-]
REMARK SMILES IDX 9 1 10 2 11 3 12 4 13 5 14 6 15 7 16 8 17 9 18 10 8 11 7 12
REMARK SMILES IDX 6 13 5 14 4 15 3 16 2 17 1 18
REMARK H PARENT
REMARK Flexibility Score: inf
ROOT
ATOM      1  C   UNL     1      23.475  35.312  18.748  1.00  0.00     0.000 C 
ENDROOT
BRANCH   1   2
ATOM      2  C   UNL     1      23.461  35.525  20.275  1.00  0.00     0.000 C 
BRANCH   2   3
ATOM      3  C   UNL     1      22.238  36.289  20.819  1.00  0.00     0.000 C 
BRANCH   3   4
ATOM      4  C   UNL     1      22.502  37.762  21.181  1.00  0.00     0.000 C 
BRANCH   4   5
ATOM      5  C   UNL     1      22.425  38.028  22.691  1.00  0.00     0.000 C 
BRANCH   5   6
ATOM      6  C   UNL     1      23.185  39.310  23.063  1.00  0.00     0.006 C 
BRANCH   6   7
ATOM      7  C   UNL     1      24.015  39.144  24.342  1.00  0.00     0.053 C 
BRANCH   7   8
ATOM      8  C   UNL     1      23.430  38.107  25.252  1.00  0.00     0.041 C 
ATOM      9  O   UNL     1      24.045  37.027  25.462  1.00  0.00    -0.550 OA
ATOM     10  O   UNL     1      22.223  38.348  25.896  1.00  0.00    -0.550 OA
ENDBRANCH   7   8
ENDBRANCH   6   7
ENDBRANCH   5   6
ENDBRANCH   4   5
ENDBRANCH   3   4
ENDBRANCH   2   3
ENDBRANCH   1   2
BRANCH   1  11
ATOM     11  C   UNL     1      24.870  35.337  18.095  1.00  0.00     0.000 C 
BRANCH  11  12
ATOM     12  C   UNL     1      25.426  36.761  17.931  1.00  0.00    -0.000 C 
BRANCH  12  13
ATOM     13  C   UNL     1      26.964  36.800  17.877  1.00  0.00    -0.000 C 
BRANCH  13  14
ATOM     14  C   UNL     1      27.676  35.647  18.614  1.00  0.00    -0.000 C 
BRANCH  14  15
ATOM     15  C   UNL     1      29.206  35.794  18.736  1.00  0.00    -0.000 C 
BRANCH  15  16
ATOM     16  C   UNL     1      29.695  36.439  20.048  1.00  0.00    -0.000 C 
BRANCH  16  17
ATOM     17  C   UNL     1      31.129  36.993  20.000  1.00  0.00    -0.003 C 
ATOM     18  C   UNL     1      31.468  37.655  18.665  1.00  0.00     0.004 C 
ENDBRANCH  16  17
ENDBRANCH  15  16
ENDBRANCH  14  15
ENDBRANCH  13  14
ENDBRANCH  12  13
ENDBRANCH  11  12
ENDBRANCH   1  11
TORSDOF 14
ENDMDL
MODEL 4
REMARK VINA RESULT:    -0.740      1.461      1.833
REMARK INTER + INTRA:          -1.946
REMARK INTER:                  -1.322
REMARK INTRA:                  -0.624
REMARK UNBOUND:                -0.600
REMARK SMILES CCCCCCCCCCCCCCCC(=O)[O-]
REMARK SMILES IDX 9 1 10 2 11 3 12 4 13 5 14 6 15 7 16 8 17 9 18 10 8 11 7 12
REMARK SMILES IDX 6 13 5 14 4 15 3 16 2 17 1 18
REMARK H PARENT
REMARK Flexibility Score: inf
ROOT
ATOM      1  C   UNL     1      24.126  36.137  18.559  1.00  0.00     0.000 C 
ENDROOT
BRANCH   1   2
ATOM      2  C   UNL     1      23.493  35.089  19.496  1.00  0.00     0.000 C 
BRANCH   2   3
ATOM      3  C   UNL     1      22.469  35.644  20.506  1.00  0.00     0.000 C 
BRANCH   3   4
ATOM      4  C   UNL     1      22.850  36.995  21.139  1.00  0.00     0.000 C 
BRANCH   4   5
ATOM      5  C   UNL     1      21.654  37.708  21.787  1.00  0.00     0.000 C 
BRANCH   5   6
ATOM      6  C   UNL     1      22.082  38.448  23.063  1.00  0.00     0.006 C 
BRANCH   6   7
ATOM      7  C   UNL     1      23.527  38.955  22.985  1.00  0.00     0.053 C 
BRANCH   7   8
ATOM      8  C   UNL     1      23.919  39.708  24.221  1.00  0.00     0.041 C 
ATOM      9  O   UNL     1      24.264  39.085  25.260  1.00  0.00    -0.550 OA
ATOM     10  O   UNL     1      23.936  41.096  24.212  1.00  0.00    -0.550 OA
ENDBRANCH   7   8
ENDBRANCH   6   7
ENDBRANCH   5   6
ENDBRANCH   4   5
ENDBRANCH   3   4
ENDBRANCH   2   3
ENDBRANCH   1   2
BRANCH   1  11
ATOM     11  C   UNL     1      25.617  35.918  18.241  1.00  0.00     0.000 C 
BRANCH  11  12
ATOM     12  C   UNL     1      26.361  37.228  17.938  1.00  0.00    -0.000 C 
BRANCH  12  13
ATOM     13  C   UNL     1      27.889  37.047  17.875  1.00  0.00    -0.000 C 
BRANCH  13  14
ATOM     14  C   UNL     1      28.702  38.027  18.746  1.00  0.00    -0.000 C 
BRANCH  14  15
ATOM     15  C   UNL     1      29.877  37.396  19.519  1.00  0.00    -0.000 C 
BRANCH  15  16
ATOM     16  C   UNL     1      30.534  36.184  18.828  1.00  0.00    -0.000 C 
BRANCH  16  17
ATOM     17  C   UNL     1      31.985  35.905  19.256  1.00  0.00    -0.003 C 
ATOM     18  C   UNL     1      32.092  35.360  20.680  1.00  0.00     0.004 C 
ENDBRANCH  16  17
ENDBRANCH  15  16
ENDBRANCH  14  15
ENDBRANCH  13  14
ENDBRANCH  12  13
ENDBRANCH  11  12
ENDBRANCH   1  11
TORSDOF 14
ENDMDL
MODEL 5
REMARK VINA RESULT:    -0.281      3.102      7.170
REMARK INTER + INTRA:          -1.110
REMARK INTER:                  -0.396
REMARK INTRA:                  -0.714
REMARK UNBOUND:                -0.600
REMARK SMILES CCCCCCCCCCCCCCCC(=O)[O-]
REMARK SMILES IDX 9 1 10 2 11 3 12 4 13 5 14 6 15 7 16 8 17 9 18 10 8 11 7 12
REMARK SMILES IDX 6 13 5 14 4 15 3 16 2 17 1 18
REMARK H PARENT
REMARK Flexibility Score: inf
ROOT
ATOM      1  C   UNL     1      23.583  36.813  19.921  1.00  0.00     0.000 C 
ENDROOT
BRANCH   1   2
ATOM      2  C   UNL     1      24.118  35.484  19.352  1.00  0.00     0.000 C 
BRANCH   2   3
ATOM      3  C   UNL     1      24.717  35.571  17.934  1.00  0.00     0.000 C 
BRANCH   3   4
ATOM      4  C   UNL     1      26.189  36.017  17.878  1.00  0.00     0.000 C 
BRANCH   4   5
ATOM      5  C   UNL     1      27.167  34.894  18.253  1.00  0.00     0.000 C 
BRANCH   5   6
ATOM      6  C   UNL     1      28.605  35.425  18.344  1.00  0.00     0.006 C 
BRANCH   6   7
ATOM      7  C   UNL     1      29.350  34.880  19.569  1.00  0.00     0.053 C 
BRANCH   7   8
ATOM      8  C   UNL     1      30.222  35.924  20.198  1.00  0.00     0.041 C 
ATOM      9  O   UNL     1      29.865  37.132  20.202  1.00  0.00    -0.550 OA
ATOM     10  O   UNL     1      31.413  35.557  20.810  1.00  0.00    -0.550 OA
ENDBRANCH   7   8
ENDBRANCH   6   7
ENDBRANCH   5   6
ENDBRANCH   4   5
ENDBRANCH   3   4
ENDBRANCH   2   3
ENDBRANCH   1   2
BRANCH   1  11
ATOM     11  C   UNL     1      22.539  36.673  21.044  1.00  0.00     0.000 C 
BRANCH  11  12
ATOM     12  C   UNL     1      22.245  38.003  21.756  1.00  0.00    -0.000 C 
BRANCH  12  13
ATOM     13  C   UNL     1      21.678  37.811  23.174  1.00  0.00    -0.000 C 
BRANCH  13  14
ATOM     14  C   UNL     1      22.614  37.085  24.162  1.00  0.00    -0.000 C 
BRANCH  14  15
ATOM     15  C   UNL     1      23.234  37.978  25.254  1.00  0.00    -0.000 C 
BRANCH  15  16
ATOM     16  C   UNL     1      24.336  38.938  24.763  1.00  0.00    -0.000 C 
BRANCH  16  17
ATOM     17  C   UNL     1      23.823  40.260  24.167  1.00  0.00    -0.003 C 
ATOM     18  C   UNL     1      24.662  40.746  22.986  1.00  0.00     0.004 C 
ENDBRANCH  16  17
ENDBRANCH  15  16
ENDBRANCH  14  15
ENDBRANCH  13  14
ENDBRANCH  12  13
ENDBRANCH  11  12
ENDBRANCH   1  11
TORSDOF 14
ENDMDL
MODEL 6
REMARK VINA RESULT:    -0.145      1.515      2.302
REMARK INTER + INTRA:          -0.863
REMARK INTER:                  -1.192
REMARK INTRA:                   0.329
REMARK UNBOUND:                -0.600
REMARK SMILES CCCCCCCCCCCCCCCC(=O)[O-]
REMARK SMILES IDX 9 1 10 2 11 3 12 4 13 5 14 6 15 7 16 8 17 9 18 10 8 11 7 12
REMARK SMILES IDX 6 13 5 14 4 15 3 16 2 17 1 18
REMARK H PARENT
REMARK Flexibility Score: inf
ROOT
ATOM      1  C   UNL     1      23.507  35.462  20.255  1.00  0.00     0.000 C 
ENDROOT
BRANCH   1   2
ATOM      2  C   UNL     1      22.291  36.126  20.931  1.00  0.00     0.000 C 
BRANCH   2   3
ATOM      3  C   UNL     1      22.561  37.510  21.555  1.00  0.00     0.000 C 
BRANCH   3   4
ATOM      4  C   UNL     1      21.988  37.707  22.969  1.00  0.00     0.000 C 
BRANCH   4   5
ATOM      5  C   UNL     1      22.952  37.247  24.073  1.00  0.00     0.000 C 
BRANCH   5   6
ATOM      6  C   UNL     1      22.802  38.116  25.331  1.00  0.00     0.006 C 
BRANCH   6   7
ATOM      7  C   UNL     1      23.902  39.180  25.436  1.00  0.00     0.053 C 
BRANCH   7   8
ATOM      8  C   UNL     1      24.039  39.964  24.166  1.00  0.00     0.041 C 
ATOM      9  O   UNL     1      24.533  39.428  23.139  1.00  0.00    -0.550 OA
ATOM     10  O   UNL     1      23.589  41.277  24.108  1.00  0.00    -0.550 OA
ENDBRANCH   7   8
ENDBRANCH   6   7
ENDBRANCH   5   6
ENDBRANCH   4   5
ENDBRANCH   3   4
ENDBRANCH   2   3
ENDBRANCH   1   2
BRANCH   1  11
ATOM     11  C   UNL     1      23.504  35.502  18.715  1.00  0.00     0.000 C 
BRANCH  11  12
ATOM     12  C   UNL     1      24.916  35.428  18.113  1.00  0.00    -0.000 C 
BRANCH  12  13
ATOM     13  C   UNL     1      25.540  36.815  17.876  1.00  0.00    -0.000 C 
BRANCH  13  14
ATOM     14  C   UNL     1      27.040  36.927  18.217  1.00  0.00    -0.000 C 
BRANCH  14  15
ATOM     15  C   UNL     1      27.849  35.627  18.045  1.00  0.00    -0.000 C 
BRANCH  15  16
ATOM     16  C   UNL     1      29.375  35.819  17.943  1.00  0.00    -0.000 C 
BRANCH  16  17
ATOM     17  C   UNL     1      29.938  36.979  18.783  1.00  0.00    -0.003 C 
ATOM     18  C   UNL     1      30.415  38.154  17.932  1.00  0.00     0.004 C 
ENDBRANCH  16  17
ENDBRANCH  15  16
ENDBRANCH  14  15
ENDBRANCH  13  14
ENDBRANCH  12  13
ENDBRANCH  11  12
ENDBRANCH   1  11
TORSDOF 14
ENDMDL
MODEL 7
REMARK VINA RESULT:     0.005      1.521      2.278
REMARK INTER + INTRA:          -0.591
REMARK INTER:                  -1.513
REMARK INTRA:                   0.922
REMARK UNBOUND:                -0.600
REMARK SMILES CCCCCCCCCCCCCCCC(=O)[O-]
REMARK SMILES IDX 9 1 10 2 11 3 12 4 13 5 14 6 15 7 16 8 17 9 18 10 8 11 7 12
REMARK SMILES IDX 6 13 5 14 4 15 3 16 2 17 1 18
REMARK H PARENT
REMARK Flexibility Score: inf
ROOT
ATOM      1  C   UNL     1      23.174  36.665  20.301  1.00  0.00     0.000 C 
ENDROOT
BRANCH   1   2
ATOM      2  C   UNL     1      22.191  36.700  21.488  1.00  0.00     0.000 C 
BRANCH   2   3
ATOM      3  C   UNL     1      21.846  38.108  22.014  1.00  0.00     0.000 C 
BRANCH   3   4
ATOM      4  C   UNL     1      21.928  38.267  23.543  1.00  0.00     0.000 C 
BRANCH   4   5
ATOM      5  C   UNL     1      22.909  37.281  24.194  1.00  0.00     0.000 C 
BRANCH   5   6
ATOM      6  C   UNL     1      23.688  37.954  25.334  1.00  0.00     0.006 C 
BRANCH   6   7
ATOM      7  C   UNL     1      23.494  39.475  25.353  1.00  0.00     0.053 C 
BRANCH   7   8
ATOM      8  C   UNL     1      23.955  40.109  24.075  1.00  0.00     0.041 C 
ATOM      9  O   UNL     1      23.728  41.328  23.853  1.00  0.00    -0.550 OA
ATOM     10  O   UNL     1      24.665  39.361  23.145  1.00  0.00    -0.550 OA
ENDBRANCH   7   8
ENDBRANCH   6   7
ENDBRANCH   5   6
ENDBRANCH   4   5
ENDBRANCH   3   4
ENDBRANCH   2   3
ENDBRANCH   1   2
BRANCH   1  11
ATOM     11  C   UNL     1      23.442  35.268  19.712  1.00  0.00     0.000 C 
BRANCH  11  12
ATOM     12  C   UNL     1      23.730  35.302  18.203  1.00  0.00    -0.000 C 
BRANCH  12  13
ATOM     13  C   UNL     1      25.234  35.227  17.878  1.00  0.00    -0.000 C 
BRANCH  13  14
ATOM     14  C   UNL     1      25.989  36.570  17.956  1.00  0.00    -0.000 C 
BRANCH  14  15
ATOM     15  C   UNL     1      27.525  36.462  17.878  1.00  0.00    -0.000 C 
BRANCH  15  16
ATOM     16  C   UNL     1      28.293  37.456  18.771  1.00  0.00    -0.000 C 
BRANCH  16  17
ATOM     17  C   UNL     1      29.457  36.841  19.568  1.00  0.00    -0.003 C 
ATOM     18  C   UNL     1      30.827  37.309  19.078  1.00  0.00     0.004 C 
ENDBRANCH  16  17
ENDBRANCH  15  16
ENDBRANCH  14  15
ENDBRANCH  13  14
ENDBRANCH  12  13
ENDBRANCH  11  12
ENDBRANCH   1  11
TORSDOF 14
ENDMDL
MODEL 8
REMARK VINA RESULT:     0.441      1.566      2.551
REMARK INTER + INTRA:           0.201
REMARK INTER:                   0.466
REMARK INTRA:                  -0.265
REMARK UNBOUND:                -0.600
REMARK SMILES CCCCCCCCCCCCCCCC(=O)[O-]
REMARK SMILES IDX 9 1 10 2 11 3 12 4 13 5 14 6 15 7 16 8 17 9 18 10 8 11 7 12
REMARK SMILES IDX 6 13 5 14 4 15 3 16 2 17 1 18
REMARK H PARENT
REMARK Flexibility Score: inf
ROOT
ATOM      1  C   UNL     1      25.892  36.883  18.250  1.00  0.00     0.000 C 
ENDROOT
BRANCH   1   2
ATOM      2  C   UNL     1      24.394  36.925  18.612  1.00  0.00     0.000 C 
BRANCH   2   3
ATOM      3  C   UNL     1      23.781  35.572  19.027  1.00  0.00     0.000 C 
BRANCH   3   4
ATOM      4  C   UNL     1      23.231  35.522  20.464  1.00  0.00     0.000 C 
BRANCH   4   5
ATOM      5  C   UNL     1      22.339  36.725  20.802  1.00  0.00     0.000 C 
BRANCH   5   6
ATOM      6  C   UNL     1      23.166  37.870  21.407  1.00  0.00     0.006 C 
BRANCH   6   7
ATOM      7  C   UNL     1      22.399  38.629  22.497  1.00  0.00     0.053 C 
BRANCH   7   8
ATOM      8  C   UNL     1      23.304  39.077  23.603  1.00  0.00     0.041 C 
ATOM      9  O   UNL     1      23.545  38.312  24.575  1.00  0.00    -0.550 OA
ATOM     10  O   UNL     1      23.909  40.325  23.544  1.00  0.00    -0.550 OA
ENDBRANCH   7   8
ENDBRANCH   6   7
ENDBRANCH   5   6
ENDBRANCH   4   5
ENDBRANCH   3   4
ENDBRANCH   2   3
ENDBRANCH   1   2
BRANCH   1  11
ATOM     11  C   UNL     1      26.635  35.604  18.679  1.00  0.00     0.000 C 
BRANCH  11  12
ATOM     12  C   UNL     1      27.924  35.365  17.876  1.00  0.00    -0.000 C 
BRANCH  12  13
ATOM     13  C   UNL     1      29.096  34.886  18.754  1.00  0.00    -0.000 C 
BRANCH  13  14
ATOM     14  C   UNL     1      30.501  35.202  18.201  1.00  0.00    -0.000 C 
BRANCH  14  15
ATOM     15  C   UNL     1      31.076  36.570  18.618  1.00  0.00    -0.000 C 
BRANCH  15  16
ATOM     16  C   UNL     1      32.018  36.535  19.837  1.00  0.00    -0.000 C 
BRANCH  16  17
ATOM     17  C   UNL     1      32.097  35.176  20.556  1.00  0.00    -0.003 C 
ATOM     18  C   UNL     1      31.033  35.014  21.640  1.00  0.00     0.004 C 
ENDBRANCH  16  17
ENDBRANCH  15  16
ENDBRANCH  14  15
ENDBRANCH  13  14
ENDBRANCH  12  13
ENDBRANCH  11  12
ENDBRANCH   1  11
TORSDOF 14
ENDMDL
MODEL 9
REMARK VINA RESULT:     0.491      1.285      1.918
REMARK INTER + INTRA:           0.293
REMARK INTER:                   0.777
REMARK INTRA:                  -0.484
REMARK UNBOUND:                -0.600
REMARK SMILES CCCCCCCCCCCCCCCC(=O)[O-]
REMARK SMILES IDX 9 1 10 2 11 3 12 4 13 5 14 6 15 7 16 8 17 9 18 10 8 11 7 12
REMARK SMILES IDX 6 13 5 14 4 15 3 16 2 17 1 18
REMARK H PARENT
REMARK Flexibility Score: inf
ROOT
ATOM      1  C   UNL     1      24.070  37.055  20.001  1.00  0.00     0.000 C 
ENDROOT
BRANCH   1   2
ATOM      2  C   UNL     1      22.842  37.805  20.555  1.00  0.00     0.000 C 
BRANCH   2   3
ATOM      3  C   UNL     1      22.397  37.380  21.970  1.00  0.00     0.000 C 
BRANCH   3   4
ATOM      4  C   UNL     1      22.287  38.530  22.987  1.00  0.00     0.000 C 
BRANCH   4   5
ATOM      5  C   UNL     1      23.581  39.349  23.104  1.00  0.00     0.000 C 
BRANCH   5   6
ATOM      6  C   UNL     1      24.244  39.136  24.474  1.00  0.00     0.006 C 
BRANCH   6   7
ATOM      7  C   UNL     1      23.646  37.943  25.230  1.00  0.00     0.053 C 
BRANCH   7   8
ATOM      8  C   UNL     1      22.767  38.386  26.360  1.00  0.00     0.041 C 
ATOM      9  O   UNL     1      21.632  37.865  26.524  1.00  0.00    -0.550 OA
ATOM     10  O   UNL     1      23.216  39.351  27.252  1.00  0.00    -0.550 OA
ENDBRANCH   7   8
ENDBRANCH   6   7
ENDBRANCH   5   6
ENDBRANCH   4   5
ENDBRANCH   3   4
ENDBRANCH   2   3
ENDBRANCH   1   2
BRANCH   1  11
ATOM     11  C   UNL     1      23.750  35.823  19.135  1.00  0.00     0.000 C 
BRANCH  11  12
ATOM     12  C   UNL     1      24.627  35.735  17.875  1.00  0.00    -0.000 C 
BRANCH  12  13
ATOM     13  C   UNL     1      25.937  34.960  18.111  1.00  0.00    -0.000 C 
BRANCH  13  14
ATOM     14  C   UNL     1      27.229  35.769  17.876  1.00  0.00    -0.000 C 
BRANCH  14  15
ATOM     15  C   UNL     1      28.538  34.969  18.023  1.00  0.00    -0.000 C 
BRANCH  15  16
ATOM     16  C   UNL     1      29.188  35.036  19.419  1.00  0.00    -0.000 C 
BRANCH  16  17
ATOM     17  C   UNL     1      30.713  35.242  19.412  1.00  0.00    -0.003 C 
ATOM     18  C   UNL     1      31.150  36.487  20.183  1.00  0.00     0.004 C 
ENDBRANCH  16  17
ENDBRANCH  15  16
ENDBRANCH  14  15
ENDBRANCH  13  14
ENDBRANCH  12  13
ENDBRANCH  11  12
ENDBRANCH   1  11
TORSDOF 14
ENDMDL
