MODEL 1
REMARK VINA RESULT:    -3.528      0.000      0.000
REMARK INTER + INTRA:          -6.969
REMARK INTER:                  -5.590
REMARK INTRA:                  -1.379
REMARK UNBOUND:                -1.379
REMARK SMILES CCCCCCCCCCCC(=O)[O-]
REMARK SMILES IDX 7 1 8 2 9 3 10 4 11 5 12 6 13 7 14 8 6 9 5 10 4 11 3 12 2 13
REMARK SMILES IDX 1 14
REMARK H PARENT
REMARK Flexibility Score: inf
ROOT
ATOM      1  C   UNL     1      20.496  -0.430  16.293  1.00  0.00     0.000 C 
ENDROOT
BRANCH   1   2
ATOM      2  C   UNL     1      21.450   0.775  16.330  1.00  0.00     0.000 C 
BRANCH   2   3
ATOM      3  C   UNL     1      22.920   0.362  16.504  1.00  0.00     0.000 C 
BRANCH   3   4
ATOM      4  C   UNL     1      23.759   0.803  15.296  1.00  0.00     0.006 C 
BRANCH   4   5
ATOM      5  C   UNL     1      22.948   1.643  14.300  1.00  0.00     0.053 C 
BRANCH   5   6
ATOM      6  C   UNL     1      23.545   3.004  14.105  1.00  0.00     0.041 C 
ATOM      7  O   UNL     1      23.230   3.694  13.100  1.00  0.00    -0.550 OA
ATOM      8  O   UNL     1      24.471   3.496  15.016  1.00  0.00    -0.550 OA
ENDBRANCH   5   6
ENDBRANCH   4   5
ENDBRANCH   3   4
ENDBRANCH   2   3
ENDBRANCH   1   2
BRANCH   1   9
ATOM      9  C   UNL     1      20.449  -1.104  14.910  1.00  0.00     0.000 C 
BRANCH   9  10
ATOM     10  C   UNL     1      21.029  -2.528  14.929  1.00  0.00    -0.000 C 
BRANCH  10  11
ATOM     11  C   UNL     1      22.357  -2.639  14.165  1.00  0.00    -0.000 C 
BRANCH  11  12
ATOM     12  C   UNL     1      23.506  -2.997  15.114  1.00  0.00    -0.000 C 
BRANCH  12  13
ATOM     13  C   UNL     1      22.973  -3.529  16.449  1.00  0.00    -0.003 C 
ATOM     14  C   UNL     1      24.032  -4.348  17.180  1.00  0.00     0.004 C 
ENDBRANCH  12  13
ENDBRANCH  11  12
ENDBRANCH  10  11
ENDBRANCH   9  10
ENDBRANCH   1   9
TORSDOF 10
ENDMDL
MODEL 2
REMARK VINA RESULT:    -3.461      2.805      5.326
REMARK INTER + INTRA:          -6.863
REMARK INTER:                  -5.469
REMARK INTRA:                  -1.394
REMARK UNBOUND:                -1.379
REMARK SMILES CCCCCCCCCCCC(=O)[O-]
REMARK SMILES IDX 7 1 8 2 9 3 10 4 11 5 12 6 13 7 14 8 6 9 5 10 4 11 3 12 2 13
REMARK SMILES IDX 1 14
REMARK H PARENT
REMARK Flexibility Score: inf
ROOT
ATOM      1  C   UNL     1      20.835   0.406  16.547  1.00  0.00     0.000 C 
ENDROOT
BRANCH   1   2
ATOM      2  C   UNL     1      20.100  -0.833  16.009  1.00  0.00     0.000 C 
BRANCH   2   3
ATOM      3  C   UNL     1      20.431  -1.127  14.538  1.00  0.00     0.000 C 
BRANCH   3   4
ATOM      4  C   UNL     1      20.928  -2.570  14.366  1.00  0.00     0.006 C 
BRANCH   4   5
ATOM      5  C   UNL     1      22.458  -2.652  14.291  1.00  0.00     0.053 C 
BRANCH   5   6
ATOM      6  C   UNL     1      23.057  -3.076  15.598  1.00  0.00     0.041 C 
ATOM      7  O   UNL     1      24.228  -2.726  15.901  1.00  0.00    -0.550 OA
ATOM      8  O   UNL     1      22.333  -3.884  16.467  1.00  0.00    -0.550 OA
ENDBRANCH   5   6
ENDBRANCH   4   5
ENDBRANCH   3   4
ENDBRANCH   2   3
ENDBRANCH   1   2
BRANCH   1   9
ATOM      9  C   UNL     1      22.170   0.053  17.228  1.00  0.00     0.000 C 
BRANCH   9  10
ATOM     10  C   UNL     1      23.341   0.897  16.701  1.00  0.00    -0.000 C 
BRANCH  10  11
ATOM     11  C   UNL     1      23.597   0.689  15.200  1.00  0.00    -0.000 C 
BRANCH  11  12
ATOM     12  C   UNL     1      23.436   2.004  14.430  1.00  0.00    -0.000 C 
BRANCH  12  13
ATOM     13  C   UNL     1      22.237   1.940  13.476  1.00  0.00    -0.003 C 
ATOM     14  C   UNL     1      21.942   3.308  12.868  1.00  0.00     0.004 C 
ENDBRANCH  12  13
ENDBRANCH  11  12
ENDBRANCH  10  11
ENDBRANCH   9  10
ENDBRANCH   1   9
TORSDOF 10
ENDMDL
MODEL 3
REMARK VINA RESULT:    -3.458      1.358      2.402
REMARK INTER + INTRA:          -6.859
REMARK INTER:                  -5.288
REMARK INTRA:                  -1.571
REMARK UNBOUND:                -1.379
REMARK SMILES CCCCCCCCCCCC(=O)[O-]
REMARK SMILES IDX 7 1 8 2 9 3 10 4 11 5 12 6 13 7 14 8 6 9 5 10 4 11 3 12 2 13
REMARK SMILES IDX 1 14
REMARK H PARENT
REMARK Flexibility Score: inf
ROOT
ATOM      1  C   UNL     1      21.005  -2.546  14.546  1.00  0.00     0.000 C 
ENDROOT
BRANCH   1   2
ATOM      2  C   UNL     1      20.424  -1.122  14.537  1.00  0.00     0.000 C 
BRANCH   2   3
ATOM      3  C   UNL     1      21.383  -0.095  13.915  1.00  0.00     0.000 C 
BRANCH   3   4
ATOM      4  C   UNL     1      21.992   0.810  14.995  1.00  0.00     0.006 C 
BRANCH   4   5
ATOM      5  C   UNL     1      23.522   0.705  15.047  1.00  0.00     0.053 C 
BRANCH   5   6
ATOM      6  C   UNL     1      24.172   2.055  15.095  1.00  0.00     0.041 C 
ATOM      7  O   UNL     1      23.627   3.039  14.529  1.00  0.00    -0.550 OA
ATOM      8  O   UNL     1      25.393   2.218  15.737  1.00  0.00    -0.550 OA
ENDBRANCH   5   6
ENDBRANCH   4   5
ENDBRANCH   3   4
ENDBRANCH   2   3
ENDBRANCH   1   2
BRANCH   1   9
ATOM      9  C   UNL     1      22.371  -2.632  13.842  1.00  0.00     0.000 C 
BRANCH   9  10
ATOM     10  C   UNL     1      23.499  -3.058  14.795  1.00  0.00    -0.000 C 
BRANCH  10  11
ATOM     11  C   UNL     1      22.998  -3.348  16.219  1.00  0.00    -0.000 C 
BRANCH  11  12
ATOM     12  C   UNL     1      23.979  -2.808  17.265  1.00  0.00    -0.000 C 
BRANCH  12  13
ATOM     13  C   UNL     1      23.443  -1.527  17.915  1.00  0.00    -0.003 C 
ATOM     14  C   UNL     1      21.920  -1.544  17.993  1.00  0.00     0.004 C 
ENDBRANCH  12  13
ENDBRANCH  11  12
ENDBRANCH  10  11
ENDBRANCH   9  10
ENDBRANCH   1   9
TORSDOF 10
ENDMDL
MODEL 4
REMARK VINA RESULT:    -3.453      3.170      6.761
REMARK INTER + INTRA:          -6.850
REMARK INTER:                  -5.422
REMARK INTRA:                  -1.427
REMARK UNBOUND:                -1.379
REMARK SMILES CCCCCCCCCCCC(=O)[O-]
REMARK SMILES IDX 7 1 8 2 9 3 10 4 11 5 12 6 13 7 14 8 6 9 5 10 4 11 3 12 2 13
REMARK SMILES IDX 1 14
REMARK H PARENT
REMARK Flexibility Score: inf
ROOT
ATOM      1  C   UNL     1      23.551   5.992  15.908  1.00  0.00     0.000 C 
ENDROOT
BRANCH   1   2
ATOM      2  C   UNL     1      23.468   4.524  16.360  1.00  0.00     0.000 C 
BRANCH   2   3
ATOM      3  C   UNL     1      24.842   3.837  16.400  1.00  0.00     0.000 C 
BRANCH   3   4
ATOM      4  C   UNL     1      24.852   2.581  15.516  1.00  0.00     0.006 C 
BRANCH   4   5
ATOM      5  C   UNL     1      24.131   1.399  16.177  1.00  0.00     0.053 C 
BRANCH   5   6
ATOM      6  C   UNL     1      23.508   0.490  15.162  1.00  0.00     0.041 C 
ATOM      7  O   UNL     1      23.644  -0.758  15.263  1.00  0.00    -0.550 OA
ATOM      8  O   UNL     1      22.805   1.022  14.088  1.00  0.00    -0.550 OA
ENDBRANCH   5   6
ENDBRANCH   4   5
ENDBRANCH   3   4
ENDBRANCH   2   3
ENDBRANCH   1   2
BRANCH   1   9
ATOM      9  C   UNL     1      24.973   6.401  15.486  1.00  0.00     0.000 C 
BRANCH   9  10
ATOM     10  C   UNL     1      25.063   6.769  13.996  1.00  0.00    -0.000 C 
BRANCH  10  11
ATOM     11  C   UNL     1      25.055   5.537  13.078  1.00  0.00    -0.000 C 
BRANCH  11  12
ATOM     12  C   UNL     1      23.725   5.424  12.324  1.00  0.00    -0.000 C 
BRANCH  12  13
ATOM     13  C   UNL     1      23.042   4.082  12.611  1.00  0.00    -0.003 C 
ATOM     14  C   UNL     1      21.628   4.286  13.147  1.00  0.00     0.004 C 
ENDBRANCH  12  13
ENDBRANCH  11  12
ENDBRANCH  10  11
ENDBRANCH   9  10
ENDBRANCH   1   9
TORSDOF 10
ENDMDL
MODEL 5
REMARK VINA RESULT:    -3.452      3.702      5.528
REMARK INTER + INTRA:          -6.848
REMARK INTER:                  -5.402
REMARK INTRA:                  -1.446
REMARK UNBOUND:                -1.379
REMARK SMILES CCCCCCCCCCCC(=O)[O-]
REMARK SMILES IDX 7 1 8 2 9 3 10 4 11 5 12 6 13 7 14 8 6 9 5 10 4 11 3 12 2 13
REMARK SMILES IDX 1 14
REMARK H PARENT
REMARK Flexibility Score: inf
ROOT
ATOM      1  C   UNL     1      21.142  -2.270  14.640  1.00  0.00     0.000 C 
ENDROOT
BRANCH   1   2
ATOM      2  C   UNL     1      22.452  -2.531  13.878  1.00  0.00     0.000 C 
BRANCH   2   3
ATOM      3  C   UNL     1      23.582  -3.029  14.793  1.00  0.00     0.000 C 
BRANCH   3   4
ATOM      4  C   UNL     1      23.100  -3.140  16.247  1.00  0.00     0.006 C 
BRANCH   4   5
ATOM      5  C   UNL     1      24.245  -2.973  17.253  1.00  0.00     0.053 C 
BRANCH   5   6
ATOM      6  C   UNL     1      24.367  -4.159  18.161  1.00  0.00     0.041 C 
ATOM      7  O   UNL     1      24.482  -5.316  17.678  1.00  0.00    -0.550 OA
ATOM      8  O   UNL     1      24.320  -3.989  19.540  1.00  0.00    -0.550 OA
ENDBRANCH   5   6
ENDBRANCH   4   5
ENDBRANCH   3   4
ENDBRANCH   2   3
ENDBRANCH   1   2
BRANCH   1   9
ATOM      9  C   UNL     1      20.599  -0.848  14.412  1.00  0.00     0.000 C 
BRANCH   9  10
ATOM     10  C   UNL     1      21.547   0.016  13.564  1.00  0.00    -0.000 C 
BRANCH  10  11
ATOM     11  C   UNL     1      22.116   1.213  14.341  1.00  0.00    -0.000 C 
BRANCH  11  12
ATOM     12  C   UNL     1      23.486   0.877  14.939  1.00  0.00    -0.000 C 
BRANCH  12  13
ATOM     13  C   UNL     1      23.375   0.578  16.438  1.00  0.00    -0.003 C 
ATOM     14  C   UNL     1      22.172   1.286  17.055  1.00  0.00     0.004 C 
ENDBRANCH  12  13
ENDBRANCH  11  12
ENDBRANCH  10  11
ENDBRANCH   9  10
ENDBRANCH   1   9
TORSDOF 10
ENDMDL
MODEL 6
REMARK VINA RESULT:    -3.417      3.969      6.546
REMARK INTER + INTRA:          -6.793
REMARK INTER:                  -5.574
REMARK INTRA:                  -1.218
REMARK UNBOUND:                -1.379
REMARK SMILES CCCCCCCCCCCC(=O)[O-]
REMARK SMILES IDX 7 1 8 2 9 3 10 4 11 5 12 6 13 7 14 8 6 9 5 10 4 11 3 12 2 13
REMARK SMILES IDX 1 14
REMARK H PARENT
REMARK Flexibility Score: inf
ROOT
ATOM      1  C   UNL     1      22.397   2.269  13.440  1.00  0.00     0.000 C 
ENDROOT
BRANCH   1   2
ATOM      2  C   UNL     1      22.594   2.207  14.964  1.00  0.00     0.000 C 
BRANCH   2   3
ATOM      3  C   UNL     1      23.909   1.521  15.364  1.00  0.00     0.000 C 
BRANCH   3   4
ATOM      4  C   UNL     1      25.047   2.545  15.485  1.00  0.00     0.006 C 
BRANCH   4   5
ATOM      5  C   UNL     1      24.890   3.445  16.718  1.00  0.00     0.053 C 
BRANCH   5   6
ATOM      6  C   UNL     1      24.802   2.647  17.983  1.00  0.00     0.041 C 
ATOM      7  O   UNL     1      25.813   2.034  18.416  1.00  0.00    -0.550 OA
ATOM      8  O   UNL     1      23.595   2.553  18.666  1.00  0.00    -0.550 OA
ENDBRANCH   5   6
ENDBRANCH   4   5
ENDBRANCH   3   4
ENDBRANCH   2   3
ENDBRANCH   1   2
BRANCH   1   9
ATOM      9  C   UNL     1      21.834   3.623  12.971  1.00  0.00     0.000 C 
BRANCH   9  10
ATOM     10  C   UNL     1      22.627   4.815  13.530  1.00  0.00    -0.000 C 
BRANCH  10  11
ATOM     11  C   UNL     1      23.579   5.434  12.495  1.00  0.00    -0.000 C 
BRANCH  11  12
ATOM     12  C   UNL     1      25.042   5.231  12.907  1.00  0.00    -0.000 C 
BRANCH  12  13
ATOM     13  C   UNL     1      25.362   5.997  14.195  1.00  0.00    -0.003 C 
ATOM     14  C   UNL     1      25.789   7.431  13.894  1.00  0.00     0.004 C 
ENDBRANCH  12  13
ENDBRANCH  11  12
ENDBRANCH  10  11
ENDBRANCH   9  10
ENDBRANCH   1   9
TORSDOF 10
ENDMDL
MODEL 7
REMARK VINA RESULT:    -3.394      4.835      6.536
REMARK INTER + INTRA:          -6.757
REMARK INTER:                  -5.799
REMARK INTRA:                  -0.958
REMARK UNBOUND:                -1.379
REMARK SMILES CCCCCCCCCCCC(=O)[O-]
REMARK SMILES IDX 7 1 8 2 9 3 10 4 11 5 12 6 13 7 14 8 6 9 5 10 4 11 3 12 2 13
REMARK SMILES IDX 1 14
REMARK H PARENT
REMARK Flexibility Score: inf
ROOT
ATOM      1  C   UNL     1      19.005  -1.877  12.725  1.00  0.00     0.000 C 
ENDROOT
BRANCH   1   2
ATOM      2  C   UNL     1      18.661  -3.375  12.666  1.00  0.00     0.000 C 
BRANCH   2   3
ATOM      3  C   UNL     1      17.150  -3.634  12.575  1.00  0.00     0.000 C 
BRANCH   3   4
ATOM      4  C   UNL     1      16.373  -2.313  12.481  1.00  0.00     0.006 C 
BRANCH   4   5
ATOM      5  C   UNL     1      15.620  -2.174  11.151  1.00  0.00     0.053 C 
BRANCH   5   6
ATOM      6  C   UNL     1      16.468  -1.530  10.096  1.00  0.00     0.041 C 
ATOM      7  O   UNL     1      16.987  -2.229   9.187  1.00  0.00    -0.550 OA
ATOM      8  O   UNL     1      16.711  -0.162  10.137  1.00  0.00    -0.550 OA
ENDBRANCH   5   6
ENDBRANCH   4   5
ENDBRANCH   3   4
ENDBRANCH   2   3
ENDBRANCH   1   2
BRANCH   1   9
ATOM      9  C   UNL     1      19.842  -1.414  11.519  1.00  0.00     0.000 C 
BRANCH   9  10
ATOM     10  C   UNL     1      21.308  -1.136  11.891  1.00  0.00    -0.000 C 
BRANCH  10  11
ATOM     11  C   UNL     1      21.446  -0.188  13.092  1.00  0.00    -0.000 C 
BRANCH  11  12
ATOM     12  C   UNL     1      22.218  -0.860  14.234  1.00  0.00    -0.000 C 
BRANCH  12  13
ATOM     13  C   UNL     1      22.709  -2.253  13.822  1.00  0.00    -0.003 C 
ATOM     14  C   UNL     1      23.419  -2.952  14.977  1.00  0.00     0.004 C 
ENDBRANCH  12  13
ENDBRANCH  11  12
ENDBRANCH  10  11
ENDBRANCH   9  10
ENDBRANCH   1   9
TORSDOF 10
ENDMDL
MODEL 8
REMARK VINA RESULT:    -3.385      2.699      5.934
REMARK INTER + INTRA:          -6.743
REMARK INTER:                  -5.979
REMARK INTRA:                  -0.763
REMARK UNBOUND:                -1.379
REMARK SMILES CCCCCCCCCCCC(=O)[O-]
REMARK SMILES IDX 7 1 8 2 9 3 10 4 11 5 12 6 13 7 14 8 6 9 5 10 4 11 3 12 2 13
REMARK SMILES IDX 1 14
REMARK H PARENT
REMARK Flexibility Score: inf
ROOT
ATOM      1  C   UNL     1      21.765  -0.020  13.458  1.00  0.00     0.000 C 
ENDROOT
BRANCH   1   2
ATOM      2  C   UNL     1      20.852  -1.121  14.025  1.00  0.00     0.000 C 
BRANCH   2   3
ATOM      3  C   UNL     1      21.513  -2.508  14.005  1.00  0.00     0.000 C 
BRANCH   3   4
ATOM      4  C   UNL     1      23.028  -2.396  14.225  1.00  0.00     0.006 C 
BRANCH   4   5
ATOM      5  C   UNL     1      23.523  -3.322  15.343  1.00  0.00     0.053 C 
BRANCH   5   6
ATOM      6  C   UNL     1      23.845  -2.562  16.594  1.00  0.00     0.041 C 
ATOM      7  O   UNL     1      23.446  -1.376  16.733  1.00  0.00    -0.550 OA
ATOM      8  O   UNL     1      24.613  -3.152  17.590  1.00  0.00    -0.550 OA
ENDBRANCH   5   6
ENDBRANCH   4   5
ENDBRANCH   3   4
ENDBRANCH   2   3
ENDBRANCH   1   2
BRANCH   1   9
ATOM      9  C   UNL     1      22.014   1.118  14.463  1.00  0.00     0.000 C 
BRANCH   9  10
ATOM     10  C   UNL     1      23.510   1.391  14.687  1.00  0.00    -0.000 C 
BRANCH  10  11
ATOM     11  C   UNL     1      23.880   2.870  14.496  1.00  0.00    -0.000 C 
BRANCH  11  12
ATOM     12  C   UNL     1      22.913   3.555  13.523  1.00  0.00    -0.000 C 
BRANCH  12  13
ATOM     13  C   UNL     1      23.657   4.523  12.597  1.00  0.00    -0.003 C 
ATOM     14  C   UNL     1      24.929   5.050  13.255  1.00  0.00     0.004 C 
ENDBRANCH  12  13
ENDBRANCH  11  12
ENDBRANCH  10  11
ENDBRANCH   9  10
ENDBRANCH   1   9
TORSDOF 10
ENDMDL
MODEL 9
REMARK VINA RESULT:    -3.385      3.031      6.343
REMARK INTER + INTRA:          -6.743
REMARK INTER:                  -5.391
REMARK INTRA:                  -1.352
REMARK UNBOUND:                -1.379
REMARK SMILES CCCCCCCCCCCC(=O)[O-]
REMARK SMILES IDX 7 1 8 2 9 3 10 4 11 5 12 6 13 7 14 8 6 9 5 10 4 11 3 12 2 13
REMARK SMILES IDX 1 14
REMARK H PARENT
REMARK Flexibility Score: inf
ROOT
ATOM      1  C   UNL     1      22.212   3.647  15.592  1.00  0.00     0.000 C 
ENDROOT
BRANCH   1   2
ATOM      2  C   UNL     1      23.690   3.682  16.016  1.00  0.00     0.000 C 
BRANCH   2   3
ATOM      3  C   UNL     1      24.499   2.507  15.445  1.00  0.00     0.000 C 
BRANCH   3   4
ATOM      4  C   UNL     1      23.581   1.512  14.720  1.00  0.00     0.006 C 
BRANCH   4   5
ATOM      5  C   UNL     1      23.536   0.147  15.419  1.00  0.00     0.053 C 
BRANCH   5   6
ATOM      6  C   UNL     1      22.229  -0.078  16.118  1.00  0.00     0.041 C 
ATOM      7  O   UNL     1      21.187  -0.309  15.451  1.00  0.00    -0.550 OA
ATOM      8  O   UNL     1      22.158  -0.000  17.504  1.00  0.00    -0.550 OA
ENDBRANCH   5   6
ENDBRANCH   4   5
ENDBRANCH   3   4
ENDBRANCH   2   3
ENDBRANCH   1   2
BRANCH   1   9
ATOM      9  C   UNL     1      21.846   4.791  14.629  1.00  0.00     0.000 C 
BRANCH   9  10
ATOM     10  C   UNL     1      21.655   4.306  13.183  1.00  0.00    -0.000 C 
BRANCH  10  11
ATOM     11  C   UNL     1      22.964   4.306  12.378  1.00  0.00    -0.000 C 
BRANCH  11  12
ATOM     12  C   UNL     1      23.697   5.645  12.526  1.00  0.00    -0.000 C 
BRANCH  12  13
ATOM     13  C   UNL     1      25.105   5.441  13.097  1.00  0.00    -0.003 C 
ATOM     14  C   UNL     1      25.594   6.691  13.820  1.00  0.00     0.004 C 
ENDBRANCH  12  13
ENDBRANCH  11  12
ENDBRANCH  10  11
ENDBRANCH   9  10
ENDBRANCH   1   9
TORSDOF 10
ENDMDL
