MODEL 1
REMARK VINA RESULT:    -5.400      0.000      0.000
REMARK INTER + INTRA:         -14.904
REMARK INTER:                 -12.345
REMARK INTRA:                  -2.559
REMARK UNBOUND:                -2.559
REMARK SMILES CCCCCCCCCCCCCCCCCCCCCCCC(=O)[O-]
REMARK SMILES IDX 13 1 14 2 15 3 16 4 17 5 18 6 19 7 20 8 21 9 22 10 23 11
REMARK SMILES IDX 24 12 25 13 26 14 12 15 11 16 10 17 9 18 8 19 7 20 6 21 5 22
REMARK SMILES IDX 4 23 3 24 2 25 1 26
REMARK H PARENT
REMARK Flexibility Score: inf
ROOT
ATOM      1  C   UNL     1      -0.599  25.480  47.052  1.00  0.00     0.000 C 
ENDROOT
BRANCH   1   2
ATOM      2  C   UNL     1      -0.939  25.740  48.535  1.00  0.00     0.000 C 
BRANCH   2   3
ATOM      3  C   UNL     1       0.048  25.131  49.547  1.00  0.00     0.000 C 
BRANCH   3   4
ATOM      4  C   UNL     1       1.393  25.876  49.589  1.00  0.00     0.000 C 
BRANCH   4   5
ATOM      5  C   UNL     1       2.262  25.448  50.791  1.00  0.00     0.000 C 
BRANCH   5   6
ATOM      6  C   UNL     1       1.640  24.321  51.632  1.00  0.00     0.000 C 
BRANCH   6   7
ATOM      7  C   UNL     1       2.525  23.066  51.698  1.00  0.00     0.000 C 
BRANCH   7   8
ATOM      8  C   UNL     1       1.736  21.766  51.457  1.00  0.00     0.000 C 
BRANCH   8   9
ATOM      9  C   UNL     1       0.385  21.952  50.736  1.00  0.00     0.000 C 
BRANCH   9  10
ATOM     10  C   UNL     1      -0.862  21.830  51.637  1.00  0.00     0.006 C 
BRANCH  10  11
ATOM     11  C   UNL     1      -0.659  20.960  52.888  1.00  0.00     0.053 C 
BRANCH  11  12
ATOM     12  C   UNL     1      -1.711  21.214  53.924  1.00  0.00     0.041 C 
ATOM     13  O   UNL     1      -2.689  21.963  53.662  1.00  0.00    -0.550 OA
ATOM     14  O   UNL     1      -1.597  20.647  55.188  1.00  0.00    -0.550 OA
ENDBRANCH  11  12
ENDBRANCH  10  11
ENDBRANCH   9  10
ENDBRANCH   8   9
ENDBRANCH   7   8
ENDBRANCH   6   7
ENDBRANCH   5   6
ENDBRANCH   4   5
ENDBRANCH   3   4
ENDBRANCH   2   3
ENDBRANCH   1   2
BRANCH   1  15
ATOM     15  C   UNL     1      -1.804  25.191  46.138  1.00  0.00     0.000 C 
BRANCH  15  16
ATOM     16  C   UNL     1      -1.399  24.892  44.684  1.00  0.00     0.000 C 
BRANCH  16  17
ATOM     17  C   UNL     1      -1.446  23.391  44.346  1.00  0.00     0.000 C 
BRANCH  17  18
ATOM     18  C   UNL     1      -1.914  22.470  45.488  1.00  0.00    -0.000 C 
BRANCH  18  19
ATOM     19  C   UNL     1      -0.796  21.556  46.016  1.00  0.00    -0.000 C 
BRANCH  19  20
ATOM     20  C   UNL     1      -0.865  21.341  47.540  1.00  0.00    -0.000 C 
BRANCH  20  21
ATOM     21  C   UNL     1      -0.125  20.094  48.060  1.00  0.00    -0.000 C 
BRANCH  21  22
ATOM     22  C   UNL     1       0.905  19.546  47.056  1.00  0.00    -0.000 C 
BRANCH  22  23
ATOM     23  C   UNL     1       2.280  19.290  47.695  1.00  0.00    -0.000 C 
BRANCH  23  24
ATOM     24  C   UNL     1       2.172  18.714  49.118  1.00  0.00    -0.000 C 
BRANCH  24  25
ATOM     25  C   UNL     1       3.520  18.721  49.857  1.00  0.00    -0.003 C 
ATOM     26  C   UNL     1       4.262  20.050  49.719  1.00  0.00     0.004 C 
ENDBRANCH  24  25
ENDBRANCH  23  24
ENDBRANCH  22  23
ENDBRANCH  21  22
ENDBRANCH  20  21
ENDBRANCH  19  20
ENDBRANCH  18  19
ENDBRANCH  17  18
ENDBRANCH  16  17
ENDBRANCH  15  16
ENDBRANCH   1  15
TORSDOF 22
ENDMDL
MODEL 2
REMARK VINA RESULT:    -5.304      2.342      5.807
REMARK INTER + INTRA:         -14.685
REMARK INTER:                 -11.832
REMARK INTRA:                  -2.853
REMARK UNBOUND:                -2.559
REMARK SMILES CCCCCCCCCCCCCCCCCCCCCCCC(=O)[O-]
REMARK SMILES IDX 13 1 14 2 15 3 16 4 17 5 18 6 19 7 20 8 21 9 22 10 23 11
REMARK SMILES IDX 24 12 25 13 26 14 12 15 11 16 10 17 9 18 8 19 7 20 6 21 5 22
REMARK SMILES IDX 4 23 3 24 2 25 1 26
REMARK H PARENT
REMARK Flexibility Score: inf
ROOT
ATOM      1  C   UNL     1      -0.103  26.115  46.464  1.00  0.00     0.000 C 
ENDROOT
BRANCH   1   2
ATOM      2  C   UNL     1      -0.450  25.775  44.999  1.00  0.00     0.000 C 
BRANCH   2   3
ATOM      3  C   UNL     1      -1.784  25.033  44.799  1.00  0.00     0.000 C 
BRANCH   3   4
ATOM      4  C   UNL     1      -1.593  23.542  44.471  1.00  0.00     0.000 C 
BRANCH   4   5
ATOM      5  C   UNL     1      -1.913  22.632  45.675  1.00  0.00     0.000 C 
BRANCH   5   6
ATOM      6  C   UNL     1      -0.753  21.704  46.074  1.00  0.00     0.000 C 
BRANCH   6   7
ATOM      7  C   UNL     1      -0.735  21.383  47.577  1.00  0.00     0.000 C 
BRANCH   7   8
ATOM      8  C   UNL     1      -0.299  19.936  47.872  1.00  0.00     0.000 C 
BRANCH   8   9
ATOM      9  C   UNL     1       0.796  19.385  46.935  1.00  0.00     0.000 C 
BRANCH   9  10
ATOM     10  C   UNL     1       2.183  19.195  47.585  1.00  0.00     0.006 C 
BRANCH  10  11
ATOM     11  C   UNL     1       2.209  19.431  49.104  1.00  0.00     0.053 C 
BRANCH  11  12
ATOM     12  C   UNL     1       3.520  19.032  49.710  1.00  0.00     0.041 C 
ATOM     13  O   UNL     1       3.689  17.862  50.141  1.00  0.00    -0.550 OA
ATOM     14  O   UNL     1       4.546  19.964  49.824  1.00  0.00    -0.550 OA
ENDBRANCH  11  12
ENDBRANCH  10  11
ENDBRANCH   9  10
ENDBRANCH   8   9
ENDBRANCH   7   8
ENDBRANCH   6   7
ENDBRANCH   5   6
ENDBRANCH   4   5
ENDBRANCH   3   4
ENDBRANCH   2   3
ENDBRANCH   1   2
BRANCH   1  15
ATOM     15  C   UNL     1      -1.142  25.671  47.510  1.00  0.00     0.000 C 
BRANCH  15  16
ATOM     16  C   UNL     1      -0.508  25.247  48.845  1.00  0.00     0.000 C 
BRANCH  16  17
ATOM     17  C   UNL     1       0.896  25.843  49.057  1.00  0.00     0.000 C 
BRANCH  17  18
ATOM     18  C   UNL     1       1.346  25.971  50.524  1.00  0.00    -0.000 C 
BRANCH  18  19
ATOM     19  C   UNL     1       2.338  24.873  50.943  1.00  0.00    -0.000 C 
BRANCH  19  20
ATOM     20  C   UNL     1       1.796  23.972  52.070  1.00  0.00    -0.000 C 
BRANCH  20  21
ATOM     21  C   UNL     1       1.942  22.459  51.825  1.00  0.00    -0.000 C 
BRANCH  21  22
ATOM     22  C   UNL     1       0.915  21.912  50.817  1.00  0.00    -0.000 C 
BRANCH  22  23
ATOM     23  C   UNL     1      -0.534  22.263  51.193  1.00  0.00    -0.000 C 
BRANCH  23  24
ATOM     24  C   UNL     1      -1.214  21.156  52.018  1.00  0.00    -0.000 C 
BRANCH  24  25
ATOM     25  C   UNL     1      -1.829  21.689  53.322  1.00  0.00    -0.003 C 
ATOM     26  C   UNL     1      -1.269  20.996  54.564  1.00  0.00     0.004 C 
ENDBRANCH  24  25
ENDBRANCH  23  24
ENDBRANCH  22  23
ENDBRANCH  21  22
ENDBRANCH  20  21
ENDBRANCH  19  20
ENDBRANCH  18  19
ENDBRANCH  17  18
ENDBRANCH  16  17
ENDBRANCH  15  16
ENDBRANCH   1  15
TORSDOF 22
ENDMDL
MODEL 3
REMARK VINA RESULT:    -4.859      0.883      1.262
REMARK INTER + INTRA:         -13.669
REMARK INTER:                 -11.196
REMARK INTRA:                  -2.473
REMARK UNBOUND:                -2.559
REMARK SMILES CCCCCCCCCCCCCCCCCCCCCCCC(=O)[O-]
REMARK SMILES IDX 13 1 14 2 15 3 16 4 17 5 18 6 19 7 20 8 21 9 22 10 23 11
REMARK SMILES IDX 24 12 25 13 26 14 12 15 11 16 10 17 9 18 8 19 7 20 6 21 5 22
REMARK SMILES IDX 4 23 3 24 2 25 1 26
REMARK H PARENT
REMARK Flexibility Score: inf
ROOT
ATOM      1  C   UNL     1      -0.876  25.469  48.268  1.00  0.00     0.000 C 
ENDROOT
BRANCH   1   2
ATOM      2  C   UNL     1       0.513  26.125  48.114  1.00  0.00     0.000 C 
BRANCH   2   3
ATOM      3  C   UNL     1       1.446  25.971  49.329  1.00  0.00     0.000 C 
BRANCH   3   4
ATOM      4  C   UNL     1       0.979  24.876  50.303  1.00  0.00     0.000 C 
BRANCH   4   5
ATOM      5  C   UNL     1       1.886  24.776  51.548  1.00  0.00     0.000 C 
BRANCH   5   6
ATOM      6  C   UNL     1       1.912  23.375  52.183  1.00  0.00     0.000 C 
BRANCH   6   7
ATOM      7  C   UNL     1       2.242  22.267  51.171  1.00  0.00     0.000 C 
BRANCH   7   8
ATOM      8  C   UNL     1       1.126  21.212  51.057  1.00  0.00     0.000 C 
BRANCH   8   9
ATOM      9  C   UNL     1      -0.273  21.781  50.742  1.00  0.00     0.000 C 
BRANCH   9  10
ATOM     10  C   UNL     1      -1.161  22.061  51.973  1.00  0.00     0.006 C 
BRANCH  10  11
ATOM     11  C   UNL     1      -1.388  20.842  52.882  1.00  0.00     0.053 C 
BRANCH  11  12
ATOM     12  C   UNL     1      -1.052  21.139  54.312  1.00  0.00     0.041 C 
ATOM     13  O   UNL     1      -1.774  20.686  55.239  1.00  0.00    -0.550 OA
ATOM     14  O   UNL     1       0.041  21.940  54.618  1.00  0.00    -0.550 OA
ENDBRANCH  11  12
ENDBRANCH  10  11
ENDBRANCH   9  10
ENDBRANCH   8   9
ENDBRANCH   7   8
ENDBRANCH   6   7
ENDBRANCH   5   6
ENDBRANCH   4   5
ENDBRANCH   3   4
ENDBRANCH   2   3
ENDBRANCH   1   2
BRANCH   1  15
ATOM     15  C   UNL     1      -1.767  25.502  47.012  1.00  0.00     0.000 C 
BRANCH  15  16
ATOM     16  C   UNL     1      -0.972  25.330  45.707  1.00  0.00     0.000 C 
BRANCH  16  17
ATOM     17  C   UNL     1      -1.717  24.484  44.659  1.00  0.00     0.000 C 
BRANCH  17  18
ATOM     18  C   UNL     1      -1.320  22.997  44.606  1.00  0.00    -0.000 C 
BRANCH  18  19
ATOM     19  C   UNL     1      -2.005  22.157  45.697  1.00  0.00    -0.000 C 
BRANCH  19  20
ATOM     20  C   UNL     1      -1.013  21.586  46.729  1.00  0.00    -0.000 C 
BRANCH  20  21
ATOM     21  C   UNL     1       0.223  20.888  46.132  1.00  0.00    -0.000 C 
BRANCH  21  22
ATOM     22  C   UNL     1       0.351  19.418  46.569  1.00  0.00    -0.000 C 
BRANCH  22  23
ATOM     23  C   UNL     1       0.862  19.267  48.011  1.00  0.00    -0.000 C 
BRANCH  23  24
ATOM     24  C   UNL     1       2.393  19.382  48.110  1.00  0.00    -0.000 C 
BRANCH  24  25
ATOM     25  C   UNL     1       2.945  18.769  49.407  1.00  0.00    -0.003 C 
ATOM     26  C   UNL     1       4.212  19.470  49.899  1.00  0.00     0.004 C 
ENDBRANCH  24  25
ENDBRANCH  23  24
ENDBRANCH  22  23
ENDBRANCH  21  22
ENDBRANCH  20  21
ENDBRANCH  19  20
ENDBRANCH  18  19
ENDBRANCH  17  18
ENDBRANCH  16  17
ENDBRANCH  15  16
ENDBRANCH   1  15
TORSDOF 22
ENDMDL
MODEL 4
REMARK VINA RESULT:    -4.497      0.902      4.834
REMARK INTER + INTRA:         -12.841
REMARK INTER:                 -10.911
REMARK INTRA:                  -1.929
REMARK UNBOUND:                -2.559
REMARK SMILES CCCCCCCCCCCCCCCCCCCCCCCC(=O)[O-]
REMARK SMILES IDX 13 1 14 2 15 3 16 4 17 5 18 6 19 7 20 8 21 9 22 10 23 11
REMARK SMILES IDX 24 12 25 13 26 14 12 15 11 16 10 17 9 18 8 19 7 20 6 21 5 22
REMARK SMILES IDX 4 23 3 24 2 25 1 26
REMARK H PARENT
REMARK Flexibility Score: inf
ROOT
ATOM      1  C   UNL     1       0.568  19.449  47.096  1.00  0.00     0.000 C 
ENDROOT
BRANCH   1   2
ATOM      2  C   UNL     1       1.963  19.256  47.727  1.00  0.00     0.000 C 
BRANCH   2   3
ATOM      3  C   UNL     1       1.957  18.862  49.215  1.00  0.00     0.000 C 
BRANCH   3   4
ATOM      4  C   UNL     1       3.371  18.628  49.775  1.00  0.00     0.000 C 
BRANCH   4   5
ATOM      5  C   UNL     1       4.264  19.880  49.648  1.00  0.00     0.000 C 
BRANCH   5   6
ATOM      6  C   UNL     1       3.619  21.159  50.207  1.00  0.00     0.000 C 
BRANCH   6   7
ATOM      7  C   UNL     1       2.400  20.872  51.099  1.00  0.00     0.000 C 
BRANCH   7   8
ATOM      8  C   UNL     1       1.715  22.156  51.603  1.00  0.00     0.000 C 
BRANCH   8   9
ATOM      9  C   UNL     1       0.261  22.347  51.124  1.00  0.00     0.000 C 
BRANCH   9  10
ATOM     10  C   UNL     1      -0.724  21.241  51.559  1.00  0.00     0.006 C 
BRANCH  10  11
ATOM     11  C   UNL     1      -1.602  21.611  52.766  1.00  0.00     0.053 C 
BRANCH  11  12
ATOM     12  C   UNL     1      -1.130  20.951  54.025  1.00  0.00     0.041 C 
ATOM     13  O   UNL     1      -1.372  19.733  54.230  1.00  0.00    -0.550 OA
ATOM     14  O   UNL     1      -0.448  21.690  54.985  1.00  0.00    -0.550 OA
ENDBRANCH  11  12
ENDBRANCH  10  11
ENDBRANCH   9  10
ENDBRANCH   8   9
ENDBRANCH   7   8
ENDBRANCH   6   7
ENDBRANCH   5   6
ENDBRANCH   4   5
ENDBRANCH   3   4
ENDBRANCH   2   3
ENDBRANCH   1   2
BRANCH   1  15
ATOM     15  C   UNL     1      -0.451  20.212  47.964  1.00  0.00     0.000 C 
BRANCH  15  16
ATOM     16  C   UNL     1      -0.687  21.655  47.486  1.00  0.00     0.000 C 
BRANCH  16  17
ATOM     17  C   UNL     1      -0.976  21.746  45.976  1.00  0.00     0.000 C 
BRANCH  17  18
ATOM     18  C   UNL     1      -2.437  22.050  45.599  1.00  0.00    -0.000 C 
BRANCH  18  19
ATOM     19  C   UNL     1      -2.652  23.509  45.165  1.00  0.00    -0.000 C 
BRANCH  19  20
ATOM     20  C   UNL     1      -1.374  24.164  44.605  1.00  0.00    -0.000 C 
BRANCH  20  21
ATOM     21  C   UNL     1      -1.030  25.542  45.201  1.00  0.00    -0.000 C 
BRANCH  21  22
ATOM     22  C   UNL     1      -1.188  25.591  46.731  1.00  0.00    -0.000 C 
BRANCH  22  23
ATOM     23  C   UNL     1       0.139  25.865  47.458  1.00  0.00    -0.000 C 
BRANCH  23  24
ATOM     24  C   UNL     1       0.181  25.241  48.864  1.00  0.00    -0.000 C 
BRANCH  24  25
ATOM     25  C   UNL     1       0.931  26.124  49.875  1.00  0.00    -0.003 C 
ATOM     26  C   UNL     1       1.983  25.348  50.669  1.00  0.00     0.004 C 
ENDBRANCH  24  25
ENDBRANCH  23  24
ENDBRANCH  22  23
ENDBRANCH  21  22
ENDBRANCH  20  21
ENDBRANCH  19  20
ENDBRANCH  18  19
ENDBRANCH  17  18
ENDBRANCH  16  17
ENDBRANCH  15  16
ENDBRANCH   1  15
TORSDOF 22
ENDMDL
MODEL 5
REMARK VINA RESULT:    -4.436      1.888      6.280
REMARK INTER + INTRA:         -12.700
REMARK INTER:                 -10.394
REMARK INTRA:                  -2.306
REMARK UNBOUND:                -2.559
REMARK SMILES CCCCCCCCCCCCCCCCCCCCCCCC(=O)[O-]
REMARK SMILES IDX 13 1 14 2 15 3 16 4 17 5 18 6 19 7 20 8 21 9 22 10 23 11
REMARK SMILES IDX 24 12 25 13 26 14 12 15 11 16 10 17 9 18 8 19 7 20 6 21 5 22
REMARK SMILES IDX 4 23 3 24 2 25 1 26
REMARK H PARENT
REMARK Flexibility Score: inf
ROOT
ATOM      1  C   UNL     1       0.010  19.391  47.734  1.00  0.00     0.000 C 
ENDROOT
BRANCH   1   2
ATOM      2  C   UNL     1      -1.013  20.534  47.903  1.00  0.00     0.000 C 
BRANCH   2   3
ATOM      3  C   UNL     1      -0.625  21.863  47.229  1.00  0.00     0.000 C 
BRANCH   3   4
ATOM      4  C   UNL     1      -1.087  21.945  45.764  1.00  0.00     0.000 C 
BRANCH   4   5
ATOM      5  C   UNL     1      -2.189  23.006  45.557  1.00  0.00     0.000 C 
BRANCH   5   6
ATOM      6  C   UNL     1      -1.797  24.120  44.572  1.00  0.00     0.000 C 
BRANCH   6   7
ATOM      7  C   UNL     1      -1.055  25.283  45.249  1.00  0.00     0.000 C 
BRANCH   7   8
ATOM      8  C   UNL     1      -1.334  25.368  46.761  1.00  0.00     0.000 C 
BRANCH   8   9
ATOM      9  C   UNL     1      -0.193  25.983  47.598  1.00  0.00     0.000 C 
BRANCH   9  10
ATOM     10  C   UNL     1      -0.384  25.904  49.128  1.00  0.00     0.006 C 
BRANCH  10  11
ATOM     11  C   UNL     1       0.181  24.628  49.773  1.00  0.00     0.053 C 
BRANCH  11  12
ATOM     12  C   UNL     1       1.401  24.910  50.596  1.00  0.00     0.041 C 
ATOM     13  O   UNL     1       2.333  25.612  50.125  1.00  0.00    -0.550 OA
ATOM     14  O   UNL     1       1.520  24.371  51.872  1.00  0.00    -0.550 OA
ENDBRANCH  11  12
ENDBRANCH  10  11
ENDBRANCH   9  10
ENDBRANCH   8   9
ENDBRANCH   7   8
ENDBRANCH   6   7
ENDBRANCH   5   6
ENDBRANCH   4   5
ENDBRANCH   3   4
ENDBRANCH   2   3
ENDBRANCH   1   2
BRANCH   1  15
ATOM     15  C   UNL     1       1.215  19.711  46.829  1.00  0.00     0.000 C 
BRANCH  15  16
ATOM     16  C   UNL     1       2.555  19.250  47.428  1.00  0.00     0.000 C 
BRANCH  16  17
ATOM     17  C   UNL     1       2.404  18.635  48.831  1.00  0.00     0.000 C 
BRANCH  17  18
ATOM     18  C   UNL     1       3.705  18.519  49.646  1.00  0.00    -0.000 C 
BRANCH  18  19
ATOM     19  C   UNL     1       4.007  19.780  50.473  1.00  0.00    -0.000 C 
BRANCH  19  20
ATOM     20  C   UNL     1       3.034  20.938  50.180  1.00  0.00    -0.000 C 
BRANCH  20  21
ATOM     21  C   UNL     1       2.062  21.282  51.324  1.00  0.00    -0.000 C 
BRANCH  21  22
ATOM     22  C   UNL     1       0.590  21.018  50.960  1.00  0.00    -0.000 C 
BRANCH  22  23
ATOM     23  C   UNL     1      -0.393  21.764  51.876  1.00  0.00    -0.000 C 
BRANCH  23  24
ATOM     24  C   UNL     1      -0.169  21.448  53.365  1.00  0.00    -0.000 C 
BRANCH  24  25
ATOM     25  C   UNL     1      -1.469  21.050  54.083  1.00  0.00    -0.003 C 
ATOM     26  C   UNL     1      -2.701  21.745  53.501  1.00  0.00     0.004 C 
ENDBRANCH  24  25
ENDBRANCH  23  24
ENDBRANCH  22  23
ENDBRANCH  21  22
ENDBRANCH  20  21
ENDBRANCH  19  20
ENDBRANCH  18  19
ENDBRANCH  17  18
ENDBRANCH  16  17
ENDBRANCH  15  16
ENDBRANCH   1  15
TORSDOF 22
ENDMDL
MODEL 6
REMARK VINA RESULT:    -4.436      0.850      4.740
REMARK INTER + INTRA:         -12.700
REMARK INTER:                 -10.146
REMARK INTRA:                  -2.554
REMARK UNBOUND:                -2.559
REMARK SMILES CCCCCCCCCCCCCCCCCCCCCCCC(=O)[O-]
REMARK SMILES IDX 13 1 14 2 15 3 16 4 17 5 18 6 19 7 20 8 21 9 22 10 23 11
REMARK SMILES IDX 24 12 25 13 26 14 12 15 11 16 10 17 9 18 8 19 7 20 6 21 5 22
REMARK SMILES IDX 4 23 3 24 2 25 1 26
REMARK H PARENT
REMARK Flexibility Score: inf
ROOT
ATOM      1  C   UNL     1       0.125  20.905  45.789  1.00  0.00     0.000 C 
ENDROOT
BRANCH   1   2
ATOM      2  C   UNL     1       0.158  19.425  46.227  1.00  0.00     0.000 C 
BRANCH   2   3
ATOM      3  C   UNL     1       0.588  19.185  47.686  1.00  0.00     0.000 C 
BRANCH   3   4
ATOM      4  C   UNL     1       2.116  19.194  47.866  1.00  0.00     0.000 C 
BRANCH   4   5
ATOM      5  C   UNL     1       2.558  18.456  49.147  1.00  0.00     0.000 C 
BRANCH   5   6
ATOM      6  C   UNL     1       3.771  19.096  49.842  1.00  0.00     0.000 C 
BRANCH   6   7
ATOM      7  C   UNL     1       3.583  20.598  50.108  1.00  0.00     0.000 C 
BRANCH   7   8
ATOM      8  C   UNL     1       2.407  20.892  51.057  1.00  0.00     0.000 C 
BRANCH   8   9
ATOM      9  C   UNL     1       1.227  21.649  50.414  1.00  0.00     0.000 C 
BRANCH   9  10
ATOM     10  C   UNL     1      -0.175  21.125  50.793  1.00  0.00     0.006 C 
BRANCH  10  11
ATOM     11  C   UNL     1      -0.968  22.053  51.728  1.00  0.00     0.053 C 
BRANCH  11  12
ATOM     12  C   UNL     1      -1.402  21.351  52.978  1.00  0.00     0.041 C 
ATOM     13  O   UNL     1      -0.732  20.383  53.425  1.00  0.00    -0.550 OA
ATOM     14  O   UNL     1      -2.562  21.747  53.633  1.00  0.00    -0.550 OA
ENDBRANCH  11  12
ENDBRANCH  10  11
ENDBRANCH   9  10
ENDBRANCH   8   9
ENDBRANCH   7   8
ENDBRANCH   6   7
ENDBRANCH   5   6
ENDBRANCH   4   5
ENDBRANCH   3   4
ENDBRANCH   2   3
ENDBRANCH   1   2
BRANCH   1  15
ATOM     15  C   UNL     1      -0.631  21.857  46.735  1.00  0.00     0.000 C 
BRANCH  15  16
ATOM     16  C   UNL     1      -2.111  22.034  46.352  1.00  0.00     0.000 C 
BRANCH  16  17
ATOM     17  C   UNL     1      -2.299  22.737  44.995  1.00  0.00     0.000 C 
BRANCH  17  18
ATOM     18  C   UNL     1      -1.381  23.947  44.744  1.00  0.00    -0.000 C 
BRANCH  18  19
ATOM     19  C   UNL     1      -1.553  25.056  45.795  1.00  0.00    -0.000 C 
BRANCH  19  20
ATOM     20  C   UNL     1      -0.291  25.922  45.968  1.00  0.00    -0.000 C 
BRANCH  20  21
ATOM     21  C   UNL     1       0.171  26.125  47.423  1.00  0.00    -0.000 C 
BRANCH  21  22
ATOM     22  C   UNL     1      -0.661  25.317  48.435  1.00  0.00    -0.000 C 
BRANCH  22  23
ATOM     23  C   UNL     1       0.058  25.126  49.780  1.00  0.00    -0.000 C 
BRANCH  23  24
ATOM     24  C   UNL     1       1.292  26.034  49.923  1.00  0.00    -0.000 C 
BRANCH  24  25
ATOM     25  C   UNL     1       2.396  25.393  50.779  1.00  0.00    -0.003 C 
ATOM     26  C   UNL     1       1.869  24.278  51.683  1.00  0.00     0.004 C 
ENDBRANCH  24  25
ENDBRANCH  23  24
ENDBRANCH  22  23
ENDBRANCH  21  22
ENDBRANCH  20  21
ENDBRANCH  19  20
ENDBRANCH  18  19
ENDBRANCH  17  18
ENDBRANCH  16  17
ENDBRANCH  15  16
ENDBRANCH   1  15
TORSDOF 22
ENDMDL
MODEL 7
REMARK VINA RESULT:    -4.100      0.904      6.172
REMARK INTER + INTRA:         -11.932
REMARK INTER:                  -9.850
REMARK INTRA:                  -2.083
REMARK UNBOUND:                -2.559
REMARK SMILES CCCCCCCCCCCCCCCCCCCCCCCC(=O)[O-]
REMARK SMILES IDX 13 1 14 2 15 3 16 4 17 5 18 6 19 7 20 8 21 9 22 10 23 11
REMARK SMILES IDX 24 12 25 13 26 14 12 15 11 16 10 17 9 18 8 19 7 20 6 21 5 22
REMARK SMILES IDX 4 23 3 24 2 25 1 26
REMARK H PARENT
REMARK Flexibility Score: inf
ROOT
ATOM      1  C   UNL     1       2.746  20.740  50.899  1.00  0.00     0.000 C 
ENDROOT
BRANCH   1   2
ATOM      2  C   UNL     1       3.853  20.090  50.042  1.00  0.00     0.000 C 
BRANCH   2   3
ATOM      3  C   UNL     1       3.456  18.770  49.355  1.00  0.00     0.000 C 
BRANCH   3   4
ATOM      4  C   UNL     1       2.712  18.990  48.027  1.00  0.00     0.000 C 
BRANCH   4   5
ATOM      5  C   UNL     1       1.181  19.041  48.216  1.00  0.00     0.000 C 
BRANCH   5   6
ATOM      6  C   UNL     1       0.467  19.972  47.222  1.00  0.00     0.000 C 
BRANCH   6   7
ATOM      7  C   UNL     1      -0.706  20.736  47.857  1.00  0.00     0.000 C 
BRANCH   7   8
ATOM      8  C   UNL     1      -0.301  21.495  49.134  1.00  0.00     0.000 C 
BRANCH   8   9
ATOM      9  C   UNL     1      -0.666  20.786  50.454  1.00  0.00     0.000 C 
BRANCH   9  10
ATOM     10  C   UNL     1      -0.813  21.714  51.679  1.00  0.00     0.006 C 
BRANCH  10  11
ATOM     11  C   UNL     1      -1.826  21.225  52.727  1.00  0.00     0.053 C 
BRANCH  11  12
ATOM     12  C   UNL     1      -1.164  20.875  54.025  1.00  0.00     0.041 C 
ATOM     13  O   UNL     1      -0.533  21.752  54.671  1.00  0.00    -0.550 OA
ATOM     14  O   UNL     1      -1.220  19.572  54.506  1.00  0.00    -0.550 OA
ENDBRANCH  11  12
ENDBRANCH  10  11
ENDBRANCH   9  10
ENDBRANCH   8   9
ENDBRANCH   7   8
ENDBRANCH   6   7
ENDBRANCH   5   6
ENDBRANCH   4   5
ENDBRANCH   3   4
ENDBRANCH   2   3
ENDBRANCH   1   2
BRANCH   1  15
ATOM     15  C   UNL     1       2.788  22.278  50.977  1.00  0.00     0.000 C 
BRANCH  15  16
ATOM     16  C   UNL     1       1.977  22.842  52.156  1.00  0.00     0.000 C 
BRANCH  16  17
ATOM     17  C   UNL     1       1.562  24.310  51.949  1.00  0.00     0.000 C 
BRANCH  17  18
ATOM     18  C   UNL     1       2.326  25.064  50.845  1.00  0.00    -0.000 C 
BRANCH  18  19
ATOM     19  C   UNL     1       1.392  25.781  49.855  1.00  0.00    -0.000 C 
BRANCH  19  20
ATOM     20  C   UNL     1       0.062  25.036  49.636  1.00  0.00    -0.000 C 
BRANCH  20  21
ATOM     21  C   UNL     1      -0.945  25.749  48.715  1.00  0.00    -0.000 C 
BRANCH  21  22
ATOM     22  C   UNL     1      -0.570  25.650  47.225  1.00  0.00    -0.000 C 
BRANCH  22  23
ATOM     23  C   UNL     1      -1.739  25.173  46.348  1.00  0.00    -0.000 C 
BRANCH  23  24
ATOM     24  C   UNL     1      -1.323  24.939  44.885  1.00  0.00    -0.000 C 
BRANCH  24  25
ATOM     25  C   UNL     1      -1.802  23.581  44.349  1.00  0.00    -0.003 C 
ATOM     26  C   UNL     1      -1.898  22.515  45.441  1.00  0.00     0.004 C 
ENDBRANCH  24  25
ENDBRANCH  23  24
ENDBRANCH  22  23
ENDBRANCH  21  22
ENDBRANCH  20  21
ENDBRANCH  19  20
ENDBRANCH  18  19
ENDBRANCH  17  18
ENDBRANCH  16  17
ENDBRANCH  15  16
ENDBRANCH   1  15
TORSDOF 22
ENDMDL
MODEL 8
REMARK VINA RESULT:    -3.972      2.461      6.882
REMARK INTER + INTRA:         -11.640
REMARK INTER:                  -9.687
REMARK INTRA:                  -1.953
REMARK UNBOUND:                -2.559
REMARK SMILES CCCCCCCCCCCCCCCCCCCCCCCC(=O)[O-]
REMARK SMILES IDX 13 1 14 2 15 3 16 4 17 5 18 6 19 7 20 8 21 9 22 10 23 11
REMARK SMILES IDX 24 12 25 13 26 14 12 15 11 16 10 17 9 18 8 19 7 20 6 21 5 22
REMARK SMILES IDX 4 23 3 24 2 25 1 26
REMARK H PARENT
REMARK Flexibility Score: inf
ROOT
ATOM      1  C   UNL     1       2.389  20.979  50.566  1.00  0.00     0.000 C 
ENDROOT
BRANCH   1   2
ATOM      2  C   UNL     1       3.754  20.336  50.245  1.00  0.00     0.000 C 
BRANCH   2   3
ATOM      3  C   UNL     1       3.683  18.933  49.614  1.00  0.00     0.000 C 
BRANCH   3   4
ATOM      4  C   UNL     1       2.268  18.570  49.130  1.00  0.00     0.000 C 
BRANCH   4   5
ATOM      5  C   UNL     1       1.966  19.139  47.728  1.00  0.00     0.000 C 
BRANCH   5   6
ATOM      6  C   UNL     1       0.486  19.497  47.512  1.00  0.00     0.000 C 
BRANCH   6   7
ATOM      7  C   UNL     1       0.248  20.313  46.232  1.00  0.00     0.000 C 
BRANCH   7   8
ATOM      8  C   UNL     1      -0.657  21.536  46.464  1.00  0.00     0.000 C 
BRANCH   8   9
ATOM      9  C   UNL     1      -1.351  22.080  45.198  1.00  0.00     0.000 C 
BRANCH   9  10
ATOM     10  C   UNL     1      -2.185  23.363  45.406  1.00  0.00     0.006 C 
BRANCH  10  11
ATOM     11  C   UNL     1      -1.450  24.664  45.045  1.00  0.00     0.053 C 
BRANCH  11  12
ATOM     12  C   UNL     1      -1.178  25.507  46.253  1.00  0.00     0.041 C 
ATOM     13  O   UNL     1      -0.079  26.110  46.369  1.00  0.00    -0.550 OA
ATOM     14  O   UNL     1      -2.128  25.603  47.264  1.00  0.00    -0.550 OA
ENDBRANCH  11  12
ENDBRANCH  10  11
ENDBRANCH   9  10
ENDBRANCH   8   9
ENDBRANCH   7   8
ENDBRANCH   6   7
ENDBRANCH   5   6
ENDBRANCH   4   5
ENDBRANCH   3   4
ENDBRANCH   2   3
ENDBRANCH   1   2
BRANCH   1  15
ATOM     15  C   UNL     1       2.384  21.965  51.750  1.00  0.00     0.000 C 
BRANCH  15  16
ATOM     16  C   UNL     1       2.915  23.358  51.374  1.00  0.00     0.000 C 
BRANCH  16  17
ATOM     17  C   UNL     1       1.871  24.472  51.573  1.00  0.00     0.000 C 
BRANCH  17  18
ATOM     18  C   UNL     1       1.753  25.483  50.419  1.00  0.00    -0.000 C 
BRANCH  18  19
ATOM     19  C   UNL     1       0.393  25.420  49.704  1.00  0.00    -0.000 C 
BRANCH  19  20
ATOM     20  C   UNL     1      -0.502  24.275  50.216  1.00  0.00    -0.000 C 
BRANCH  20  21
ATOM     21  C   UNL     1      -0.367  22.946  49.450  1.00  0.00    -0.000 C 
BRANCH  21  22
ATOM     22  C   UNL     1      -0.612  21.714  50.339  1.00  0.00    -0.000 C 
BRANCH  22  23
ATOM     23  C   UNL     1      -0.819  22.078  51.818  1.00  0.00    -0.000 C 
BRANCH  23  24
ATOM     24  C   UNL     1      -1.313  20.886  52.656  1.00  0.00    -0.000 C 
BRANCH  24  25
ATOM     25  C   UNL     1      -1.451  21.234  54.147  1.00  0.00    -0.003 C 
ATOM     26  C   UNL     1      -0.129  21.677  54.774  1.00  0.00     0.004 C 
ENDBRANCH  24  25
ENDBRANCH  23  24
ENDBRANCH  22  23
ENDBRANCH  21  22
ENDBRANCH  20  21
ENDBRANCH  19  20
ENDBRANCH  18  19
ENDBRANCH  17  18
ENDBRANCH  16  17
ENDBRANCH  15  16
ENDBRANCH   1  15
TORSDOF 22
ENDMDL
MODEL 9
REMARK VINA RESULT:    -3.805      2.018      6.679
REMARK INTER + INTRA:         -11.258
REMARK INTER:                  -9.245
REMARK INTRA:                  -2.013
REMARK UNBOUND:                -2.559
REMARK SMILES CCCCCCCCCCCCCCCCCCCCCCCC(=O)[O-]
REMARK SMILES IDX 13 1 14 2 15 3 16 4 17 5 18 6 19 7 20 8 21 9 22 10 23 11
REMARK SMILES IDX 24 12 25 13 26 14 12 15 11 16 10 17 9 18 8 19 7 20 6 21 5 22
REMARK SMILES IDX 4 23 3 24 2 25 1 26
REMARK H PARENT
REMARK Flexibility Score: inf
ROOT
ATOM      1  C   UNL     1       0.593  19.683  46.978  1.00  0.00     0.000 C 
ENDROOT
BRANCH   1   2
ATOM      2  C   UNL     1      -0.348  20.214  48.080  1.00  0.00     0.000 C 
BRANCH   2   3
ATOM      3  C   UNL     1      -0.781  21.683  47.917  1.00  0.00     0.000 C 
BRANCH   3   4
ATOM      4  C   UNL     1      -0.689  22.172  46.461  1.00  0.00     0.000 C 
BRANCH   4   5
ATOM      5  C   UNL     1      -1.948  21.814  45.643  1.00  0.00     0.000 C 
BRANCH   5   6
ATOM      6  C   UNL     1      -2.531  23.000  44.857  1.00  0.00     0.000 C 
BRANCH   6   7
ATOM      7  C   UNL     1      -2.187  24.360  45.484  1.00  0.00     0.000 C 
BRANCH   7   8
ATOM      8  C   UNL     1      -1.066  25.098  44.729  1.00  0.00     0.000 C 
BRANCH   8   9
ATOM      9  C   UNL     1      -0.142  25.956  45.617  1.00  0.00     0.000 C 
BRANCH   9  10
ATOM     10  C   UNL     1      -0.317  25.754  47.137  1.00  0.00     0.006 C 
BRANCH  10  11
ATOM     11  C   UNL     1       0.918  26.125  47.974  1.00  0.00     0.053 C 
BRANCH  11  12
ATOM     12  C   UNL     1       0.744  25.767  49.418  1.00  0.00     0.041 C 
ATOM     13  O   UNL     1      -0.378  25.386  49.845  1.00  0.00    -0.550 OA
ATOM     14  O   UNL     1       1.813  25.882  50.298  1.00  0.00    -0.550 OA
ENDBRANCH  11  12
ENDBRANCH  10  11
ENDBRANCH   9  10
ENDBRANCH   8   9
ENDBRANCH   7   8
ENDBRANCH   6   7
ENDBRANCH   5   6
ENDBRANCH   4   5
ENDBRANCH   3   4
ENDBRANCH   2   3
ENDBRANCH   1   2
BRANCH   1  15
ATOM     15  C   UNL     1       2.038  19.395  47.425  1.00  0.00     0.000 C 
BRANCH  15  16
ATOM     16  C   UNL     1       2.117  18.698  48.794  1.00  0.00     0.000 C 
BRANCH  16  17
ATOM     17  C   UNL     1       3.557  18.586  49.327  1.00  0.00     0.000 C 
BRANCH  17  18
ATOM     18  C   UNL     1       4.016  19.738  50.239  1.00  0.00    -0.000 C 
BRANCH  18  19
ATOM     19  C   UNL     1       3.090  20.964  50.165  1.00  0.00    -0.000 C 
BRANCH  19  20
ATOM     20  C   UNL     1       2.106  21.047  51.347  1.00  0.00    -0.000 C 
BRANCH  20  21
ATOM     21  C   UNL     1       1.650  22.469  51.721  1.00  0.00    -0.000 C 
BRANCH  21  22
ATOM     22  C   UNL     1       0.225  22.790  51.234  1.00  0.00    -0.000 C 
BRANCH  22  23
ATOM     23  C   UNL     1      -0.748  21.616  51.424  1.00  0.00    -0.000 C 
BRANCH  23  24
ATOM     24  C   UNL     1      -1.565  21.730  52.723  1.00  0.00    -0.000 C 
BRANCH  24  25
ATOM     25  C   UNL     1      -1.362  20.522  53.652  1.00  0.00    -0.003 C 
ATOM     26  C   UNL     1      -1.189  20.927  55.116  1.00  0.00     0.004 C 
ENDBRANCH  24  25
ENDBRANCH  23  24
ENDBRANCH  22  23
ENDBRANCH  21  22
ENDBRANCH  20  21
ENDBRANCH  19  20
ENDBRANCH  18  19
ENDBRANCH  17  18
ENDBRANCH  16  17
ENDBRANCH  15  16
ENDBRANCH   1  15
TORSDOF 22
ENDMDL
