MODEL 1
REMARK VINA RESULT:    -7.988      0.000      0.000
REMARK INTER + INTRA:          -8.165
REMARK INTER:                  -8.688
REMARK INTRA:                   0.523
REMARK UNBOUND:                 0.523
REMARK SMILES C[C@H]1[C@@H](C)CC[C@]2(C(=O)[O-])CC[C@]3(C)C(=CC[C@@H]4[C@@]5(C)CC[C@@H](O)C(C)(C)[C@H]5CC[C@]43C)[C@@H]12
REMARK SMILES IDX 7 1 6 2 11 3 33 4 5 5 12 6 15 7 2 8 3 9 13 10 16 11 1 12
REMARK SMILES IDX 4 13 14 14 31 15 17 16 18 17 30 18 32 19 19 20 29 21 28 22
REMARK SMILES IDX 21 23 20 24 25 25 22 26 23 27 26 28 27 29 8 30 9 31 10 32
REMARK SMILES IDX 24 33
REMARK H PARENT 24 34
REMARK Flexibility Score: inf
ROOT
ATOM      1  C   UNL     1      -8.590   9.213 -37.151  1.00  0.00     0.017 C 
ATOM      2  C   UNL     1      -9.396  10.539 -37.000  1.00  0.00     0.014 C 
ATOM      3  C   UNL     1      -8.043   8.836 -35.754  1.00  0.00     0.014 C 
ATOM      4  C   UNL     1      -7.389   9.470 -38.128  1.00  0.00     0.030 C 
ATOM      5  C   UNL     1      -9.886  11.092 -38.344  1.00  0.00     0.004 C 
ATOM      6  C   UNL     1      -7.112   7.614 -35.797  1.00  0.00     0.013 C 
ATOM      7  C   UNL     1      -6.352   8.318 -38.126  1.00  0.00    -0.063 C 
ATOM      8  C   UNL     1      -7.857  10.044 -39.517  1.00  0.00    -0.003 C 
ATOM      9  C   UNL     1      -8.707  11.332 -39.303  1.00  0.00    -0.011 C 
ATOM     10  C   UNL     1      -5.879   7.762 -36.759  1.00  0.00    -0.006 C 
ATOM     11  C   UNL     1      -5.638   8.036 -39.246  1.00  0.00    -0.027 C 
ATOM     12  C   UNL     1      -8.557   9.018 -40.440  1.00  0.00     0.008 C 
ATOM     13  C   UNL     1      -9.193  11.956 -40.619  1.00  0.00     0.008 C 
ATOM     14  C   UNL     1      -4.946   8.848 -36.123  1.00  0.00     0.017 C 
ATOM     15  C   UNL     1      -5.113   6.345 -36.936  1.00  0.00    -0.020 C 
ATOM     16  C   UNL     1      -4.682   6.885 -39.382  1.00  0.00     0.032 C 
ATOM     17  C   UNL     1      -4.024   6.465 -38.050  1.00  0.00     0.006 C 
ATOM     18  C   UNL     1      -4.368   5.952 -35.637  1.00  0.00     0.008 C 
ATOM     19  C   UNL     1      -6.138   5.227 -37.311  1.00  0.00     0.012 C 
ATOM     20  C   UNL     1      -2.927   5.292 -38.197  1.00  0.00    -0.025 C 
ATOM     21  C   UNL     1      -3.733   4.575 -35.719  1.00  0.00     0.005 C 
ATOM     22  C   UNL     1      -2.701   4.399 -36.875  1.00  0.00     0.003 C 
ATOM     23  C   UNL     1      -1.597   6.003 -38.624  1.00  0.00     0.010 C 
ATOM     24  C   UNL     1      -3.281   4.330 -39.382  1.00  0.00     0.012 C 
ATOM     25  C   UNL     1      -1.202   4.246 -36.366  1.00  0.00    -0.006 C 
ATOM     26  C   UNL     1      -0.351   5.117 -38.695  1.00  0.00     0.033 C 
ATOM     27  C   UNL     1      -0.273   4.027 -37.606  1.00  0.00     0.120 C 
ATOM     28  C   UNL     1      -0.737   5.444 -35.492  1.00  0.00     0.014 C 
ATOM     29  C   UNL     1      -1.070   2.964 -35.486  1.00  0.00     0.014 C 
ENDROOT
BRANCH   1  30
ATOM     30  C   UNL     1      -9.515   8.088 -37.614  1.00  0.00     0.048 C 
ATOM     31  O   UNL     1     -10.715   8.047 -37.231  1.00  0.00    -0.550 OA
ATOM     32  O   UNL     1      -9.028   7.030 -38.372  1.00  0.00    -0.550 OA
ENDBRANCH   1  30
BRANCH  27  33
ATOM     33  O   UNL     1       1.066   3.794 -37.235  1.00  0.00    -0.393 OA
ATOM     34  H   UNL     1       1.078   3.082 -36.545  1.00  0.00     0.210 HD
ENDBRANCH  27  33
TORSDOF 2
ENDMDL
MODEL 2
REMARK VINA RESULT:    -7.521      2.439      4.577
REMARK INTER + INTRA:          -7.657
REMARK INTER:                  -8.147
REMARK INTRA:                   0.490
REMARK UNBOUND:                 0.523
REMARK SMILES C[C@H]1[C@@H](C)CC[C@]2(C(=O)[O-])CC[C@]3(C)C(=CC[C@@H]4[C@@]5(C)CC[C@@H](O)C(C)(C)[C@H]5CC[C@]43C)[C@@H]12
REMARK SMILES IDX 7 1 6 2 11 3 33 4 5 5 12 6 15 7 2 8 3 9 13 10 16 11 1 12
REMARK SMILES IDX 4 13 14 14 31 15 17 16 18 17 30 18 32 19 19 20 29 21 28 22
REMARK SMILES IDX 21 23 20 24 25 25 22 26 23 27 26 28 27 29 8 30 9 31 10 32
REMARK SMILES IDX 24 33
REMARK H PARENT 24 34
REMARK Flexibility Score: inf
ROOT
ATOM      1  C   UNL     1     -10.047   5.897 -35.732  1.00  0.00     0.017 C 
ATOM      2  C   UNL     1     -11.189   5.332 -34.834  1.00  0.00     0.014 C 
ATOM      3  C   UNL     1      -9.845   4.911 -36.907  1.00  0.00     0.014 C 
ATOM      4  C   UNL     1      -8.732   5.966 -34.880  1.00  0.00     0.030 C 
ATOM      5  C   UNL     1     -11.401   6.154 -33.557  1.00  0.00     0.004 C 
ATOM      6  C   UNL     1      -8.648   5.289 -37.794  1.00  0.00     0.013 C 
ATOM      7  C   UNL     1      -7.469   6.230 -35.739  1.00  0.00    -0.063 C 
ATOM      8  C   UNL     1      -8.916   6.799 -33.557  1.00  0.00    -0.003 C 
ATOM      9  C   UNL     1     -10.106   6.229 -32.730  1.00  0.00    -0.011 C 
ATOM     10  C   UNL     1      -7.278   5.400 -37.033  1.00  0.00    -0.006 C 
ATOM     11  C   UNL     1      -6.413   6.907 -35.217  1.00  0.00    -0.027 C 
ATOM     12  C   UNL     1      -9.017   8.330 -33.764  1.00  0.00     0.008 C 
ATOM     13  C   UNL     1     -10.342   6.989 -31.415  1.00  0.00     0.008 C 
ATOM     14  C   UNL     1      -6.896   3.945 -36.591  1.00  0.00     0.017 C 
ATOM     15  C   UNL     1      -6.140   6.052 -37.986  1.00  0.00    -0.020 C 
ATOM     16  C   UNL     1      -5.186   7.301 -35.989  1.00  0.00     0.032 C 
ATOM     17  C   UNL     1      -4.852   6.343 -37.152  1.00  0.00     0.006 C 
ATOM     18  C   UNL     1      -5.724   5.067 -39.105  1.00  0.00     0.008 C 
ATOM     19  C   UNL     1      -6.673   7.376 -38.623  1.00  0.00     0.012 C 
ATOM     20  C   UNL     1      -3.485   6.700 -37.930  1.00  0.00    -0.025 C 
ATOM     21  C   UNL     1      -4.746   5.680 -40.092  1.00  0.00     0.005 C 
ATOM     22  C   UNL     1      -3.418   6.196 -39.459  1.00  0.00     0.003 C 
ATOM     23  C   UNL     1      -2.331   6.064 -37.081  1.00  0.00     0.010 C 
ATOM     24  C   UNL     1      -3.209   8.242 -37.911  1.00  0.00     0.012 C 
ATOM     25  C   UNL     1      -2.146   5.335 -39.869  1.00  0.00    -0.006 C 
ATOM     26  C   UNL     1      -0.928   6.141 -37.685  1.00  0.00     0.033 C 
ATOM     27  C   UNL     1      -0.876   5.976 -39.218  1.00  0.00     0.120 C 
ATOM     28  C   UNL     1      -2.293   3.831 -39.505  1.00  0.00     0.014 C 
ATOM     29  C   UNL     1      -1.932   5.408 -41.413  1.00  0.00     0.014 C 
ENDROOT
BRANCH   1  30
ATOM     30  C   UNL     1     -10.460   7.248 -36.316  1.00  0.00     0.048 C 
ATOM     31  O   UNL     1     -11.674   7.505 -36.538  1.00  0.00    -0.550 OA
ATOM     32  O   UNL     1      -9.505   8.174 -36.717  1.00  0.00    -0.550 OA
ENDBRANCH   1  30
BRANCH  27  33
ATOM     33  O   UNL     1       0.311   5.321 -39.605  1.00  0.00    -0.393 OA
ATOM     34  H   UNL     1       0.682   4.857 -38.812  1.00  0.00     0.210 HD
ENDBRANCH  27  33
TORSDOF 2
ENDMDL
MODEL 3
REMARK VINA RESULT:    -7.069     12.858     16.393
REMARK INTER + INTRA:          -7.166
REMARK INTER:                  -7.664
REMARK INTRA:                   0.498
REMARK UNBOUND:                 0.523
REMARK SMILES C[C@H]1[C@@H](C)CC[C@]2(C(=O)[O-])CC[C@]3(C)C(=CC[C@@H]4[C@@]5(C)CC[C@@H](O)C(C)(C)[C@H]5CC[C@]43C)[C@@H]12
REMARK SMILES IDX 7 1 6 2 11 3 33 4 5 5 12 6 15 7 2 8 3 9 13 10 16 11 1 12
REMARK SMILES IDX 4 13 14 14 31 15 17 16 18 17 30 18 32 19 19 20 29 21 28 22
REMARK SMILES IDX 21 23 20 24 25 25 22 26 23 27 26 28 27 29 8 30 9 31 10 32
REMARK SMILES IDX 24 33
REMARK H PARENT 24 34
REMARK Flexibility Score: inf
ROOT
ATOM      1  C   UNL     1      -8.215  16.922 -23.116  1.00  0.00     0.017 C 
ATOM      2  C   UNL     1      -7.460  17.487 -21.875  1.00  0.00     0.014 C 
ATOM      3  C   UNL     1      -9.727  16.936 -22.790  1.00  0.00     0.014 C 
ATOM      4  C   UNL     1      -7.748  15.442 -23.351  1.00  0.00     0.030 C 
ATOM      5  C   UNL     1      -5.935  17.406 -22.020  1.00  0.00     0.004 C 
ATOM      6  C   UNL     1     -10.572  16.272 -23.889  1.00  0.00     0.013 C 
ATOM      7  C   UNL     1      -8.638  14.683 -24.367  1.00  0.00    -0.063 C 
ATOM      8  C   UNL     1      -6.185  15.323 -23.499  1.00  0.00    -0.003 C 
ATOM      9  C   UNL     1      -5.482  15.956 -22.262  1.00  0.00    -0.011 C 
ATOM     10  C   UNL     1     -10.176  14.787 -24.213  1.00  0.00    -0.006 C 
ATOM     11  C   UNL     1      -8.108  13.702 -25.144  1.00  0.00    -0.027 C 
ATOM     12  C   UNL     1      -5.618  15.851 -24.839  1.00  0.00     0.008 C 
ATOM     13  C   UNL     1      -3.950  15.868 -22.332  1.00  0.00     0.008 C 
ATOM     14  C   UNL     1     -10.568  13.938 -22.956  1.00  0.00     0.017 C 
ATOM     15  C   UNL     1     -10.935  14.266 -25.547  1.00  0.00    -0.020 C 
ATOM     16  C   UNL     1      -8.855  12.973 -26.224  1.00  0.00     0.032 C 
ATOM     17  C   UNL     1     -10.374  12.870 -25.967  1.00  0.00     0.006 C 
ATOM     18  C   UNL     1     -12.447  14.068 -25.281  1.00  0.00     0.008 C 
ATOM     19  C   UNL     1     -10.737  15.292 -26.709  1.00  0.00     0.012 C 
ATOM     20  C   UNL     1     -11.174  12.010 -27.071  1.00  0.00    -0.025 C 
ATOM     21  C   UNL     1     -13.218  13.693 -26.535  1.00  0.00     0.005 C 
ATOM     22  C   UNL     1     -12.731  12.388 -27.236  1.00  0.00     0.003 C 
ATOM     23  C   UNL     1     -11.006  10.509 -26.647  1.00  0.00     0.010 C 
ATOM     24  C   UNL     1     -10.493  12.120 -28.478  1.00  0.00     0.012 C 
ATOM     25  C   UNL     1     -13.771  11.189 -27.132  1.00  0.00    -0.006 C 
ATOM     26  C   UNL     1     -11.797   9.485 -27.463  1.00  0.00     0.033 C 
ATOM     27  C   UNL     1     -13.196   9.960 -27.911  1.00  0.00     0.120 C 
ATOM     28  C   UNL     1     -14.135  10.832 -25.664  1.00  0.00     0.014 C 
ATOM     29  C   UNL     1     -15.102  11.579 -27.848  1.00  0.00     0.014 C 
ENDROOT
BRANCH   1  30
ATOM     30  C   UNL     1      -7.985  17.828 -24.326  1.00  0.00     0.048 C 
ATOM     31  O   UNL     1      -7.619  19.024 -24.170  1.00  0.00    -0.550 OA
ATOM     32  O   UNL     1      -8.280  17.389 -25.611  1.00  0.00    -0.550 OA
ENDBRANCH   1  30
BRANCH  27  33
ATOM     33  O   UNL     1     -14.098   8.878 -27.943  1.00  0.00    -0.393 OA
ATOM     34  H   UNL     1     -13.872   8.263 -27.200  1.00  0.00     0.210 HD
ENDBRANCH  27  33
TORSDOF 2
ENDMDL
MODEL 4
REMARK VINA RESULT:    -6.984     12.775     15.733
REMARK INTER + INTRA:          -7.074
REMARK INTER:                  -7.562
REMARK INTRA:                   0.488
REMARK UNBOUND:                 0.523
REMARK SMILES C[C@H]1[C@@H](C)CC[C@]2(C(=O)[O-])CC[C@]3(C)C(=CC[C@@H]4[C@@]5(C)CC[C@@H](O)C(C)(C)[C@H]5CC[C@]43C)[C@@H]12
REMARK SMILES IDX 7 1 6 2 11 3 33 4 5 5 12 6 15 7 2 8 3 9 13 10 16 11 1 12
REMARK SMILES IDX 4 13 14 14 31 15 17 16 18 17 30 18 32 19 19 20 29 21 28 22
REMARK SMILES IDX 21 23 20 24 25 25 22 26 23 27 26 28 27 29 8 30 9 31 10 32
REMARK SMILES IDX 24 33
REMARK H PARENT 24 34
REMARK Flexibility Score: inf
ROOT
ATOM      1  C   UNL     1     -11.373  17.771 -25.805  1.00  0.00     0.017 C 
ATOM      2  C   UNL     1     -11.017  19.155 -26.426  1.00  0.00     0.014 C 
ATOM      3  C   UNL     1     -10.053  16.987 -25.618  1.00  0.00     0.014 C 
ATOM      4  C   UNL     1     -12.298  16.998 -26.810  1.00  0.00     0.030 C 
ATOM      5  C   UNL     1     -12.257  19.983 -26.783  1.00  0.00     0.004 C 
ATOM      6  C   UNL     1     -10.286  15.546 -25.137  1.00  0.00     0.013 C 
ATOM      7  C   UNL     1     -12.476  15.504 -26.440  1.00  0.00    -0.063 C 
ATOM      8  C   UNL     1     -13.580  17.823 -27.202  1.00  0.00    -0.003 C 
ATOM      9  C   UNL     1     -13.167  19.218 -27.759  1.00  0.00    -0.011 C 
ATOM     10  C   UNL     1     -11.213  14.686 -26.068  1.00  0.00    -0.006 C 
ATOM     11  C   UNL     1     -13.627  14.853 -26.751  1.00  0.00    -0.027 C 
ATOM     12  C   UNL     1     -14.652  17.922 -26.091  1.00  0.00     0.008 C 
ATOM     13  C   UNL     1     -14.369  20.080 -28.173  1.00  0.00     0.008 C 
ATOM     14  C   UNL     1     -10.415  14.451 -27.396  1.00  0.00     0.017 C 
ATOM     15  C   UNL     1     -11.610  13.287 -25.354  1.00  0.00    -0.020 C 
ATOM     16  C   UNL     1     -13.941  13.438 -26.354  1.00  0.00     0.032 C 
ATOM     17  C   UNL     1     -12.692  12.545 -26.202  1.00  0.00     0.006 C 
ATOM     18  C   UNL     1     -10.389  12.339 -25.276  1.00  0.00     0.008 C 
ATOM     19  C   UNL     1     -12.156  13.559 -23.915  1.00  0.00     0.012 C 
ATOM     20  C   UNL     1     -13.020  11.002 -25.868  1.00  0.00    -0.025 C 
ATOM     21  C   UNL     1     -10.685  11.063 -24.508  1.00  0.00     0.005 C 
ATOM     22  C   UNL     1     -11.854  10.209 -25.088  1.00  0.00     0.003 C 
ATOM     23  C   UNL     1     -13.331  10.323 -27.246  1.00  0.00     0.010 C 
ATOM     24  C   UNL     1     -14.341  10.871 -25.035  1.00  0.00     0.012 C 
ATOM     25  C   UNL     1     -11.376   8.834 -25.729  1.00  0.00    -0.006 C 
ATOM     26  C   UNL     1     -13.540   8.808 -27.220  1.00  0.00     0.033 C 
ATOM     27  C   UNL     1     -12.635   8.049 -26.226  1.00  0.00     0.120 C 
ATOM     28  C   UNL     1     -10.326   9.029 -26.857  1.00  0.00     0.014 C 
ATOM     29  C   UNL     1     -10.707   7.944 -24.635  1.00  0.00     0.014 C 
ENDROOT
BRANCH   1  30
ATOM     30  C   UNL     1     -12.007  17.963 -24.427  1.00  0.00     0.048 C 
ATOM     31  O   UNL     1     -11.787  19.011 -23.762  1.00  0.00    -0.550 OA
ATOM     32  O   UNL     1     -12.743  16.945 -23.832  1.00  0.00    -0.550 OA
ENDBRANCH   1  30
BRANCH  27  33
ATOM     33  O   UNL     1     -12.305   6.776 -26.731  1.00  0.00    -0.393 OA
ATOM     34  H   UNL     1     -11.421   6.837 -27.175  1.00  0.00     0.210 HD
ENDBRANCH  27  33
TORSDOF 2
ENDMDL
MODEL 5
REMARK VINA RESULT:    -6.953     12.021     16.361
REMARK INTER + INTRA:          -7.039
REMARK INTER:                  -7.685
REMARK INTRA:                   0.646
REMARK UNBOUND:                 0.523
REMARK SMILES C[C@H]1[C@@H](C)CC[C@]2(C(=O)[O-])CC[C@]3(C)C(=CC[C@@H]4[C@@]5(C)CC[C@@H](O)C(C)(C)[C@H]5CC[C@]43C)[C@@H]12
REMARK SMILES IDX 7 1 6 2 11 3 33 4 5 5 12 6 15 7 2 8 3 9 13 10 16 11 1 12
REMARK SMILES IDX 4 13 14 14 31 15 17 16 18 17 30 18 32 19 19 20 29 21 28 22
REMARK SMILES IDX 21 23 20 24 25 25 22 26 23 27 26 28 27 29 8 30 9 31 10 32
REMARK SMILES IDX 24 33
REMARK H PARENT 24 34
REMARK Flexibility Score: inf
ROOT
ATOM      1  C   UNL     1     -12.809   9.953 -26.011  1.00  0.00     0.017 C 
ATOM      2  C   UNL     1     -13.329   8.561 -26.480  1.00  0.00     0.014 C 
ATOM      3  C   UNL     1     -14.002  10.713 -25.385  1.00  0.00     0.014 C 
ATOM      4  C   UNL     1     -12.295  10.741 -27.268  1.00  0.00     0.030 C 
ATOM      5  C   UNL     1     -12.268   7.756 -27.240  1.00  0.00     0.004 C 
ATOM      6  C   UNL     1     -13.647  12.159 -25.006  1.00  0.00     0.013 C 
ATOM      7  C   UNL     1     -12.029  12.239 -26.974  1.00  0.00    -0.063 C 
ATOM      8  C   UNL     1     -11.207   9.939 -28.075  1.00  0.00    -0.003 C 
ATOM      9  C   UNL     1     -11.758   8.536 -28.464  1.00  0.00    -0.011 C 
ATOM     10  C   UNL     1     -13.106  13.034 -26.193  1.00  0.00    -0.006 C 
ATOM     11  C   UNL     1     -11.065  12.911 -27.655  1.00  0.00    -0.027 C 
ATOM     12  C   UNL     1      -9.819   9.863 -27.393  1.00  0.00     0.008 C 
ATOM     13  C   UNL     1     -10.751   7.696 -29.265  1.00  0.00     0.008 C 
ATOM     14  C   UNL     1     -14.312  13.251 -27.170  1.00  0.00     0.017 C 
ATOM     15  C   UNL     1     -12.516  14.442 -25.650  1.00  0.00    -0.020 C 
ATOM     16  C   UNL     1     -10.661  14.333 -27.382  1.00  0.00     0.032 C 
ATOM     17  C   UNL     1     -11.801  15.203 -26.812  1.00  0.00     0.006 C 
ATOM     18  C   UNL     1     -13.657  15.367 -25.158  1.00  0.00     0.008 C 
ATOM     19  C   UNL     1     -11.510  14.185 -24.482  1.00  0.00     0.012 C 
ATOM     20  C   UNL     1     -11.408  16.752 -26.602  1.00  0.00    -0.025 C 
ATOM     21  C   UNL     1     -13.141  16.651 -24.532  1.00  0.00     0.005 C 
ATOM     22  C   UNL     1     -12.254  17.525 -25.470  1.00  0.00     0.003 C 
ATOM     23  C   UNL     1     -11.595  17.434 -28.002  1.00  0.00     0.010 C 
ATOM     24  C   UNL     1      -9.885  16.910 -26.267  1.00  0.00     0.012 C 
ATOM     25  C   UNL     1     -12.947  18.889 -25.905  1.00  0.00    -0.006 C 
ATOM     26  C   UNL     1     -11.418  18.952 -28.042  1.00  0.00     0.033 C 
ATOM     27  C   UNL     1     -11.947  19.696 -26.797  1.00  0.00     0.120 C 
ATOM     28  C   UNL     1     -14.314  18.671 -26.611  1.00  0.00     0.014 C 
ATOM     29  C   UNL     1     -13.222  19.769 -24.646  1.00  0.00     0.014 C 
ENDROOT
BRANCH   1  30
ATOM     30  C   UNL     1     -11.742   9.777 -24.931  1.00  0.00     0.048 C 
ATOM     31  O   UNL     1     -11.468   8.631 -24.483  1.00  0.00    -0.550 OA
ATOM     32  O   UNL     1     -11.133  10.879 -24.343  1.00  0.00    -0.550 OA
ENDBRANCH   1  30
BRANCH  27  33
ATOM     33  O   UNL     1     -12.452  20.962 -27.154  1.00  0.00    -0.393 OA
ATOM     34  H   UNL     1     -12.188  21.149 -28.091  1.00  0.00     0.210 HD
ENDBRANCH  27  33
TORSDOF 2
ENDMDL
MODEL 6
REMARK VINA RESULT:    -6.824     12.299     15.422
REMARK INTER + INTRA:          -6.899
REMARK INTER:                  -7.389
REMARK INTRA:                   0.490
REMARK UNBOUND:                 0.523
REMARK SMILES C[C@H]1[C@@H](C)CC[C@]2(C(=O)[O-])CC[C@]3(C)C(=CC[C@@H]4[C@@]5(C)CC[C@@H](O)C(C)(C)[C@H]5CC[C@]43C)[C@@H]12
REMARK SMILES IDX 7 1 6 2 11 3 33 4 5 5 12 6 15 7 2 8 3 9 13 10 16 11 1 12
REMARK SMILES IDX 4 13 14 14 31 15 17 16 18 17 30 18 32 19 19 20 29 21 28 22
REMARK SMILES IDX 21 23 20 24 25 25 22 26 23 27 26 28 27 29 8 30 9 31 10 32
REMARK SMILES IDX 24 33
REMARK H PARENT 24 34
REMARK Flexibility Score: inf
ROOT
ATOM      1  C   UNL     1     -12.992  16.671 -24.589  1.00  0.00     0.017 C 
ATOM      2  C   UNL     1     -12.501  17.987 -23.914  1.00  0.00     0.014 C 
ATOM      3  C   UNL     1     -13.342  15.669 -23.463  1.00  0.00     0.014 C 
ATOM      4  C   UNL     1     -11.820  16.089 -25.455  1.00  0.00     0.030 C 
ATOM      5  C   UNL     1     -11.997  19.022 -24.927  1.00  0.00     0.004 C 
ATOM      6  C   UNL     1     -13.711  14.279 -24.004  1.00  0.00     0.013 C 
ATOM      7  C   UNL     1     -12.086  14.639 -25.934  1.00  0.00    -0.063 C 
ATOM      8  C   UNL     1     -11.275  17.129 -26.504  1.00  0.00    -0.003 C 
ATOM      9  C   UNL     1     -10.857  18.444 -25.782  1.00  0.00    -0.011 C 
ATOM     10  C   UNL     1     -12.607  13.611 -24.900  1.00  0.00    -0.006 C 
ATOM     11  C   UNL     1     -11.569  14.201 -27.112  1.00  0.00    -0.027 C 
ATOM     12  C   UNL     1     -12.212  17.386 -27.709  1.00  0.00     0.008 C 
ATOM     13  C   UNL     1     -10.304  19.507 -26.744  1.00  0.00     0.008 C 
ATOM     14  C   UNL     1     -11.409  13.271 -23.949  1.00  0.00     0.017 C 
ATOM     15  C   UNL     1     -13.184  12.284 -25.632  1.00  0.00    -0.020 C 
ATOM     16  C   UNL     1     -11.844  12.853 -27.715  1.00  0.00     0.032 C 
ATOM     17  C   UNL     1     -12.144  11.756 -26.671  1.00  0.00     0.006 C 
ATOM     18  C   UNL     1     -13.403  11.140 -24.612  1.00  0.00     0.008 C 
ATOM     19  C   UNL     1     -14.533  12.614 -26.348  1.00  0.00     0.012 C 
ATOM     20  C   UNL     1     -12.349  10.285 -27.299  1.00  0.00    -0.025 C 
ATOM     21  C   UNL     1     -14.053   9.917 -25.234  1.00  0.00     0.005 C 
ATOM     22  C   UNL     1     -13.260   9.288 -26.420  1.00  0.00     0.003 C 
ATOM     23  C   UNL     1     -10.908   9.699 -27.493  1.00  0.00     0.010 C 
ATOM     24  C   UNL     1     -12.960  10.364 -28.739  1.00  0.00     0.012 C 
ATOM     25  C   UNL     1     -12.634   7.866 -26.079  1.00  0.00    -0.006 C 
ATOM     26  C   UNL     1     -10.828   8.241 -27.950  1.00  0.00     0.033 C 
ATOM     27  C   UNL     1     -11.912   7.319 -27.354  1.00  0.00     0.120 C 
ATOM     28  C   UNL     1     -11.692   7.903 -24.844  1.00  0.00     0.014 C 
ATOM     29  C   UNL     1     -13.774   6.852 -25.750  1.00  0.00     0.014 C 
ENDROOT
BRANCH   1  30
ATOM     30  C   UNL     1     -14.263  16.938 -25.394  1.00  0.00     0.048 C 
ATOM     31  O   UNL     1     -15.042  17.875 -25.069  1.00  0.00    -0.550 OA
ATOM     32  O   UNL     1     -14.645  16.091 -26.427  1.00  0.00    -0.550 OA
ENDBRANCH   1  30
BRANCH  27  33
ATOM     33  O   UNL     1     -11.403   6.019 -27.162  1.00  0.00    -0.393 OA
ATOM     34  H   UNL     1     -12.079   5.370 -27.485  1.00  0.00     0.210 HD
ENDBRANCH  27  33
TORSDOF 2
ENDMDL
MODEL 7
REMARK VINA RESULT:    -6.813     12.294     16.335
REMARK INTER + INTRA:          -6.887
REMARK INTER:                  -7.408
REMARK INTRA:                   0.521
REMARK UNBOUND:                 0.523
REMARK SMILES C[C@H]1[C@@H](C)CC[C@]2(C(=O)[O-])CC[C@]3(C)C(=CC[C@@H]4[C@@]5(C)CC[C@@H](O)C(C)(C)[C@H]5CC[C@]43C)[C@@H]12
REMARK SMILES IDX 7 1 6 2 11 3 33 4 5 5 12 6 15 7 2 8 3 9 13 10 16 11 1 12
REMARK SMILES IDX 4 13 14 14 31 15 17 16 18 17 30 18 32 19 19 20 29 21 28 22
REMARK SMILES IDX 21 23 20 24 25 25 22 26 23 27 26 28 27 29 8 30 9 31 10 32
REMARK SMILES IDX 24 33
REMARK H PARENT 24 34
REMARK Flexibility Score: inf
ROOT
ATOM      1  C   UNL     1     -12.545   8.288 -27.355  1.00  0.00     0.017 C 
ATOM      2  C   UNL     1     -11.944   7.089 -28.148  1.00  0.00     0.014 C 
ATOM      3  C   UNL     1     -13.336   9.164 -28.356  1.00  0.00     0.014 C 
ATOM      4  C   UNL     1     -11.364   9.127 -26.752  1.00  0.00     0.030 C 
ATOM      5  C   UNL     1     -11.025   6.211 -27.291  1.00  0.00     0.004 C 
ATOM      6  C   UNL     1     -13.865  10.458 -27.718  1.00  0.00     0.013 C 
ATOM      7  C   UNL     1     -11.822  10.500 -26.195  1.00  0.00    -0.063 C 
ATOM      8  C   UNL     1     -10.397   8.254 -25.869  1.00  0.00    -0.003 C 
ATOM      9  C   UNL     1      -9.875   7.039 -26.692  1.00  0.00    -0.011 C 
ATOM     10  C   UNL     1     -12.762  11.368 -27.069  1.00  0.00    -0.006 C 
ATOM     11  C   UNL     1     -11.167  11.068 -25.148  1.00  0.00    -0.027 C 
ATOM     12  C   UNL     1     -10.974   7.836 -24.494  1.00  0.00     0.008 C 
ATOM     13  C   UNL     1      -8.915   6.142 -25.896  1.00  0.00     0.008 C 
ATOM     14  C   UNL     1     -11.898  11.929 -28.250  1.00  0.00     0.017 C 
ATOM     15  C   UNL     1     -13.434  12.560 -26.201  1.00  0.00    -0.020 C 
ATOM     16  C   UNL     1     -11.585  12.342 -24.471  1.00  0.00     0.032 C 
ATOM     17  C   UNL     1     -12.330  13.323 -25.402  1.00  0.00     0.006 C 
ATOM     18  C   UNL     1     -14.107  13.605 -27.125  1.00  0.00     0.008 C 
ATOM     19  C   UNL     1     -14.494  11.970 -25.216  1.00  0.00     0.012 C 
ATOM     20  C   UNL     1     -12.702  14.733 -24.713  1.00  0.00    -0.025 C 
ATOM     21  C   UNL     1     -14.851  14.678 -26.350  1.00  0.00     0.005 C 
ATOM     22  C   UNL     1     -13.972  15.491 -25.351  1.00  0.00     0.003 C 
ATOM     23  C   UNL     1     -11.411  15.616 -24.824  1.00  0.00     0.010 C 
ATOM     24  C   UNL     1     -12.955  14.564 -23.176  1.00  0.00     0.012 C 
ATOM     25  C   UNL     1     -13.752  17.004 -25.790  1.00  0.00    -0.006 C 
ATOM     26  C   UNL     1     -11.546  17.069 -24.364  1.00  0.00     0.033 C 
ATOM     27  C   UNL     1     -12.903  17.725 -24.691  1.00  0.00     0.120 C 
ATOM     28  C   UNL     1     -13.114  17.136 -27.201  1.00  0.00     0.014 C 
ATOM     29  C   UNL     1     -15.124  17.745 -25.842  1.00  0.00     0.014 C 
ENDROOT
BRANCH   1  30
ATOM     30  C   UNL     1     -13.526   7.779 -26.298  1.00  0.00     0.048 C 
ATOM     31  O   UNL     1     -14.000   6.614 -26.375  1.00  0.00    -0.550 OA
ATOM     32  O   UNL     1     -13.999   8.620 -25.299  1.00  0.00    -0.550 OA
ENDBRANCH   1  30
BRANCH  27  33
ATOM     33  O   UNL     1     -12.737  19.098 -24.961  1.00  0.00    -0.393 OA
ATOM     34  H   UNL     1     -12.879  19.244 -25.931  1.00  0.00     0.210 HD
ENDBRANCH  27  33
TORSDOF 2
ENDMDL
MODEL 8
REMARK VINA RESULT:    -6.810     12.299     16.355
REMARK INTER + INTRA:          -6.884
REMARK INTER:                  -7.366
REMARK INTRA:                   0.483
REMARK UNBOUND:                 0.523
REMARK SMILES C[C@H]1[C@@H](C)CC[C@]2(C(=O)[O-])CC[C@]3(C)C(=CC[C@@H]4[C@@]5(C)CC[C@@H](O)C(C)(C)[C@H]5CC[C@]43C)[C@@H]12
REMARK SMILES IDX 7 1 6 2 11 3 33 4 5 5 12 6 15 7 2 8 3 9 13 10 16 11 1 12
REMARK SMILES IDX 4 13 14 14 31 15 17 16 18 17 30 18 32 19 19 20 29 21 28 22
REMARK SMILES IDX 21 23 20 24 25 25 22 26 23 27 26 28 27 29 8 30 9 31 10 32
REMARK SMILES IDX 24 33
REMARK H PARENT 24 34
REMARK Flexibility Score: inf
ROOT
ATOM      1  C   UNL     1     -10.594   7.938 -25.755  1.00  0.00     0.017 C 
ATOM      2  C   UNL     1     -10.116   6.603 -25.107  1.00  0.00     0.014 C 
ATOM      3  C   UNL     1      -9.499   9.001 -25.499  1.00  0.00     0.014 C 
ATOM      4  C   UNL     1     -11.924   8.383 -25.051  1.00  0.00     0.030 C 
ATOM      5  C   UNL     1     -11.175   5.496 -25.179  1.00  0.00     0.004 C 
ATOM      6  C   UNL     1      -9.916  10.402 -25.972  1.00  0.00     0.013 C 
ATOM      7  C   UNL     1     -12.335   9.836 -25.402  1.00  0.00    -0.063 C 
ATOM      8  C   UNL     1     -13.033   7.267 -25.102  1.00  0.00    -0.003 C 
ATOM      9  C   UNL     1     -12.482   5.941 -24.499  1.00  0.00    -0.011 C 
ATOM     10  C   UNL     1     -11.248  10.939 -25.338  1.00  0.00    -0.006 C 
ATOM     11  C   UNL     1     -13.646  10.190 -25.432  1.00  0.00    -0.027 C 
ATOM     12  C   UNL     1     -13.683   7.061 -26.491  1.00  0.00     0.008 C 
ATOM     13  C   UNL     1     -13.514   4.803 -24.506  1.00  0.00     0.008 C 
ATOM     14  C   UNL     1     -10.947  11.195 -23.821  1.00  0.00     0.017 C 
ATOM     15  C   UNL     1     -11.740  12.290 -26.086  1.00  0.00    -0.020 C 
ATOM     16  C   UNL     1     -14.156  11.539 -25.853  1.00  0.00     0.032 C 
ATOM     17  C   UNL     1     -13.164  12.689 -25.581  1.00  0.00     0.006 C 
ATOM     18  C   UNL     1     -10.807  13.480 -25.750  1.00  0.00     0.008 C 
ATOM     19  C   UNL     1     -11.766  12.065 -27.632  1.00  0.00     0.012 C 
ATOM     20  C   UNL     1     -13.735  14.154 -25.941  1.00  0.00    -0.025 C 
ATOM     21  C   UNL     1     -11.161  14.738 -26.522  1.00  0.00     0.005 C 
ATOM     22  C   UNL     1     -12.615  15.256 -26.296  1.00  0.00     0.003 C 
ATOM     23  C   UNL     1     -14.582  14.599 -24.699  1.00  0.00     0.010 C 
ATOM     24  C   UNL     1     -14.751  14.088 -27.132  1.00  0.00     0.012 C 
ATOM     25  C   UNL     1     -12.680  16.624 -25.488  1.00  0.00    -0.006 C 
ATOM     26  C   UNL     1     -15.125  16.029 -24.730  1.00  0.00     0.033 C 
ATOM     27  C   UNL     1     -14.177  17.065 -25.370  1.00  0.00     0.120 C 
ATOM     28  C   UNL     1     -11.985  16.538 -24.100  1.00  0.00     0.014 C 
ATOM     29  C   UNL     1     -11.953  17.748 -26.289  1.00  0.00     0.014 C 
ENDROOT
BRANCH   1  30
ATOM     30  C   UNL     1     -10.738   7.765 -27.267  1.00  0.00     0.048 C 
ATOM     31  O   UNL     1     -10.054   6.902 -27.880  1.00  0.00    -0.550 OA
ATOM     32  O   UNL     1     -11.538   8.624 -28.010  1.00  0.00    -0.550 OA
ENDBRANCH   1  30
BRANCH  27  33
ATOM     33  O   UNL     1     -14.316  18.317 -24.740  1.00  0.00    -0.393 OA
ATOM     34  H   UNL     1     -13.687  18.352 -23.975  1.00  0.00     0.210 HD
ENDBRANCH  27  33
TORSDOF 2
ENDMDL
MODEL 9
REMARK VINA RESULT:    -6.771     12.194     16.317
REMARK INTER + INTRA:          -6.841
REMARK INTER:                  -7.332
REMARK INTRA:                   0.490
REMARK UNBOUND:                 0.523
REMARK SMILES C[C@H]1[C@@H](C)CC[C@]2(C(=O)[O-])CC[C@]3(C)C(=CC[C@@H]4[C@@]5(C)CC[C@@H](O)C(C)(C)[C@H]5CC[C@]43C)[C@@H]12
REMARK SMILES IDX 7 1 6 2 11 3 33 4 5 5 12 6 15 7 2 8 3 9 13 10 16 11 1 12
REMARK SMILES IDX 4 13 14 14 31 15 17 16 18 17 30 18 32 19 19 20 29 21 28 22
REMARK SMILES IDX 21 23 20 24 25 25 22 26 23 27 26 28 27 29 8 30 9 31 10 32
REMARK SMILES IDX 24 33
REMARK H PARENT 24 34
REMARK Flexibility Score: inf
ROOT
ATOM      1  C   UNL     1     -12.082   9.156 -27.773  1.00  0.00     0.017 C 
ATOM      2  C   UNL     1     -11.539   7.755 -28.184  1.00  0.00     0.014 C 
ATOM      3  C   UNL     1     -11.281  10.219 -28.560  1.00  0.00     0.014 C 
ATOM      4  C   UNL     1     -11.835   9.354 -26.235  1.00  0.00     0.030 C 
ATOM      5  C   UNL     1     -12.165   6.614 -27.374  1.00  0.00     0.004 C 
ATOM      6  C   UNL     1     -11.632  11.655 -28.138  1.00  0.00     0.013 C 
ATOM      7  C   UNL     1     -12.061  10.815 -25.770  1.00  0.00    -0.063 C 
ATOM      8  C   UNL     1     -12.461   8.195 -25.373  1.00  0.00    -0.003 C 
ATOM      9  C   UNL     1     -11.931   6.817 -25.867  1.00  0.00    -0.011 C 
ATOM     10  C   UNL     1     -11.433  11.956 -26.609  1.00  0.00    -0.006 C 
ATOM     11  C   UNL     1     -12.498  11.073 -24.510  1.00  0.00    -0.027 C 
ATOM     12  C   UNL     1     -14.004   8.231 -25.261  1.00  0.00     0.008 C 
ATOM     13  C   UNL     1     -12.493   5.634 -25.063  1.00  0.00     0.008 C 
ATOM     14  C   UNL     1      -9.889  11.918 -26.347  1.00  0.00     0.017 C 
ATOM     15  C   UNL     1     -12.072  13.392 -26.216  1.00  0.00    -0.020 C 
ATOM     16  C   UNL     1     -12.842  12.440 -23.990  1.00  0.00     0.032 C 
ATOM     17  C   UNL     1     -12.048  13.578 -24.665  1.00  0.00     0.006 C 
ATOM     18  C   UNL     1     -11.234  14.551 -26.809  1.00  0.00     0.008 C 
ATOM     19  C   UNL     1     -13.540  13.485 -26.742  1.00  0.00     0.012 C 
ATOM     20  C   UNL     1     -12.339  15.041 -24.052  1.00  0.00    -0.025 C 
ATOM     21  C   UNL     1     -11.861  15.913 -26.565  1.00  0.00     0.005 C 
ATOM     22  C   UNL     1     -12.084  16.269 -25.064  1.00  0.00     0.003 C 
ATOM     23  C   UNL     1     -11.424  15.163 -22.785  1.00  0.00     0.010 C 
ATOM     24  C   UNL     1     -13.806  15.148 -23.514  1.00  0.00     0.012 C 
ATOM     25  C   UNL     1     -11.137  17.436 -24.543  1.00  0.00    -0.006 C 
ATOM     26  C   UNL     1     -11.408  16.527 -22.092  1.00  0.00     0.033 C 
ATOM     27  C   UNL     1     -11.487  17.736 -23.048  1.00  0.00     0.120 C 
ATOM     28  C   UNL     1      -9.628  17.118 -24.737  1.00  0.00     0.014 C 
ATOM     29  C   UNL     1     -11.428  18.748 -25.335  1.00  0.00     0.014 C 
ENDROOT
BRANCH   1  30
ATOM     30  C   UNL     1     -13.553   9.285 -28.169  1.00  0.00     0.048 C 
ATOM     31  O   UNL     1     -14.013   8.628 -29.141  1.00  0.00    -0.550 OA
ATOM     32  O   UNL     1     -14.383  10.206 -27.542  1.00  0.00    -0.550 OA
ENDBRANCH   1  30
BRANCH  27  33
ATOM     33  O   UNL     1     -10.750  18.821 -22.535  1.00  0.00    -0.393 OA
ATOM     34  H   UNL     1     -10.948  19.620 -23.086  1.00  0.00     0.210 HD
ENDBRANCH  27  33
TORSDOF 2
ENDMDL
