MODEL 1
REMARK VINA RESULT:    -4.904      0.000      0.000
REMARK INTER + INTRA:         -10.954
REMARK INTER:                  -9.204
REMARK INTRA:                  -1.750
REMARK UNBOUND:                -1.750
REMARK SMILES CCCCCCCCC=CCCCCCCCC(=O)[O-]
REMARK SMILES IDX 10 1 9 2 11 3 12 4 13 5 14 6 15 7 16 8 17 9 18 10 19 11
REMARK SMILES IDX 20 12 8 13 7 14 6 15 5 16 4 17 3 18 2 19 1 20
REMARK H PARENT
REMARK Flexibility Score: inf
ROOT
ATOM      1  C   UNL     1       2.043 -13.376 -15.605  1.00  0.00    -0.031 C 
ATOM      2  C   UNL     1       2.698 -12.737 -14.616  1.00  0.00    -0.031 C 
ENDROOT
BRANCH   1   3
ATOM      3  C   UNL     1       2.660 -13.852 -16.896  1.00  0.00     0.027 C 
BRANCH   3   4
ATOM      4  C   UNL     1       1.621 -13.944 -18.021  1.00  0.00     0.004 C 
BRANCH   4   5
ATOM      5  C   UNL     1       0.911 -15.307 -18.004  1.00  0.00     0.000 C 
BRANCH   5   6
ATOM      6  C   UNL     1      -0.494 -15.242 -18.639  1.00  0.00     0.000 C 
BRANCH   6   7
ATOM      7  C   UNL     1      -1.251 -16.580 -18.598  1.00  0.00     0.000 C 
BRANCH   7   8
ATOM      8  C   UNL     1      -0.868 -17.521 -19.753  1.00  0.00     0.006 C 
BRANCH   8   9
ATOM      9  C   UNL     1      -0.893 -18.995 -19.332  1.00  0.00     0.053 C 
BRANCH   9  10
ATOM     10  C   UNL     1       0.006 -19.256 -18.162  1.00  0.00     0.041 C 
ATOM     11  O   UNL     1      -0.445 -19.822 -17.131  1.00  0.00    -0.550 OA
ATOM     12  O   UNL     1       1.331 -18.842 -18.197  1.00  0.00    -0.550 OA
ENDBRANCH   9  10
ENDBRANCH   8   9
ENDBRANCH   7   8
ENDBRANCH   6   7
ENDBRANCH   5   6
ENDBRANCH   4   5
ENDBRANCH   3   4
ENDBRANCH   1   3
BRANCH   2  13
ATOM     13  C   UNL     1       4.158 -12.345 -14.644  1.00  0.00     0.027 C 
BRANCH  13  14
ATOM     14  C   UNL     1       4.338 -10.851 -14.951  1.00  0.00     0.004 C 
BRANCH  14  15
ATOM     15  C   UNL     1       4.480 -10.573 -16.454  1.00  0.00     0.000 C 
BRANCH  15  16
ATOM     16  C   UNL     1       3.260  -9.809 -16.990  1.00  0.00     0.000 C 
BRANCH  16  17
ATOM     17  C   UNL     1       2.784 -10.335 -18.352  1.00  0.00    -0.000 C 
BRANCH  17  18
ATOM     18  C   UNL     1       3.874 -11.127 -19.095  1.00  0.00    -0.000 C 
BRANCH  18  19
ATOM     19  C   UNL     1       4.627 -10.269 -20.123  1.00  0.00    -0.003 C 
ATOM     20  C   UNL     1       6.071 -10.726 -20.328  1.00  0.00     0.004 C 
ENDBRANCH  18  19
ENDBRANCH  17  18
ENDBRANCH  16  17
ENDBRANCH  15  16
ENDBRANCH  14  15
ENDBRANCH  13  14
ENDBRANCH   2  13
TORSDOF 15
ENDMDL
MODEL 2
REMARK VINA RESULT:    -4.834      3.490      7.601
REMARK INTER + INTRA:         -10.822
REMARK INTER:                  -9.131
REMARK INTRA:                  -1.692
REMARK UNBOUND:                -1.750
REMARK SMILES CCCCCCCCC=CCCCCCCCC(=O)[O-]
REMARK SMILES IDX 10 1 9 2 11 3 12 4 13 5 14 6 15 7 16 8 17 9 18 10 19 11
REMARK SMILES IDX 20 12 8 13 7 14 6 15 5 16 4 17 3 18 2 19 1 20
REMARK H PARENT
REMARK Flexibility Score: inf
ROOT
ATOM      1  C   UNL     1       2.785 -12.657 -14.603  1.00  0.00    -0.031 C 
ATOM      2  C   UNL     1       2.134 -13.288 -15.599  1.00  0.00    -0.031 C 
ENDROOT
BRANCH   1   3
ATOM      3  C   UNL     1       4.228 -12.219 -14.642  1.00  0.00     0.027 C 
BRANCH   3   4
ATOM      4  C   UNL     1       4.420 -10.842 -13.994  1.00  0.00     0.004 C 
BRANCH   4   5
ATOM      5  C   UNL     1       4.419  -9.729 -15.054  1.00  0.00     0.000 C 
BRANCH   5   6
ATOM      6  C   UNL     1       4.406 -10.290 -16.491  1.00  0.00     0.000 C 
BRANCH   6   7
ATOM      7  C   UNL     1       3.106  -9.992 -17.257  1.00  0.00     0.000 C 
BRANCH   7   8
ATOM      8  C   UNL     1       3.174 -10.405 -18.737  1.00  0.00     0.006 C 
BRANCH   8   9
ATOM      9  C   UNL     1       4.462 -11.169 -19.067  1.00  0.00     0.053 C 
BRANCH   9  10
ATOM     10  C   UNL     1       5.187 -10.563 -20.228  1.00  0.00     0.041 C 
ATOM     11  O   UNL     1       4.556  -9.898 -21.092  1.00  0.00    -0.550 OA
ATOM     12  O   UNL     1       6.555 -10.761 -20.376  1.00  0.00    -0.550 OA
ENDBRANCH   9  10
ENDBRANCH   8   9
ENDBRANCH   7   8
ENDBRANCH   6   7
ENDBRANCH   5   6
ENDBRANCH   4   5
ENDBRANCH   3   4
ENDBRANCH   1   3
BRANCH   2  13
ATOM     13  C   UNL     1       2.745 -13.708 -16.916  1.00  0.00     0.027 C 
BRANCH  13  14
ATOM     14  C   UNL     1       1.676 -13.900 -18.002  1.00  0.00     0.004 C 
BRANCH  14  15
ATOM     15  C   UNL     1       1.126 -15.333 -18.038  1.00  0.00     0.000 C 
BRANCH  15  16
ATOM     16  C   UNL     1      -0.334 -15.349 -18.516  1.00  0.00     0.000 C 
BRANCH  16  17
ATOM     17  C   UNL     1      -0.842 -16.767 -18.819  1.00  0.00    -0.000 C 
BRANCH  17  18
ATOM     18  C   UNL     1       0.303 -17.768 -19.051  1.00  0.00    -0.000 C 
BRANCH  18  19
ATOM     19  C   UNL     1       0.102 -19.080 -18.277  1.00  0.00    -0.003 C 
ATOM     20  C   UNL     1       1.273 -19.404 -17.349  1.00  0.00     0.004 C 
ENDBRANCH  18  19
ENDBRANCH  17  18
ENDBRANCH  16  17
ENDBRANCH  15  16
ENDBRANCH  14  15
ENDBRANCH  13  14
ENDBRANCH   2  13
TORSDOF 15
ENDMDL
MODEL 3
REMARK VINA RESULT:    -4.723      2.908      8.038
REMARK INTER + INTRA:         -10.614
REMARK INTER:                  -9.179
REMARK INTRA:                  -1.434
REMARK UNBOUND:                -1.750
REMARK SMILES CCCCCCCCC=CCCCCCCCC(=O)[O-]
REMARK SMILES IDX 10 1 9 2 11 3 12 4 13 5 14 6 15 7 16 8 17 9 18 10 19 11
REMARK SMILES IDX 20 12 8 13 7 14 6 15 5 16 4 17 3 18 2 19 1 20
REMARK H PARENT
REMARK Flexibility Score: inf
ROOT
ATOM      1  C   UNL     1       2.411 -13.385 -17.387  1.00  0.00    -0.031 C 
ATOM      2  C   UNL     1       1.775 -14.154 -18.292  1.00  0.00    -0.031 C 
ENDROOT
BRANCH   1   3
ATOM      3  C   UNL     1       2.316 -13.541 -15.889  1.00  0.00     0.027 C 
BRANCH   3   4
ATOM      4  C   UNL     1       3.237 -12.555 -15.158  1.00  0.00     0.004 C 
BRANCH   4   5
ATOM      5  C   UNL     1       4.224 -11.896 -16.134  1.00  0.00     0.000 C 
BRANCH   5   6
ATOM      6  C   UNL     1       4.280 -10.364 -15.963  1.00  0.00     0.000 C 
BRANCH   6   7
ATOM      7  C   UNL     1       3.403  -9.600 -16.970  1.00  0.00     0.000 C 
BRANCH   7   8
ATOM      8  C   UNL     1       3.156 -10.386 -18.268  1.00  0.00     0.006 C 
BRANCH   8   9
ATOM      9  C   UNL     1       4.024  -9.878 -19.426  1.00  0.00     0.053 C 
BRANCH   9  10
ATOM     10  C   UNL     1       5.056 -10.885 -19.832  1.00  0.00     0.041 C 
ATOM     11  O   UNL     1       4.959 -12.081 -19.449  1.00  0.00    -0.550 OA
ATOM     12  O   UNL     1       6.143 -10.495 -20.604  1.00  0.00    -0.550 OA
ENDBRANCH   9  10
ENDBRANCH   8   9
ENDBRANCH   7   8
ENDBRANCH   6   7
ENDBRANCH   5   6
ENDBRANCH   4   5
ENDBRANCH   3   4
ENDBRANCH   1   3
BRANCH   2  13
ATOM     13  C   UNL     1       0.819 -15.279 -17.968  1.00  0.00     0.027 C 
BRANCH  13  14
ATOM     14  C   UNL     1      -0.508 -15.131 -18.726  1.00  0.00     0.004 C 
BRANCH  14  15
ATOM     15  C   UNL     1      -1.385 -16.388 -18.626  1.00  0.00     0.000 C 
BRANCH  15  16
ATOM     16  C   UNL     1      -1.335 -17.197 -19.931  1.00  0.00     0.000 C 
BRANCH  16  17
ATOM     17  C   UNL     1      -1.214 -18.709 -19.686  1.00  0.00    -0.000 C 
BRANCH  17  18
ATOM     18  C   UNL     1      -1.234 -19.069 -18.190  1.00  0.00    -0.000 C 
BRANCH  18  19
ATOM     19  C   UNL     1       0.022 -19.838 -17.753  1.00  0.00    -0.003 C 
ATOM     20  C   UNL     1       1.292 -18.990 -17.833  1.00  0.00     0.004 C 
ENDBRANCH  18  19
ENDBRANCH  17  18
ENDBRANCH  16  17
ENDBRANCH  15  16
ENDBRANCH  14  15
ENDBRANCH  13  14
ENDBRANCH   2  13
TORSDOF 15
ENDMDL
MODEL 4
REMARK VINA RESULT:    -4.530      1.234      2.437
REMARK INTER + INTRA:         -10.252
REMARK INTER:                  -8.722
REMARK INTRA:                  -1.531
REMARK UNBOUND:                -1.750
REMARK SMILES CCCCCCCCC=CCCCCCCCC(=O)[O-]
REMARK SMILES IDX 10 1 9 2 11 3 12 4 13 5 14 6 15 7 16 8 17 9 18 10 19 11
REMARK SMILES IDX 20 12 8 13 7 14 6 15 5 16 4 17 3 18 2 19 1 20
REMARK H PARENT
REMARK Flexibility Score: inf
ROOT
ATOM      1  C   UNL     1       4.496 -12.254 -15.394  1.00  0.00    -0.031 C 
ATOM      2  C   UNL     1       4.884 -11.042 -15.835  1.00  0.00    -0.031 C 
ENDROOT
BRANCH   1   3
ATOM      3  C   UNL     1       3.367 -12.511 -14.427  1.00  0.00     0.027 C 
BRANCH   3   4
ATOM      4  C   UNL     1       2.220 -13.287 -15.088  1.00  0.00     0.004 C 
BRANCH   4   5
ATOM      5  C   UNL     1       2.406 -13.353 -16.612  1.00  0.00     0.000 C 
BRANCH   5   6
ATOM      6  C   UNL     1       1.940 -14.701 -17.201  1.00  0.00     0.000 C 
BRANCH   6   7
ATOM      7  C   UNL     1       0.944 -14.554 -18.363  1.00  0.00     0.000 C 
BRANCH   7   8
ATOM      8  C   UNL     1      -0.077 -15.702 -18.427  1.00  0.00     0.006 C 
BRANCH   8   9
ATOM      9  C   UNL     1       0.597 -17.068 -18.610  1.00  0.00     0.053 C 
BRANCH   9  10
ATOM     10  C   UNL     1      -0.384 -18.121 -19.023  1.00  0.00     0.041 C 
ATOM     11  O   UNL     1      -0.497 -19.180 -18.350  1.00  0.00    -0.550 OA
ATOM     12  O   UNL     1      -1.149 -17.950 -20.170  1.00  0.00    -0.550 OA
ENDBRANCH   9  10
ENDBRANCH   8   9
ENDBRANCH   7   8
ENDBRANCH   6   7
ENDBRANCH   5   6
ENDBRANCH   4   5
ENDBRANCH   3   4
ENDBRANCH   1   3
BRANCH   2  13
ATOM     13  C   UNL     1       4.288  -9.722 -15.405  1.00  0.00     0.027 C 
BRANCH  13  14
ATOM     14  C   UNL     1       3.625  -8.990 -16.581  1.00  0.00     0.004 C 
BRANCH  14  15
ATOM     15  C   UNL     1       2.836  -9.939 -17.495  1.00  0.00     0.000 C 
BRANCH  15  16
ATOM     16  C   UNL     1       3.468 -10.005 -18.894  1.00  0.00     0.000 C 
BRANCH  16  17
ATOM     17  C   UNL     1       3.917 -11.424 -19.274  1.00  0.00    -0.000 C 
BRANCH  17  18
ATOM     18  C   UNL     1       5.440 -11.530 -19.468  1.00  0.00    -0.000 C 
BRANCH  18  19
ATOM     19  C   UNL     1       5.967 -10.551 -20.528  1.00  0.00    -0.003 C 
ATOM     20  C   UNL     1       7.484 -10.377 -20.468  1.00  0.00     0.004 C 
ENDBRANCH  18  19
ENDBRANCH  17  18
ENDBRANCH  16  17
ENDBRANCH  15  16
ENDBRANCH  14  15
ENDBRANCH  13  14
ENDBRANCH   2  13
TORSDOF 15
ENDMDL
MODEL 5
REMARK VINA RESULT:    -4.313      0.860      2.256
REMARK INTER + INTRA:          -9.845
REMARK INTER:                  -8.488
REMARK INTRA:                  -1.357
REMARK UNBOUND:                -1.750
REMARK SMILES CCCCCCCCC=CCCCCCCCC(=O)[O-]
REMARK SMILES IDX 10 1 9 2 11 3 12 4 13 5 14 6 15 7 16 8 17 9 18 10 19 11
REMARK SMILES IDX 20 12 8 13 7 14 6 15 5 16 4 17 3 18 2 19 1 20
REMARK H PARENT
REMARK Flexibility Score: inf
ROOT
ATOM      1  C   UNL     1       1.553 -14.484 -18.464  1.00  0.00    -0.031 C 
ATOM      2  C   UNL     1       2.370 -13.725 -17.708  1.00  0.00    -0.031 C 
ENDROOT
BRANCH   1   3
ATOM      3  C   UNL     1       0.380 -15.281 -17.952  1.00  0.00     0.027 C 
BRANCH   3   4
ATOM      4  C   UNL     1      -0.782 -15.287 -18.954  1.00  0.00     0.004 C 
BRANCH   4   5
ATOM      5  C   UNL     1      -2.029 -15.948 -18.348  1.00  0.00     0.000 C 
BRANCH   5   6
ATOM      6  C   UNL     1      -2.125 -17.448 -18.698  1.00  0.00     0.000 C 
BRANCH   6   7
ATOM      7  C   UNL     1      -1.240 -17.860 -19.887  1.00  0.00     0.000 C 
BRANCH   7   8
ATOM      8  C   UNL     1      -0.634 -19.264 -19.724  1.00  0.00     0.006 C 
BRANCH   8   9
ATOM      9  C   UNL     1      -0.571 -19.702 -18.256  1.00  0.00     0.053 C 
BRANCH   9  10
ATOM     10  C   UNL     1       0.745 -19.357 -17.628  1.00  0.00     0.041 C 
ATOM     11  O   UNL     1       1.558 -18.608 -18.232  1.00  0.00    -0.550 OA
ATOM     12  O   UNL     1       1.088 -19.891 -16.392  1.00  0.00    -0.550 OA
ENDBRANCH   9  10
ENDBRANCH   8   9
ENDBRANCH   7   8
ENDBRANCH   6   7
ENDBRANCH   5   6
ENDBRANCH   4   5
ENDBRANCH   3   4
ENDBRANCH   1   3
BRANCH   2  13
ATOM     13  C   UNL     1       2.283 -13.572 -16.208  1.00  0.00     0.027 C 
BRANCH  13  14
ATOM     14  C   UNL     1       3.585 -13.010 -15.618  1.00  0.00     0.004 C 
BRANCH  14  15
ATOM     15  C   UNL     1       3.494 -11.507 -15.319  1.00  0.00     0.000 C 
BRANCH  15  16
ATOM     16  C   UNL     1       4.346 -10.697 -16.308  1.00  0.00     0.000 C 
BRANCH  16  17
ATOM     17  C   UNL     1       3.517  -9.684 -17.113  1.00  0.00    -0.000 C 
BRANCH  17  18
ATOM     18  C   UNL     1       2.874 -10.308 -18.364  1.00  0.00    -0.000 C 
BRANCH  18  19
ATOM     19  C   UNL     1       3.895 -11.041 -19.247  1.00  0.00    -0.003 C 
ATOM     20  C   UNL     1       4.606 -10.109 -20.228  1.00  0.00     0.004 C 
ENDBRANCH  18  19
ENDBRANCH  17  18
ENDBRANCH  16  17
ENDBRANCH  15  16
ENDBRANCH  14  15
ENDBRANCH  13  14
ENDBRANCH   2  13
TORSDOF 15
ENDMDL
MODEL 6
REMARK VINA RESULT:    -4.297      1.262      3.423
REMARK INTER + INTRA:          -9.815
REMARK INTER:                  -8.355
REMARK INTRA:                  -1.460
REMARK UNBOUND:                -1.750
REMARK SMILES CCCCCCCCC=CCCCCCCCC(=O)[O-]
REMARK SMILES IDX 10 1 9 2 11 3 12 4 13 5 14 6 15 7 16 8 17 9 18 10 19 11
REMARK SMILES IDX 20 12 8 13 7 14 6 15 5 16 4 17 3 18 2 19 1 20
REMARK H PARENT
REMARK Flexibility Score: inf
ROOT
ATOM      1  C   UNL     1       1.223 -14.728 -17.627  1.00  0.00    -0.031 C 
ATOM      2  C   UNL     1       2.076 -13.692 -17.746  1.00  0.00    -0.031 C 
ENDROOT
BRANCH   1   3
ATOM      3  C   UNL     1       0.452 -15.359 -18.760  1.00  0.00     0.027 C 
BRANCH   3   4
ATOM      4  C   UNL     1      -0.996 -15.668 -18.358  1.00  0.00     0.004 C 
BRANCH   4   5
ATOM      5  C   UNL     1      -1.736 -16.403 -19.486  1.00  0.00     0.000 C 
BRANCH   5   6
ATOM      6  C   UNL     1      -1.832 -17.921 -19.231  1.00  0.00     0.000 C 
BRANCH   6   7
ATOM      7  C   UNL     1      -0.935 -18.759 -20.158  1.00  0.00     0.000 C 
BRANCH   7   8
ATOM      8  C   UNL     1      -0.030 -19.739 -19.393  1.00  0.00     0.006 C 
BRANCH   8   9
ATOM      9  C   UNL     1       0.906 -19.019 -18.414  1.00  0.00     0.053 C 
BRANCH   9  10
ATOM     10  C   UNL     1       0.956 -19.707 -17.084  1.00  0.00     0.041 C 
ATOM     11  O   UNL     1      -0.104 -20.119 -16.544  1.00  0.00    -0.550 OA
ATOM     12  O   UNL     1       2.170 -19.862 -16.425  1.00  0.00    -0.550 OA
ENDBRANCH   9  10
ENDBRANCH   8   9
ENDBRANCH   7   8
ENDBRANCH   6   7
ENDBRANCH   5   6
ENDBRANCH   4   5
ENDBRANCH   3   4
ENDBRANCH   1   3
BRANCH   2  13
ATOM     13  C   UNL     1       2.378 -12.950 -19.027  1.00  0.00     0.027 C 
BRANCH  13  14
ATOM     14  C   UNL     1       3.314 -11.757 -18.783  1.00  0.00     0.004 C 
BRANCH  14  15
ATOM     15  C   UNL     1       2.563 -10.511 -18.293  1.00  0.00     0.000 C 
BRANCH  15  16
ATOM     16  C   UNL     1       3.339  -9.809 -17.168  1.00  0.00     0.000 C 
BRANCH  16  17
ATOM     17  C   UNL     1       4.450 -10.690 -16.576  1.00  0.00    -0.000 C 
BRANCH  17  18
ATOM     18  C   UNL     1       4.438 -10.703 -15.038  1.00  0.00    -0.000 C 
BRANCH  18  19
ATOM     19  C   UNL     1       4.147 -12.099 -14.464  1.00  0.00    -0.003 C 
ATOM     20  C   UNL     1       2.698 -12.535 -14.680  1.00  0.00     0.004 C 
ENDBRANCH  18  19
ENDBRANCH  17  18
ENDBRANCH  16  17
ENDBRANCH  15  16
ENDBRANCH  14  15
ENDBRANCH  13  14
ENDBRANCH   2  13
TORSDOF 15
ENDMDL
MODEL 7
REMARK VINA RESULT:    -4.166      1.184      3.202
REMARK INTER + INTRA:          -9.569
REMARK INTER:                  -7.957
REMARK INTRA:                  -1.613
REMARK UNBOUND:                -1.750
REMARK SMILES CCCCCCCCC=CCCCCCCCC(=O)[O-]
REMARK SMILES IDX 10 1 9 2 11 3 12 4 13 5 14 6 15 7 16 8 17 9 18 10 19 11
REMARK SMILES IDX 20 12 8 13 7 14 6 15 5 16 4 17 3 18 2 19 1 20
REMARK H PARENT
REMARK Flexibility Score: inf
ROOT
ATOM      1  C   UNL     1       2.622 -13.435 -18.852  1.00  0.00    -0.031 C 
ATOM      2  C   UNL     1       2.920 -12.153 -19.144  1.00  0.00    -0.031 C 
ENDROOT
BRANCH   1   3
ATOM      3  C   UNL     1       1.740 -13.889 -17.716  1.00  0.00     0.027 C 
BRANCH   3   4
ATOM      4  C   UNL     1       0.959 -15.159 -18.079  1.00  0.00     0.004 C 
BRANCH   4   5
ATOM      5  C   UNL     1      -0.294 -14.820 -18.900  1.00  0.00     0.000 C 
BRANCH   5   6
ATOM      6  C   UNL     1      -1.432 -15.839 -18.679  1.00  0.00     0.000 C 
BRANCH   6   7
ATOM      7  C   UNL     1      -1.496 -16.934 -19.756  1.00  0.00     0.000 C 
BRANCH   7   8
ATOM      8  C   UNL     1      -1.614 -18.349 -19.166  1.00  0.00     0.006 C 
BRANCH   8   9
ATOM      9  C   UNL     1      -0.339 -19.174 -19.381  1.00  0.00     0.053 C 
BRANCH   9  10
ATOM     10  C   UNL     1       0.486 -19.258 -18.134  1.00  0.00     0.041 C 
ATOM     11  O   UNL     1       1.588 -18.653 -18.061  1.00  0.00    -0.550 OA
ATOM     12  O   UNL     1       0.055 -20.034 -17.065  1.00  0.00    -0.550 OA
ENDBRANCH   9  10
ENDBRANCH   8   9
ENDBRANCH   7   8
ENDBRANCH   6   7
ENDBRANCH   5   6
ENDBRANCH   4   5
ENDBRANCH   3   4
ENDBRANCH   1   3
BRANCH   2  13
ATOM     13  C   UNL     1       2.459 -10.947 -18.359  1.00  0.00     0.027 C 
BRANCH  13  14
ATOM     14  C   UNL     1       3.620  -9.986 -18.064  1.00  0.00     0.004 C 
BRANCH  14  15
ATOM     15  C   UNL     1       3.522  -9.358 -16.666  1.00  0.00     0.000 C 
BRANCH  15  16
ATOM     16  C   UNL     1       4.410 -10.109 -15.663  1.00  0.00     0.000 C 
BRANCH  16  17
ATOM     17  C   UNL     1       5.051 -11.368 -16.267  1.00  0.00    -0.000 C 
BRANCH  17  18
ATOM     18  C   UNL     1       4.513 -12.665 -15.639  1.00  0.00    -0.000 C 
BRANCH  18  19
ATOM     19  C   UNL     1       3.672 -12.404 -14.380  1.00  0.00    -0.003 C 
ATOM     20  C   UNL     1       2.217 -12.842 -14.541  1.00  0.00     0.004 C 
ENDBRANCH  18  19
ENDBRANCH  17  18
ENDBRANCH  16  17
ENDBRANCH  15  16
ENDBRANCH  14  15
ENDBRANCH  13  14
ENDBRANCH   2  13
TORSDOF 15
ENDMDL
MODEL 8
REMARK VINA RESULT:    -4.105      2.770      8.018
REMARK INTER + INTRA:          -9.454
REMARK INTER:                  -8.323
REMARK INTRA:                  -1.130
REMARK UNBOUND:                -1.750
REMARK SMILES CCCCCCCCC=CCCCCCCCC(=O)[O-]
REMARK SMILES IDX 10 1 9 2 11 3 12 4 13 5 14 6 15 7 16 8 17 9 18 10 19 11
REMARK SMILES IDX 20 12 8 13 7 14 6 15 5 16 4 17 3 18 2 19 1 20
REMARK H PARENT
REMARK Flexibility Score: inf
ROOT
ATOM      1  C   UNL     1       1.631 -14.493 -17.911  1.00  0.00    -0.031 C 
ATOM      2  C   UNL     1       0.500 -15.222 -17.988  1.00  0.00    -0.031 C 
ENDROOT
BRANCH   1   3
ATOM      3  C   UNL     1       2.015 -13.377 -18.851  1.00  0.00     0.027 C 
BRANCH   3   4
ATOM      4  C   UNL     1       2.725 -12.234 -18.113  1.00  0.00     0.004 C 
BRANCH   4   5
ATOM      5  C   UNL     1       3.420 -11.287 -19.103  1.00  0.00     0.000 C 
BRANCH   5   6
ATOM      6  C   UNL     1       3.774  -9.929 -18.462  1.00  0.00     0.000 C 
BRANCH   6   7
ATOM      7  C   UNL     1       3.342  -9.811 -16.990  1.00  0.00     0.000 C 
BRANCH   7   8
ATOM      8  C   UNL     1       4.503 -10.025 -16.005  1.00  0.00     0.006 C 
BRANCH   8   9
ATOM      9  C   UNL     1       4.043 -10.695 -14.704  1.00  0.00     0.053 C 
BRANCH   9  10
ATOM     10  C   UNL     1       4.067 -12.189 -14.809  1.00  0.00     0.041 C 
ATOM     11  O   UNL     1       3.194 -12.880 -14.220  1.00  0.00    -0.550 OA
ATOM     12  O   UNL     1       5.074 -12.821 -15.528  1.00  0.00    -0.550 OA
ENDBRANCH   9  10
ENDBRANCH   8   9
ENDBRANCH   7   8
ENDBRANCH   6   7
ENDBRANCH   5   6
ENDBRANCH   4   5
ENDBRANCH   3   4
ENDBRANCH   1   3
BRANCH   2  13
ATOM     13  C   UNL     1      -0.562 -15.081 -19.053  1.00  0.00     0.027 C 
BRANCH  13  14
ATOM     14  C   UNL     1      -1.921 -15.608 -18.571  1.00  0.00     0.004 C 
BRANCH  14  15
ATOM     15  C   UNL     1      -2.012 -17.140 -18.632  1.00  0.00     0.000 C 
BRANCH  15  16
ATOM     16  C   UNL     1      -1.263 -17.686 -19.857  1.00  0.00     0.000 C 
BRANCH  16  17
ATOM     17  C   UNL     1      -1.142 -19.218 -19.842  1.00  0.00    -0.000 C 
BRANCH  17  18
ATOM     18  C   UNL     1       0.287 -19.694 -19.526  1.00  0.00    -0.000 C 
BRANCH  18  19
ATOM     19  C   UNL     1       0.974 -18.825 -18.461  1.00  0.00    -0.003 C 
ATOM     20  C   UNL     1       1.140 -19.549 -17.125  1.00  0.00     0.004 C 
ENDBRANCH  18  19
ENDBRANCH  17  18
ENDBRANCH  16  17
ENDBRANCH  15  16
ENDBRANCH  14  15
ENDBRANCH  13  14
ENDBRANCH   2  13
TORSDOF 15
ENDMDL
MODEL 9
REMARK VINA RESULT:    -3.733      4.999      7.696
REMARK INTER + INTRA:          -8.757
REMARK INTER:                  -7.188
REMARK INTRA:                  -1.569
REMARK UNBOUND:                -1.750
REMARK SMILES CCCCCCCCC=CCCCCCCCC(=O)[O-]
REMARK SMILES IDX 10 1 9 2 11 3 12 4 13 5 14 6 15 7 16 8 17 9 18 10 19 11
REMARK SMILES IDX 20 12 8 13 7 14 6 15 5 16 4 17 3 18 2 19 1 20
REMARK H PARENT
REMARK Flexibility Score: inf
ROOT
ATOM      1  C   UNL     1       2.107 -14.146 -17.075  1.00  0.00    -0.031 C 
ATOM      2  C   UNL     1       1.942 -13.750 -18.352  1.00  0.00    -0.031 C 
ENDROOT
BRANCH   1   3
ATOM      3  C   UNL     1       3.103 -13.565 -16.102  1.00  0.00     0.027 C 
BRANCH   3   4
ATOM      4  C   UNL     1       2.418 -12.685 -15.048  1.00  0.00     0.004 C 
BRANCH   4   5
ATOM      5  C   UNL     1       3.441 -12.119 -14.053  1.00  0.00     0.000 C 
BRANCH   5   6
ATOM      6  C   UNL     1       4.518 -11.258 -14.746  1.00  0.00     0.000 C 
BRANCH   6   7
ATOM      7  C   UNL     1       4.884  -9.984 -13.965  1.00  0.00     0.000 C 
BRANCH   7   8
ATOM      8  C   UNL     1       4.229  -8.718 -14.542  1.00  0.00     0.006 C 
BRANCH   8   9
ATOM      9  C   UNL     1       4.242  -7.553 -13.544  1.00  0.00     0.053 C 
BRANCH   9  10
ATOM     10  C   UNL     1       3.059  -6.653 -13.726  1.00  0.00     0.041 C 
ATOM     11  O   UNL     1       2.406  -6.254 -12.725  1.00  0.00    -0.550 OA
ATOM     12  O   UNL     1       2.655  -6.282 -15.002  1.00  0.00    -0.550 OA
ENDBRANCH   9  10
ENDBRANCH   8   9
ENDBRANCH   7   8
ENDBRANCH   6   7
ENDBRANCH   5   6
ENDBRANCH   4   5
ENDBRANCH   3   4
ENDBRANCH   1   3
BRANCH   2  13
ATOM     13  C   UNL     1       2.753 -12.683 -19.049  1.00  0.00     0.027 C 
BRANCH  13  14
ATOM     14  C   UNL     1       2.234 -11.274 -18.725  1.00  0.00     0.004 C 
BRANCH  14  15
ATOM     15  C   UNL     1       3.255 -10.438 -17.940  1.00  0.00     0.000 C 
BRANCH  15  16
ATOM     16  C   UNL     1       4.612 -10.410 -18.660  1.00  0.00     0.000 C 
BRANCH  16  17
ATOM     17  C   UNL     1       4.496  -9.958 -20.124  1.00  0.00    -0.000 C 
BRANCH  17  18
ATOM     18  C   UNL     1       5.667 -10.453 -20.991  1.00  0.00    -0.000 C 
BRANCH  18  19
ATOM     19  C   UNL     1       6.901 -10.826 -20.154  1.00  0.00    -0.003 C 
ATOM     20  C   UNL     1       8.172 -10.126 -20.633  1.00  0.00     0.004 C 
ENDBRANCH  18  19
ENDBRANCH  17  18
ENDBRANCH  16  17
ENDBRANCH  15  16
ENDBRANCH  14  15
ENDBRANCH  13  14
ENDBRANCH   2  13
TORSDOF 15
ENDMDL
