MODEL 1
REMARK VINA RESULT:    -5.190      0.000      0.000
REMARK INTER + INTRA:          -5.493
REMARK INTER:                  -5.493
REMARK INTRA:                   0.000
REMARK UNBOUND:                 0.000
REMARK SMILES O=c1ccc2cc(O)c(O)cc2o1
REMARK SMILES IDX 4 1 3 2 2 3 1 4 13 5 12 6 11 7 9 8 7 9 6 10 5 11 8 12 10 14
REMARK H PARENT 8 13 10 15
REMARK Flexibility Score: inf
ROOT
ATOM      1  C   UNL     1       1.089 -18.110  -7.292  1.00  0.00     0.019 A 
ATOM      2  C   UNL     1       2.236 -17.885  -6.531  1.00  0.00     0.094 A 
ATOM      3  C   UNL     1       2.427 -16.627  -5.949  1.00  0.00     0.336 A 
ATOM      4  O   UNL     1       3.455 -16.404  -5.258  1.00  0.00    -0.246 OA
ATOM      5  O   UNL     1       1.526 -15.662  -6.120  1.00  0.00    -0.423 OA
ATOM      6  C   UNL     1       0.420 -15.834  -6.839  1.00  0.00     0.142 A 
ATOM      7  C   UNL     1      -0.490 -14.783  -6.984  1.00  0.00     0.098 A 
ATOM      8  C   UNL     1      -1.658 -14.961  -7.741  1.00  0.00     0.161 A 
ATOM      9  C   UNL     1      -1.916 -16.195  -8.354  1.00  0.00     0.158 A 
ATOM     10  C   UNL     1      -1.007 -17.253  -8.211  1.00  0.00     0.062 A 
ATOM     11  C   UNL     1       0.161 -17.077  -7.456  1.00  0.00     0.022 A 
ENDROOT
BRANCH   9  12
ATOM     12  O   UNL     1      -3.080 -16.362  -9.104  1.00  0.00    -0.504 OA
ATOM     13  H   UNL     1      -3.827 -15.680  -9.084  1.00  0.00     0.293 HD
ENDBRANCH   9  12
BRANCH   8  14
ATOM     14  O   UNL     1      -2.567 -13.914  -7.888  1.00  0.00    -0.504 OA
ATOM     15  H   UNL     1      -2.330 -13.074  -8.405  1.00  0.00     0.293 HD
ENDBRANCH   8  14
TORSDOF 2
ENDMDL
MODEL 2
REMARK VINA RESULT:    -4.972      1.716      2.685
REMARK INTER + INTRA:          -5.262
REMARK INTER:                  -5.262
REMARK INTRA:                   0.000
REMARK UNBOUND:                 0.000
REMARK SMILES O=c1ccc2cc(O)c(O)cc2o1
REMARK SMILES IDX 4 1 3 2 2 3 1 4 13 5 12 6 11 7 9 8 7 9 6 10 5 11 8 12 10 14
REMARK H PARENT 8 13 10 15
REMARK Flexibility Score: inf
ROOT
ATOM      1  C   UNL     1       1.800 -16.559  -5.588  1.00  0.00     0.019 A 
ATOM      2  C   UNL     1       2.252 -17.753  -6.149  1.00  0.00     0.094 A 
ATOM      3  C   UNL     1       1.590 -18.270  -7.269  1.00  0.00     0.336 A 
ATOM      4  O   UNL     1       1.982 -19.346  -7.789  1.00  0.00    -0.246 OA
ATOM      5  O   UNL     1       0.545 -17.629  -7.788  1.00  0.00    -0.423 OA
ATOM      6  C   UNL     1       0.082 -16.488  -7.284  1.00  0.00     0.142 A 
ATOM      7  C   UNL     1      -1.020 -15.861  -7.873  1.00  0.00     0.098 A 
ATOM      8  C   UNL     1      -1.512 -14.657  -7.345  1.00  0.00     0.161 A 
ATOM      9  C   UNL     1      -0.899 -14.080  -6.224  1.00  0.00     0.158 A 
ATOM     10  C   UNL     1       0.207 -14.705  -5.629  1.00  0.00     0.062 A 
ATOM     11  C   UNL     1       0.699 -15.908  -6.155  1.00  0.00     0.022 A 
ENDROOT
BRANCH   9  12
ATOM     12  O   UNL     1      -1.395 -12.884  -5.706  1.00  0.00    -0.504 OA
ATOM     13  H   UNL     1      -1.077 -11.986  -6.048  1.00  0.00     0.293 HD
ENDBRANCH   9  12
BRANCH   8  14
ATOM     14  O   UNL     1      -2.611 -14.029  -7.929  1.00  0.00    -0.504 OA
ATOM     15  H   UNL     1      -2.717 -13.977  -8.937  1.00  0.00     0.293 HD
ENDBRANCH   8  14
TORSDOF 2
ENDMDL
MODEL 3
REMARK VINA RESULT:    -4.862      2.617      4.245
REMARK INTER + INTRA:          -5.146
REMARK INTER:                  -5.146
REMARK INTRA:                   0.000
REMARK UNBOUND:                 0.000
REMARK SMILES O=c1ccc2cc(O)c(O)cc2o1
REMARK SMILES IDX 4 1 3 2 2 3 1 4 13 5 12 6 11 7 9 8 7 9 6 10 5 11 8 12 10 14
REMARK H PARENT 8 13 10 15
REMARK Flexibility Score: inf
ROOT
ATOM      1  C   UNL     1      -0.225 -13.569  -5.230  1.00  0.00     0.019 A 
ATOM      2  C   UNL     1      -1.107 -13.277  -4.190  1.00  0.00     0.094 A 
ATOM      3  C   UNL     1      -2.384 -13.850  -4.204  1.00  0.00     0.336 A 
ATOM      4  O   UNL     1      -3.195 -13.600  -3.275  1.00  0.00    -0.246 OA
ATOM      5  O   UNL     1      -2.747 -14.662  -5.195  1.00  0.00    -0.423 OA
ATOM      6  C   UNL     1      -1.937 -14.966  -6.205  1.00  0.00     0.142 A 
ATOM      7  C   UNL     1      -2.375 -15.823  -7.219  1.00  0.00     0.098 A 
ATOM      8  C   UNL     1      -1.523 -16.147  -8.286  1.00  0.00     0.161 A 
ATOM      9  C   UNL     1      -0.229 -15.610  -8.339  1.00  0.00     0.158 A 
ATOM     10  C   UNL     1       0.215 -14.749  -7.325  1.00  0.00     0.062 A 
ATOM     11  C   UNL     1      -0.634 -14.424  -6.258  1.00  0.00     0.022 A 
ENDROOT
BRANCH   9  12
ATOM     12  O   UNL     1       0.610 -15.936  -9.404  1.00  0.00    -0.504 OA
ATOM     13  H   UNL     1       1.617 -15.879  -9.321  1.00  0.00     0.293 HD
ENDBRANCH   9  12
BRANCH   8  14
ATOM     14  O   UNL     1      -1.957 -17.002  -9.298  1.00  0.00    -0.504 OA
ATOM     15  H   UNL     1      -1.476 -17.055 -10.189  1.00  0.00     0.293 HD
ENDBRANCH   8  14
TORSDOF 2
ENDMDL
MODEL 4
REMARK VINA RESULT:    -4.841      2.505      3.769
REMARK INTER + INTRA:          -5.124
REMARK INTER:                  -5.124
REMARK INTRA:                   0.000
REMARK UNBOUND:                 0.000
REMARK SMILES O=c1ccc2cc(O)c(O)cc2o1
REMARK SMILES IDX 4 1 3 2 2 3 1 4 13 5 12 6 11 7 9 8 7 9 6 10 5 11 8 12 10 14
REMARK H PARENT 8 13 10 15
REMARK Flexibility Score: inf
ROOT
ATOM      1  C   UNL     1      -2.484 -14.155  -5.143  1.00  0.00     0.019 A 
ATOM      2  C   UNL     1      -1.877 -13.240  -4.283  1.00  0.00     0.094 A 
ATOM      3  C   UNL     1      -0.548 -12.868  -4.516  1.00  0.00     0.336 A 
ATOM      4  O   UNL     1       0.017 -12.044  -3.752  1.00  0.00    -0.246 OA
ATOM      5  O   UNL     1       0.123 -13.381  -5.545  1.00  0.00    -0.423 OA
ATOM      6  C   UNL     1      -0.417 -14.256  -6.389  1.00  0.00     0.142 A 
ATOM      7  C   UNL     1       0.338 -14.760  -7.451  1.00  0.00     0.098 A 
ATOM      8  C   UNL     1      -0.227 -15.683  -8.344  1.00  0.00     0.161 A 
ATOM      9  C   UNL     1      -1.554 -16.102  -8.172  1.00  0.00     0.158 A 
ATOM     10  C   UNL     1      -2.317 -15.599  -7.108  1.00  0.00     0.062 A 
ATOM     11  C   UNL     1      -1.753 -14.678  -6.215  1.00  0.00     0.022 A 
ENDROOT
BRANCH   9  12
ATOM     12  O   UNL     1      -2.109 -17.020  -9.064  1.00  0.00    -0.504 OA
ATOM     13  H   UNL     1      -3.091 -16.994  -9.310  1.00  0.00     0.293 HD
ENDBRANCH   9  12
BRANCH   8  14
ATOM     14  O   UNL     1       0.523 -16.188  -9.404  1.00  0.00    -0.504 OA
ATOM     15  H   UNL     1       0.200 -16.117 -10.363  1.00  0.00     0.293 HD
ENDBRANCH   8  14
TORSDOF 2
ENDMDL
MODEL 5
REMARK VINA RESULT:    -4.821      1.067      5.029
REMARK INTER + INTRA:          -5.102
REMARK INTER:                  -5.102
REMARK INTRA:                   0.000
REMARK UNBOUND:                 0.000
REMARK SMILES O=c1ccc2cc(O)c(O)cc2o1
REMARK SMILES IDX 4 1 3 2 2 3 1 4 13 5 12 6 11 7 9 8 7 9 6 10 5 11 8 12 10 14
REMARK H PARENT 8 13 10 15
REMARK Flexibility Score: inf
ROOT
ATOM      1  C   UNL     1      -0.868 -14.480  -6.959  1.00  0.00     0.019 A 
ATOM      2  C   UNL     1      -2.048 -14.718  -7.662  1.00  0.00     0.094 A 
ATOM      3  C   UNL     1      -2.277 -15.994  -8.190  1.00  0.00     0.336 A 
ATOM      4  O   UNL     1      -3.336 -16.229  -8.827  1.00  0.00    -0.246 OA
ATOM      5  O   UNL     1      -1.379 -16.963  -8.022  1.00  0.00    -0.423 OA
ATOM      6  C   UNL     1      -0.241 -16.778  -7.359  1.00  0.00     0.142 A 
ATOM      7  C   UNL     1       0.664 -17.833  -7.216  1.00  0.00     0.098 A 
ATOM      8  C   UNL     1       1.866 -17.642  -6.517  1.00  0.00     0.161 A 
ATOM      9  C   UNL     1       2.163 -16.390  -5.960  1.00  0.00     0.158 A 
ATOM     10  C   UNL     1       1.258 -15.328  -6.101  1.00  0.00     0.062 A 
ATOM     11  C   UNL     1       0.057 -15.516  -6.799  1.00  0.00     0.022 A 
ENDROOT
BRANCH   9  12
ATOM     12  O   UNL     1       3.359 -16.209  -5.267  1.00  0.00    -0.504 OA
ATOM     13  H   UNL     1       4.208 -16.688  -5.541  1.00  0.00     0.293 HD
ENDBRANCH   9  12
BRANCH   8  14
ATOM     14  O   UNL     1       2.770 -18.693  -6.372  1.00  0.00    -0.504 OA
ATOM     15  H   UNL     1       2.483 -19.659  -6.484  1.00  0.00     0.293 HD
ENDBRANCH   8  14
TORSDOF 2
ENDMDL
MODEL 6
REMARK VINA RESULT:    -4.788      1.702      4.551
REMARK INTER + INTRA:          -5.068
REMARK INTER:                  -5.068
REMARK INTRA:                   0.000
REMARK UNBOUND:                 0.000
REMARK SMILES O=c1ccc2cc(O)c(O)cc2o1
REMARK SMILES IDX 4 1 3 2 2 3 1 4 13 5 12 6 11 7 9 8 7 9 6 10 5 11 8 12 10 14
REMARK H PARENT 8 13 10 15
REMARK Flexibility Score: inf
ROOT
ATOM      1  C   UNL     1      -1.207 -17.991  -8.835  1.00  0.00     0.019 A 
ATOM      2  C   UNL     1      -2.333 -18.262  -9.612  1.00  0.00     0.094 A 
ATOM      3  C   UNL     1      -3.384 -17.338  -9.628  1.00  0.00     0.336 A 
ATOM      4  O   UNL     1      -4.408 -17.564 -10.323  1.00  0.00    -0.246 OA
ATOM      5  O   UNL     1      -3.306 -16.218  -8.912  1.00  0.00    -0.423 OA
ATOM      6  C   UNL     1      -2.251 -15.922  -8.158  1.00  0.00     0.142 A 
ATOM      7  C   UNL     1      -2.227 -14.731  -7.427  1.00  0.00     0.098 A 
ATOM      8  C   UNL     1      -1.117 -14.414  -6.630  1.00  0.00     0.161 A 
ATOM      9  C   UNL     1      -0.026 -15.293  -6.565  1.00  0.00     0.158 A 
ATOM     10  C   UNL     1      -0.045 -16.489  -7.297  1.00  0.00     0.062 A 
ATOM     11  C   UNL     1      -1.154 -16.808  -8.093  1.00  0.00     0.022 A 
ENDROOT
BRANCH   9  12
ATOM     12  O   UNL     1       1.074 -14.970  -5.771  1.00  0.00    -0.504 OA
ATOM     13  H   UNL     1       1.030 -15.018  -4.761  1.00  0.00     0.293 HD
ENDBRANCH   9  12
BRANCH   8  14
ATOM     14  O   UNL     1      -1.090 -13.227  -5.900  1.00  0.00    -0.504 OA
ATOM     15  H   UNL     1      -0.220 -12.739  -5.713  1.00  0.00     0.293 HD
ENDBRANCH   8  14
TORSDOF 2
ENDMDL
MODEL 7
REMARK VINA RESULT:    -4.766      1.254      1.722
REMARK INTER + INTRA:          -5.045
REMARK INTER:                  -5.045
REMARK INTRA:                   0.000
REMARK UNBOUND:                 0.000
REMARK SMILES O=c1ccc2cc(O)c(O)cc2o1
REMARK SMILES IDX 4 1 3 2 2 3 1 4 13 5 12 6 11 7 9 8 7 9 6 10 5 11 8 12 10 14
REMARK H PARENT 8 13 10 15
REMARK Flexibility Score: inf
ROOT
ATOM      1  C   UNL     1       0.147 -17.977  -8.023  1.00  0.00     0.019 A 
ATOM      2  C   UNL     1       1.187 -18.692  -7.429  1.00  0.00     0.094 A 
ATOM      3  C   UNL     1       1.847 -18.139  -6.326  1.00  0.00     0.336 A 
ATOM      4  O   UNL     1       2.788 -18.768  -5.776  1.00  0.00    -0.246 OA
ATOM      5  O   UNL     1       1.483 -16.949  -5.852  1.00  0.00    -0.423 OA
ATOM      6  C   UNL     1       0.497 -16.234  -6.388  1.00  0.00     0.142 A 
ATOM      7  C   UNL     1       0.162 -14.990  -5.847  1.00  0.00     0.098 A 
ATOM      8  C   UNL     1      -0.877 -14.234  -6.409  1.00  0.00     0.161 A 
ATOM      9  C   UNL     1      -1.583 -14.724  -7.517  1.00  0.00     0.158 A 
ATOM     10  C   UNL     1      -1.250 -15.972  -8.064  1.00  0.00     0.062 A 
ATOM     11  C   UNL     1      -0.212 -16.729  -7.504  1.00  0.00     0.022 A 
ENDROOT
BRANCH   9  12
ATOM     12  O   UNL     1      -2.614 -13.966  -8.070  1.00  0.00    -0.504 OA
ATOM     13  H   UNL     1      -2.440 -13.062  -8.492  1.00  0.00     0.293 HD
ENDBRANCH   9  12
BRANCH   8  14
ATOM     14  O   UNL     1      -1.215 -12.993  -5.872  1.00  0.00    -0.504 OA
ATOM     15  H   UNL     1      -2.091 -12.848  -5.381  1.00  0.00     0.293 HD
ENDBRANCH   8  14
TORSDOF 2
ENDMDL
MODEL 8
REMARK VINA RESULT:    -4.640      2.191      3.533
REMARK INTER + INTRA:          -4.911
REMARK INTER:                  -4.911
REMARK INTRA:                   0.000
REMARK UNBOUND:                 0.000
REMARK SMILES O=c1ccc2cc(O)c(O)cc2o1
REMARK SMILES IDX 4 1 3 2 2 3 1 4 13 5 12 6 11 7 9 8 7 9 6 10 5 11 8 12 10 14
REMARK H PARENT 8 13 10 15
REMARK Flexibility Score: inf
ROOT
ATOM      1  C   UNL     1      -0.490 -15.765  -8.432  1.00  0.00     0.019 A 
ATOM      2  C   UNL     1       0.093 -17.000  -8.715  1.00  0.00     0.094 A 
ATOM      3  C   UNL     1       0.768 -17.681  -7.695  1.00  0.00     0.336 A 
ATOM      4  O   UNL     1       1.300 -18.797  -7.930  1.00  0.00    -0.246 OA
ATOM      5  O   UNL     1       0.849 -17.156  -6.474  1.00  0.00    -0.423 OA
ATOM      6  C   UNL     1       0.307 -15.981  -6.162  1.00  0.00     0.142 A 
ATOM      7  C   UNL     1       0.427 -15.480  -4.863  1.00  0.00     0.098 A 
ATOM      8  C   UNL     1      -0.143 -14.242  -4.530  1.00  0.00     0.161 A 
ATOM      9  C   UNL     1      -0.833 -13.503  -5.501  1.00  0.00     0.158 A 
ATOM     10  C   UNL     1      -0.956 -14.001  -6.806  1.00  0.00     0.062 A 
ATOM     11  C   UNL     1      -0.387 -15.238  -7.141  1.00  0.00     0.022 A 
ENDROOT
BRANCH   9  12
ATOM     12  O   UNL     1      -1.396 -12.273  -5.161  1.00  0.00    -0.504 OA
ATOM     13  H   UNL     1      -1.945 -12.156  -4.318  1.00  0.00     0.293 HD
ENDBRANCH   9  12
BRANCH   8  14
ATOM     14  O   UNL     1      -0.026 -13.739  -3.235  1.00  0.00    -0.504 OA
ATOM     15  H   UNL     1       0.870 -13.450  -2.857  1.00  0.00     0.293 HD
ENDBRANCH   8  14
TORSDOF 2
ENDMDL
MODEL 9
REMARK VINA RESULT:    -4.527      2.091      4.735
REMARK INTER + INTRA:          -4.792
REMARK INTER:                  -4.792
REMARK INTRA:                   0.000
REMARK UNBOUND:                 0.000
REMARK SMILES O=c1ccc2cc(O)c(O)cc2o1
REMARK SMILES IDX 4 1 3 2 2 3 1 4 13 5 12 6 11 7 9 8 7 9 6 10 5 11 8 12 10 14
REMARK H PARENT 8 13 10 15
REMARK Flexibility Score: inf
ROOT
ATOM      1  C   UNL     1       0.508 -15.434  -6.563  1.00  0.00     0.019 A 
ATOM      2  C   UNL     1      -0.564 -14.619  -6.923  1.00  0.00     0.094 A 
ATOM      3  C   UNL     1      -1.545 -15.129  -7.782  1.00  0.00     0.336 A 
ATOM      4  O   UNL     1      -2.520 -14.409  -8.119  1.00  0.00    -0.246 OA
ATOM      5  O   UNL     1      -1.452 -16.374  -8.245  1.00  0.00    -0.423 OA
ATOM      6  C   UNL     1      -0.446 -17.184  -7.927  1.00  0.00     0.142 A 
ATOM      7  C   UNL     1      -0.403 -18.481  -8.446  1.00  0.00     0.098 A 
ATOM      8  C   UNL     1       0.656 -19.339  -8.112  1.00  0.00     0.161 A 
ATOM      9  C   UNL     1       1.675 -18.897  -7.257  1.00  0.00     0.158 A 
ATOM     10  C   UNL     1       1.637 -17.596  -6.733  1.00  0.00     0.062 A 
ATOM     11  C   UNL     1       0.580 -16.737  -7.066  1.00  0.00     0.022 A 
ENDROOT
BRANCH   9  12
ATOM     12  O   UNL     1       2.724 -19.756  -6.931  1.00  0.00    -0.504 OA
ATOM     13  H   UNL     1       2.555 -20.680  -6.555  1.00  0.00     0.293 HD
ENDBRANCH   9  12
BRANCH   8  14
ATOM     14  O   UNL     1       0.703 -20.633  -8.628  1.00  0.00    -0.504 OA
ATOM     15  H   UNL     1       0.840 -21.439  -8.027  1.00  0.00     0.293 HD
ENDBRANCH   8  14
TORSDOF 2
ENDMDL
