MODEL 1
REMARK VINA RESULT:    -3.063      0.000      0.000
REMARK INTER + INTRA:          -3.152
REMARK INTER:                  -3.152
REMARK INTRA:                   0.000
REMARK UNBOUND:                 0.000
REMARK SMILES CC1(C)[C@@H]2CC[C@@](C)(C2)[C@@H]1O
REMARK SMILES IDX 1 1 2 2 4 3 5 4 6 5 7 6 9 7 10 8 8 9 3 10 11 11
REMARK H PARENT 11 12
REMARK Flexibility Score: inf
ROOT
ATOM      1  C   UNL     1     132.440 147.460 139.685  1.00  0.00     0.014 C 
ATOM      2  C   UNL     1     131.754 146.122 139.315  1.00  0.00    -0.006 C 
ATOM      3  C   UNL     1     130.736 145.712 140.434  1.00  0.00    -0.002 C 
ATOM      4  C   UNL     1     130.234 144.266 140.231  1.00  0.00     0.005 C 
ATOM      5  C   UNL     1     129.389 144.375 138.952  1.00  0.00     0.010 C 
ATOM      6  C   UNL     1     129.425 145.892 138.648  1.00  0.00    -0.006 C 
ATOM      7  C   UNL     1     129.485 146.479 140.042  1.00  0.00     0.013 C 
ATOM      8  C   UNL     1     130.812 146.297 138.078  1.00  0.00     0.126 C 
ATOM      9  C   UNL     1     128.236 146.388 137.818  1.00  0.00     0.014 C 
ATOM     10  C   UNL     1     132.878 145.075 139.094  1.00  0.00     0.014 C 
ENDROOT
BRANCH   8  11
ATOM     11  O   UNL     1     131.188 145.494 136.986  1.00  0.00    -0.392 OA
ATOM     12  H   UNL     1     131.676 144.715 137.358  1.00  0.00     0.211 HD
ENDBRANCH   8  11
TORSDOF 1
ENDMDL
MODEL 2
REMARK VINA RESULT:    -2.729      0.956      3.336
REMARK INTER + INTRA:          -2.808
REMARK INTER:                  -2.808
REMARK INTRA:                   0.000
REMARK UNBOUND:                 0.000
REMARK SMILES CC1(C)[C@@H]2CC[C@@](C)(C2)[C@@H]1O
REMARK SMILES IDX 1 1 2 2 4 3 5 4 6 5 7 6 9 7 10 8 8 9 3 10 11 11
REMARK H PARENT 11 12
REMARK Flexibility Score: inf
ROOT
ATOM      1  C   UNL     1     128.859 143.960 139.224  1.00  0.00     0.014 C 
ATOM      2  C   UNL     1     129.789 145.166 138.945  1.00  0.00    -0.006 C 
ATOM      3  C   UNL     1     130.361 145.726 140.293  1.00  0.00    -0.002 C 
ATOM      4  C   UNL     1     131.074 147.078 140.078  1.00  0.00     0.005 C 
ATOM      5  C   UNL     1     132.313 146.685 139.259  1.00  0.00     0.010 C 
ATOM      6  C   UNL     1     132.209 145.143 139.203  1.00  0.00    -0.006 C 
ATOM      7  C   UNL     1     131.566 144.834 140.538  1.00  0.00     0.013 C 
ATOM      8  C   UNL     1     131.094 144.711 138.212  1.00  0.00     0.126 C 
ATOM      9  C   UNL     1     133.551 144.437 138.985  1.00  0.00     0.014 C 
ATOM     10  C   UNL     1     128.962 146.209 138.148  1.00  0.00     0.014 C 
ENDROOT
BRANCH   8  11
ATOM     11  O   UNL     1     131.250 145.311 136.949  1.00  0.00    -0.392 OA
ATOM     12  H   UNL     1     131.135 146.287 137.081  1.00  0.00     0.211 HD
ENDBRANCH   8  11
TORSDOF 1
ENDMDL
MODEL 3
REMARK VINA RESULT:    -2.665      1.552      2.532
REMARK INTER + INTRA:          -2.743
REMARK INTER:                  -2.743
REMARK INTRA:                   0.000
REMARK UNBOUND:                 0.000
REMARK SMILES CC1(C)[C@@H]2CC[C@@](C)(C2)[C@@H]1O
REMARK SMILES IDX 1 1 2 2 4 3 5 4 6 5 7 6 9 7 10 8 8 9 3 10 11 11
REMARK H PARENT 11 12
REMARK Flexibility Score: inf
ROOT
ATOM      1  C   UNL     1     132.429 143.662 137.750  1.00  0.00     0.014 C 
ATOM      2  C   UNL     1     131.781 144.453 138.913  1.00  0.00    -0.006 C 
ATOM      3  C   UNL     1     131.911 145.993 138.653  1.00  0.00    -0.002 C 
ATOM      4  C   UNL     1     131.517 146.807 139.904  1.00  0.00     0.005 C 
ATOM      5  C   UNL     1     130.006 146.553 140.015  1.00  0.00     0.010 C 
ATOM      6  C   UNL     1     129.707 145.716 138.749  1.00  0.00    -0.006 C 
ATOM      7  C   UNL     1     130.711 146.282 137.768  1.00  0.00     0.013 C 
ATOM      8  C   UNL     1     130.228 144.263 138.925  1.00  0.00     0.126 C 
ATOM      9  C   UNL     1     128.254 145.808 138.271  1.00  0.00     0.014 C 
ATOM     10  C   UNL     1     132.471 143.991 140.224  1.00  0.00     0.014 C 
ENDROOT
BRANCH   8  11
ATOM     11  O   UNL     1     129.757 143.675 140.113  1.00  0.00    -0.392 OA
ATOM     12  H   UNL     1     129.935 142.702 140.039  1.00  0.00     0.211 HD
ENDBRANCH   8  11
TORSDOF 1
ENDMDL
MODEL 4
REMARK VINA RESULT:    -2.625      1.623      2.934
REMARK INTER + INTRA:          -2.702
REMARK INTER:                  -2.702
REMARK INTRA:                   0.000
REMARK UNBOUND:                 0.000
REMARK SMILES CC1(C)[C@@H]2CC[C@@](C)(C2)[C@@H]1O
REMARK SMILES IDX 1 1 2 2 4 3 5 4 6 5 7 6 9 7 10 8 8 9 3 10 11 11
REMARK H PARENT 11 12
REMARK Flexibility Score: inf
ROOT
ATOM      1  C   UNL     1     131.421 146.983 139.495  1.00  0.00     0.014 C 
ATOM      2  C   UNL     1     131.219 145.732 138.606  1.00  0.00    -0.006 C 
ATOM      3  C   UNL     1     132.473 144.796 138.701  1.00  0.00    -0.002 C 
ATOM      4  C   UNL     1     132.422 143.681 137.635  1.00  0.00     0.005 C 
ATOM      5  C   UNL     1     131.246 142.812 138.106  1.00  0.00     0.010 C 
ATOM      6  C   UNL     1     130.845 143.478 139.444  1.00  0.00    -0.006 C 
ATOM      7  C   UNL     1     132.182 143.977 139.947  1.00  0.00     0.013 C 
ATOM      8  C   UNL     1     130.092 144.811 139.180  1.00  0.00     0.126 C 
ATOM      9  C   UNL     1     130.130 142.535 140.418  1.00  0.00     0.014 C 
ATOM     10  C   UNL     1     130.935 146.232 137.165  1.00  0.00     0.014 C 
ENDROOT
BRANCH   8  11
ATOM     11  O   UNL     1     129.016 144.641 138.290  1.00  0.00    -0.392 OA
ATOM     12  H   UNL     1     128.604 143.765 138.504  1.00  0.00     0.211 HD
ENDBRANCH   8  11
TORSDOF 1
ENDMDL
MODEL 5
REMARK VINA RESULT:    -2.623      1.460      3.329
REMARK INTER + INTRA:          -2.700
REMARK INTER:                  -2.700
REMARK INTRA:                   0.000
REMARK UNBOUND:                 0.000
REMARK SMILES CC1(C)[C@@H]2CC[C@@](C)(C2)[C@@H]1O
REMARK SMILES IDX 1 1 2 2 4 3 5 4 6 5 7 6 9 7 10 8 8 9 3 10 11 11
REMARK H PARENT 11 12
REMARK Flexibility Score: inf
ROOT
ATOM      1  C   UNL     1     128.260 146.309 140.459  1.00  0.00     0.014 C 
ATOM      2  C   UNL     1     129.106 145.846 139.248  1.00  0.00    -0.006 C 
ATOM      3  C   UNL     1     130.545 146.463 139.330  1.00  0.00    -0.002 C 
ATOM      4  C   UNL     1     131.325 146.240 138.017  1.00  0.00     0.005 C 
ATOM      5  C   UNL     1     131.549 144.720 138.006  1.00  0.00     0.010 C 
ATOM      6  C   UNL     1     130.965 144.281 139.370  1.00  0.00    -0.006 C 
ATOM      7  C   UNL     1     131.274 145.484 140.234  1.00  0.00     0.013 C 
ATOM      8  C   UNL     1     129.413 144.314 139.330  1.00  0.00     0.126 C 
ATOM      9  C   UNL     1     131.552 142.969 139.903  1.00  0.00     0.014 C 
ATOM     10  C   UNL     1     128.335 146.255 137.965  1.00  0.00     0.014 C 
ENDROOT
BRANCH   8  11
ATOM     11  O   UNL     1     128.898 143.593 138.238  1.00  0.00    -0.392 OA
ATOM     12  H   UNL     1     129.168 144.083 137.419  1.00  0.00     0.211 HD
ENDBRANCH   8  11
TORSDOF 1
ENDMDL
MODEL 6
REMARK VINA RESULT:    -2.610     11.202     12.755
REMARK INTER + INTRA:          -2.687
REMARK INTER:                  -2.687
REMARK INTRA:                   0.000
REMARK UNBOUND:                 0.000
REMARK SMILES CC1(C)[C@@H]2CC[C@@](C)(C2)[C@@H]1O
REMARK SMILES IDX 1 1 2 2 4 3 5 4 6 5 7 6 9 7 10 8 8 9 3 10 11 11
REMARK H PARENT 11 12
REMARK Flexibility Score: inf
ROOT
ATOM      1  C   UNL     1     145.515 145.222 139.712  1.00  0.00     0.014 C 
ATOM      2  C   UNL     1     144.115 145.865 139.863  1.00  0.00    -0.006 C 
ATOM      3  C   UNL     1     143.936 147.016 138.815  1.00  0.00    -0.002 C 
ATOM      4  C   UNL     1     142.668 147.847 139.107  1.00  0.00     0.005 C 
ATOM      5  C   UNL     1     141.533 146.857 138.801  1.00  0.00     0.010 C 
ATOM      6  C   UNL     1     142.295 145.620 138.267  1.00  0.00    -0.006 C 
ATOM      7  C   UNL     1     143.476 146.267 137.576  1.00  0.00     0.013 C 
ATOM      8  C   UNL     1     142.990 144.866 139.433  1.00  0.00     0.126 C 
ATOM      9  C   UNL     1     141.457 144.723 137.350  1.00  0.00     0.014 C 
ATOM     10  C   UNL     1     143.987 146.347 141.332  1.00  0.00     0.014 C 
ENDROOT
BRANCH   8  11
ATOM     11  O   UNL     1     142.094 144.568 140.476  1.00  0.00    -0.392 OA
ATOM     12  H   UNL     1     141.782 143.639 140.327  1.00  0.00     0.211 HD
ENDBRANCH   8  11
TORSDOF 1
ENDMDL
MODEL 7
REMARK VINA RESULT:    -2.582      9.542     11.525
REMARK INTER + INTRA:          -2.657
REMARK INTER:                  -2.657
REMARK INTRA:                   0.000
REMARK UNBOUND:                 0.000
REMARK SMILES CC1(C)[C@@H]2CC[C@@](C)(C2)[C@@H]1O
REMARK SMILES IDX 1 1 2 2 4 3 5 4 6 5 7 6 9 7 10 8 8 9 3 10 11 11
REMARK H PARENT 11 12
REMARK Flexibility Score: inf
ROOT
ATOM      1  C   UNL     1     144.368 146.333 139.589  1.00  0.00     0.014 C 
ATOM      2  C   UNL     1     143.158 146.210 138.631  1.00  0.00    -0.006 C 
ATOM      3  C   UNL     1     142.620 144.738 138.630  1.00  0.00    -0.002 C 
ATOM      4  C   UNL     1     141.592 144.519 137.499  1.00  0.00     0.005 C 
ATOM      5  C   UNL     1     140.398 145.373 137.952  1.00  0.00     0.010 C 
ATOM      6  C   UNL     1     140.852 145.885 139.340  1.00  0.00    -0.006 C 
ATOM      7  C   UNL     1     141.690 144.724 139.831  1.00  0.00     0.013 C 
ATOM      8  C   UNL     1     141.923 146.998 139.182  1.00  0.00     0.126 C 
ATOM      9  C   UNL     1     139.696 146.254 140.275  1.00  0.00     0.014 C 
ATOM     10  C   UNL     1     143.627 146.694 137.233  1.00  0.00     0.014 C 
ENDROOT
BRANCH   8  11
ATOM     11  O   UNL     1     141.496 148.022 138.317  1.00  0.00    -0.392 OA
ATOM     12  H   UNL     1     142.315 148.445 137.949  1.00  0.00     0.211 HD
ENDBRANCH   8  11
TORSDOF 1
ENDMDL
MODEL 8
REMARK VINA RESULT:    -2.554      1.598      2.616
REMARK INTER + INTRA:          -2.629
REMARK INTER:                  -2.629
REMARK INTRA:                   0.000
REMARK UNBOUND:                 0.000
REMARK SMILES CC1(C)[C@@H]2CC[C@@](C)(C2)[C@@H]1O
REMARK SMILES IDX 1 1 2 2 4 3 5 4 6 5 7 6 9 7 10 8 8 9 3 10 11 11
REMARK H PARENT 11 12
REMARK Flexibility Score: inf
ROOT
ATOM      1  C   UNL     1     132.970 145.051 140.564  1.00  0.00     0.014 C 
ATOM      2  C   UNL     1     131.950 145.900 139.767  1.00  0.00    -0.006 C 
ATOM      3  C   UNL     1     131.739 145.287 138.340  1.00  0.00    -0.002 C 
ATOM      4  C   UNL     1     130.939 146.246 137.432  1.00  0.00     0.005 C 
ATOM      5  C   UNL     1     129.543 146.238 138.074  1.00  0.00     0.010 C 
ATOM      6  C   UNL     1     129.692 145.189 139.201  1.00  0.00    -0.006 C 
ATOM      7  C   UNL     1     130.683 144.224 138.588  1.00  0.00     0.013 C 
ATOM      8  C   UNL     1     130.516 145.776 140.380  1.00  0.00     0.126 C 
ATOM      9  C   UNL     1     128.371 144.536 139.622  1.00  0.00     0.014 C 
ATOM     10  C   UNL     1     132.487 147.355 139.738  1.00  0.00     0.014 C 
ENDROOT
BRANCH   8  11
ATOM     11  O   UNL     1     130.000 147.008 140.822  1.00  0.00    -0.392 OA
ATOM     12  H   UNL     1     129.015 146.902 140.876  1.00  0.00     0.211 HD
ENDBRANCH   8  11
TORSDOF 1
ENDMDL
MODEL 9
REMARK VINA RESULT:    -2.547      1.233      3.143
REMARK INTER + INTRA:          -2.622
REMARK INTER:                  -2.622
REMARK INTRA:                   0.000
REMARK UNBOUND:                 0.000
REMARK SMILES CC1(C)[C@@H]2CC[C@@](C)(C2)[C@@H]1O
REMARK SMILES IDX 1 1 2 2 4 3 5 4 6 5 7 6 9 7 10 8 8 9 3 10 11 11
REMARK H PARENT 11 12
REMARK Flexibility Score: inf
ROOT
ATOM      1  C   UNL     1     129.447 143.134 140.967  1.00  0.00     0.014 C 
ATOM      2  C   UNL     1     129.302 143.873 139.614  1.00  0.00    -0.006 C 
ATOM      3  C   UNL     1     128.587 145.251 139.829  1.00  0.00    -0.002 C 
ATOM      4  C   UNL     1     128.190 145.892 138.481  1.00  0.00     0.005 C 
ATOM      5  C   UNL     1     129.549 146.246 137.858  1.00  0.00     0.010 C 
ATOM      6  C   UNL     1     130.547 145.865 138.978  1.00  0.00    -0.006 C 
ATOM      7  C   UNL     1     129.737 146.163 140.221  1.00  0.00     0.013 C 
ATOM      8  C   UNL     1     130.697 144.321 139.066  1.00  0.00     0.126 C 
ATOM      9  C   UNL     1     131.877 146.622 138.909  1.00  0.00     0.014 C 
ATOM     10  C   UNL     1     128.534 142.926 138.653  1.00  0.00     0.014 C 
ENDROOT
BRANCH   8  11
ATOM     11  O   UNL     1     131.005 143.749 137.818  1.00  0.00    -0.392 OA
ATOM     12  H   UNL     1     130.358 144.124 137.165  1.00  0.00     0.211 HD
ENDBRANCH   8  11
TORSDOF 1
ENDMDL
