MODEL 1
REMARK VINA RESULT:    -4.577      0.000      0.000
REMARK INTER + INTRA:         -10.761
REMARK INTER:                  -8.324
REMARK INTRA:                  -2.437
REMARK UNBOUND:                -2.437
REMARK SMILES CCCCCCCCCCCCCCCC(=O)[O-]
REMARK SMILES IDX 9 1 10 2 11 3 12 4 13 5 14 6 15 7 16 8 17 9 18 10 8 11 7 12
REMARK SMILES IDX 6 13 5 14 4 15 3 16 2 17 1 18
REMARK H PARENT
REMARK Flexibility Score: inf
ROOT
ATOM      1  C   UNL     1      30.672  31.827  16.297  1.00  0.00     0.000 C 
ENDROOT
BRANCH   1   2
ATOM      2  C   UNL     1      29.869  31.878  14.987  1.00  0.00     0.000 C 
BRANCH   2   3
ATOM      3  C   UNL     1      28.648  30.942  15.006  1.00  0.00     0.000 C 
BRANCH   3   4
ATOM      4  C   UNL     1      28.310  30.388  13.611  1.00  0.00     0.000 C 
BRANCH   4   5
ATOM      5  C   UNL     1      28.218  28.852  13.595  1.00  0.00     0.000 C 
BRANCH   5   6
ATOM      6  C   UNL     1      28.962  28.202  14.772  1.00  0.00     0.006 C 
BRANCH   6   7
ATOM      7  C   UNL     1      29.020  26.673  14.666  1.00  0.00     0.053 C 
BRANCH   7   8
ATOM      8  C   UNL     1      27.928  26.052  15.480  1.00  0.00     0.041 C 
ATOM      9  O   UNL     1      28.207  25.357  16.491  1.00  0.00    -0.550 OA
ATOM     10  O   UNL     1      26.599  26.283  15.150  1.00  0.00    -0.550 OA
ENDBRANCH   7   8
ENDBRANCH   6   7
ENDBRANCH   5   6
ENDBRANCH   4   5
ENDBRANCH   3   4
ENDBRANCH   2   3
ENDBRANCH   1   2
BRANCH   1  11
ATOM     11  C   UNL     1      31.416  30.497  16.488  1.00  0.00     0.000 C 
BRANCH  11  12
ATOM     12  C   UNL     1      32.379  30.237  15.319  1.00  0.00    -0.000 C 
BRANCH  12  13
ATOM     13  C   UNL     1      32.724  28.747  15.151  1.00  0.00    -0.000 C 
BRANCH  13  14
ATOM     14  C   UNL     1      32.545  28.258  13.703  1.00  0.00    -0.000 C 
BRANCH  14  15
ATOM     15  C   UNL     1      31.842  29.291  12.805  1.00  0.00    -0.000 C 
BRANCH  15  16
ATOM     16  C   UNL     1      31.958  29.029  11.292  1.00  0.00    -0.000 C 
BRANCH  16  17
ATOM     17  C   UNL     1      30.607  28.719  10.633  1.00  0.00    -0.003 C 
ATOM     18  C   UNL     1      30.208  27.262  10.852  1.00  0.00     0.004 C 
ENDBRANCH  16  17
ENDBRANCH  15  16
ENDBRANCH  14  15
ENDBRANCH  13  14
ENDBRANCH  12  13
ENDBRANCH  11  12
ENDBRANCH   1  11
TORSDOF 14
ENDMDL
MODEL 2
REMARK VINA RESULT:    -4.467      3.040      5.509
REMARK INTER + INTRA:         -10.559
REMARK INTER:                  -8.899
REMARK INTRA:                  -1.661
REMARK UNBOUND:                -2.437
REMARK SMILES CCCCCCCCCCCCCCCC(=O)[O-]
REMARK SMILES IDX 9 1 10 2 11 3 12 4 13 5 14 6 15 7 16 8 17 9 18 10 8 11 7 12
REMARK SMILES IDX 6 13 5 14 4 15 3 16 2 17 1 18
REMARK H PARENT
REMARK Flexibility Score: inf
ROOT
ATOM      1  C   UNL     1      29.461  30.966  15.947  1.00  0.00     0.000 C 
ENDROOT
BRANCH   1   2
ATOM      2  C   UNL     1      30.790  31.728  16.076  1.00  0.00     0.000 C 
BRANCH   2   3
ATOM      3  C   UNL     1      31.879  31.182  15.137  1.00  0.00     0.000 C 
BRANCH   3   4
ATOM      4  C   UNL     1      32.486  29.863  15.644  1.00  0.00     0.000 C 
BRANCH   4   5
ATOM      5  C   UNL     1      32.295  28.706  14.648  1.00  0.00     0.000 C 
BRANCH   5   6
ATOM      6  C   UNL     1      32.056  29.196  13.211  1.00  0.00     0.006 C 
BRANCH   6   7
ATOM      7  C   UNL     1      32.387  28.131  12.158  1.00  0.00     0.053 C 
BRANCH   7   8
ATOM      8  C   UNL     1      33.855  28.121  11.870  1.00  0.00     0.041 C 
ATOM      9  O   UNL     1      34.631  27.401  12.551  1.00  0.00    -0.550 OA
ATOM     10  O   UNL     1      34.361  28.871  10.815  1.00  0.00    -0.550 OA
ENDBRANCH   7   8
ENDBRANCH   6   7
ENDBRANCH   5   6
ENDBRANCH   4   5
ENDBRANCH   3   4
ENDBRANCH   2   3
ENDBRANCH   1   2
BRANCH   1  11
ATOM     11  C   UNL     1      28.777  31.189  14.590  1.00  0.00     0.000 C 
BRANCH  11  12
ATOM     12  C   UNL     1      28.428  29.848  13.926  1.00  0.00    -0.000 C 
BRANCH  12  13
ATOM     13  C   UNL     1      28.775  28.637  14.810  1.00  0.00    -0.000 C 
BRANCH  13  14
ATOM     14  C   UNL     1      28.401  27.298  14.151  1.00  0.00    -0.000 C 
BRANCH  14  15
ATOM     15  C   UNL     1      27.100  26.697  14.712  1.00  0.00    -0.000 C 
BRANCH  15  16
ATOM     16  C   UNL     1      27.146  25.183  14.990  1.00  0.00    -0.000 C 
BRANCH  16  17
ATOM     17  C   UNL     1      27.861  24.837  16.304  1.00  0.00    -0.003 C 
ATOM     18  C   UNL     1      27.071  25.339  17.510  1.00  0.00     0.004 C 
ENDBRANCH  16  17
ENDBRANCH  15  16
ENDBRANCH  14  15
ENDBRANCH  13  14
ENDBRANCH  12  13
ENDBRANCH  11  12
ENDBRANCH   1  11
TORSDOF 14
ENDMDL
MODEL 3
REMARK VINA RESULT:    -4.416      3.267      5.177
REMARK INTER + INTRA:         -10.467
REMARK INTER:                  -8.148
REMARK INTRA:                  -2.320
REMARK UNBOUND:                -2.437
REMARK SMILES CCCCCCCCCCCCCCCC(=O)[O-]
REMARK SMILES IDX 9 1 10 2 11 3 12 4 13 5 14 6 15 7 16 8 17 9 18 10 8 11 7 12
REMARK SMILES IDX 6 13 5 14 4 15 3 16 2 17 1 18
REMARK H PARENT
REMARK Flexibility Score: inf
ROOT
ATOM      1  C   UNL     1      30.654  31.786  16.335  1.00  0.00     0.000 C 
ENDROOT
BRANCH   1   2
ATOM      2  C   UNL     1      31.369  30.433  16.475  1.00  0.00     0.000 C 
BRANCH   2   3
ATOM      3  C   UNL     1      32.499  30.252  15.446  1.00  0.00     0.000 C 
BRANCH   3   4
ATOM      4  C   UNL     1      32.281  29.027  14.542  1.00  0.00     0.000 C 
BRANCH   4   5
ATOM      5  C   UNL     1      31.881  29.417  13.108  1.00  0.00     0.000 C 
BRANCH   5   6
ATOM      6  C   UNL     1      31.999  28.245  12.121  1.00  0.00     0.006 C 
BRANCH   6   7
ATOM      7  C   UNL     1      33.403  27.629  12.096  1.00  0.00     0.053 C 
BRANCH   7   8
ATOM      8  C   UNL     1      34.182  28.153  10.931  1.00  0.00     0.041 C 
ATOM      9  O   UNL     1      35.234  27.571  10.558  1.00  0.00    -0.550 OA
ATOM     10  O   UNL     1      33.718  29.255  10.225  1.00  0.00    -0.550 OA
ENDBRANCH   7   8
ENDBRANCH   6   7
ENDBRANCH   5   6
ENDBRANCH   4   5
ENDBRANCH   3   4
ENDBRANCH   2   3
ENDBRANCH   1   2
BRANCH   1  11
ATOM     11  C   UNL     1      29.876  31.914  15.016  1.00  0.00     0.000 C 
BRANCH  11  12
ATOM     12  C   UNL     1      28.660  30.974  15.005  1.00  0.00    -0.000 C 
BRANCH  12  13
ATOM     13  C   UNL     1      28.395  30.360  13.620  1.00  0.00    -0.000 C 
BRANCH  13  14
ATOM     14  C   UNL     1      28.176  28.838  13.679  1.00  0.00    -0.000 C 
BRANCH  14  15
ATOM     15  C   UNL     1      28.825  28.188  14.914  1.00  0.00    -0.000 C 
BRANCH  15  16
ATOM     16  C   UNL     1      28.797  26.649  14.932  1.00  0.00    -0.000 C 
BRANCH  16  17
ATOM     17  C   UNL     1      29.892  26.019  14.059  1.00  0.00    -0.003 C 
ATOM     18  C   UNL     1      31.066  25.541  14.909  1.00  0.00     0.004 C 
ENDBRANCH  16  17
ENDBRANCH  15  16
ENDBRANCH  14  15
ENDBRANCH  13  14
ENDBRANCH  12  13
ENDBRANCH  11  12
ENDBRANCH   1  11
TORSDOF 14
ENDMDL
MODEL 4
REMARK VINA RESULT:    -4.369      2.238      3.666
REMARK INTER + INTRA:         -10.383
REMARK INTER:                  -8.980
REMARK INTRA:                  -1.403
REMARK UNBOUND:                -2.437
REMARK SMILES CCCCCCCCCCCCCCCC(=O)[O-]
REMARK SMILES IDX 9 1 10 2 11 3 12 4 13 5 14 6 15 7 16 8 17 9 18 10 8 11 7 12
REMARK SMILES IDX 6 13 5 14 4 15 3 16 2 17 1 18
REMARK H PARENT
REMARK Flexibility Score: inf
ROOT
ATOM      1  C   UNL     1      32.501  29.904  15.377  1.00  0.00     0.000 C 
ENDROOT
BRANCH   1   2
ATOM      2  C   UNL     1      31.921  31.292  15.062  1.00  0.00     0.000 C 
BRANCH   2   3
ATOM      3  C   UNL     1      30.914  31.767  16.124  1.00  0.00     0.000 C 
BRANCH   3   4
ATOM      4  C   UNL     1      29.593  30.981  16.075  1.00  0.00     0.000 C 
BRANCH   4   5
ATOM      5  C   UNL     1      28.779  31.277  14.803  1.00  0.00     0.000 C 
BRANCH   5   6
ATOM      6  C   UNL     1      28.295  29.999  14.100  1.00  0.00     0.006 C 
BRANCH   6   7
ATOM      7  C   UNL     1      27.655  30.279  12.734  1.00  0.00     0.053 C 
BRANCH   7   8
ATOM      8  C   UNL     1      26.891  29.083  12.261  1.00  0.00     0.041 C 
ATOM      9  O   UNL     1      26.919  28.751  11.048  1.00  0.00    -0.550 OA
ATOM     10  O   UNL     1      26.186  28.305  13.171  1.00  0.00    -0.550 OA
ENDBRANCH   7   8
ENDBRANCH   6   7
ENDBRANCH   5   6
ENDBRANCH   4   5
ENDBRANCH   3   4
ENDBRANCH   2   3
ENDBRANCH   1   2
BRANCH   1  11
ATOM     11  C   UNL     1      32.293  28.899  14.234  1.00  0.00     0.000 C 
BRANCH  11  12
ATOM     12  C   UNL     1      31.617  29.574  13.029  1.00  0.00    -0.000 C 
BRANCH  12  13
ATOM     13  C   UNL     1      31.835  28.804  11.716  1.00  0.00    -0.000 C 
BRANCH  13  14
ATOM     14  C   UNL     1      33.322  28.534  11.428  1.00  0.00    -0.000 C 
BRANCH  14  15
ATOM     15  C   UNL     1      33.777  29.084  10.064  1.00  0.00    -0.000 C 
BRANCH  15  16
ATOM     16  C   UNL     1      32.895  30.205   9.484  1.00  0.00    -0.000 C 
BRANCH  16  17
ATOM     17  C   UNL     1      33.640  31.541   9.345  1.00  0.00    -0.003 C 
ATOM     18  C   UNL     1      33.796  31.933   7.878  1.00  0.00     0.004 C 
ENDBRANCH  16  17
ENDBRANCH  15  16
ENDBRANCH  14  15
ENDBRANCH  13  14
ENDBRANCH  12  13
ENDBRANCH  11  12
ENDBRANCH   1  11
TORSDOF 14
ENDMDL
MODEL 5
REMARK VINA RESULT:    -4.361      3.491      5.693
REMARK INTER + INTRA:         -10.367
REMARK INTER:                  -8.207
REMARK INTRA:                  -2.160
REMARK UNBOUND:                -2.437
REMARK SMILES CCCCCCCCCCCCCCCC(=O)[O-]
REMARK SMILES IDX 9 1 10 2 11 3 12 4 13 5 14 6 15 7 16 8 17 9 18 10 8 11 7 12
REMARK SMILES IDX 6 13 5 14 4 15 3 16 2 17 1 18
REMARK H PARENT
REMARK Flexibility Score: inf
ROOT
ATOM      1  C   UNL     1      32.316  30.185  15.268  1.00  0.00     0.000 C 
ENDROOT
BRANCH   1   2
ATOM      2  C   UNL     1      32.463  28.680  14.993  1.00  0.00     0.000 C 
BRANCH   2   3
ATOM      3  C   UNL     1      33.092  28.389  13.619  1.00  0.00     0.000 C 
BRANCH   3   4
ATOM      4  C   UNL     1      32.366  27.261  12.867  1.00  0.00     0.000 C 
BRANCH   4   5
ATOM      5  C   UNL     1      31.895  27.694  11.468  1.00  0.00     0.000 C 
BRANCH   5   6
ATOM      6  C   UNL     1      32.212  29.168  11.167  1.00  0.00     0.006 C 
BRANCH   6   7
ATOM      7  C   UNL     1      33.209  29.336  10.013  1.00  0.00     0.053 C 
BRANCH   7   8
ATOM      8  C   UNL     1      32.864  30.542   9.198  1.00  0.00     0.041 C 
ATOM      9  O   UNL     1      31.781  30.586   8.556  1.00  0.00    -0.550 OA
ATOM     10  O   UNL     1      33.714  31.640   9.186  1.00  0.00    -0.550 OA
ENDBRANCH   7   8
ENDBRANCH   6   7
ENDBRANCH   5   6
ENDBRANCH   4   5
ENDBRANCH   3   4
ENDBRANCH   2   3
ENDBRANCH   1   2
BRANCH   1  11
ATOM     11  C   UNL     1      31.425  30.483  16.484  1.00  0.00     0.000 C 
BRANCH  11  12
ATOM     12  C   UNL     1      30.731  31.846  16.331  1.00  0.00    -0.000 C 
BRANCH  12  13
ATOM     13  C   UNL     1      29.940  31.968  15.017  1.00  0.00    -0.000 C 
BRANCH  13  14
ATOM     14  C   UNL     1      28.680  31.086  15.001  1.00  0.00    -0.000 C 
BRANCH  14  15
ATOM     15  C   UNL     1      28.460  30.382  13.650  1.00  0.00    -0.000 C 
BRANCH  15  16
ATOM     16  C   UNL     1      29.038  28.958  13.554  1.00  0.00    -0.000 C 
BRANCH  16  17
ATOM     17  C   UNL     1      28.853  28.148  14.845  1.00  0.00    -0.003 C 
ATOM     18  C   UNL     1      29.207  26.679  14.628  1.00  0.00     0.004 C 
ENDBRANCH  16  17
ENDBRANCH  15  16
ENDBRANCH  14  15
ENDBRANCH  13  14
ENDBRANCH  12  13
ENDBRANCH  11  12
ENDBRANCH   1  11
TORSDOF 14
ENDMDL
MODEL 6
REMARK VINA RESULT:    -4.344      2.364      4.948
REMARK INTER + INTRA:         -10.336
REMARK INTER:                  -8.824
REMARK INTRA:                  -1.512
REMARK UNBOUND:                -2.437
REMARK SMILES CCCCCCCCCCCCCCCC(=O)[O-]
REMARK SMILES IDX 9 1 10 2 11 3 12 4 13 5 14 6 15 7 16 8 17 9 18 10 8 11 7 12
REMARK SMILES IDX 6 13 5 14 4 15 3 16 2 17 1 18
REMARK H PARENT
REMARK Flexibility Score: inf
ROOT
ATOM      1  C   UNL     1      29.502  30.893  16.155  1.00  0.00     0.000 C 
ENDROOT
BRANCH   1   2
ATOM      2  C   UNL     1      30.878  31.521  16.427  1.00  0.00     0.000 C 
BRANCH   2   3
ATOM      3  C   UNL     1      31.865  31.311  15.265  1.00  0.00     0.000 C 
BRANCH   3   4
ATOM      4  C   UNL     1      32.533  29.926  15.304  1.00  0.00     0.000 C 
BRANCH   4   5
ATOM      5  C   UNL     1      32.411  29.176  13.966  1.00  0.00     0.000 C 
BRANCH   5   6
ATOM      6  C   UNL     1      33.064  27.785  14.006  1.00  0.00     0.006 C 
BRANCH   6   7
ATOM      7  C   UNL     1      32.955  27.118  15.383  1.00  0.00     0.053 C 
BRANCH   7   8
ATOM      8  C   UNL     1      33.001  25.629  15.247  1.00  0.00     0.041 C 
ATOM      9  O   UNL     1      32.379  24.898  16.060  1.00  0.00    -0.550 OA
ATOM     10  O   UNL     1      33.692  25.049  14.190  1.00  0.00    -0.550 OA
ENDBRANCH   7   8
ENDBRANCH   6   7
ENDBRANCH   5   6
ENDBRANCH   4   5
ENDBRANCH   3   4
ENDBRANCH   2   3
ENDBRANCH   1   2
BRANCH   1  11
ATOM     11  C   UNL     1      29.023  31.112  14.712  1.00  0.00     0.000 C 
BRANCH  11  12
ATOM     12  C   UNL     1      28.428  29.820  14.130  1.00  0.00    -0.000 C 
BRANCH  12  13
ATOM     13  C   UNL     1      29.030  28.551  14.760  1.00  0.00    -0.000 C 
BRANCH  13  14
ATOM     14  C   UNL     1      28.501  27.261  14.109  1.00  0.00    -0.000 C 
BRANCH  14  15
ATOM     15  C   UNL     1      27.037  26.962  14.477  1.00  0.00    -0.000 C 
BRANCH  15  16
ATOM     16  C   UNL     1      26.809  25.633  15.223  1.00  0.00    -0.000 C 
BRANCH  16  17
ATOM     17  C   UNL     1      27.780  25.430  16.394  1.00  0.00    -0.003 C 
ATOM     18  C   UNL     1      27.033  25.363  17.723  1.00  0.00     0.004 C 
ENDBRANCH  16  17
ENDBRANCH  15  16
ENDBRANCH  14  15
ENDBRANCH  13  14
ENDBRANCH  12  13
ENDBRANCH  11  12
ENDBRANCH   1  11
TORSDOF 14
ENDMDL
MODEL 7
REMARK VINA RESULT:    -4.337      1.373      1.996
REMARK INTER + INTRA:         -10.323
REMARK INTER:                  -8.670
REMARK INTRA:                  -1.654
REMARK UNBOUND:                -2.437
REMARK SMILES CCCCCCCCCCCCCCCC(=O)[O-]
REMARK SMILES IDX 9 1 10 2 11 3 12 4 13 5 14 6 15 7 16 8 17 9 18 10 8 11 7 12
REMARK SMILES IDX 6 13 5 14 4 15 3 16 2 17 1 18
REMARK H PARENT
REMARK Flexibility Score: inf
ROOT
ATOM      1  C   UNL     1      30.881  31.742  16.006  1.00  0.00     0.000 C 
ENDROOT
BRANCH   1   2
ATOM      2  C   UNL     1      29.528  31.019  15.901  1.00  0.00     0.000 C 
BRANCH   2   3
ATOM      3  C   UNL     1      28.804  31.310  14.575  1.00  0.00     0.000 C 
BRANCH   3   4
ATOM      4  C   UNL     1      28.488  30.029  13.784  1.00  0.00     0.000 C 
BRANCH   4   5
ATOM      5  C   UNL     1      28.705  28.754  14.618  1.00  0.00     0.000 C 
BRANCH   5   6
ATOM      6  C   UNL     1      28.357  27.474  13.842  1.00  0.00     0.006 C 
BRANCH   6   7
ATOM      7  C   UNL     1      26.878  27.408  13.440  1.00  0.00     0.053 C 
BRANCH   7   8
ATOM      8  C   UNL     1      26.153  26.406  14.281  1.00  0.00     0.041 C 
ATOM      9  O   UNL     1      25.136  25.817  13.831  1.00  0.00    -0.550 OA
ATOM     10  O   UNL     1      26.630  26.086  15.546  1.00  0.00    -0.550 OA
ENDBRANCH   7   8
ENDBRANCH   6   7
ENDBRANCH   5   6
ENDBRANCH   4   5
ENDBRANCH   3   4
ENDBRANCH   2   3
ENDBRANCH   1   2
BRANCH   1  11
ATOM     11  C   UNL     1      31.929  31.187  15.029  1.00  0.00     0.000 C 
BRANCH  11  12
ATOM     12  C   UNL     1      32.496  29.851  15.536  1.00  0.00    -0.000 C 
BRANCH  12  13
ATOM     13  C   UNL     1      32.368  28.719  14.502  1.00  0.00    -0.000 C 
BRANCH  13  14
ATOM     14  C   UNL     1      32.021  29.238  13.096  1.00  0.00    -0.000 C 
BRANCH  14  15
ATOM     15  C   UNL     1      32.388  28.242  11.982  1.00  0.00    -0.000 C 
BRANCH  15  16
ATOM     16  C   UNL     1      33.235  28.827  10.836  1.00  0.00    -0.000 C 
BRANCH  16  17
ATOM     17  C   UNL     1      32.406  29.651   9.840  1.00  0.00    -0.003 C 
ATOM     18  C   UNL     1      33.197  30.851   9.326  1.00  0.00     0.004 C 
ENDBRANCH  16  17
ENDBRANCH  15  16
ENDBRANCH  14  15
ENDBRANCH  13  14
ENDBRANCH  12  13
ENDBRANCH  11  12
ENDBRANCH   1  11
TORSDOF 14
ENDMDL
MODEL 8
REMARK VINA RESULT:    -4.324      1.616      4.606
REMARK INTER + INTRA:         -10.300
REMARK INTER:                  -8.382
REMARK INTRA:                  -1.918
REMARK UNBOUND:                -2.437
REMARK SMILES CCCCCCCCCCCCCCCC(=O)[O-]
REMARK SMILES IDX 9 1 10 2 11 3 12 4 13 5 14 6 15 7 16 8 17 9 18 10 8 11 7 12
REMARK SMILES IDX 6 13 5 14 4 15 3 16 2 17 1 18
REMARK H PARENT
REMARK Flexibility Score: inf
ROOT
ATOM      1  C   UNL     1      33.362  27.852  14.221  1.00  0.00     0.000 C 
ENDROOT
BRANCH   1   2
ATOM      2  C   UNL     1      33.170  26.857  15.377  1.00  0.00     0.000 C 
BRANCH   2   3
ATOM      3  C   UNL     1      33.036  25.403  14.891  1.00  0.00     0.000 C 
BRANCH   3   4
ATOM      4  C   UNL     1      31.628  25.088  14.360  1.00  0.00     0.000 C 
BRANCH   4   5
ATOM      5  C   UNL     1      30.538  25.279  15.430  1.00  0.00     0.000 C 
BRANCH   5   6
ATOM      6  C   UNL     1      29.121  25.056  14.878  1.00  0.00     0.006 C 
BRANCH   6   7
ATOM      7  C   UNL     1      28.084  25.990  15.512  1.00  0.00     0.053 C 
BRANCH   7   8
ATOM      8  C   UNL     1      27.025  26.347  14.517  1.00  0.00     0.041 C 
ATOM      9  O   UNL     1      25.820  26.422  14.872  1.00  0.00    -0.550 OA
ATOM     10  O   UNL     1      27.376  26.646  13.206  1.00  0.00    -0.550 OA
ENDBRANCH   7   8
ENDBRANCH   6   7
ENDBRANCH   5   6
ENDBRANCH   4   5
ENDBRANCH   3   4
ENDBRANCH   2   3
ENDBRANCH   1   2
BRANCH   1  11
ATOM     11  C   UNL     1      32.440  29.076  14.330  1.00  0.00     0.000 C 
BRANCH  11  12
ATOM     12  C   UNL     1      31.205  28.912  13.429  1.00  0.00    -0.000 C 
BRANCH  12  13
ATOM     13  C   UNL     1      29.899  28.768  14.229  1.00  0.00    -0.000 C 
BRANCH  13  14
ATOM     14  C   UNL     1      28.908  29.913  13.955  1.00  0.00    -0.000 C 
BRANCH  14  15
ATOM     15  C   UNL     1      28.893  30.971  15.073  1.00  0.00    -0.000 C 
BRANCH  15  16
ATOM     16  C   UNL     1      29.982  32.054  14.963  1.00  0.00    -0.000 C 
BRANCH  16  17
ATOM     17  C   UNL     1      30.942  32.062  16.162  1.00  0.00    -0.003 C 
ATOM     18  C   UNL     1      30.506  31.054  17.223  1.00  0.00     0.004 C 
ENDBRANCH  16  17
ENDBRANCH  15  16
ENDBRANCH  14  15
ENDBRANCH  13  14
ENDBRANCH  12  13
ENDBRANCH  11  12
ENDBRANCH   1  11
TORSDOF 14
ENDMDL
MODEL 9
REMARK VINA RESULT:    -4.275      1.373      2.126
REMARK INTER + INTRA:         -10.212
REMARK INTER:                  -7.860
REMARK INTRA:                  -2.352
REMARK UNBOUND:                -2.437
REMARK SMILES CCCCCCCCCCCCCCCC(=O)[O-]
REMARK SMILES IDX 9 1 10 2 11 3 12 4 13 5 14 6 15 7 16 8 17 9 18 10 8 11 7 12
REMARK SMILES IDX 6 13 5 14 4 15 3 16 2 17 1 18
REMARK H PARENT
REMARK Flexibility Score: inf
ROOT
ATOM      1  C   UNL     1      30.626  31.984  15.664  1.00  0.00     0.000 C 
ENDROOT
BRANCH   1   2
ATOM      2  C   UNL     1      29.461  30.999  15.855  1.00  0.00     0.000 C 
BRANCH   2   3
ATOM      3  C   UNL     1      28.505  30.972  14.650  1.00  0.00     0.000 C 
BRANCH   3   4
ATOM      4  C   UNL     1      28.708  29.731  13.765  1.00  0.00     0.000 C 
BRANCH   4   5
ATOM      5  C   UNL     1      28.806  28.433  14.586  1.00  0.00     0.000 C 
BRANCH   5   6
ATOM      6  C   UNL     1      28.083  27.253  13.916  1.00  0.00     0.006 C 
BRANCH   6   7
ATOM      7  C   UNL     1      27.068  26.575  14.844  1.00  0.00     0.053 C 
BRANCH   7   8
ATOM      8  C   UNL     1      27.708  25.437  15.574  1.00  0.00     0.041 C 
ATOM      9  O   UNL     1      27.814  25.467  16.828  1.00  0.00    -0.550 OA
ATOM     10  O   UNL     1      28.144  24.318  14.875  1.00  0.00    -0.550 OA
ENDBRANCH   7   8
ENDBRANCH   6   7
ENDBRANCH   5   6
ENDBRANCH   4   5
ENDBRANCH   3   4
ENDBRANCH   2   3
ENDBRANCH   1   2
BRANCH   1  11
ATOM     11  C   UNL     1      31.874  31.319  15.065  1.00  0.00     0.000 C 
BRANCH  11  12
ATOM     12  C   UNL     1      32.136  29.954  15.723  1.00  0.00    -0.000 C 
BRANCH  12  13
ATOM     13  C   UNL     1      32.733  28.926  14.746  1.00  0.00    -0.000 C 
BRANCH  13  14
ATOM     14  C   UNL     1      32.211  29.104  13.310  1.00  0.00    -0.000 C 
BRANCH  14  15
ATOM     15  C   UNL     1      31.883  27.766  12.623  1.00  0.00    -0.000 C 
BRANCH  15  16
ATOM     16  C   UNL     1      32.470  26.518  13.308  1.00  0.00    -0.000 C 
BRANCH  16  17
ATOM     17  C   UNL     1      31.391  25.551  13.816  1.00  0.00    -0.003 C 
ATOM     18  C   UNL     1      31.532  25.307  15.316  1.00  0.00     0.004 C 
ENDBRANCH  16  17
ENDBRANCH  15  16
ENDBRANCH  14  15
ENDBRANCH  13  14
ENDBRANCH  12  13
ENDBRANCH  11  12
ENDBRANCH   1  11
TORSDOF 14
ENDMDL
