MODEL 1
REMARK VINA RESULT:    -4.949      0.000      0.000
REMARK INTER + INTRA:         -13.887
REMARK INTER:                 -10.736
REMARK INTRA:                  -3.151
REMARK UNBOUND:                -3.151
REMARK SMILES CCCCCCCCCCCCCCCCCCCCCC(=O)[O-]
REMARK SMILES IDX 12 1 11 2 10 3 9 4 8 5 7 6 6 7 5 8 4 9 3 10 2 11 1 12 13 13
REMARK SMILES IDX 14 14 15 15 16 16 17 17 18 18 19 19 20 20 21 21 22 22 23 23
REMARK SMILES IDX 24 24
REMARK H PARENT
REMARK Flexibility Score: inf
ROOT
ATOM      1  C   UNL     1      14.086  15.793 162.611  1.00  0.00     0.000 C 
ENDROOT
BRANCH   1   2
ATOM      2  C   UNL     1      15.212  14.841 163.059  1.00  0.00     0.000 C 
BRANCH   2   3
ATOM      3  C   UNL     1      14.749  13.378 163.172  1.00  0.00     0.000 C 
BRANCH   3   4
ATOM      4  C   UNL     1      13.308  13.164 162.671  1.00  0.00    -0.000 C 
BRANCH   4   5
ATOM      5  C   UNL     1      12.235  13.098 163.772  1.00  0.00    -0.000 C 
BRANCH   5   6
ATOM      6  C   UNL     1      10.863  12.648 163.243  1.00  0.00    -0.000 C 
BRANCH   6   7
ATOM      7  C   UNL     1      10.580  13.149 161.817  1.00  0.00    -0.000 C 
BRANCH   7   8
ATOM      8  C   UNL     1       9.543  14.288 161.719  1.00  0.00    -0.000 C 
BRANCH   8   9
ATOM      9  C   UNL     1      10.055  15.534 160.968  1.00  0.00    -0.000 C 
BRANCH   9  10
ATOM     10  C   UNL     1      11.454  15.316 160.363  1.00  0.00    -0.000 C 
BRANCH  10  11
ATOM     11  C   UNL     1      11.951  16.530 159.563  1.00  0.00    -0.003 C 
ATOM     12  C   UNL     1      11.163  17.804 159.862  1.00  0.00     0.004 C 
ENDBRANCH  10  11
ENDBRANCH   9  10
ENDBRANCH   8   9
ENDBRANCH   7   8
ENDBRANCH   6   7
ENDBRANCH   5   6
ENDBRANCH   4   5
ENDBRANCH   3   4
ENDBRANCH   2   3
ENDBRANCH   1   2
BRANCH   1  13
ATOM     13  C   UNL     1      13.452  16.623 163.743  1.00  0.00     0.000 C 
BRANCH  13  14
ATOM     14  C   UNL     1      12.686  17.852 163.229  1.00  0.00     0.000 C 
BRANCH  14  15
ATOM     15  C   UNL     1      11.196  17.750 163.576  1.00  0.00     0.000 C 
BRANCH  15  16
ATOM     16  C   UNL     1      10.891  16.456 164.345  1.00  0.00     0.000 C 
BRANCH  16  17
ATOM     17  C   UNL     1       9.700  16.612 165.302  1.00  0.00     0.000 C 
BRANCH  17  18
ATOM     18  C   UNL     1       9.019  17.986 165.180  1.00  0.00     0.000 C 
BRANCH  18  19
ATOM     19  C   UNL     1       7.816  18.143 166.124  1.00  0.00     0.000 C 
BRANCH  19  20
ATOM     20  C   UNL     1       6.973  16.858 166.272  1.00  0.00     0.006 C 
BRANCH  20  21
ATOM     21  C   UNL     1       6.341  16.699 167.664  1.00  0.00     0.053 C 
BRANCH  21  22
ATOM     22  C   UNL     1       7.173  15.829 168.557  1.00  0.00     0.041 C 
ATOM     23  O   UNL     1       8.210  15.273 168.111  1.00  0.00    -0.550 OA
ATOM     24  O   UNL     1       6.797  15.628 169.879  1.00  0.00    -0.550 OA
ENDBRANCH  21  22
ENDBRANCH  20  21
ENDBRANCH  19  20
ENDBRANCH  18  19
ENDBRANCH  17  18
ENDBRANCH  16  17
ENDBRANCH  15  16
ENDBRANCH  14  15
ENDBRANCH  13  14
ENDBRANCH   1  13
TORSDOF 20
ENDMDL
MODEL 2
REMARK VINA RESULT:    -4.945      1.310      3.833
REMARK INTER + INTRA:         -13.878
REMARK INTER:                 -11.116
REMARK INTRA:                  -2.762
REMARK UNBOUND:                -3.151
REMARK SMILES CCCCCCCCCCCCCCCCCCCCCC(=O)[O-]
REMARK SMILES IDX 12 1 11 2 10 3 9 4 8 5 7 6 6 7 5 8 4 9 3 10 2 11 1 12 13 13
REMARK SMILES IDX 14 14 15 15 16 16 17 17 18 18 19 19 20 20 21 21 22 22 23 23
REMARK SMILES IDX 24 24
REMARK H PARENT
REMARK Flexibility Score: inf
ROOT
ATOM      1  C   UNL     1      11.709  13.181 163.570  1.00  0.00     0.000 C 
ENDROOT
BRANCH   1   2
ATOM      2  C   UNL     1      10.586  12.413 162.846  1.00  0.00     0.000 C 
BRANCH   2   3
ATOM      3  C   UNL     1      10.113  13.117 161.563  1.00  0.00     0.000 C 
BRANCH   3   4
ATOM      4  C   UNL     1       9.768  14.602 161.784  1.00  0.00    -0.000 C 
BRANCH   4   5
ATOM      5  C   UNL     1      10.326  15.569 160.726  1.00  0.00    -0.000 C 
BRANCH   5   6
ATOM      6  C   UNL     1      11.747  16.058 161.053  1.00  0.00    -0.000 C 
BRANCH   6   7
ATOM      7  C   UNL     1      12.839  15.227 160.358  1.00  0.00    -0.000 C 
BRANCH   7   8
ATOM      8  C   UNL     1      13.693  14.353 161.300  1.00  0.00    -0.000 C 
BRANCH   8   9
ATOM      9  C   UNL     1      14.655  15.160 162.197  1.00  0.00    -0.000 C 
BRANCH   9  10
ATOM     10  C   UNL     1      15.330  14.282 163.266  1.00  0.00    -0.000 C 
BRANCH  10  11
ATOM     11  C   UNL     1      16.482  13.437 162.701  1.00  0.00    -0.003 C 
ATOM     12  C   UNL     1      17.752  14.250 162.455  1.00  0.00     0.004 C 
ENDBRANCH  10  11
ENDBRANCH   9  10
ENDBRANCH   8   9
ENDBRANCH   7   8
ENDBRANCH   6   7
ENDBRANCH   5   6
ENDBRANCH   4   5
ENDBRANCH   3   4
ENDBRANCH   2   3
ENDBRANCH   1   2
BRANCH   1  13
ATOM     13  C   UNL     1      11.516  13.327 165.091  1.00  0.00     0.000 C 
BRANCH  13  14
ATOM     14  C   UNL     1      11.300  14.783 165.531  1.00  0.00     0.000 C 
BRANCH  14  15
ATOM     15  C   UNL     1      12.304  15.716 164.844  1.00  0.00     0.000 C 
BRANCH  15  16
ATOM     16  C   UNL     1      11.591  16.877 164.136  1.00  0.00     0.000 C 
BRANCH  16  17
ATOM     17  C   UNL     1      10.133  17.033 164.595  1.00  0.00     0.000 C 
BRANCH  17  18
ATOM     18  C   UNL     1       9.633  18.484 164.492  1.00  0.00     0.000 C 
BRANCH  18  19
ATOM     19  C   UNL     1       8.477  18.788 165.460  1.00  0.00     0.000 C 
BRANCH  19  20
ATOM     20  C   UNL     1       7.762  17.524 165.986  1.00  0.00     0.006 C 
BRANCH  20  21
ATOM     21  C   UNL     1       7.658  17.475 167.518  1.00  0.00     0.053 C 
BRANCH  21  22
ATOM     22  C   UNL     1       7.059  16.188 167.995  1.00  0.00     0.041 C 
ATOM     23  O   UNL     1       5.825  15.976 167.861  1.00  0.00    -0.550 OA
ATOM     24  O   UNL     1       7.862  15.225 168.594  1.00  0.00    -0.550 OA
ENDBRANCH  21  22
ENDBRANCH  20  21
ENDBRANCH  19  20
ENDBRANCH  18  19
ENDBRANCH  17  18
ENDBRANCH  16  17
ENDBRANCH  15  16
ENDBRANCH  14  15
ENDBRANCH  13  14
ENDBRANCH   1  13
TORSDOF 20
ENDMDL
MODEL 3
REMARK VINA RESULT:    -4.888      1.159      3.113
REMARK INTER + INTRA:         -13.754
REMARK INTER:                 -10.734
REMARK INTRA:                  -3.020
REMARK UNBOUND:                -3.151
REMARK SMILES CCCCCCCCCCCCCCCCCCCCCC(=O)[O-]
REMARK SMILES IDX 12 1 11 2 10 3 9 4 8 5 7 6 6 7 5 8 4 9 3 10 2 11 1 12 13 13
REMARK SMILES IDX 14 14 15 15 16 16 17 17 18 18 19 19 20 20 21 21 22 22 23 23
REMARK SMILES IDX 24 24
REMARK H PARENT
REMARK Flexibility Score: inf
ROOT
ATOM      1  C   UNL     1      12.061  14.011 164.647  1.00  0.00     0.000 C 
ENDROOT
BRANCH   1   2
ATOM      2  C   UNL     1      11.252  12.831 164.074  1.00  0.00     0.000 C 
BRANCH   2   3
ATOM      3  C   UNL     1      11.501  12.609 162.572  1.00  0.00     0.000 C 
BRANCH   3   4
ATOM      4  C   UNL     1      10.266  12.920 161.706  1.00  0.00    -0.000 C 
BRANCH   4   5
ATOM      5  C   UNL     1       9.563  14.252 162.022  1.00  0.00    -0.000 C 
BRANCH   5   6
ATOM      6  C   UNL     1       9.864  15.347 160.985  1.00  0.00    -0.000 C 
BRANCH   6   7
ATOM      7  C   UNL     1      11.211  16.047 161.231  1.00  0.00    -0.000 C 
BRANCH   7   8
ATOM      8  C   UNL     1      12.344  15.640 160.265  1.00  0.00    -0.000 C 
BRANCH   8   9
ATOM      9  C   UNL     1      13.509  14.895 160.950  1.00  0.00    -0.000 C 
BRANCH   9  10
ATOM     10  C   UNL     1      13.881  15.517 162.308  1.00  0.00    -0.000 C 
BRANCH  10  11
ATOM     11  C   UNL     1      15.256  15.057 162.815  1.00  0.00    -0.003 C 
ATOM     12  C   UNL     1      15.270  13.594 163.257  1.00  0.00     0.004 C 
ENDBRANCH  10  11
ENDBRANCH   9  10
ENDBRANCH   8   9
ENDBRANCH   7   8
ENDBRANCH   6   7
ENDBRANCH   5   6
ENDBRANCH   4   5
ENDBRANCH   3   4
ENDBRANCH   2   3
ENDBRANCH   1   2
BRANCH   1  13
ATOM     13  C   UNL     1      11.238  15.025 165.462  1.00  0.00     0.000 C 
BRANCH  13  14
ATOM     14  C   UNL     1      11.192  16.419 164.816  1.00  0.00     0.000 C 
BRANCH  14  15
ATOM     15  C   UNL     1       9.749  16.924 164.711  1.00  0.00     0.000 C 
BRANCH  15  16
ATOM     16  C   UNL     1       9.707  18.435 164.437  1.00  0.00     0.000 C 
BRANCH  16  17
ATOM     17  C   UNL     1       8.429  19.092 164.983  1.00  0.00     0.000 C 
BRANCH  17  18
ATOM     18  C   UNL     1       8.357  19.058 166.519  1.00  0.00     0.000 C 
BRANCH  18  19
ATOM     19  C   UNL     1       7.024  18.496 167.042  1.00  0.00     0.000 C 
BRANCH  19  20
ATOM     20  C   UNL     1       6.570  17.208 166.322  1.00  0.00     0.006 C 
BRANCH  20  21
ATOM     21  C   UNL     1       6.186  16.074 167.284  1.00  0.00     0.053 C 
BRANCH  21  22
ATOM     22  C   UNL     1       7.317  15.710 168.196  1.00  0.00     0.041 C 
ATOM     23  O   UNL     1       8.483  15.582 167.738  1.00  0.00    -0.550 OA
ATOM     24  O   UNL     1       7.082  15.506 169.550  1.00  0.00    -0.550 OA
ENDBRANCH  21  22
ENDBRANCH  20  21
ENDBRANCH  19  20
ENDBRANCH  18  19
ENDBRANCH  17  18
ENDBRANCH  16  17
ENDBRANCH  15  16
ENDBRANCH  14  15
ENDBRANCH  13  14
ENDBRANCH   1  13
TORSDOF 20
ENDMDL
MODEL 4
REMARK VINA RESULT:    -4.729      2.931      7.315
REMARK INTER + INTRA:         -13.410
REMARK INTER:                 -10.700
REMARK INTRA:                  -2.710
REMARK UNBOUND:                -3.151
REMARK SMILES CCCCCCCCCCCCCCCCCCCCCC(=O)[O-]
REMARK SMILES IDX 12 1 11 2 10 3 9 4 8 5 7 6 6 7 5 8 4 9 3 10 2 11 1 12 13 13
REMARK SMILES IDX 14 14 15 15 16 16 17 17 18 18 19 19 20 20 21 21 22 22 23 23
REMARK SMILES IDX 24 24
REMARK H PARENT
REMARK Flexibility Score: inf
ROOT
ATOM      1  C   UNL     1      11.354  13.666 165.142  1.00  0.00     0.000 C 
ENDROOT
BRANCH   1   2
ATOM      2  C   UNL     1      11.199  15.122 165.622  1.00  0.00     0.000 C 
BRANCH   2   3
ATOM      3  C   UNL     1      11.967  16.126 164.744  1.00  0.00     0.000 C 
BRANCH   3   4
ATOM      4  C   UNL     1      11.056  17.201 164.123  1.00  0.00    -0.000 C 
BRANCH   4   5
ATOM      5  C   UNL     1       9.671  17.344 164.779  1.00  0.00    -0.000 C 
BRANCH   5   6
ATOM      6  C   UNL     1       9.187  18.802 164.841  1.00  0.00    -0.000 C 
BRANCH   6   7
ATOM      7  C   UNL     1       7.908  18.970 165.678  1.00  0.00    -0.000 C 
BRANCH   7   8
ATOM      8  C   UNL     1       7.717  17.923 166.795  1.00  0.00    -0.000 C 
BRANCH   8   9
ATOM      9  C   UNL     1       6.296  17.323 166.850  1.00  0.00    -0.000 C 
BRANCH   9  10
ATOM     10  C   UNL     1       6.303  15.847 167.286  1.00  0.00    -0.000 C 
BRANCH  10  11
ATOM     11  C   UNL     1       7.424  15.528 168.287  1.00  0.00    -0.003 C 
ATOM     12  C   UNL     1       6.968  15.625 169.743  1.00  0.00     0.004 C 
ENDBRANCH  10  11
ENDBRANCH   9  10
ENDBRANCH   8   9
ENDBRANCH   7   8
ENDBRANCH   6   7
ENDBRANCH   5   6
ENDBRANCH   4   5
ENDBRANCH   3   4
ENDBRANCH   2   3
ENDBRANCH   1   2
BRANCH   1  13
ATOM     13  C   UNL     1      11.619  13.507 163.633  1.00  0.00     0.000 C 
BRANCH  13  14
ATOM     14  C   UNL     1      10.665  12.510 162.957  1.00  0.00     0.000 C 
BRANCH  14  15
ATOM     15  C   UNL     1       9.951  13.160 161.766  1.00  0.00     0.000 C 
BRANCH  15  16
ATOM     16  C   UNL     1       9.817  14.677 161.959  1.00  0.00     0.000 C 
BRANCH  16  17
ATOM     17  C   UNL     1      10.283  15.466 160.725  1.00  0.00     0.000 C 
BRANCH  17  18
ATOM     18  C   UNL     1      11.658  16.124 160.930  1.00  0.00     0.000 C 
BRANCH  18  19
ATOM     19  C   UNL     1      12.795  15.364 160.225  1.00  0.00     0.000 C 
BRANCH  19  20
ATOM     20  C   UNL     1      13.626  14.473 161.174  1.00  0.00     0.006 C 
BRANCH  20  21
ATOM     21  C   UNL     1      14.414  15.270 162.224  1.00  0.00     0.053 C 
BRANCH  21  22
ATOM     22  C   UNL     1      15.489  14.442 162.860  1.00  0.00     0.041 C 
ATOM     23  O   UNL     1      16.655  14.447 162.387  1.00  0.00    -0.550 OA
ATOM     24  O   UNL     1      15.199  13.659 163.972  1.00  0.00    -0.550 OA
ENDBRANCH  21  22
ENDBRANCH  20  21
ENDBRANCH  19  20
ENDBRANCH  18  19
ENDBRANCH  17  18
ENDBRANCH  16  17
ENDBRANCH  15  16
ENDBRANCH  14  15
ENDBRANCH  13  14
ENDBRANCH   1  13
TORSDOF 20
ENDMDL
MODEL 5
REMARK VINA RESULT:    -4.723      1.153      3.102
REMARK INTER + INTRA:         -13.396
REMARK INTER:                 -10.889
REMARK INTRA:                  -2.507
REMARK UNBOUND:                -3.151
REMARK SMILES CCCCCCCCCCCCCCCCCCCCCC(=O)[O-]
REMARK SMILES IDX 12 1 11 2 10 3 9 4 8 5 7 6 6 7 5 8 4 9 3 10 2 11 1 12 13 13
REMARK SMILES IDX 14 14 15 15 16 16 17 17 18 18 19 19 20 20 21 21 22 22 23 23
REMARK SMILES IDX 24 24
REMARK H PARENT
REMARK Flexibility Score: inf
ROOT
ATOM      1  C   UNL     1      11.076  16.208 160.415  1.00  0.00     0.000 C 
ENDROOT
BRANCH   1   2
ATOM      2  C   UNL     1      12.358  15.720 159.713  1.00  0.00     0.000 C 
BRANCH   2   3
ATOM      3  C   UNL     1      13.170  14.734 160.570  1.00  0.00     0.000 C 
BRANCH   3   4
ATOM      4  C   UNL     1      13.863  15.409 161.768  1.00  0.00    -0.000 C 
BRANCH   4   5
ATOM      5  C   UNL     1      14.693  14.468 162.660  1.00  0.00    -0.000 C 
BRANCH   5   6
ATOM      6  C   UNL     1      13.828  13.655 163.638  1.00  0.00    -0.000 C 
BRANCH   6   7
ATOM      7  C   UNL     1      12.774  14.514 164.357  1.00  0.00    -0.000 C 
BRANCH   7   8
ATOM      8  C   UNL     1      11.433  13.803 164.637  1.00  0.00    -0.000 C 
BRANCH   8   9
ATOM      9  C   UNL     1      11.124  12.649 163.660  1.00  0.00    -0.000 C 
BRANCH   9  10
ATOM     10  C   UNL     1      10.432  13.142 162.376  1.00  0.00    -0.000 C 
BRANCH  10  11
ATOM     11  C   UNL     1      10.544  12.138 161.218  1.00  0.00    -0.003 C 
ATOM     12  C   UNL     1       9.808  10.827 161.491  1.00  0.00     0.004 C 
ENDBRANCH  10  11
ENDBRANCH   9  10
ENDBRANCH   8   9
ENDBRANCH   7   8
ENDBRANCH   6   7
ENDBRANCH   5   6
ENDBRANCH   4   5
ENDBRANCH   3   4
ENDBRANCH   2   3
ENDBRANCH   1   2
BRANCH   1  13
ATOM     13  C   UNL     1      11.137  17.655 160.940  1.00  0.00     0.000 C 
BRANCH  13  14
ATOM     14  C   UNL     1      11.350  17.734 162.459  1.00  0.00     0.000 C 
BRANCH  14  15
ATOM     15  C   UNL     1      10.746  19.024 163.028  1.00  0.00     0.000 C 
BRANCH  15  16
ATOM     16  C   UNL     1       9.826  18.728 164.221  1.00  0.00     0.000 C 
BRANCH  16  17
ATOM     17  C   UNL     1       9.825  17.239 164.603  1.00  0.00     0.000 C 
BRANCH  17  18
ATOM     18  C   UNL     1       9.028  16.959 165.888  1.00  0.00     0.000 C 
BRANCH  18  19
ATOM     19  C   UNL     1       8.063  18.100 166.254  1.00  0.00     0.000 C 
BRANCH  19  20
ATOM     20  C   UNL     1       7.400  17.929 167.638  1.00  0.00     0.006 C 
BRANCH  20  21
ATOM     21  C   UNL     1       6.576  16.639 167.765  1.00  0.00     0.053 C 
BRANCH  21  22
ATOM     22  C   UNL     1       7.152  15.708 168.788  1.00  0.00     0.041 C 
ATOM     23  O   UNL     1       8.095  14.933 168.479  1.00  0.00    -0.550 OA
ATOM     24  O   UNL     1       6.643  15.691 170.081  1.00  0.00    -0.550 OA
ENDBRANCH  21  22
ENDBRANCH  20  21
ENDBRANCH  19  20
ENDBRANCH  18  19
ENDBRANCH  17  18
ENDBRANCH  16  17
ENDBRANCH  15  16
ENDBRANCH  14  15
ENDBRANCH  13  14
ENDBRANCH   1  13
TORSDOF 20
ENDMDL
MODEL 6
REMARK VINA RESULT:    -4.717      1.142      2.900
REMARK INTER + INTRA:         -13.384
REMARK INTER:                 -10.518
REMARK INTRA:                  -2.866
REMARK UNBOUND:                -3.151
REMARK SMILES CCCCCCCCCCCCCCCCCCCCCC(=O)[O-]
REMARK SMILES IDX 12 1 11 2 10 3 9 4 8 5 7 6 6 7 5 8 4 9 3 10 2 11 1 12 13 13
REMARK SMILES IDX 14 14 15 15 16 16 17 17 18 18 19 19 20 20 21 21 22 22 23 23
REMARK SMILES IDX 24 24
REMARK H PARENT
REMARK Flexibility Score: inf
ROOT
ATOM      1  C   UNL     1      11.689  14.188 164.861  1.00  0.00     0.000 C 
ENDROOT
BRANCH   1   2
ATOM      2  C   UNL     1      12.737  13.627 163.881  1.00  0.00     0.000 C 
BRANCH   2   3
ATOM      3  C   UNL     1      13.887  14.613 163.607  1.00  0.00     0.000 C 
BRANCH   3   4
ATOM      4  C   UNL     1      13.676  15.441 162.327  1.00  0.00    -0.000 C 
BRANCH   4   5
ATOM      5  C   UNL     1      13.612  14.626 161.023  1.00  0.00    -0.000 C 
BRANCH   5   6
ATOM      6  C   UNL     1      12.860  15.357 159.897  1.00  0.00    -0.000 C 
BRANCH   6   7
ATOM      7  C   UNL     1      11.603  16.089 160.397  1.00  0.00    -0.000 C 
BRANCH   7   8
ATOM      8  C   UNL     1      10.304  15.258 160.355  1.00  0.00    -0.000 C 
BRANCH   8   9
ATOM      9  C   UNL     1       9.687  14.995 161.744  1.00  0.00    -0.000 C 
BRANCH   9  10
ATOM     10  C   UNL     1       9.577  13.491 162.058  1.00  0.00    -0.000 C 
BRANCH  10  11
ATOM     11  C   UNL     1      10.513  12.633 161.193  1.00  0.00    -0.003 C 
ATOM     12  C   UNL     1      10.150  11.149 161.215  1.00  0.00     0.004 C 
ENDBRANCH  10  11
ENDBRANCH   9  10
ENDBRANCH   8   9
ENDBRANCH   7   8
ENDBRANCH   6   7
ENDBRANCH   5   6
ENDBRANCH   4   5
ENDBRANCH   3   4
ENDBRANCH   2   3
ENDBRANCH   1   2
BRANCH   1  13
ATOM     13  C   UNL     1      11.787  15.703 165.117  1.00  0.00     0.000 C 
BRANCH  13  14
ATOM     14  C   UNL     1      10.455  16.437 164.900  1.00  0.00     0.000 C 
BRANCH  14  15
ATOM     15  C   UNL     1      10.634  17.621 163.942  1.00  0.00     0.000 C 
BRANCH  15  16
ATOM     16  C   UNL     1       9.669  18.765 164.285  1.00  0.00     0.000 C 
BRANCH  16  17
ATOM     17  C   UNL     1       8.715  18.400 165.434  1.00  0.00     0.000 C 
BRANCH  17  18
ATOM     18  C   UNL     1       7.346  19.088 165.306  1.00  0.00     0.000 C 
BRANCH  18  19
ATOM     19  C   UNL     1       6.253  18.405 166.145  1.00  0.00     0.000 C 
BRANCH  19  20
ATOM     20  C   UNL     1       6.335  16.863 166.131  1.00  0.00     0.006 C 
BRANCH  20  21
ATOM     21  C   UNL     1       5.938  16.218 167.468  1.00  0.00     0.053 C 
BRANCH  21  22
ATOM     22  C   UNL     1       7.138  15.821 168.273  1.00  0.00     0.041 C 
ATOM     23  O   UNL     1       7.012  15.519 169.489  1.00  0.00    -0.550 OA
ATOM     24  O   UNL     1       8.395  15.790 167.682  1.00  0.00    -0.550 OA
ENDBRANCH  21  22
ENDBRANCH  20  21
ENDBRANCH  19  20
ENDBRANCH  18  19
ENDBRANCH  17  18
ENDBRANCH  16  17
ENDBRANCH  15  16
ENDBRANCH  14  15
ENDBRANCH  13  14
ENDBRANCH   1  13
TORSDOF 20
ENDMDL
MODEL 7
REMARK VINA RESULT:    -4.686      1.642      3.352
REMARK INTER + INTRA:         -13.316
REMARK INTER:                 -10.893
REMARK INTRA:                  -2.423
REMARK UNBOUND:                -3.151
REMARK SMILES CCCCCCCCCCCCCCCCCCCCCC(=O)[O-]
REMARK SMILES IDX 12 1 11 2 10 3 9 4 8 5 7 6 6 7 5 8 4 9 3 10 2 11 1 12 13 13
REMARK SMILES IDX 14 14 15 15 16 16 17 17 18 18 19 19 20 20 21 21 22 22 23 23
REMARK SMILES IDX 24 24
REMARK H PARENT
REMARK Flexibility Score: inf
ROOT
ATOM      1  C   UNL     1      12.715  15.140 160.337  1.00  0.00     0.000 C 
ENDROOT
BRANCH   1   2
ATOM      2  C   UNL     1      13.714  15.309 161.499  1.00  0.00     0.000 C 
BRANCH   2   3
ATOM      3  C   UNL     1      14.127  13.968 162.131  1.00  0.00     0.000 C 
BRANCH   3   4
ATOM      4  C   UNL     1      13.917  13.933 163.656  1.00  0.00    -0.000 C 
BRANCH   4   5
ATOM      5  C   UNL     1      12.780  14.827 164.181  1.00  0.00    -0.000 C 
BRANCH   5   6
ATOM      6  C   UNL     1      11.638  14.025 164.828  1.00  0.00    -0.000 C 
BRANCH   6   7
ATOM      7  C   UNL     1      11.285  12.751 164.042  1.00  0.00    -0.000 C 
BRANCH   7   8
ATOM      8  C   UNL     1      10.477  12.985 162.748  1.00  0.00    -0.000 C 
BRANCH   8   9
ATOM      9  C   UNL     1      11.067  12.280 161.509  1.00  0.00    -0.000 C 
BRANCH   9  10
ATOM     10  C   UNL     1      10.130  11.191 160.956  1.00  0.00    -0.000 C 
BRANCH  10  11
ATOM     11  C   UNL     1       9.695  10.180 162.028  1.00  0.00    -0.003 C 
ATOM     12  C   UNL     1       8.875   9.022 161.459  1.00  0.00     0.004 C 
ENDBRANCH  10  11
ENDBRANCH   9  10
ENDBRANCH   8   9
ENDBRANCH   7   8
ENDBRANCH   6   7
ENDBRANCH   5   6
ENDBRANCH   4   5
ENDBRANCH   3   4
ENDBRANCH   2   3
ENDBRANCH   1   2
BRANCH   1  13
ATOM     13  C   UNL     1      11.391  15.908 160.506  1.00  0.00     0.000 C 
BRANCH  13  14
ATOM     14  C   UNL     1      11.424  17.308 159.873  1.00  0.00     0.000 C 
BRANCH  14  15
ATOM     15  C   UNL     1      11.023  18.377 160.896  1.00  0.00     0.000 C 
BRANCH  15  16
ATOM     16  C   UNL     1      11.483  17.995 162.310  1.00  0.00     0.000 C 
BRANCH  16  17
ATOM     17  C   UNL     1      10.436  18.344 163.380  1.00  0.00     0.000 C 
BRANCH  17  18
ATOM     18  C   UNL     1      10.328  17.268 164.474  1.00  0.00     0.000 C 
BRANCH  18  19
ATOM     19  C   UNL     1       8.976  17.295 165.207  1.00  0.00     0.000 C 
BRANCH  19  20
ATOM     20  C   UNL     1       8.978  16.512 166.538  1.00  0.00     0.006 C 
BRANCH  20  21
ATOM     21  C   UNL     1       8.020  17.092 167.589  1.00  0.00     0.053 C 
BRANCH  21  22
ATOM     22  C   UNL     1       7.033  16.071 168.068  1.00  0.00     0.041 C 
ATOM     23  O   UNL     1       6.199  15.573 167.267  1.00  0.00    -0.550 OA
ATOM     24  O   UNL     1       7.032  15.673 169.399  1.00  0.00    -0.550 OA
ENDBRANCH  21  22
ENDBRANCH  20  21
ENDBRANCH  19  20
ENDBRANCH  18  19
ENDBRANCH  17  18
ENDBRANCH  16  17
ENDBRANCH  15  16
ENDBRANCH  14  15
ENDBRANCH  13  14
ENDBRANCH   1  13
TORSDOF 20
ENDMDL
MODEL 8
REMARK VINA RESULT:    -4.641      1.223      3.415
REMARK INTER + INTRA:         -13.219
REMARK INTER:                 -10.641
REMARK INTRA:                  -2.578
REMARK UNBOUND:                -3.151
REMARK SMILES CCCCCCCCCCCCCCCCCCCCCC(=O)[O-]
REMARK SMILES IDX 12 1 11 2 10 3 9 4 8 5 7 6 6 7 5 8 4 9 3 10 2 11 1 12 13 13
REMARK SMILES IDX 14 14 15 15 16 16 17 17 18 18 19 19 20 20 21 21 22 22 23 23
REMARK SMILES IDX 24 24
REMARK H PARENT
REMARK Flexibility Score: inf
ROOT
ATOM      1  C   UNL     1      10.872  16.354 159.934  1.00  0.00     0.000 C 
ENDROOT
BRANCH   1   2
ATOM      2  C   UNL     1      11.010  15.209 160.956  1.00  0.00     0.000 C 
BRANCH   2   3
ATOM      3  C   UNL     1       9.653  14.729 161.501  1.00  0.00     0.000 C 
BRANCH   3   4
ATOM      4  C   UNL     1       9.729  13.340 162.161  1.00  0.00    -0.000 C 
BRANCH   4   5
ATOM      5  C   UNL     1      11.148  12.766 162.317  1.00  0.00    -0.000 C 
BRANCH   5   6
ATOM      6  C   UNL     1      11.649  12.795 163.771  1.00  0.00    -0.000 C 
BRANCH   6   7
ATOM      7  C   UNL     1      11.628  14.207 164.380  1.00  0.00    -0.000 C 
BRANCH   7   8
ATOM      8  C   UNL     1      13.017  14.830 164.634  1.00  0.00    -0.000 C 
BRANCH   8   9
ATOM      9  C   UNL     1      13.603  15.566 163.411  1.00  0.00    -0.000 C 
BRANCH   9  10
ATOM     10  C   UNL     1      14.497  14.652 162.553  1.00  0.00    -0.000 C 
BRANCH  10  11
ATOM     11  C   UNL     1      15.739  14.157 163.309  1.00  0.00    -0.003 C 
ATOM     12  C   UNL     1      16.996  14.129 162.439  1.00  0.00     0.004 C 
ENDBRANCH  10  11
ENDBRANCH   9  10
ENDBRANCH   8   9
ENDBRANCH   7   8
ENDBRANCH   6   7
ENDBRANCH   5   6
ENDBRANCH   4   5
ENDBRANCH   3   4
ENDBRANCH   2   3
ENDBRANCH   1   2
BRANCH   1  13
ATOM     13  C   UNL     1      11.261  17.746 160.465  1.00  0.00     0.000 C 
BRANCH  13  14
ATOM     14  C   UNL     1      11.411  17.785 161.994  1.00  0.00     0.000 C 
BRANCH  14  15
ATOM     15  C   UNL     1      10.912  19.121 162.557  1.00  0.00     0.000 C 
BRANCH  15  16
ATOM     16  C   UNL     1      10.027  18.907 163.794  1.00  0.00     0.000 C 
BRANCH  16  17
ATOM     17  C   UNL     1      10.125  17.475 164.342  1.00  0.00     0.000 C 
BRANCH  17  18
ATOM     18  C   UNL     1       9.010  17.150 165.349  1.00  0.00     0.000 C 
BRANCH  18  19
ATOM     19  C   UNL     1       8.219  18.394 165.787  1.00  0.00     0.000 C 
BRANCH  19  20
ATOM     20  C   UNL     1       6.873  18.064 166.469  1.00  0.00     0.006 C 
BRANCH  20  21
ATOM     21  C   UNL     1       7.015  17.701 167.955  1.00  0.00     0.053 C 
BRANCH  21  22
ATOM     22  C   UNL     1       6.768  16.244 168.200  1.00  0.00     0.041 C 
ATOM     23  O   UNL     1       6.327  15.513 167.274  1.00  0.00    -0.550 OA
ATOM     24  O   UNL     1       7.018  15.695 169.451  1.00  0.00    -0.550 OA
ENDBRANCH  21  22
ENDBRANCH  20  21
ENDBRANCH  19  20
ENDBRANCH  18  19
ENDBRANCH  17  18
ENDBRANCH  16  17
ENDBRANCH  15  16
ENDBRANCH  14  15
ENDBRANCH  13  14
ENDBRANCH   1  13
TORSDOF 20
ENDMDL
MODEL 9
REMARK VINA RESULT:    -4.608      3.028      6.734
REMARK INTER + INTRA:         -13.148
REMARK INTER:                 -10.361
REMARK INTRA:                  -2.787
REMARK UNBOUND:                -3.151
REMARK SMILES CCCCCCCCCCCCCCCCCCCCCC(=O)[O-]
REMARK SMILES IDX 12 1 11 2 10 3 9 4 8 5 7 6 6 7 5 8 4 9 3 10 2 11 1 12 13 13
REMARK SMILES IDX 14 14 15 15 16 16 17 17 18 18 19 19 20 20 21 21 22 22 23 23
REMARK SMILES IDX 24 24
REMARK H PARENT
REMARK Flexibility Score: inf
ROOT
ATOM      1  C   UNL     1      14.144  16.457 163.250  1.00  0.00     0.000 C 
ENDROOT
BRANCH   1   2
ATOM      2  C   UNL     1      12.890  16.881 164.040  1.00  0.00     0.000 C 
BRANCH   2   3
ATOM      3  C   UNL     1      12.443  15.824 165.064  1.00  0.00     0.000 C 
BRANCH   3   4
ATOM      4  C   UNL     1      10.914  15.754 165.227  1.00  0.00    -0.000 C 
BRANCH   4   5
ATOM      5  C   UNL     1      10.142  16.975 164.695  1.00  0.00    -0.000 C 
BRANCH   5   6
ATOM      6  C   UNL     1       8.915  17.326 165.553  1.00  0.00    -0.000 C 
BRANCH   6   7
ATOM      7  C   UNL     1       8.449  18.779 165.360  1.00  0.00    -0.000 C 
BRANCH   7   8
ATOM      8  C   UNL     1       7.009  19.071 165.830  1.00  0.00    -0.000 C 
BRANCH   8   9
ATOM      9  C   UNL     1       6.648  18.413 167.178  1.00  0.00    -0.000 C 
BRANCH   9  10
ATOM     10  C   UNL     1       5.588  17.307 167.022  1.00  0.00    -0.000 C 
BRANCH  10  11
ATOM     11  C   UNL     1       6.063  15.949 167.558  1.00  0.00    -0.003 C 
ATOM     12  C   UNL     1       7.321  16.055 168.420  1.00  0.00     0.004 C 
ENDBRANCH  10  11
ENDBRANCH   9  10
ENDBRANCH   8   9
ENDBRANCH   7   8
ENDBRANCH   6   7
ENDBRANCH   5   6
ENDBRANCH   4   5
ENDBRANCH   3   4
ENDBRANCH   2   3
ENDBRANCH   1   2
BRANCH   1  13
ATOM     13  C   UNL     1      14.231  14.952 162.936  1.00  0.00     0.000 C 
BRANCH  13  14
ATOM     14  C   UNL     1      13.858  14.620 161.482  1.00  0.00     0.000 C 
BRANCH  14  15
ATOM     15  C   UNL     1      12.815  13.497 161.431  1.00  0.00     0.000 C 
BRANCH  15  16
ATOM     16  C   UNL     1      12.389  13.068 162.842  1.00  0.00     0.000 C 
BRANCH  16  17
ATOM     17  C   UNL     1      10.879  12.803 162.941  1.00  0.00     0.000 C 
BRANCH  17  18
ATOM     18  C   UNL     1      10.119  13.237 161.677  1.00  0.00     0.000 C 
BRANCH  18  19
ATOM     19  C   UNL     1       9.555  14.664 161.779  1.00  0.00     0.000 C 
BRANCH  19  20
ATOM     20  C   UNL     1      10.144  15.638 160.735  1.00  0.00     0.006 C 
BRANCH  20  21
ATOM     21  C   UNL     1      10.914  16.811 161.362  1.00  0.00     0.053 C 
BRANCH  21  22
ATOM     22  C   UNL     1      11.262  17.856 160.346  1.00  0.00     0.041 C 
ATOM     23  O   UNL     1      11.253  19.074 160.663  1.00  0.00    -0.550 OA
ATOM     24  O   UNL     1      11.588  17.484 159.047  1.00  0.00    -0.550 OA
ENDBRANCH  21  22
ENDBRANCH  20  21
ENDBRANCH  19  20
ENDBRANCH  18  19
ENDBRANCH  17  18
ENDBRANCH  16  17
ENDBRANCH  15  16
ENDBRANCH  14  15
ENDBRANCH  13  14
ENDBRANCH   1  13
TORSDOF 20
ENDMDL
