MODEL 1
REMARK VINA RESULT:    -6.053      0.000      0.000
REMARK INTER + INTRA:          -6.443
REMARK INTER:                  -6.584
REMARK INTRA:                   0.141
REMARK UNBOUND:                 0.141
REMARK SMILES C[C@@H]1[C@@H](C)CC[C@]2(C(=O)[O-])CC[C@@]3(C)C(=CC[C@H]4[C@]5(C)CC[C@H](O)C(C)(C)[C@@H]5CC[C@@]43C)[C@@H]12
REMARK SMILES IDX 7 1 6 2 11 3 33 4 5 5 12 6 15 7 2 8 3 9 13 10 16 11 1 12
REMARK SMILES IDX 4 13 14 14 31 15 17 16 18 17 30 18 32 19 19 20 29 21 28 22
REMARK SMILES IDX 21 23 20 24 25 25 22 26 23 27 26 28 27 29 8 30 9 31 10 32
REMARK SMILES IDX 24 33
REMARK H PARENT 24 34
REMARK Flexibility Score: inf
ROOT
ATOM      1  C   UNL     1      45.571  20.462  77.092  1.00  0.00     0.017 C 
ATOM      2  C   UNL     1      46.372  19.470  76.213  1.00  0.00     0.014 C 
ATOM      3  C   UNL     1      44.892  19.658  78.267  1.00  0.00     0.014 C 
ATOM      4  C   UNL     1      44.469  21.151  76.215  1.00  0.00     0.030 C 
ATOM      5  C   UNL     1      47.004  20.164  75.009  1.00  0.00     0.004 C 
ATOM      6  C   UNL     1      43.391  19.965  78.497  1.00  0.00     0.013 C 
ATOM      7  C   UNL     1      43.646  22.080  77.131  1.00  0.00    -0.063 C 
ATOM      8  C   UNL     1      44.972  21.737  74.842  1.00  0.00    -0.003 C 
ATOM      9  C   UNL     1      45.924  20.747  74.091  1.00  0.00    -0.011 C 
ATOM     10  C   UNL     1      43.040  21.490  78.400  1.00  0.00    -0.006 C 
ATOM     11  C   UNL     1      43.346  23.363  76.823  1.00  0.00    -0.027 C 
ATOM     12  C   UNL     1      43.764  22.033  73.908  1.00  0.00     0.008 C 
ATOM     13  C   UNL     1      46.603  21.409  72.876  1.00  0.00     0.008 C 
ATOM     14  C   UNL     1      43.738  22.174  79.629  1.00  0.00     0.017 C 
ATOM     15  C   UNL     1      41.464  21.773  78.333  1.00  0.00    -0.020 C 
ATOM     16  C   UNL     1      42.256  24.155  77.518  1.00  0.00     0.032 C 
ATOM     17  C   UNL     1      41.243  23.331  78.406  1.00  0.00     0.006 C 
ATOM     18  C   UNL     1      40.719  21.093  79.517  1.00  0.00     0.008 C 
ATOM     19  C   UNL     1      40.869  21.184  77.009  1.00  0.00     0.012 C 
ATOM     20  C   UNL     1      39.732  23.833  78.342  1.00  0.00    -0.025 C 
ATOM     21  C   UNL     1      39.494  21.850  80.067  1.00  0.00     0.005 C 
ATOM     22  C   UNL     1      38.750  22.812  79.090  1.00  0.00     0.003 C 
ATOM     23  C   UNL     1      39.664  25.255  79.009  1.00  0.00     0.010 C 
ATOM     24  C   UNL     1      39.276  24.017  76.854  1.00  0.00     0.012 C 
ATOM     25  C   UNL     1      37.516  23.514  79.818  1.00  0.00    -0.006 C 
ATOM     26  C   UNL     1      39.381  25.211  80.506  1.00  0.00     0.033 C 
ATOM     27  C   UNL     1      37.987  24.644  80.820  1.00  0.00     0.120 C 
ATOM     28  C   UNL     1      36.642  22.461  80.564  1.00  0.00     0.014 C 
ATOM     29  C   UNL     1      36.548  24.132  78.770  1.00  0.00     0.014 C 
ENDROOT
BRANCH   1  30
ATOM     30  C   UNL     1      46.553  21.477  77.680  1.00  0.00     0.048 C 
ATOM     31  O   UNL     1      47.141  21.224  78.767  1.00  0.00    -0.550 OA
ATOM     32  O   UNL     1      46.838  22.672  77.031  1.00  0.00    -0.550 OA
ENDBRANCH   1  30
BRANCH  27  33
ATOM     33  O   UNL     1      38.014  24.184  82.152  1.00  0.00    -0.393 OA
ATOM     34  H   UNL     1      38.964  24.016  82.396  1.00  0.00     0.210 HD
ENDBRANCH  27  33
TORSDOF 2
ENDMDL
MODEL 2
REMARK VINA RESULT:    -6.015     14.052     16.151
REMARK INTER + INTRA:          -6.401
REMARK INTER:                  -6.539
REMARK INTRA:                   0.138
REMARK UNBOUND:                 0.141
REMARK SMILES C[C@@H]1[C@@H](C)CC[C@]2(C(=O)[O-])CC[C@@]3(C)C(=CC[C@H]4[C@]5(C)CC[C@H](O)C(C)(C)[C@@H]5CC[C@@]43C)[C@@H]12
REMARK SMILES IDX 7 1 6 2 11 3 33 4 5 5 12 6 15 7 2 8 3 9 13 10 16 11 1 12
REMARK SMILES IDX 4 13 14 14 31 15 17 16 18 17 30 18 32 19 19 20 29 21 28 22
REMARK SMILES IDX 21 23 20 24 25 25 22 26 23 27 26 28 27 29 8 30 9 31 10 32
REMARK SMILES IDX 24 33
REMARK H PARENT 24 34
REMARK Flexibility Score: inf
ROOT
ATOM      1  C   UNL     1      50.110  33.702  86.818  1.00  0.00     0.017 C 
ATOM      2  C   UNL     1      50.825  35.075  86.771  1.00  0.00     0.014 C 
ATOM      3  C   UNL     1      48.586  33.939  87.148  1.00  0.00     0.014 C 
ATOM      4  C   UNL     1      50.764  32.820  87.936  1.00  0.00     0.030 C 
ATOM      5  C   UNL     1      52.324  34.924  86.525  1.00  0.00     0.004 C 
ATOM      6  C   UNL     1      48.003  33.035  88.263  1.00  0.00     0.013 C 
ATOM      7  C   UNL     1      49.989  31.488  88.005  1.00  0.00    -0.063 C 
ATOM      8  C   UNL     1      52.337  32.749  87.903  1.00  0.00    -0.003 C 
ATOM      9  C   UNL     1      52.987  34.154  87.672  1.00  0.00    -0.011 C 
ATOM     10  C   UNL     1      48.473  31.543  88.172  1.00  0.00    -0.006 C 
ATOM     11  C   UNL     1      50.584  30.274  88.026  1.00  0.00    -0.027 C 
ATOM     12  C   UNL     1      52.880  32.191  89.249  1.00  0.00     0.008 C 
ATOM     13  C   UNL     1      54.500  34.052  87.399  1.00  0.00     0.008 C 
ATOM     14  C   UNL     1      47.824  30.963  86.866  1.00  0.00     0.017 C 
ATOM     15  C   UNL     1      48.123  30.688  89.482  1.00  0.00    -0.020 C 
ATOM     16  C   UNL     1      49.876  29.004  88.455  1.00  0.00     0.032 C 
ATOM     17  C   UNL     1      48.495  29.184  89.198  1.00  0.00     0.006 C 
ATOM     18  C   UNL     1      46.611  30.787  89.830  1.00  0.00     0.008 C 
ATOM     19  C   UNL     1      48.921  31.241  90.712  1.00  0.00     0.012 C 
ATOM     20  C   UNL     1      48.234  28.157  90.389  1.00  0.00    -0.025 C 
ATOM     21  C   UNL     1      45.977  29.524  90.447  1.00  0.00     0.005 C 
ATOM     22  C   UNL     1      46.923  28.553  91.220  1.00  0.00     0.003 C 
ATOM     23  C   UNL     1      48.081  26.721  89.766  1.00  0.00     0.010 C 
ATOM     24  C   UNL     1      49.473  28.098  91.346  1.00  0.00     0.012 C 
ATOM     25  C   UNL     1      46.110  27.302  91.785  1.00  0.00    -0.006 C 
ATOM     26  C   UNL     1      46.644  26.365  89.405  1.00  0.00     0.033 C 
ATOM     27  C   UNL     1      45.736  26.276  90.642  1.00  0.00     0.120 C 
ATOM     28  C   UNL     1      44.825  27.770  92.533  1.00  0.00     0.014 C 
ATOM     29  C   UNL     1      46.937  26.569  92.879  1.00  0.00     0.014 C 
ENDROOT
BRANCH   1  30
ATOM     30  C   UNL     1      50.229  33.056  85.436  1.00  0.00     0.048 C 
ATOM     31  O   UNL     1      49.367  33.307  84.550  1.00  0.00    -0.550 OA
ATOM     32  O   UNL     1      51.285  32.212  85.118  1.00  0.00    -0.550 OA
ENDBRANCH   1  30
BRANCH  27  33
ATOM     33  O   UNL     1      44.409  26.447  90.198  1.00  0.00    -0.393 OA
ATOM     34  H   UNL     1      44.441  26.880  89.303  1.00  0.00     0.210 HD
ENDBRANCH  27  33
TORSDOF 2
ENDMDL
MODEL 3
REMARK VINA RESULT:    -5.820     14.277     17.403
REMARK INTER + INTRA:          -6.189
REMARK INTER:                  -6.330
REMARK INTRA:                   0.140
REMARK UNBOUND:                 0.141
REMARK SMILES C[C@@H]1[C@@H](C)CC[C@]2(C(=O)[O-])CC[C@@]3(C)C(=CC[C@H]4[C@]5(C)CC[C@H](O)C(C)(C)[C@@H]5CC[C@@]43C)[C@@H]12
REMARK SMILES IDX 7 1 6 2 11 3 33 4 5 5 12 6 15 7 2 8 3 9 13 10 16 11 1 12
REMARK SMILES IDX 4 13 14 14 31 15 17 16 18 17 30 18 32 19 19 20 29 21 28 22
REMARK SMILES IDX 21 23 20 24 25 25 22 26 23 27 26 28 27 29 8 30 9 31 10 32
REMARK SMILES IDX 24 33
REMARK H PARENT 24 34
REMARK Flexibility Score: inf
ROOT
ATOM      1  C   UNL     1      47.273  27.866  91.155  1.00  0.00     0.017 C 
ATOM      2  C   UNL     1      46.374  27.592  92.387  1.00  0.00     0.014 C 
ATOM      3  C   UNL     1      48.725  27.332  91.462  1.00  0.00     0.014 C 
ATOM      4  C   UNL     1      47.322  29.410  90.888  1.00  0.00     0.030 C 
ATOM      5  C   UNL     1      44.965  28.146  92.193  1.00  0.00     0.004 C 
ATOM      6  C   UNL     1      49.875  28.315  91.132  1.00  0.00     0.013 C 
ATOM      7  C   UNL     1      48.276  29.657  89.701  1.00  0.00    -0.063 C 
ATOM      8  C   UNL     1      45.923  30.133  90.864  1.00  0.00    -0.003 C 
ATOM      9  C   UNL     1      44.999  29.671  92.039  1.00  0.00    -0.011 C 
ATOM     10  C   UNL     1      49.683  29.072  89.773  1.00  0.00    -0.006 C 
ATOM     11  C   UNL     1      47.971  30.446  88.645  1.00  0.00    -0.027 C 
ATOM     12  C   UNL     1      46.109  31.672  90.985  1.00  0.00     0.008 C 
ATOM     13  C   UNL     1      43.557  30.190  91.878  1.00  0.00     0.008 C 
ATOM     14  C   UNL     1      49.809  27.984  88.649  1.00  0.00     0.017 C 
ATOM     15  C   UNL     1      50.700  30.296  89.581  1.00  0.00    -0.020 C 
ATOM     16  C   UNL     1      49.007  30.982  87.677  1.00  0.00     0.032 C 
ATOM     17  C   UNL     1      50.517  30.861  88.123  1.00  0.00     0.006 C 
ATOM     18  C   UNL     1      52.174  29.837  89.773  1.00  0.00     0.008 C 
ATOM     19  C   UNL     1      50.415  31.403  90.652  1.00  0.00     0.012 C 
ATOM     20  C   UNL     1      51.435  32.102  87.727  1.00  0.00    -0.025 C 
ATOM     21  C   UNL     1      53.222  30.553  88.897  1.00  0.00     0.005 C 
ATOM     22  C   UNL     1      52.881  31.995  88.407  1.00  0.00     0.003 C 
ATOM     23  C   UNL     1      51.562  32.132  86.160  1.00  0.00     0.010 C 
ATOM     24  C   UNL     1      50.750  33.449  88.144  1.00  0.00     0.012 C 
ATOM     25  C   UNL     1      54.064  32.582  87.513  1.00  0.00    -0.006 C 
ATOM     26  C   UNL     1      52.748  31.336  85.631  1.00  0.00     0.033 C 
ATOM     27  C   UNL     1      54.095  31.932  86.072  1.00  0.00     0.120 C 
ATOM     28  C   UNL     1      55.440  32.391  88.221  1.00  0.00     0.014 C 
ATOM     29  C   UNL     1      53.924  34.125  87.375  1.00  0.00     0.014 C 
ENDROOT
BRANCH   1  30
ATOM     30  C   UNL     1      46.697  27.097  89.965  1.00  0.00     0.048 C 
ATOM     31  O   UNL     1      47.045  25.902  89.762  1.00  0.00    -0.550 OA
ATOM     32  O   UNL     1      45.770  27.676  89.106  1.00  0.00    -0.550 OA
ENDBRANCH   1  30
BRANCH  27  33
ATOM     33  O   UNL     1      55.055  30.905  85.981  1.00  0.00    -0.393 OA
ATOM     34  H   UNL     1      54.698  30.110  86.461  1.00  0.00     0.210 HD
ENDBRANCH  27  33
TORSDOF 2
ENDMDL
MODEL 4
REMARK VINA RESULT:    -5.762      1.489      7.960
REMARK INTER + INTRA:          -6.127
REMARK INTER:                  -6.268
REMARK INTRA:                   0.141
REMARK UNBOUND:                 0.141
REMARK SMILES C[C@@H]1[C@@H](C)CC[C@]2(C(=O)[O-])CC[C@@]3(C)C(=CC[C@H]4[C@]5(C)CC[C@H](O)C(C)(C)[C@@H]5CC[C@@]43C)[C@@H]12
REMARK SMILES IDX 7 1 6 2 11 3 33 4 5 5 12 6 15 7 2 8 3 9 13 10 16 11 1 12
REMARK SMILES IDX 4 13 14 14 31 15 17 16 18 17 30 18 32 19 19 20 29 21 28 22
REMARK SMILES IDX 21 23 20 24 25 25 22 26 23 27 26 28 27 29 8 30 9 31 10 32
REMARK SMILES IDX 24 33
REMARK H PARENT 24 34
REMARK Flexibility Score: inf
ROOT
ATOM      1  C   UNL     1      38.919  23.230  79.429  1.00  0.00     0.017 C 
ATOM      2  C   UNL     1      37.399  22.940  79.477  1.00  0.00     0.014 C 
ATOM      3  C   UNL     1      39.206  24.214  78.230  1.00  0.00     0.014 C 
ATOM      4  C   UNL     1      39.691  21.884  79.205  1.00  0.00     0.030 C 
ATOM      5  C   UNL     1      37.049  21.936  80.572  1.00  0.00     0.004 C 
ATOM      6  C   UNL     1      40.379  23.805  77.304  1.00  0.00     0.013 C 
ATOM      7  C   UNL     1      41.195  22.211  79.092  1.00  0.00    -0.063 C 
ATOM      8  C   UNL     1      39.270  20.701  80.157  1.00  0.00    -0.003 C 
ATOM      9  C   UNL     1      37.716  20.583  80.300  1.00  0.00    -0.011 C 
ATOM     10  C   UNL     1      41.630  23.263  78.077  1.00  0.00    -0.006 C 
ATOM     11  C   UNL     1      42.160  21.549  79.771  1.00  0.00    -0.027 C 
ATOM     12  C   UNL     1      39.799  19.348  79.602  1.00  0.00     0.008 C 
ATOM     13  C   UNL     1      37.313  19.592  81.409  1.00  0.00     0.008 C 
ATOM     14  C   UNL     1      42.212  24.486  78.870  1.00  0.00     0.017 C 
ATOM     15  C   UNL     1      42.709  22.561  77.121  1.00  0.00    -0.020 C 
ATOM     16  C   UNL     1      43.629  21.608  79.404  1.00  0.00     0.032 C 
ATOM     17  C   UNL     1      43.978  22.214  77.988  1.00  0.00     0.006 C 
ATOM     18  C   UNL     1      43.125  23.504  75.956  1.00  0.00     0.008 C 
ATOM     19  C   UNL     1      42.098  21.270  76.480  1.00  0.00     0.012 C 
ATOM     20  C   UNL     1      45.177  21.493  77.225  1.00  0.00    -0.025 C 
ATOM     21  C   UNL     1      44.589  23.389  75.486  1.00  0.00     0.005 C 
ATOM     22  C   UNL     1      45.311  22.025  75.721  1.00  0.00     0.003 C 
ATOM     23  C   UNL     1      46.500  21.768  78.030  1.00  0.00     0.010 C 
ATOM     24  C   UNL     1      44.972  19.940  77.224  1.00  0.00     0.012 C 
ATOM     25  C   UNL     1      46.812  22.081  75.183  1.00  0.00    -0.006 C 
ATOM     26  C   UNL     1      47.231  23.028  77.582  1.00  0.00     0.033 C 
ATOM     27  C   UNL     1      47.751  22.920  76.139  1.00  0.00     0.120 C 
ATOM     28  C   UNL     1      46.860  22.658  73.736  1.00  0.00     0.014 C 
ATOM     29  C   UNL     1      47.387  20.644  75.034  1.00  0.00     0.014 C 
ENDROOT
BRANCH   1  30
ATOM     30  C   UNL     1      39.318  23.908  80.741  1.00  0.00     0.048 C 
ATOM     31  O   UNL     1      39.237  25.162  80.849  1.00  0.00    -0.550 OA
ATOM     32  O   UNL     1      39.747  23.171  81.837  1.00  0.00    -0.550 OA
ENDBRANCH   1  30
BRANCH  27  33
ATOM     33  O   UNL     1      47.942  24.233  75.666  1.00  0.00    -0.393 OA
ATOM     34  H   UNL     1      47.920  24.204  74.672  1.00  0.00     0.210 HD
ENDBRANCH  27  33
TORSDOF 2
ENDMDL
MODEL 5
REMARK VINA RESULT:    -5.695     14.877     17.647
REMARK INTER + INTRA:          -6.054
REMARK INTER:                  -6.191
REMARK INTRA:                   0.137
REMARK UNBOUND:                 0.141
REMARK SMILES C[C@@H]1[C@@H](C)CC[C@]2(C(=O)[O-])CC[C@@]3(C)C(=CC[C@H]4[C@]5(C)CC[C@H](O)C(C)(C)[C@@H]5CC[C@@]43C)[C@@H]12
REMARK SMILES IDX 7 1 6 2 11 3 33 4 5 5 12 6 15 7 2 8 3 9 13 10 16 11 1 12
REMARK SMILES IDX 4 13 14 14 31 15 17 16 18 17 30 18 32 19 19 20 29 21 28 22
REMARK SMILES IDX 21 23 20 24 25 25 22 26 23 27 26 28 27 29 8 30 9 31 10 32
REMARK SMILES IDX 24 33
REMARK H PARENT 24 34
REMARK Flexibility Score: inf
ROOT
ATOM      1  C   UNL     1      50.336  32.991  86.401  1.00  0.00     0.017 C 
ATOM      2  C   UNL     1      50.020  32.145  87.659  1.00  0.00     0.014 C 
ATOM      3  C   UNL     1      49.457  32.461  85.203  1.00  0.00     0.014 C 
ATOM      4  C   UNL     1      51.856  32.840  86.049  1.00  0.00     0.030 C 
ATOM      5  C   UNL     1      50.886  32.554  88.847  1.00  0.00     0.004 C 
ATOM      6  C   UNL     1      50.220  32.223  83.877  1.00  0.00     0.013 C 
ATOM      7  C   UNL     1      52.126  33.637  84.756  1.00  0.00    -0.063 C 
ATOM      8  C   UNL     1      52.849  33.046  87.255  1.00  0.00    -0.003 C 
ATOM      9  C   UNL     1      52.369  32.306  88.548  1.00  0.00    -0.011 C 
ATOM     10  C   UNL     1      51.255  33.350  83.537  1.00  0.00    -0.006 C 
ATOM     11  C   UNL     1      53.155  34.503  84.610  1.00  0.00    -0.027 C 
ATOM     12  C   UNL     1      54.258  32.499  86.892  1.00  0.00     0.008 C 
ATOM     13  C   UNL     1      53.203  32.701  89.782  1.00  0.00     0.008 C 
ATOM     14  C   UNL     1      50.410  34.638  83.237  1.00  0.00     0.017 C 
ATOM     15  C   UNL     1      52.249  32.957  82.343  1.00  0.00    -0.020 C 
ATOM     16  C   UNL     1      53.641  35.002  83.263  1.00  0.00     0.032 C 
ATOM     17  C   UNL     1      53.118  34.224  81.993  1.00  0.00     0.006 C 
ATOM     18  C   UNL     1      51.461  32.510  81.079  1.00  0.00     0.008 C 
ATOM     19  C   UNL     1      53.157  31.756  82.774  1.00  0.00     0.012 C 
ATOM     20  C   UNL     1      54.190  34.043  80.827  1.00  0.00    -0.025 C 
ATOM     21  C   UNL     1      52.097  32.875  79.723  1.00  0.00     0.005 C 
ATOM     22  C   UNL     1      53.647  33.059  79.686  1.00  0.00     0.003 C 
ATOM     23  C   UNL     1      54.503  35.464  80.231  1.00  0.00     0.010 C 
ATOM     24  C   UNL     1      55.541  33.495  81.403  1.00  0.00     0.012 C 
ATOM     25  C   UNL     1      54.136  33.438  78.216  1.00  0.00    -0.006 C 
ATOM     26  C   UNL     1      53.594  35.847  79.069  1.00  0.00     0.033 C 
ATOM     27  C   UNL     1      53.793  34.936  77.847  1.00  0.00     0.120 C 
ATOM     28  C   UNL     1      53.522  32.467  77.162  1.00  0.00     0.014 C 
ATOM     29  C   UNL     1      55.670  33.217  78.082  1.00  0.00     0.014 C 
ENDROOT
BRANCH   1  30
ATOM     30  C   UNL     1      49.958  34.444  86.696  1.00  0.00     0.048 C 
ATOM     31  O   UNL     1      48.781  34.843  86.479  1.00  0.00    -0.550 OA
ATOM     32  O   UNL     1      50.878  35.340  87.227  1.00  0.00    -0.550 OA
ENDBRANCH   1  30
BRANCH  27  33
ATOM     33  O   UNL     1      52.625  35.029  77.064  1.00  0.00    -0.393 OA
ATOM     34  H   UNL     1      52.669  35.880  76.551  1.00  0.00     0.210 HD
ENDBRANCH  27  33
TORSDOF 2
ENDMDL
MODEL 6
REMARK VINA RESULT:    -5.673      2.071      3.785
REMARK INTER + INTRA:          -6.029
REMARK INTER:                  -6.201
REMARK INTRA:                   0.172
REMARK UNBOUND:                 0.141
REMARK SMILES C[C@@H]1[C@@H](C)CC[C@]2(C(=O)[O-])CC[C@@]3(C)C(=CC[C@H]4[C@]5(C)CC[C@H](O)C(C)(C)[C@@H]5CC[C@@]43C)[C@@H]12
REMARK SMILES IDX 7 1 6 2 11 3 33 4 5 5 12 6 15 7 2 8 3 9 13 10 16 11 1 12
REMARK SMILES IDX 4 13 14 14 31 15 17 16 18 17 30 18 32 19 19 20 29 21 28 22
REMARK SMILES IDX 21 23 20 24 25 25 22 26 23 27 26 28 27 29 8 30 9 31 10 32
REMARK SMILES IDX 24 33
REMARK H PARENT 24 34
REMARK Flexibility Score: inf
ROOT
ATOM      1  C   UNL     1      44.225  22.912  74.373  1.00  0.00     0.017 C 
ATOM      2  C   UNL     1      45.349  23.704  73.660  1.00  0.00     0.014 C 
ATOM      3  C   UNL     1      42.844  23.609  74.065  1.00  0.00     0.014 C 
ATOM      4  C   UNL     1      44.491  22.922  75.918  1.00  0.00     0.030 C 
ATOM      5  C   UNL     1      46.729  23.129  73.969  1.00  0.00     0.004 C 
ATOM      6  C   UNL     1      41.935  23.849  75.296  1.00  0.00     0.013 C 
ATOM      7  C   UNL     1      43.322  22.187  76.606  1.00  0.00    -0.063 C 
ATOM      8  C   UNL     1      45.955  22.535  76.351  1.00  0.00    -0.003 C 
ATOM      9  C   UNL     1      47.038  23.236  75.467  1.00  0.00    -0.011 C 
ATOM     10  C   UNL     1      41.900  22.643  76.296  1.00  0.00    -0.006 C 
ATOM     11  C   UNL     1      43.489  21.227  77.545  1.00  0.00    -0.027 C 
ATOM     12  C   UNL     1      46.208  22.950  77.828  1.00  0.00     0.008 C 
ATOM     13  C   UNL     1      48.449  22.676  75.728  1.00  0.00     0.008 C 
ATOM     14  C   UNL     1      41.175  21.474  75.539  1.00  0.00     0.017 C 
ATOM     15  C   UNL     1      41.215  23.003  77.699  1.00  0.00    -0.020 C 
ATOM     16  C   UNL     1      42.383  20.767  78.474  1.00  0.00     0.032 C 
ATOM     17  C   UNL     1      41.094  21.677  78.540  1.00  0.00     0.006 C 
ATOM     18  C   UNL     1      39.799  23.613  77.494  1.00  0.00     0.008 C 
ATOM     19  C   UNL     1      42.076  24.071  78.457  1.00  0.00     0.012 C 
ATOM     20  C   UNL     1      40.444  21.817  79.989  1.00  0.00    -0.025 C 
ATOM     21  C   UNL     1      38.755  23.271  78.575  1.00  0.00     0.005 C 
ATOM     22  C   UNL     1      39.288  22.925  80.001  1.00  0.00     0.003 C 
ATOM     23  C   UNL     1      39.870  20.413  80.401  1.00  0.00     0.010 C 
ATOM     24  C   UNL     1      41.539  22.180  81.049  1.00  0.00     0.012 C 
ATOM     25  C   UNL     1      38.081  22.592  80.990  1.00  0.00    -0.006 C 
ATOM     26  C   UNL     1      38.419  20.204  79.985  1.00  0.00     0.033 C 
ATOM     27  C   UNL     1      37.461  21.166  80.706  1.00  0.00     0.120 C 
ATOM     28  C   UNL     1      36.976  23.689  80.903  1.00  0.00     0.014 C 
ATOM     29  C   UNL     1      38.559  22.656  82.468  1.00  0.00     0.014 C 
ENDROOT
BRANCH   1  30
ATOM     30  C   UNL     1      44.208  21.492  73.805  1.00  0.00     0.048 C 
ATOM     31  O   UNL     1      43.407  21.198  72.875  1.00  0.00    -0.550 OA
ATOM     32  O   UNL     1      45.077  20.513  74.270  1.00  0.00    -0.550 OA
ENDBRANCH   1  30
BRANCH  27  33
ATOM     33  O   UNL     1      36.290  21.249  79.926  1.00  0.00    -0.393 OA
ATOM     34  H   UNL     1      35.511  21.125  80.532  1.00  0.00     0.210 HD
ENDBRANCH  27  33
TORSDOF 2
ENDMDL
MODEL 7
REMARK VINA RESULT:    -5.639      4.961     10.161
REMARK INTER + INTRA:          -5.993
REMARK INTER:                  -6.133
REMARK INTRA:                   0.141
REMARK UNBOUND:                 0.141
REMARK SMILES C[C@@H]1[C@@H](C)CC[C@]2(C(=O)[O-])CC[C@@]3(C)C(=CC[C@H]4[C@]5(C)CC[C@H](O)C(C)(C)[C@@H]5CC[C@@]43C)[C@@H]12
REMARK SMILES IDX 7 1 6 2 11 3 33 4 5 5 12 6 15 7 2 8 3 9 13 10 16 11 1 12
REMARK SMILES IDX 4 13 14 14 31 15 17 16 18 17 30 18 32 19 19 20 29 21 28 22
REMARK SMILES IDX 21 23 20 24 25 25 22 26 23 27 26 28 27 29 8 30 9 31 10 32
REMARK SMILES IDX 24 33
REMARK H PARENT 24 34
REMARK Flexibility Score: inf
ROOT
ATOM      1  C   UNL     1      45.912  21.193  77.057  1.00  0.00     0.017 C 
ATOM      2  C   UNL     1      44.384  21.439  76.994  1.00  0.00     0.014 C 
ATOM      3  C   UNL     1      46.428  21.594  78.493  1.00  0.00     0.014 C 
ATOM      4  C   UNL     1      46.620  22.077  75.974  1.00  0.00     0.030 C 
ATOM      5  C   UNL     1      43.820  21.139  75.608  1.00  0.00     0.004 C 
ATOM      6  C   UNL     1      47.690  22.491  78.516  1.00  0.00     0.013 C 
ATOM      7  C   UNL     1      48.142  21.863  76.106  1.00  0.00    -0.063 C 
ATOM      8  C   UNL     1      45.994  22.002  74.530  1.00  0.00    -0.003 C 
ATOM      9  C   UNL     1      44.431  22.076  74.559  1.00  0.00    -0.011 C 
ATOM     10  C   UNL     1      48.782  22.064  77.476  1.00  0.00    -0.006 C 
ATOM     11  C   UNL     1      48.957  21.605  75.058  1.00  0.00    -0.027 C 
ATOM     12  C   UNL     1      46.508  23.181  73.658  1.00  0.00     0.008 C 
ATOM     13  C   UNL     1      43.812  21.761  73.184  1.00  0.00     0.008 C 
ATOM     14  C   UNL     1      49.324  20.674  77.963  1.00  0.00     0.017 C 
ATOM     15  C   UNL     1      49.938  23.159  77.287  1.00  0.00    -0.020 C 
ATOM     16  C   UNL     1      50.464  21.755  75.116  1.00  0.00     0.032 C 
ATOM     17  C   UNL     1      51.047  22.543  76.353  1.00  0.00     0.006 C 
ATOM     18  C   UNL     1      50.574  23.546  78.653  1.00  0.00     0.008 C 
ATOM     19  C   UNL     1      49.342  24.466  76.664  1.00  0.00     0.012 C 
ATOM     20  C   UNL     1      52.293  23.481  76.026  1.00  0.00    -0.025 C 
ATOM     21  C   UNL     1      52.079  23.879  78.626  1.00  0.00     0.005 C 
ATOM     22  C   UNL     1      52.672  24.402  77.280  1.00  0.00     0.003 C 
ATOM     23  C   UNL     1      53.504  22.560  75.630  1.00  0.00     0.010 C 
ATOM     24  C   UNL     1      51.992  24.380  74.778  1.00  0.00     0.012 C 
ATOM     25  C   UNL     1      54.234  24.691  77.425  1.00  0.00    -0.006 C 
ATOM     26  C   UNL     1      54.371  22.153  76.816  1.00  0.00     0.033 C 
ATOM     27  C   UNL     1      55.081  23.355  77.459  1.00  0.00     0.120 C 
ATOM     28  C   UNL     1      54.523  25.546  78.696  1.00  0.00     0.014 C 
ATOM     29  C   UNL     1      54.732  25.582  76.252  1.00  0.00     0.014 C 
ENDROOT
BRANCH   1  30
ATOM     30  C   UNL     1      46.164  19.701  76.833  1.00  0.00     0.048 C 
ATOM     31  O   UNL     1      46.154  18.908  77.814  1.00  0.00    -0.550 OA
ATOM     32  O   UNL     1      46.380  19.184  75.561  1.00  0.00    -0.550 OA
ENDBRANCH   1  30
BRANCH  27  33
ATOM     33  O   UNL     1      55.420  22.984  78.775  1.00  0.00    -0.393 OA
ATOM     34  H   UNL     1      56.142  23.594  79.087  1.00  0.00     0.210 HD
ENDBRANCH  27  33
TORSDOF 2
ENDMDL
MODEL 8
REMARK VINA RESULT:    -5.623     14.080     15.756
REMARK INTER + INTRA:          -5.975
REMARK INTER:                  -6.117
REMARK INTRA:                   0.142
REMARK UNBOUND:                 0.141
REMARK SMILES C[C@@H]1[C@@H](C)CC[C@]2(C(=O)[O-])CC[C@@]3(C)C(=CC[C@H]4[C@]5(C)CC[C@H](O)C(C)(C)[C@@H]5CC[C@@]43C)[C@@H]12
REMARK SMILES IDX 7 1 6 2 11 3 33 4 5 5 12 6 15 7 2 8 3 9 13 10 16 11 1 12
REMARK SMILES IDX 4 13 14 14 31 15 17 16 18 17 30 18 32 19 19 20 29 21 28 22
REMARK SMILES IDX 21 23 20 24 25 25 22 26 23 27 26 28 27 29 8 30 9 31 10 32
REMARK SMILES IDX 24 33
REMARK H PARENT 24 34
REMARK Flexibility Score: inf
ROOT
ATOM      1  C   UNL     1      52.629  32.296  87.521  1.00  0.00     0.017 C 
ATOM      2  C   UNL     1      53.771  32.380  86.478  1.00  0.00     0.014 C 
ATOM      3  C   UNL     1      52.933  31.101  88.506  1.00  0.00     0.014 C 
ATOM      4  C   UNL     1      51.273  32.037  86.778  1.00  0.00     0.030 C 
ATOM      5  C   UNL     1      53.512  33.473  85.444  1.00  0.00     0.004 C 
ATOM      6  C   UNL     1      51.746  30.141  88.767  1.00  0.00     0.013 C 
ATOM      7  C   UNL     1      50.167  31.890  87.844  1.00  0.00    -0.063 C 
ATOM      8  C   UNL     1      50.986  32.986  85.554  1.00  0.00    -0.003 C 
ATOM      9  C   UNL     1      52.243  33.168  84.640  1.00  0.00    -0.011 C 
ATOM     10  C   UNL     1      50.376  30.875  88.964  1.00  0.00    -0.006 C 
ATOM     11  C   UNL     1      48.980  32.536  87.788  1.00  0.00    -0.027 C 
ATOM     12  C   UNL     1      49.842  32.403  84.676  1.00  0.00     0.008 C 
ATOM     13  C   UNL     1      52.037  34.276  83.589  1.00  0.00     0.008 C 
ATOM     14  C   UNL     1      50.499  31.667  90.313  1.00  0.00     0.017 C 
ATOM     15  C   UNL     1      49.116  29.885  88.928  1.00  0.00    -0.020 C 
ATOM     16  C   UNL     1      47.770  32.132  88.607  1.00  0.00     0.032 C 
ATOM     17  C   UNL     1      47.830  30.715  89.300  1.00  0.00     0.006 C 
ATOM     18  C   UNL     1      49.288  28.720  89.944  1.00  0.00     0.008 C 
ATOM     19  C   UNL     1      48.978  29.245  87.505  1.00  0.00     0.012 C 
ATOM     20  C   UNL     1      46.452  29.913  89.311  1.00  0.00    -0.025 C 
ATOM     21  C   UNL     1      47.994  28.211  90.611  1.00  0.00     0.005 C 
ATOM     22  C   UNL     1      46.659  28.412  89.829  1.00  0.00     0.003 C 
ATOM     23  C   UNL     1      45.448  30.687  90.242  1.00  0.00     0.010 C 
ATOM     24  C   UNL     1      45.813  29.899  87.880  1.00  0.00     0.012 C 
ATOM     25  C   UNL     1      45.425  27.837  90.660  1.00  0.00    -0.006 C 
ATOM     26  C   UNL     1      45.497  30.234  91.696  1.00  0.00     0.033 C 
ATOM     27  C   UNL     1      45.038  28.778  91.871  1.00  0.00     0.120 C 
ATOM     28  C   UNL     1      45.726  26.395  91.172  1.00  0.00     0.014 C 
ATOM     29  C   UNL     1      44.186  27.657  89.737  1.00  0.00     0.014 C 
ENDROOT
BRANCH   1  30
ATOM     30  C   UNL     1      52.608  33.605  88.312  1.00  0.00     0.048 C 
ATOM     31  O   UNL     1      53.302  33.716  89.359  1.00  0.00    -0.550 OA
ATOM     32  O   UNL     1      51.858  34.696  87.891  1.00  0.00    -0.550 OA
ENDBRANCH   1  30
BRANCH  27  33
ATOM     33  O   UNL     1      45.577  28.314  93.087  1.00  0.00    -0.393 OA
ATOM     34  H   UNL     1      46.499  27.988  92.908  1.00  0.00     0.210 HD
ENDBRANCH  27  33
TORSDOF 2
ENDMDL
MODEL 9
REMARK VINA RESULT:    -5.609      3.413      8.961
REMARK INTER + INTRA:          -5.960
REMARK INTER:                  -6.098
REMARK INTRA:                   0.138
REMARK UNBOUND:                 0.141
REMARK SMILES C[C@@H]1[C@@H](C)CC[C@]2(C(=O)[O-])CC[C@@]3(C)C(=CC[C@H]4[C@]5(C)CC[C@H](O)C(C)(C)[C@@H]5CC[C@@]43C)[C@@H]12
REMARK SMILES IDX 7 1 6 2 11 3 33 4 5 5 12 6 15 7 2 8 3 9 13 10 16 11 1 12
REMARK SMILES IDX 4 13 14 14 31 15 17 16 18 17 30 18 32 19 19 20 29 21 28 22
REMARK SMILES IDX 21 23 20 24 25 25 22 26 23 27 26 28 27 29 8 30 9 31 10 32
REMARK SMILES IDX 24 33
REMARK H PARENT 24 34
REMARK Flexibility Score: inf
ROOT
ATOM      1  C   UNL     1      42.971  22.061  75.046  1.00  0.00     0.017 C 
ATOM      2  C   UNL     1      41.676  21.213  75.002  1.00  0.00     0.014 C 
ATOM      3  C   UNL     1      43.898  21.627  73.846  1.00  0.00     0.014 C 
ATOM      4  C   UNL     1      43.708  21.803  76.405  1.00  0.00     0.030 C 
ATOM      5  C   UNL     1      40.754  21.527  76.178  1.00  0.00     0.004 C 
ATOM      6  C   UNL     1      45.378  21.362  74.216  1.00  0.00     0.013 C 
ATOM      7  C   UNL     1      45.025  22.606  76.392  1.00  0.00    -0.063 C 
ATOM      8  C   UNL     1      42.803  21.905  77.691  1.00  0.00    -0.003 C 
ATOM      9  C   UNL     1      41.432  21.174  77.507  1.00  0.00    -0.011 C 
ATOM     10  C   UNL     1      45.974  22.415  75.213  1.00  0.00    -0.006 C 
ATOM     11  C   UNL     1      45.434  23.395  77.412  1.00  0.00    -0.027 C 
ATOM     12  C   UNL     1      43.524  21.260  78.909  1.00  0.00     0.008 C 
ATOM     13  C   UNL     1      40.458  21.476  78.662  1.00  0.00     0.008 C 
ATOM     14  C   UNL     1      46.040  23.770  74.424  1.00  0.00     0.017 C 
ATOM     15  C   UNL     1      47.388  21.975  75.827  1.00  0.00    -0.020 C 
ATOM     16  C   UNL     1      46.859  23.886  77.569  1.00  0.00     0.032 C 
ATOM     17  C   UNL     1      47.950  23.179  76.673  1.00  0.00     0.006 C 
ATOM     18  C   UNL     1      48.403  21.618  74.703  1.00  0.00     0.008 C 
ATOM     19  C   UNL     1      47.212  20.698  76.717  1.00  0.00     0.012 C 
ATOM     20  C   UNL     1      49.356  22.944  77.386  1.00  0.00    -0.025 C 
ATOM     21  C   UNL     1      49.877  21.964  74.992  1.00  0.00     0.005 C 
ATOM     22  C   UNL     1      50.317  22.031  76.488  1.00  0.00     0.003 C 
ATOM     23  C   UNL     1      50.011  24.350  77.645  1.00  0.00     0.010 C 
ATOM     24  C   UNL     1      49.155  22.281  78.792  1.00  0.00     0.012 C 
ATOM     25  C   UNL     1      51.864  22.404  76.606  1.00  0.00    -0.006 C 
ATOM     26  C   UNL     1      50.894  24.828  76.498  1.00  0.00     0.033 C 
ATOM     27  C   UNL     1      52.127  23.933  76.298  1.00  0.00     0.120 C 
ATOM     28  C   UNL     1      52.723  21.508  75.663  1.00  0.00     0.014 C 
ATOM     29  C   UNL     1      52.394  22.070  78.029  1.00  0.00     0.014 C 
ENDROOT
BRANCH   1  30
ATOM     30  C   UNL     1      42.584  23.531  74.875  1.00  0.00     0.048 C 
ATOM     31  O   UNL     1      42.434  24.010  73.718  1.00  0.00    -0.550 OA
ATOM     32  O   UNL     1      42.365  24.357  75.971  1.00  0.00    -0.550 OA
ENDBRANCH   1  30
BRANCH  27  33
ATOM     33  O   UNL     1      52.577  24.132  74.978  1.00  0.00    -0.393 OA
ATOM     34  H   UNL     1      51.813  24.481  74.446  1.00  0.00     0.210 HD
ENDBRANCH  27  33
TORSDOF 2
ENDMDL
