MODEL 1
REMARK VINA RESULT:    -5.470      0.000      0.000
REMARK INTER + INTRA:         -11.517
REMARK INTER:                  -9.948
REMARK INTRA:                  -1.569
REMARK UNBOUND:                -1.569
REMARK SMILES CCCCCCCCCCCCCCCC(=O)[O-]
REMARK SMILES IDX 9 1 10 2 11 3 12 4 13 5 14 6 15 7 16 8 17 9 18 10 8 11 7 12
REMARK SMILES IDX 6 13 5 14 4 15 3 16 2 17 1 18
REMARK H PARENT
REMARK Flexibility Score: inf
ROOT
ATOM      1  C   UNL     1     -18.503  56.701  -3.423  1.00  0.00     0.000 C 
ENDROOT
BRANCH   1   2
ATOM      2  C   UNL     1     -19.635  55.702  -3.099  1.00  0.00     0.000 C 
BRANCH   2   3
ATOM      3  C   UNL     1     -21.029  56.305  -3.352  1.00  0.00     0.000 C 
BRANCH   3   4
ATOM      4  C   UNL     1     -22.163  55.427  -2.795  1.00  0.00     0.000 C 
BRANCH   4   5
ATOM      5  C   UNL     1     -22.106  55.292  -1.265  1.00  0.00     0.000 C 
BRANCH   5   6
ATOM      6  C   UNL     1     -21.971  53.831  -0.806  1.00  0.00     0.006 C 
BRANCH   6   7
ATOM      7  C   UNL     1     -20.536  53.466  -0.401  1.00  0.00     0.053 C 
BRANCH   7   8
ATOM      8  C   UNL     1     -20.050  52.294  -1.196  1.00  0.00     0.041 C 
ATOM      9  O   UNL     1     -19.970  51.155  -0.662  1.00  0.00    -0.550 OA
ATOM     10  O   UNL     1     -19.622  52.473  -2.506  1.00  0.00    -0.550 OA
ENDBRANCH   7   8
ENDBRANCH   6   7
ENDBRANCH   5   6
ENDBRANCH   4   5
ENDBRANCH   3   4
ENDBRANCH   2   3
ENDBRANCH   1   2
BRANCH   1  11
ATOM     11  C   UNL     1     -17.166  56.360  -2.743  1.00  0.00     0.000 C 
BRANCH  11  12
ATOM     12  C   UNL     1     -17.214  55.042  -1.957  1.00  0.00    -0.000 C 
BRANCH  12  13
ATOM     13  C   UNL     1     -16.977  55.254  -0.450  1.00  0.00    -0.000 C 
BRANCH  13  14
ATOM     14  C   UNL     1     -18.061  56.122   0.226  1.00  0.00    -0.000 C 
BRANCH  14  15
ATOM     15  C   UNL     1     -17.553  57.501   0.688  1.00  0.00    -0.000 C 
BRANCH  15  16
ATOM     16  C   UNL     1     -16.035  57.578   0.930  1.00  0.00    -0.000 C 
BRANCH  16  17
ATOM     17  C   UNL     1     -15.440  58.940   0.542  1.00  0.00    -0.003 C 
ATOM     18  C   UNL     1     -14.072  59.144   1.189  1.00  0.00     0.004 C 
ENDBRANCH  16  17
ENDBRANCH  15  16
ENDBRANCH  14  15
ENDBRANCH  13  14
ENDBRANCH  12  13
ENDBRANCH  11  12
ENDBRANCH   1  11
TORSDOF 14
ENDMDL
MODEL 2
REMARK VINA RESULT:    -5.352      2.241      2.680
REMARK INTER + INTRA:         -11.302
REMARK INTER:                  -9.758
REMARK INTRA:                  -1.544
REMARK UNBOUND:                -1.569
REMARK SMILES CCCCCCCCCCCCCCCC(=O)[O-]
REMARK SMILES IDX 9 1 10 2 11 3 12 4 13 5 14 6 15 7 16 8 17 9 18 10 8 11 7 12
REMARK SMILES IDX 6 13 5 14 4 15 3 16 2 17 1 18
REMARK H PARENT
REMARK Flexibility Score: inf
ROOT
ATOM      1  C   UNL     1     -18.213  55.491  -3.630  1.00  0.00     0.000 C 
ENDROOT
BRANCH   1   2
ATOM      2  C   UNL     1     -19.485  56.279  -3.249  1.00  0.00     0.000 C 
BRANCH   2   3
ATOM      3  C   UNL     1     -20.677  55.350  -2.953  1.00  0.00     0.000 C 
BRANCH   3   4
ATOM      4  C   UNL     1     -20.237  53.966  -2.447  1.00  0.00     0.000 C 
BRANCH   4   5
ATOM      5  C   UNL     1     -20.970  53.547  -1.162  1.00  0.00     0.000 C 
BRANCH   5   6
ATOM      6  C   UNL     1     -22.433  54.018  -1.137  1.00  0.00     0.006 C 
BRANCH   6   7
ATOM      7  C   UNL     1     -22.685  55.120  -0.100  1.00  0.00     0.053 C 
BRANCH   7   8
ATOM      8  C   UNL     1     -23.882  54.787   0.736  1.00  0.00     0.041 C 
ATOM      9  O   UNL     1     -24.978  55.378   0.538  1.00  0.00    -0.550 OA
ATOM     10  O   UNL     1     -23.770  53.874   1.777  1.00  0.00    -0.550 OA
ENDBRANCH   7   8
ENDBRANCH   6   7
ENDBRANCH   5   6
ENDBRANCH   4   5
ENDBRANCH   3   4
ENDBRANCH   2   3
ENDBRANCH   1   2
BRANCH   1  11
ATOM     11  C   UNL     1     -17.021  55.754  -2.696  1.00  0.00     0.000 C 
BRANCH  11  12
ATOM     12  C   UNL     1     -16.793  54.623  -1.682  1.00  0.00    -0.000 C 
BRANCH  12  13
ATOM     13  C   UNL     1     -16.806  55.132  -0.229  1.00  0.00    -0.000 C 
BRANCH  13  14
ATOM     14  C   UNL     1     -18.095  55.898   0.142  1.00  0.00    -0.000 C 
BRANCH  14  15
ATOM     15  C   UNL     1     -17.842  57.340   0.623  1.00  0.00    -0.000 C 
BRANCH  15  16
ATOM     16  C   UNL     1     -16.429  57.595   1.176  1.00  0.00    -0.000 C 
BRANCH  16  17
ATOM     17  C   UNL     1     -15.676  58.688   0.404  1.00  0.00    -0.003 C 
ATOM     18  C   UNL     1     -14.332  58.995   1.060  1.00  0.00     0.004 C 
ENDBRANCH  16  17
ENDBRANCH  15  16
ENDBRANCH  14  15
ENDBRANCH  13  14
ENDBRANCH  12  13
ENDBRANCH  11  12
ENDBRANCH   1  11
TORSDOF 14
ENDMDL
MODEL 3
REMARK VINA RESULT:    -5.311      2.713      5.828
REMARK INTER + INTRA:         -11.227
REMARK INTER:                  -9.223
REMARK INTRA:                  -2.004
REMARK UNBOUND:                -1.569
REMARK SMILES CCCCCCCCCCCCCCCC(=O)[O-]
REMARK SMILES IDX 9 1 10 2 11 3 12 4 13 5 14 6 15 7 16 8 17 9 18 10 8 11 7 12
REMARK SMILES IDX 6 13 5 14 4 15 3 16 2 17 1 18
REMARK H PARENT
REMARK Flexibility Score: inf
ROOT
ATOM      1  C   UNL     1     -18.740  56.733  -3.551  1.00  0.00     0.000 C 
ENDROOT
BRANCH   1   2
ATOM      2  C   UNL     1     -17.743  55.633  -3.978  1.00  0.00     0.000 C 
BRANCH   2   3
ATOM      3  C   UNL     1     -16.670  55.374  -2.904  1.00  0.00     0.000 C 
BRANCH   3   4
ATOM      4  C   UNL     1     -17.097  54.302  -1.888  1.00  0.00     0.000 C 
BRANCH   4   5
ATOM      5  C   UNL     1     -16.522  54.558  -0.485  1.00  0.00     0.000 C 
BRANCH   5   6
ATOM      6  C   UNL     1     -17.581  55.079   0.501  1.00  0.00     0.006 C 
BRANCH   6   7
ATOM      7  C   UNL     1     -17.908  56.563   0.291  1.00  0.00     0.053 C 
BRANCH   7   8
ATOM      8  C   UNL     1     -16.757  57.419   0.719  1.00  0.00     0.041 C 
ATOM      9  O   UNL     1     -16.614  57.730   1.932  1.00  0.00    -0.550 OA
ATOM     10  O   UNL     1     -15.879  57.927  -0.231  1.00  0.00    -0.550 OA
ENDBRANCH   7   8
ENDBRANCH   6   7
ENDBRANCH   5   6
ENDBRANCH   4   5
ENDBRANCH   3   4
ENDBRANCH   2   3
ENDBRANCH   1   2
BRANCH   1  11
ATOM     11  C   UNL     1     -19.908  56.209  -2.699  1.00  0.00     0.000 C 
BRANCH  11  12
ATOM     12  C   UNL     1     -21.282  56.600  -3.263  1.00  0.00    -0.000 C 
BRANCH  12  13
ATOM     13  C   UNL     1     -22.238  55.398  -3.353  1.00  0.00    -0.000 C 
BRANCH  13  14
ATOM     14  C   UNL     1     -23.037  55.150  -2.054  1.00  0.00    -0.000 C 
BRANCH  14  15
ATOM     15  C   UNL     1     -22.648  53.850  -1.325  1.00  0.00    -0.000 C 
BRANCH  15  16
ATOM     16  C   UNL     1     -21.538  54.011  -0.272  1.00  0.00    -0.000 C 
BRANCH  16  17
ATOM     17  C   UNL     1     -20.385  53.015  -0.467  1.00  0.00    -0.003 C 
ATOM     18  C   UNL     1     -20.329  52.518  -1.909  1.00  0.00     0.004 C 
ENDBRANCH  16  17
ENDBRANCH  15  16
ENDBRANCH  14  15
ENDBRANCH  13  14
ENDBRANCH  12  13
ENDBRANCH  11  12
ENDBRANCH   1  11
TORSDOF 14
ENDMDL
MODEL 4
REMARK VINA RESULT:    -5.284      2.492      3.067
REMARK INTER + INTRA:         -11.177
REMARK INTER:                  -9.056
REMARK INTRA:                  -2.121
REMARK UNBOUND:                -1.569
REMARK SMILES CCCCCCCCCCCCCCCC(=O)[O-]
REMARK SMILES IDX 9 1 10 2 11 3 12 4 13 5 14 6 15 7 16 8 17 9 18 10 8 11 7 12
REMARK SMILES IDX 6 13 5 14 4 15 3 16 2 17 1 18
REMARK H PARENT
REMARK Flexibility Score: inf
ROOT
ATOM      1  C   UNL     1     -18.495  56.654  -3.681  1.00  0.00     0.000 C 
ENDROOT
BRANCH   1   2
ATOM      2  C   UNL     1     -19.601  56.316  -2.657  1.00  0.00     0.000 C 
BRANCH   2   3
ATOM      3  C   UNL     1     -21.009  56.421  -3.270  1.00  0.00     0.000 C 
BRANCH   3   4
ATOM      4  C   UNL     1     -21.907  55.229  -2.898  1.00  0.00     0.000 C 
BRANCH   4   5
ATOM      5  C   UNL     1     -21.177  54.189  -2.032  1.00  0.00     0.000 C 
BRANCH   5   6
ATOM      6  C   UNL     1     -21.983  53.789  -0.786  1.00  0.00     0.006 C 
BRANCH   6   7
ATOM      7  C   UNL     1     -23.158  54.736  -0.508  1.00  0.00     0.053 C 
BRANCH   7   8
ATOM      8  C   UNL     1     -23.345  54.920   0.966  1.00  0.00     0.041 C 
ATOM      9  O   UNL     1     -23.807  53.981   1.668  1.00  0.00    -0.550 OA
ATOM     10  O   UNL     1     -23.072  56.150   1.552  1.00  0.00    -0.550 OA
ENDBRANCH   7   8
ENDBRANCH   6   7
ENDBRANCH   5   6
ENDBRANCH   4   5
ENDBRANCH   3   4
ENDBRANCH   2   3
ENDBRANCH   1   2
BRANCH   1  11
ATOM     11  C   UNL     1     -17.181  55.891  -3.445  1.00  0.00     0.000 C 
BRANCH  11  12
ATOM     12  C   UNL     1     -17.401  54.485  -2.869  1.00  0.00    -0.000 C 
BRANCH  12  13
ATOM     13  C   UNL     1     -16.774  54.323  -1.473  1.00  0.00    -0.000 C 
BRANCH  13  14
ATOM     14  C   UNL     1     -17.804  53.993  -0.370  1.00  0.00    -0.000 C 
BRANCH  14  15
ATOM     15  C   UNL     1     -17.741  54.942   0.842  1.00  0.00    -0.000 C 
BRANCH  15  16
ATOM     16  C   UNL     1     -17.188  56.344   0.532  1.00  0.00    -0.000 C 
BRANCH  16  17
ATOM     17  C   UNL     1     -18.238  57.451   0.714  1.00  0.00    -0.003 C 
ATOM     18  C   UNL     1     -19.646  56.864   0.777  1.00  0.00     0.004 C 
ENDBRANCH  16  17
ENDBRANCH  15  16
ENDBRANCH  14  15
ENDBRANCH  13  14
ENDBRANCH  12  13
ENDBRANCH  11  12
ENDBRANCH   1  11
TORSDOF 14
ENDMDL
MODEL 5
REMARK VINA RESULT:    -5.232      2.480      3.273
REMARK INTER + INTRA:         -11.083
REMARK INTER:                  -9.790
REMARK INTRA:                  -1.292
REMARK UNBOUND:                -1.569
REMARK SMILES CCCCCCCCCCCCCCCC(=O)[O-]
REMARK SMILES IDX 9 1 10 2 11 3 12 4 13 5 14 6 15 7 16 8 17 9 18 10 8 11 7 12
REMARK SMILES IDX 6 13 5 14 4 15 3 16 2 17 1 18
REMARK H PARENT
REMARK Flexibility Score: inf
ROOT
ATOM      1  C   UNL     1     -19.221  55.258  -3.253  1.00  0.00     0.000 C 
ENDROOT
BRANCH   1   2
ATOM      2  C   UNL     1     -19.165  53.718  -3.154  1.00  0.00     0.000 C 
BRANCH   2   3
ATOM      3  C   UNL     1     -19.311  53.224  -1.703  1.00  0.00     0.000 C 
BRANCH   3   4
ATOM      4  C   UNL     1     -20.756  52.831  -1.354  1.00  0.00     0.000 C 
BRANCH   4   5
ATOM      5  C   UNL     1     -21.563  54.006  -0.777  1.00  0.00     0.000 C 
BRANCH   5   6
ATOM      6  C   UNL     1     -22.903  54.213  -1.500  1.00  0.00     0.006 C 
BRANCH   6   7
ATOM      7  C   UNL     1     -22.855  55.351  -2.528  1.00  0.00     0.053 C 
BRANCH   7   8
ATOM      8  C   UNL     1     -23.657  56.522  -2.050  1.00  0.00     0.041 C 
ATOM      9  O   UNL     1     -23.092  57.626  -1.821  1.00  0.00    -0.550 OA
ATOM     10  O   UNL     1     -25.015  56.376  -1.795  1.00  0.00    -0.550 OA
ENDBRANCH   7   8
ENDBRANCH   6   7
ENDBRANCH   5   6
ENDBRANCH   4   5
ENDBRANCH   3   4
ENDBRANCH   2   3
ENDBRANCH   1   2
BRANCH   1  11
ATOM     11  C   UNL     1     -17.981  55.879  -3.917  1.00  0.00     0.000 C 
BRANCH  11  12
ATOM     12  C   UNL     1     -17.020  56.523  -2.906  1.00  0.00    -0.000 C 
BRANCH  12  13
ATOM     13  C   UNL     1     -17.634  56.616  -1.498  1.00  0.00    -0.000 C 
BRANCH  13  14
ATOM     14  C   UNL     1     -16.827  55.853  -0.424  1.00  0.00    -0.000 C 
BRANCH  14  15
ATOM     15  C   UNL     1     -16.591  56.662   0.866  1.00  0.00    -0.000 C 
BRANCH  15  16
ATOM     16  C   UNL     1     -16.529  58.186   0.666  1.00  0.00    -0.000 C 
BRANCH  16  17
ATOM     17  C   UNL     1     -15.189  58.655   0.081  1.00  0.00    -0.003 C 
ATOM     18  C   UNL     1     -14.227  59.080   1.187  1.00  0.00     0.004 C 
ENDBRANCH  16  17
ENDBRANCH  15  16
ENDBRANCH  14  15
ENDBRANCH  13  14
ENDBRANCH  12  13
ENDBRANCH  11  12
ENDBRANCH   1  11
TORSDOF 14
ENDMDL
MODEL 6
REMARK VINA RESULT:    -5.226      2.685      5.657
REMARK INTER + INTRA:         -11.071
REMARK INTER:                  -8.814
REMARK INTRA:                  -2.258
REMARK UNBOUND:                -1.569
REMARK SMILES CCCCCCCCCCCCCCCC(=O)[O-]
REMARK SMILES IDX 9 1 10 2 11 3 12 4 13 5 14 6 15 7 16 8 17 9 18 10 8 11 7 12
REMARK SMILES IDX 6 13 5 14 4 15 3 16 2 17 1 18
REMARK H PARENT
REMARK Flexibility Score: inf
ROOT
ATOM      1  C   UNL     1     -19.937  56.648  -3.382  1.00  0.00     0.000 C 
ENDROOT
BRANCH   1   2
ATOM      2  C   UNL     1     -18.516  56.094  -3.623  1.00  0.00     0.000 C 
BRANCH   2   3
ATOM      3  C   UNL     1     -18.473  54.557  -3.550  1.00  0.00     0.000 C 
BRANCH   3   4
ATOM      4  C   UNL     1     -17.715  54.044  -2.314  1.00  0.00     0.000 C 
BRANCH   4   5
ATOM      5  C   UNL     1     -18.652  53.732  -1.136  1.00  0.00     0.000 C 
BRANCH   5   6
ATOM      6  C   UNL     1     -18.309  54.545   0.122  1.00  0.00     0.006 C 
BRANCH   6   7
ATOM      7  C   UNL     1     -18.948  55.940   0.122  1.00  0.00     0.053 C 
BRANCH   7   8
ATOM      8  C   UNL     1     -17.892  57.000   0.183  1.00  0.00     0.041 C 
ATOM      9  O   UNL     1     -18.050  58.011   0.920  1.00  0.00    -0.550 OA
ATOM     10  O   UNL     1     -16.765  56.904  -0.624  1.00  0.00    -0.550 OA
ENDBRANCH   7   8
ENDBRANCH   6   7
ENDBRANCH   5   6
ENDBRANCH   4   5
ENDBRANCH   3   4
ENDBRANCH   2   3
ENDBRANCH   1   2
BRANCH   1  11
ATOM     11  C   UNL     1     -21.011  55.556  -3.245  1.00  0.00     0.000 C 
BRANCH  11  12
ATOM     12  C   UNL     1     -22.304  56.067  -2.594  1.00  0.00    -0.000 C 
BRANCH  12  13
ATOM     13  C   UNL     1     -23.224  54.917  -2.145  1.00  0.00    -0.000 C 
BRANCH  13  14
ATOM     14  C   UNL     1     -22.471  53.769  -1.436  1.00  0.00    -0.000 C 
BRANCH  14  15
ATOM     15  C   UNL     1     -22.167  54.051   0.048  1.00  0.00    -0.000 C 
BRANCH  15  16
ATOM     16  C   UNL     1     -23.385  54.485   0.882  1.00  0.00    -0.000 C 
BRANCH  16  17
ATOM     17  C   UNL     1     -23.229  55.895   1.472  1.00  0.00    -0.003 C 
ATOM     18  C   UNL     1     -24.234  56.862   0.851  1.00  0.00     0.004 C 
ENDBRANCH  16  17
ENDBRANCH  15  16
ENDBRANCH  14  15
ENDBRANCH  13  14
ENDBRANCH  12  13
ENDBRANCH  11  12
ENDBRANCH   1  11
TORSDOF 14
ENDMDL
MODEL 7
REMARK VINA RESULT:    -5.203      2.828      3.840
REMARK INTER + INTRA:         -11.029
REMARK INTER:                  -8.844
REMARK INTRA:                  -2.185
REMARK UNBOUND:                -1.569
REMARK SMILES CCCCCCCCCCCCCCCC(=O)[O-]
REMARK SMILES IDX 9 1 10 2 11 3 12 4 13 5 14 6 15 7 16 8 17 9 18 10 8 11 7 12
REMARK SMILES IDX 6 13 5 14 4 15 3 16 2 17 1 18
REMARK H PARENT
REMARK Flexibility Score: inf
ROOT
ATOM      1  C   UNL     1     -20.631  56.602  -3.268  1.00  0.00     0.000 C 
ENDROOT
BRANCH   1   2
ATOM      2  C   UNL     1     -21.810  55.718  -2.808  1.00  0.00     0.000 C 
BRANCH   2   3
ATOM      3  C   UNL     1     -21.337  54.357  -2.265  1.00  0.00     0.000 C 
BRANCH   3   4
ATOM      4  C   UNL     1     -22.402  53.662  -1.399  1.00  0.00     0.000 C 
BRANCH   4   5
ATOM      5  C   UNL     1     -22.120  53.801   0.105  1.00  0.00     0.000 C 
BRANCH   5   6
ATOM      6  C   UNL     1     -23.374  54.182   0.908  1.00  0.00     0.006 C 
BRANCH   6   7
ATOM      7  C   UNL     1     -24.019  55.487   0.421  1.00  0.00     0.053 C 
BRANCH   7   8
ATOM      8  C   UNL     1     -23.194  56.665   0.837  1.00  0.00     0.041 C 
ATOM      9  O   UNL     1     -22.838  56.797   2.039  1.00  0.00    -0.550 OA
ATOM     10  O   UNL     1     -22.874  57.651  -0.089  1.00  0.00    -0.550 OA
ENDBRANCH   7   8
ENDBRANCH   6   7
ENDBRANCH   5   6
ENDBRANCH   4   5
ENDBRANCH   3   4
ENDBRANCH   2   3
ENDBRANCH   1   2
BRANCH   1  11
ATOM     11  C   UNL     1     -19.331  55.820  -3.512  1.00  0.00     0.000 C 
BRANCH  11  12
ATOM     12  C   UNL     1     -18.115  56.732  -3.727  1.00  0.00    -0.000 C 
BRANCH  12  13
ATOM     13  C   UNL     1     -16.877  56.246  -2.951  1.00  0.00    -0.000 C 
BRANCH  13  14
ATOM     14  C   UNL     1     -17.061  54.851  -2.314  1.00  0.00    -0.000 C 
BRANCH  14  15
ATOM     15  C   UNL     1     -16.864  54.836  -0.786  1.00  0.00    -0.000 C 
BRANCH  15  16
ATOM     16  C   UNL     1     -18.156  54.633   0.026  1.00  0.00    -0.000 C 
BRANCH  16  17
ATOM     17  C   UNL     1     -19.017  55.902   0.099  1.00  0.00    -0.003 C 
ATOM     18  C   UNL     1     -18.178  57.111   0.508  1.00  0.00     0.004 C 
ENDBRANCH  16  17
ENDBRANCH  15  16
ENDBRANCH  14  15
ENDBRANCH  13  14
ENDBRANCH  12  13
ENDBRANCH  11  12
ENDBRANCH   1  11
TORSDOF 14
ENDMDL
MODEL 8
REMARK VINA RESULT:    -5.169      1.533      2.551
REMARK INTER + INTRA:         -10.969
REMARK INTER:                  -8.879
REMARK INTRA:                  -2.090
REMARK UNBOUND:                -1.569
REMARK SMILES CCCCCCCCCCCCCCCC(=O)[O-]
REMARK SMILES IDX 9 1 10 2 11 3 12 4 13 5 14 6 15 7 16 8 17 9 18 10 8 11 7 12
REMARK SMILES IDX 6 13 5 14 4 15 3 16 2 17 1 18
REMARK H PARENT
REMARK Flexibility Score: inf
ROOT
ATOM      1  C   UNL     1     -20.432  56.269  -2.758  1.00  0.00     0.000 C 
ENDROOT
BRANCH   1   2
ATOM      2  C   UNL     1     -21.756  55.649  -3.258  1.00  0.00     0.000 C 
BRANCH   2   3
ATOM      3  C   UNL     1     -22.968  56.140  -2.446  1.00  0.00     0.000 C 
BRANCH   3   4
ATOM      4  C   UNL     1     -23.588  55.031  -1.578  1.00  0.00     0.000 C 
BRANCH   4   5
ATOM      5  C   UNL     1     -22.823  54.817  -0.262  1.00  0.00     0.000 C 
BRANCH   5   6
ATOM      6  C   UNL     1     -22.111  53.456  -0.207  1.00  0.00     0.006 C 
BRANCH   6   7
ATOM      7  C   UNL     1     -20.591  53.572  -0.387  1.00  0.00     0.053 C 
BRANCH   7   8
ATOM      8  C   UNL     1     -20.085  52.480  -1.276  1.00  0.00     0.041 C 
ATOM      9  O   UNL     1     -20.014  52.659  -2.523  1.00  0.00    -0.550 OA
ATOM     10  O   UNL     1     -19.753  51.242  -0.738  1.00  0.00    -0.550 OA
ENDBRANCH   7   8
ENDBRANCH   6   7
ENDBRANCH   5   6
ENDBRANCH   4   5
ENDBRANCH   3   4
ENDBRANCH   2   3
ENDBRANCH   1   2
BRANCH   1  11
ATOM     11  C   UNL     1     -19.211  55.888  -3.612  1.00  0.00     0.000 C 
BRANCH  11  12
ATOM     12  C   UNL     1     -17.933  56.626  -3.189  1.00  0.00    -0.000 C 
BRANCH  12  13
ATOM     13  C   UNL     1     -16.751  55.664  -2.967  1.00  0.00    -0.000 C 
BRANCH  13  14
ATOM     14  C   UNL     1     -17.112  54.439  -2.098  1.00  0.00    -0.000 C 
BRANCH  14  15
ATOM     15  C   UNL     1     -16.387  54.409  -0.739  1.00  0.00    -0.000 C 
BRANCH  15  16
ATOM     16  C   UNL     1     -17.263  54.802   0.464  1.00  0.00    -0.000 C 
BRANCH  16  17
ATOM     17  C   UNL     1     -17.390  56.324   0.634  1.00  0.00    -0.003 C 
ATOM     18  C   UNL     1     -18.843  56.770   0.490  1.00  0.00     0.004 C 
ENDBRANCH  16  17
ENDBRANCH  15  16
ENDBRANCH  14  15
ENDBRANCH  13  14
ENDBRANCH  12  13
ENDBRANCH  11  12
ENDBRANCH   1  11
TORSDOF 14
ENDMDL
MODEL 9
REMARK VINA RESULT:    -5.125      2.947      5.071
REMARK INTER + INTRA:         -10.888
REMARK INTER:                  -8.348
REMARK INTRA:                  -2.540
REMARK UNBOUND:                -1.569
REMARK SMILES CCCCCCCCCCCCCCCC(=O)[O-]
REMARK SMILES IDX 9 1 10 2 11 3 12 4 13 5 14 6 15 7 16 8 17 9 18 10 8 11 7 12
REMARK SMILES IDX 6 13 5 14 4 15 3 16 2 17 1 18
REMARK H PARENT
REMARK Flexibility Score: inf
ROOT
ATOM      1  C   UNL     1     -17.041  55.493  -0.451  1.00  0.00     0.000 C 
ENDROOT
BRANCH   1   2
ATOM      2  C   UNL     1     -18.276  55.480   0.476  1.00  0.00     0.000 C 
BRANCH   2   3
ATOM      3  C   UNL     1     -19.285  56.584   0.112  1.00  0.00     0.000 C 
BRANCH   3   4
ATOM      4  C   UNL     1     -20.731  56.210   0.481  1.00  0.00     0.000 C 
BRANCH   4   5
ATOM      5  C   UNL     1     -21.651  56.129  -0.748  1.00  0.00     0.000 C 
BRANCH   5   6
ATOM      6  C   UNL     1     -22.716  55.029  -0.616  1.00  0.00     0.006 C 
BRANCH   6   7
ATOM      7  C   UNL     1     -23.605  54.910  -1.861  1.00  0.00     0.053 C 
BRANCH   7   8
ATOM      8  C   UNL     1     -24.925  55.578  -1.628  1.00  0.00     0.041 C 
ATOM      9  O   UNL     1     -25.804  55.015  -0.921  1.00  0.00    -0.550 OA
ATOM     10  O   UNL     1     -25.208  56.790  -2.245  1.00  0.00    -0.550 OA
ENDBRANCH   7   8
ENDBRANCH   6   7
ENDBRANCH   5   6
ENDBRANCH   4   5
ENDBRANCH   3   4
ENDBRANCH   2   3
ENDBRANCH   1   2
BRANCH   1  11
ATOM     11  C   UNL     1     -17.059  56.627  -1.489  1.00  0.00     0.000 C 
BRANCH  11  12
ATOM     12  C   UNL     1     -17.003  56.115  -2.936  1.00  0.00    -0.000 C 
BRANCH  12  13
ATOM     13  C   UNL     1     -18.290  56.438  -3.718  1.00  0.00    -0.000 C 
BRANCH  13  14
ATOM     14  C   UNL     1     -19.464  55.491  -3.387  1.00  0.00    -0.000 C 
BRANCH  14  15
ATOM     15  C   UNL     1     -19.037  54.026  -3.169  1.00  0.00    -0.000 C 
BRANCH  15  16
ATOM     16  C   UNL     1     -20.053  53.170  -2.393  1.00  0.00    -0.000 C 
BRANCH  16  17
ATOM     17  C   UNL     1     -19.414  52.399  -1.228  1.00  0.00    -0.003 C 
ATOM     18  C   UNL     1     -20.332  52.391  -0.008  1.00  0.00     0.004 C 
ENDBRANCH  16  17
ENDBRANCH  15  16
ENDBRANCH  14  15
ENDBRANCH  13  14
ENDBRANCH  12  13
ENDBRANCH  11  12
ENDBRANCH   1  11
TORSDOF 14
ENDMDL
