MODEL 1
REMARK VINA RESULT:    60.375      0.000      0.000
REMARK INTER + INTRA:          81.165
REMARK INTER:                  79.788
REMARK INTRA:                   1.377
REMARK UNBOUND:                 1.377
REMARK SMILES CC[C@@H](C=C[C@@H](C)[C@H]1CC[C@@H]2[C@H]3CC=C4C[C@H](O)CC[C@]4(C)[C@@H]3CC[C@@]21C)C(C)C
REMARK SMILES IDX 6 1 7 2 5 3 4 4 3 5 2 6 1 7 28 8 29 9 30 10 8 11 9 12 26 13
REMARK SMILES IDX 10 14 11 15 25 16 27 17 12 18 24 19 23 20 13 21 21 22 14 23
REMARK SMILES IDX 15 24 20 25 22 26 16 27 19 28 17 29 18 30
REMARK H PARENT 18 31
REMARK Flexibility Score: inf
ROOT
ATOM      1  C   UNL     1      86.775  21.110 109.474  1.00  0.00     0.012 C 
ATOM      2  C   UNL     1      86.760  22.418 108.664  1.00  0.00     0.012 C 
ENDROOT
BRANCH   1   3
ATOM      3  C   UNL     1      88.202  20.585 109.536  1.00  0.00    -0.028 C 
ATOM      4  C   UNL     1      89.053  20.780 110.565  1.00  0.00    -0.027 C 
BRANCH   4   5
ATOM      5  C   UNL     1      88.725  21.483 111.873  1.00  0.00     0.014 C 
BRANCH   5   6
ATOM      6  C   UNL     1      88.842  23.011 111.639  1.00  0.00     0.004 C 
ATOM      7  C   UNL     1      90.275  23.541 111.674  1.00  0.00     0.004 C 
ENDBRANCH   5   6
BRANCH   5   8
ATOM      8  C   UNL     1      89.624  20.891 113.009  1.00  0.00    -0.011 C 
ATOM      9  C   UNL     1      90.465  19.680 112.573  1.00  0.00     0.008 C 
ATOM     10  C   UNL     1      90.502  21.951 113.692  1.00  0.00     0.008 C 
ENDBRANCH   5   8
ENDBRANCH   4   5
ENDBRANCH   1   3
BRANCH   1  11
ATOM     11  C   UNL     1      85.721  20.100 108.902  1.00  0.00     0.002 C 
ATOM     12  C   UNL     1      85.092  20.462 107.558  1.00  0.00     0.005 C 
ATOM     13  C   UNL     1      86.123  18.589 108.791  1.00  0.00    -0.026 C 
ATOM     14  C   UNL     1      84.344  19.205 107.158  1.00  0.00     0.005 C 
ATOM     15  C   UNL     1      85.224  18.039 107.629  1.00  0.00    -0.001 C 
ATOM     16  C   UNL     1      85.833  17.865 110.141  1.00  0.00     0.007 C 
ATOM     17  C   UNL     1      87.617  18.398 108.427  1.00  0.00     0.012 C 
ATOM     18  C   UNL     1      84.398  16.780 108.017  1.00  0.00     0.000 C 
ATOM     19  C   UNL     1      85.855  16.323 110.059  1.00  0.00     0.005 C 
ATOM     20  C   UNL     1      85.328  15.743 108.709  1.00  0.00     0.003 C 
ATOM     21  C   UNL     1      83.722  16.155 106.789  1.00  0.00     0.031 C 
ATOM     22  C   UNL     1      84.758  14.238 108.722  1.00  0.00    -0.008 C 
ATOM     23  C   UNL     1      82.873  15.011 107.241  1.00  0.00    -0.027 C 
ATOM     24  C   UNL     1      83.316  14.160 108.185  1.00  0.00    -0.065 C 
ATOM     25  C   UNL     1      84.801  13.539 110.125  1.00  0.00     0.014 C 
ATOM     26  C   UNL     1      85.628  13.379 107.768  1.00  0.00     0.016 C 
ATOM     27  C   UNL     1      82.390  13.087 108.722  1.00  0.00     0.063 C 
ATOM     28  C   UNL     1      83.517  13.795 110.933  1.00  0.00     0.033 C 
ATOM     29  C   UNL     1      82.294  13.129 110.268  1.00  0.00     0.118 C 
BRANCH  29  30
ATOM     30  O   UNL     1      81.134  13.812 110.664  1.00  0.00    -0.393 OA
ATOM     31  H   UNL     1      81.241  14.756 110.372  1.00  0.00     0.210 HD
ENDBRANCH  29  30
ENDBRANCH   1  11
TORSDOF 6
ENDMDL
MODEL 2
REMARK VINA RESULT:    60.675      2.847      8.548
REMARK INTER + INTRA:          81.561
REMARK INTER:                  80.465
REMARK INTRA:                   1.096
REMARK UNBOUND:                 1.377
REMARK SMILES CC[C@@H](C=C[C@@H](C)[C@H]1CC[C@@H]2[C@H]3CC=C4C[C@H](O)CC[C@]4(C)[C@@H]3CC[C@@]21C)C(C)C
REMARK SMILES IDX 6 1 7 2 5 3 4 4 3 5 2 6 1 7 28 8 29 9 30 10 8 11 9 12 26 13
REMARK SMILES IDX 10 14 11 15 25 16 27 17 12 18 24 19 23 20 13 21 21 22 14 23
REMARK SMILES IDX 15 24 20 25 22 26 16 27 19 28 17 29 18 30
REMARK H PARENT 18 31
REMARK Flexibility Score: inf
ROOT
ATOM      1  C   UNL     1      85.170  18.605 107.634  1.00  0.00     0.012 C 
ATOM      2  C   UNL     1      84.156  19.257 106.677  1.00  0.00     0.012 C 
ENDROOT
BRANCH   1   3
ATOM      3  C   UNL     1      84.410  17.851 108.716  1.00  0.00    -0.028 C 
ATOM      4  C   UNL     1      84.154  16.527 108.699  1.00  0.00    -0.027 C 
BRANCH   4   5
ATOM      5  C   UNL     1      84.636  15.538 107.649  1.00  0.00     0.014 C 
BRANCH   5   6
ATOM      6  C   UNL     1      83.660  15.603 106.445  1.00  0.00     0.004 C 
ATOM      7  C   UNL     1      82.318  14.913 106.690  1.00  0.00     0.004 C 
ENDBRANCH   5   6
BRANCH   5   8
ATOM      8  C   UNL     1      84.812  14.133 108.316  1.00  0.00    -0.011 C 
ATOM      9  C   UNL     1      84.505  14.112 109.821  1.00  0.00     0.008 C 
ATOM     10  C   UNL     1      84.043  13.022 107.584  1.00  0.00     0.008 C 
ENDBRANCH   5   8
ENDBRANCH   4   5
ENDBRANCH   1   3
BRANCH   1  11
ATOM     11  C   UNL     1      86.190  19.674 108.161  1.00  0.00     0.002 C 
ATOM     12  C   UNL     1      85.854  21.135 107.873  1.00  0.00     0.005 C 
ATOM     13  C   UNL     1      86.606  19.622 109.671  1.00  0.00    -0.026 C 
ATOM     14  C   UNL     1      86.853  21.908 108.711  1.00  0.00     0.005 C 
ATOM     15  C   UNL     1      87.011  21.100 110.006  1.00  0.00    -0.001 C 
ATOM     16  C   UNL     1      87.801  18.637 109.856  1.00  0.00     0.007 C 
ATOM     17  C   UNL     1      85.442  19.181 110.593  1.00  0.00     0.012 C 
ATOM     18  C   UNL     1      88.429  21.236 110.631  1.00  0.00     0.000 C 
ATOM     19  C   UNL     1      88.525  18.756 111.215  1.00  0.00     0.005 C 
ATOM     20  C   UNL     1      88.587  20.207 111.786  1.00  0.00     0.003 C 
ATOM     21  C   UNL     1      88.678  22.660 111.146  1.00  0.00     0.031 C 
ATOM     22  C   UNL     1      89.769  20.545 112.825  1.00  0.00    -0.008 C 
ATOM     23  C   UNL     1      90.083  22.748 111.646  1.00  0.00    -0.027 C 
ATOM     24  C   UNL     1      90.620  21.744 112.365  1.00  0.00    -0.065 C 
ATOM     25  C   UNL     1      90.732  19.344 113.126  1.00  0.00     0.014 C 
ATOM     26  C   UNL     1      89.128  20.954 114.177  1.00  0.00     0.016 C 
ATOM     27  C   UNL     1      92.084  21.796 112.749  1.00  0.00     0.063 C 
ATOM     28  C   UNL     1      91.912  19.294 112.141  1.00  0.00     0.033 C 
ATOM     29  C   UNL     1      92.840  20.514 112.316  1.00  0.00     0.118 C 
BRANCH  29  30
ATOM     30  O   UNL     1      93.527  20.738 111.113  1.00  0.00    -0.393 OA
ATOM     31  H   UNL     1      93.102  21.526 110.681  1.00  0.00     0.210 HD
ENDBRANCH  29  30
ENDBRANCH   1  11
TORSDOF 6
ENDMDL
