MODEL 1
REMARK VINA RESULT:    -5.420      0.000      0.000
REMARK INTER + INTRA:          -6.498
REMARK INTER:                  -6.370
REMARK INTRA:                  -0.128
REMARK UNBOUND:                -0.128
REMARK SMILES O=C([O-])C=Cc1ccc(O)c(O)c1
REMARK SMILES IDX 6 1 13 2 7 3 11 4 8 5 9 6 5 7 4 8 2 9 1 10 3 11 12 12 10 14
REMARK H PARENT 12 13 10 15
REMARK Flexibility Score: inf
ROOT
ATOM      1  C   UNL     1      81.994  62.401   7.788  1.00  0.00    -0.022 A 
ATOM      2  C   UNL     1      80.989  63.383   7.825  1.00  0.00     0.058 A 
ATOM      3  C   UNL     1      81.634  61.053   7.982  1.00  0.00     0.012 A 
ATOM      4  C   UNL     1      79.655  63.034   8.076  1.00  0.00     0.157 A 
ATOM      5  C   UNL     1      80.303  60.705   8.231  1.00  0.00     0.051 A 
ATOM      6  C   UNL     1      79.311  61.692   8.281  1.00  0.00     0.157 A 
ENDROOT
BRANCH   1   7
ATOM      7  C   UNL     1      83.389  62.822   7.509  1.00  0.00     0.010 C 
ATOM      8  C   UNL     1      84.427  62.541   8.309  1.00  0.00     0.025 C 
BRANCH   8   9
ATOM      9  C   UNL     1      85.797  62.987   8.006  1.00  0.00     0.064 C 
ATOM     10  O   UNL     1      86.613  63.264   8.926  1.00  0.00    -0.545 OA
ATOM     11  O   UNL     1      86.197  63.108   6.681  1.00  0.00    -0.545 OA
ENDBRANCH   8   9
ENDBRANCH   1   7
BRANCH   4  12
ATOM     12  O   UNL     1      78.666  64.014   8.121  1.00  0.00    -0.504 OA
ATOM     13  H   UNL     1      78.880  64.975   8.364  1.00  0.00     0.293 HD
ENDBRANCH   4  12
BRANCH   6  14
ATOM     14  O   UNL     1      77.984  61.349   8.531  1.00  0.00    -0.504 OA
ATOM     15  H   UNL     1      77.243  62.041   8.503  1.00  0.00     0.293 HD
ENDBRANCH   6  14
TORSDOF 4
ENDMDL
MODEL 2
REMARK VINA RESULT:    -5.388      1.564      5.900
REMARK INTER + INTRA:          -6.461
REMARK INTER:                  -6.329
REMARK INTRA:                  -0.132
REMARK UNBOUND:                -0.128
REMARK SMILES O=C([O-])C=Cc1ccc(O)c(O)c1
REMARK SMILES IDX 6 1 13 2 7 3 11 4 8 5 9 6 5 7 4 8 2 9 1 10 3 11 12 12 10 14
REMARK H PARENT 12 13 10 15
REMARK Flexibility Score: inf
ROOT
ATOM      1  C   UNL     1      83.743  61.728   7.567  1.00  0.00    -0.022 A 
ATOM      2  C   UNL     1      84.534  62.876   7.738  1.00  0.00     0.058 A 
ATOM      3  C   UNL     1      84.375  60.507   7.257  1.00  0.00     0.012 A 
ATOM      4  C   UNL     1      85.926  62.818   7.578  1.00  0.00     0.157 A 
ATOM      5  C   UNL     1      85.763  60.450   7.099  1.00  0.00     0.051 A 
ATOM      6  C   UNL     1      86.541  61.603   7.255  1.00  0.00     0.157 A 
ENDROOT
BRANCH   1   7
ATOM      7  C   UNL     1      82.276  61.841   7.759  1.00  0.00     0.010 C 
ATOM      8  C   UNL     1      81.622  63.009   7.832  1.00  0.00     0.025 C 
BRANCH   8   9
ATOM      9  C   UNL     1      80.165  63.082   8.036  1.00  0.00     0.064 C 
ATOM     10  O   UNL     1      79.662  63.008   9.189  1.00  0.00    -0.545 OA
ATOM     11  O   UNL     1      79.330  63.232   6.937  1.00  0.00    -0.545 OA
ENDBRANCH   8   9
ENDBRANCH   1   7
BRANCH   4  12
ATOM     12  O   UNL     1      86.703  63.964   7.738  1.00  0.00    -0.504 OA
ATOM     13  H   UNL     1      87.714  63.934   7.671  1.00  0.00     0.293 HD
ENDBRANCH   4  12
BRANCH   6  14
ATOM     14  O   UNL     1      87.925  61.549   7.096  1.00  0.00    -0.504 OA
ATOM     15  H   UNL     1      88.418  60.665   7.044  1.00  0.00     0.293 HD
ENDBRANCH   6  14
TORSDOF 4
ENDMDL
MODEL 3
REMARK VINA RESULT:    -5.352      1.421      1.636
REMARK INTER + INTRA:          -6.419
REMARK INTER:                  -6.279
REMARK INTRA:                  -0.140
REMARK UNBOUND:                -0.128
REMARK SMILES O=C([O-])C=Cc1ccc(O)c(O)c1
REMARK SMILES IDX 6 1 13 2 7 3 11 4 8 5 9 6 5 7 4 8 2 9 1 10 3 11 12 12 10 14
REMARK H PARENT 12 13 10 15
REMARK Flexibility Score: inf
ROOT
ATOM      1  C   UNL     1      82.085  62.793   7.440  1.00  0.00    -0.022 A 
ATOM      2  C   UNL     1      81.060  63.517   8.071  1.00  0.00     0.058 A 
ATOM      3  C   UNL     1      81.769  62.007   6.314  1.00  0.00     0.012 A 
ATOM      4  C   UNL     1      79.739  63.442   7.607  1.00  0.00     0.157 A 
ATOM      5  C   UNL     1      80.452  61.933   5.852  1.00  0.00     0.051 A 
ATOM      6  C   UNL     1      79.434  62.646   6.496  1.00  0.00     0.157 A 
ENDROOT
BRANCH   1   7
ATOM      7  C   UNL     1      83.468  62.916   7.964  1.00  0.00     0.010 C 
ATOM      8  C   UNL     1      84.561  62.552   7.277  1.00  0.00     0.025 C 
BRANCH   8   9
ATOM      9  C   UNL     1      85.918  62.677   7.835  1.00  0.00     0.064 C 
ATOM     10  O   UNL     1      86.922  62.231   7.217  1.00  0.00    -0.545 OA
ATOM     11  O   UNL     1      86.094  63.294   9.067  1.00  0.00    -0.545 OA
ENDBRANCH   8   9
ENDBRANCH   1   7
BRANCH   4  12
ATOM     12  O   UNL     1      78.726  64.155   8.243  1.00  0.00    -0.504 OA
ATOM     13  H   UNL     1      78.932  64.910   8.888  1.00  0.00     0.293 HD
ENDBRANCH   4  12
BRANCH   6  14
ATOM     14  O   UNL     1      78.120  62.573   6.038  1.00  0.00    -0.504 OA
ATOM     15  H   UNL     1      77.337  62.523   6.680  1.00  0.00     0.293 HD
ENDBRANCH   6  14
TORSDOF 4
ENDMDL
MODEL 4
REMARK VINA RESULT:    -5.183      2.596      5.758
REMARK INTER + INTRA:          -6.220
REMARK INTER:                  -6.091
REMARK INTRA:                  -0.129
REMARK UNBOUND:                -0.128
REMARK SMILES O=C([O-])C=Cc1ccc(O)c(O)c1
REMARK SMILES IDX 6 1 13 2 7 3 11 4 8 5 9 6 5 7 4 8 2 9 1 10 3 11 12 12 10 14
REMARK H PARENT 12 13 10 15
REMARK Flexibility Score: inf
ROOT
ATOM      1  C   UNL     1      83.735  61.731   7.263  1.00  0.00    -0.022 A 
ATOM      2  C   UNL     1      84.680  62.753   7.076  1.00  0.00     0.058 A 
ATOM      3  C   UNL     1      83.865  60.880   8.378  1.00  0.00     0.012 A 
ATOM      4  C   UNL     1      85.751  62.910   7.968  1.00  0.00     0.157 A 
ATOM      5  C   UNL     1      84.932  61.037   9.267  1.00  0.00     0.051 A 
ATOM      6  C   UNL     1      85.878  62.049   9.065  1.00  0.00     0.157 A 
ENDROOT
BRANCH   1   7
ATOM      7  C   UNL     1      82.615  61.614   6.296  1.00  0.00     0.010 C 
ATOM      8  C   UNL     1      81.926  62.663   5.823  1.00  0.00     0.025 C 
BRANCH   8   9
ATOM      9  C   UNL     1      80.812  62.507   4.874  1.00  0.00     0.064 C 
ATOM     10  O   UNL     1      80.641  63.321   3.927  1.00  0.00    -0.545 OA
ATOM     11  O   UNL     1      79.929  61.445   5.026  1.00  0.00    -0.545 OA
ENDBRANCH   8   9
ENDBRANCH   1   7
BRANCH   4  12
ATOM     12  O   UNL     1      86.691  63.920   7.771  1.00  0.00    -0.504 OA
ATOM     13  H   UNL     1      86.461  64.896   7.919  1.00  0.00     0.293 HD
ENDBRANCH   4  12
BRANCH   6  14
ATOM     14  O   UNL     1      86.944  62.208   9.948  1.00  0.00    -0.504 OA
ATOM     15  H   UNL     1      87.071  63.063  10.477  1.00  0.00     0.293 HD
ENDBRANCH   6  14
TORSDOF 4
ENDMDL
MODEL 5
REMARK VINA RESULT:    -5.111      2.221      6.075
REMARK INTER + INTRA:          -6.136
REMARK INTER:                  -6.006
REMARK INTRA:                  -0.129
REMARK UNBOUND:                -0.128
REMARK SMILES O=C([O-])C=Cc1ccc(O)c(O)c1
REMARK SMILES IDX 6 1 13 2 7 3 11 4 8 5 9 6 5 7 4 8 2 9 1 10 3 11 12 12 10 14
REMARK H PARENT 12 13 10 15
REMARK Flexibility Score: inf
ROOT
ATOM      1  C   UNL     1      84.620  62.259   7.795  1.00  0.00    -0.022 A 
ATOM      2  C   UNL     1      84.517  61.384   8.890  1.00  0.00     0.058 A 
ATOM      3  C   UNL     1      85.879  62.807   7.479  1.00  0.00     0.012 A 
ATOM      4  C   UNL     1      85.641  61.079   9.672  1.00  0.00     0.157 A 
ATOM      5  C   UNL     1      86.998  62.503   8.259  1.00  0.00     0.051 A 
ATOM      6  C   UNL     1      86.883  61.641   9.357  1.00  0.00     0.157 A 
ENDROOT
BRANCH   1   7
ATOM      7  C   UNL     1      83.403  62.540   6.994  1.00  0.00     0.010 C 
ATOM      8  C   UNL     1      82.233  62.922   7.525  1.00  0.00     0.025 C 
BRANCH   8   9
ATOM      9  C   UNL     1      81.042  63.179   6.698  1.00  0.00     0.064 C 
ATOM     10  O   UNL     1      81.117  63.228   5.441  1.00  0.00    -0.545 OA
ATOM     11  O   UNL     1      79.813  63.376   7.315  1.00  0.00    -0.545 OA
ENDBRANCH   8   9
ENDBRANCH   1   7
BRANCH   4  12
ATOM     12  O   UNL     1      85.529  60.218  10.761  1.00  0.00    -0.504 OA
ATOM     13  H   UNL     1      86.279  60.115  11.436  1.00  0.00     0.293 HD
ENDBRANCH   4  12
BRANCH   6  14
ATOM     14  O   UNL     1      87.997  61.338  10.137  1.00  0.00    -0.504 OA
ATOM     15  H   UNL     1      88.450  62.040  10.711  1.00  0.00     0.293 HD
ENDBRANCH   6  14
TORSDOF 4
ENDMDL
MODEL 6
REMARK VINA RESULT:    -5.064      1.560      5.835
REMARK INTER + INTRA:          -6.080
REMARK INTER:                  -5.946
REMARK INTRA:                  -0.134
REMARK UNBOUND:                -0.128
REMARK SMILES O=C([O-])C=Cc1ccc(O)c(O)c1
REMARK SMILES IDX 6 1 13 2 7 3 11 4 8 5 9 6 5 7 4 8 2 9 1 10 3 11 12 12 10 14
REMARK H PARENT 12 13 10 15
REMARK Flexibility Score: inf
ROOT
ATOM      1  C   UNL     1      83.644  61.789   7.992  1.00  0.00    -0.022 A 
ATOM      2  C   UNL     1      84.486  62.872   7.688  1.00  0.00     0.058 A 
ATOM      3  C   UNL     1      84.204  60.638   8.582  1.00  0.00     0.012 A 
ATOM      4  C   UNL     1      85.864  62.802   7.941  1.00  0.00     0.157 A 
ATOM      5  C   UNL     1      85.577  60.569   8.835  1.00  0.00     0.051 A 
ATOM      6  C   UNL     1      86.410  61.647   8.514  1.00  0.00     0.157 A 
ENDROOT
BRANCH   1   7
ATOM      7  C   UNL     1      82.192  61.918   7.714  1.00  0.00     0.010 C 
ATOM      8  C   UNL     1      81.634  63.000   7.152  1.00  0.00     0.025 C 
BRANCH   8   9
ATOM      9  C   UNL     1      80.186  63.097   6.903  1.00  0.00     0.064 C 
ATOM     10  O   UNL     1      79.349  62.703   7.758  1.00  0.00    -0.545 OA
ATOM     11  O   UNL     1      79.735  63.630   5.702  1.00  0.00    -0.545 OA
ENDBRANCH   8   9
ENDBRANCH   1   7
BRANCH   4  12
ATOM     12  O   UNL     1      86.694  63.876   7.627  1.00  0.00    -0.504 OA
ATOM     13  H   UNL     1      87.647  63.929   7.970  1.00  0.00     0.293 HD
ENDBRANCH   4  12
BRANCH   6  14
ATOM     14  O   UNL     1      87.780  61.581   8.763  1.00  0.00    -0.504 OA
ATOM     15  H   UNL     1      88.142  61.477   9.704  1.00  0.00     0.293 HD
ENDBRANCH   6  14
TORSDOF 4
ENDMDL
MODEL 7
REMARK VINA RESULT:    -4.968      1.725      2.372
REMARK INTER + INTRA:          -5.967
REMARK INTER:                  -5.832
REMARK INTRA:                  -0.136
REMARK UNBOUND:                -0.128
REMARK SMILES O=C([O-])C=Cc1ccc(O)c(O)c1
REMARK SMILES IDX 6 1 13 2 7 3 11 4 8 5 9 6 5 7 4 8 2 9 1 10 3 11 12 12 10 14
REMARK H PARENT 12 13 10 15
REMARK Flexibility Score: inf
ROOT
ATOM      1  C   UNL     1      82.298  62.815   7.081  1.00  0.00    -0.022 A 
ATOM      2  C   UNL     1      81.775  62.769   5.779  1.00  0.00     0.058 A 
ATOM      3  C   UNL     1      81.445  63.167   8.145  1.00  0.00     0.012 A 
ATOM      4  C   UNL     1      80.432  63.094   5.534  1.00  0.00     0.157 A 
ATOM      5  C   UNL     1      80.106  63.489   7.901  1.00  0.00     0.051 A 
ATOM      6  C   UNL     1      79.597  63.456   6.597  1.00  0.00     0.157 A 
ENDROOT
BRANCH   1   7
ATOM      7  C   UNL     1      83.722  62.452   7.288  1.00  0.00     0.010 C 
ATOM      8  C   UNL     1      84.477  62.934   8.286  1.00  0.00     0.025 C 
BRANCH   8   9
ATOM      9  C   UNL     1      85.892  62.561   8.451  1.00  0.00     0.064 C 
ATOM     10  O   UNL     1      86.705  62.640   7.492  1.00  0.00    -0.545 OA
ATOM     11  O   UNL     1      86.338  62.110   9.687  1.00  0.00    -0.545 OA
ENDBRANCH   8   9
ENDBRANCH   1   7
BRANCH   4  12
ATOM     12  O   UNL     1      79.922  63.056   4.238  1.00  0.00    -0.504 OA
ATOM     13  H   UNL     1      80.329  62.463   3.524  1.00  0.00     0.293 HD
ENDBRANCH   4  12
BRANCH   6  14
ATOM     14  O   UNL     1      78.264  63.779   6.350  1.00  0.00    -0.504 OA
ATOM     15  H   UNL     1      77.988  64.714   6.073  1.00  0.00     0.293 HD
ENDBRANCH   6  14
TORSDOF 4
ENDMDL
MODEL 8
REMARK VINA RESULT:    -4.799      1.778      6.270
REMARK INTER + INTRA:          -5.769
REMARK INTER:                  -5.633
REMARK INTRA:                  -0.136
REMARK UNBOUND:                -0.128
REMARK SMILES O=C([O-])C=Cc1ccc(O)c(O)c1
REMARK SMILES IDX 6 1 13 2 7 3 11 4 8 5 9 6 5 7 4 8 2 9 1 10 3 11 12 12 10 14
REMARK H PARENT 12 13 10 15
REMARK Flexibility Score: inf
ROOT
ATOM      1  C   UNL     1      83.919  61.869   7.713  1.00  0.00    -0.022 A 
ATOM      2  C   UNL     1      84.580  60.759   7.162  1.00  0.00     0.058 A 
ATOM      3  C   UNL     1      84.686  62.948   8.194  1.00  0.00     0.012 A 
ATOM      4  C   UNL     1      85.981  60.711   7.113  1.00  0.00     0.157 A 
ATOM      5  C   UNL     1      86.082  62.900   8.144  1.00  0.00     0.051 A 
ATOM      6  C   UNL     1      86.733  61.783   7.607  1.00  0.00     0.157 A 
ENDROOT
BRANCH   1   7
ATOM      7  C   UNL     1      82.435  61.875   7.732  1.00  0.00     0.010 C 
ATOM      8  C   UNL     1      81.695  62.987   7.845  1.00  0.00     0.025 C 
BRANCH   8   9
ATOM      9  C   UNL     1      80.223  62.953   7.873  1.00  0.00     0.064 C 
ATOM     10  O   UNL     1      79.541  63.394   6.909  1.00  0.00    -0.545 OA
ATOM     11  O   UNL     1      79.574  62.427   8.982  1.00  0.00    -0.545 OA
ENDBRANCH   8   9
ENDBRANCH   1   7
BRANCH   4  12
ATOM     12  O   UNL     1      86.630  59.602   6.574  1.00  0.00    -0.504 OA
ATOM     13  H   UNL     1      86.354  58.656   6.813  1.00  0.00     0.293 HD
ENDBRANCH   4  12
BRANCH   6  14
ATOM     14  O   UNL     1      88.125  61.731   7.558  1.00  0.00    -0.504 OA
ATOM     15  H   UNL     1      88.613  61.361   6.751  1.00  0.00     0.293 HD
ENDBRANCH   6  14
TORSDOF 4
ENDMDL
MODEL 9
REMARK VINA RESULT:    -4.774      0.987      2.146
REMARK INTER + INTRA:          -5.740
REMARK INTER:                  -5.610
REMARK INTRA:                  -0.130
REMARK UNBOUND:                -0.128
REMARK SMILES O=C([O-])C=Cc1ccc(O)c(O)c1
REMARK SMILES IDX 6 1 13 2 7 3 11 4 8 5 9 6 5 7 4 8 2 9 1 10 3 11 12 12 10 14
REMARK H PARENT 12 13 10 15
REMARK Flexibility Score: inf
ROOT
ATOM      1  C   UNL     1      82.333  62.384   7.898  1.00  0.00    -0.022 A 
ATOM      2  C   UNL     1      81.925  61.049   8.049  1.00  0.00     0.058 A 
ATOM      3  C   UNL     1      81.359  63.402   7.945  1.00  0.00     0.012 A 
ATOM      4  C   UNL     1      80.571  60.728   8.218  1.00  0.00     0.157 A 
ATOM      5  C   UNL     1      80.009  63.081   8.113  1.00  0.00     0.051 A 
ATOM      6  C   UNL     1      79.610  61.746   8.248  1.00  0.00     0.157 A 
ENDROOT
BRANCH   1   7
ATOM      7  C   UNL     1      83.780  62.671   7.733  1.00  0.00     0.010 C 
ATOM      8  C   UNL     1      84.726  62.239   8.578  1.00  0.00     0.025 C 
BRANCH   8   9
ATOM      9  C   UNL     1      86.152  62.554   8.390  1.00  0.00     0.064 C 
ATOM     10  O   UNL     1      86.548  63.217   7.393  1.00  0.00    -0.545 OA
ATOM     11  O   UNL     1      87.078  62.111   9.324  1.00  0.00    -0.545 OA
ENDBRANCH   8   9
ENDBRANCH   1   7
BRANCH   4  12
ATOM     12  O   UNL     1      80.172  59.400   8.357  1.00  0.00    -0.504 OA
ATOM     13  H   UNL     1      80.143  58.946   9.263  1.00  0.00     0.293 HD
ENDBRANCH   4  12
BRANCH   6  14
ATOM     14  O   UNL     1      78.265  61.423   8.415  1.00  0.00    -0.504 OA
ATOM     15  H   UNL     1      77.841  60.649   7.917  1.00  0.00     0.293 HD
ENDBRANCH   6  14
TORSDOF 4
ENDMDL
