MODEL 1
REMARK VINA RESULT:    -0.887      0.000      0.000
REMARK INTER + INTRA:          -4.002
REMARK INTER:                  -1.613
REMARK INTRA:                  -2.389
REMARK UNBOUND:                -2.389
REMARK SMILES CCCCCCCCCCCCCCCC(=O)[O-]
REMARK SMILES IDX 9 1 10 2 11 3 12 4 13 5 14 6 15 7 16 8 17 9 18 10 8 11 7 12
REMARK SMILES IDX 6 13 5 14 4 15 3 16 2 17 1 18
REMARK H PARENT
REMARK Flexibility Score: inf
ROOT
ATOM      1  C   UNL     1      37.318   3.707  39.586  1.00  0.00     0.000 C 
ENDROOT
BRANCH   1   2
ATOM      2  C   UNL     1      36.186   3.572  40.620  1.00  0.00     0.000 C 
BRANCH   2   3
ATOM      3  C   UNL     1      36.506   2.546  41.721  1.00  0.00     0.000 C 
BRANCH   3   4
ATOM      4  C   UNL     1      38.005   2.384  42.047  1.00  0.00     0.000 C 
BRANCH   4   5
ATOM      5  C   UNL     1      38.561   0.955  41.879  1.00  0.00     0.000 C 
BRANCH   5   6
ATOM      6  C   UNL     1      39.965   0.875  41.253  1.00  0.00     0.006 C 
BRANCH   6   7
ATOM      7  C   UNL     1      40.537   2.253  40.895  1.00  0.00     0.053 C 
BRANCH   7   8
ATOM      8  C   UNL     1      41.109   2.238  39.513  1.00  0.00     0.041 C 
ATOM      9  O   UNL     1      41.892   1.315  39.162  1.00  0.00    -0.550 OA
ATOM     10  O   UNL     1      40.741   3.214  38.596  1.00  0.00    -0.550 OA
ENDBRANCH   7   8
ENDBRANCH   6   7
ENDBRANCH   5   6
ENDBRANCH   4   5
ENDBRANCH   3   4
ENDBRANCH   2   3
ENDBRANCH   1   2
BRANCH   1  11
ATOM     11  C   UNL     1      37.038   4.809  38.550  1.00  0.00     0.000 C 
BRANCH  11  12
ATOM     12  C   UNL     1      35.742   5.583  38.850  1.00  0.00    -0.000 C 
BRANCH  12  13
ATOM     13  C   UNL     1      36.000   6.979  39.445  1.00  0.00    -0.000 C 
BRANCH  13  14
ATOM     14  C   UNL     1      35.333   7.240  40.808  1.00  0.00    -0.000 C 
BRANCH  14  15
ATOM     15  C   UNL     1      36.311   7.101  41.988  1.00  0.00    -0.000 C 
BRANCH  15  16
ATOM     16  C   UNL     1      37.786   7.170  41.554  1.00  0.00    -0.000 C 
BRANCH  16  17
ATOM     17  C   UNL     1      38.678   6.052  42.125  1.00  0.00    -0.003 C 
ATOM     18  C   UNL     1      39.929   5.799  41.284  1.00  0.00     0.004 C 
ENDBRANCH  16  17
ENDBRANCH  15  16
ENDBRANCH  14  15
ENDBRANCH  13  14
ENDBRANCH  12  13
ENDBRANCH  11  12
ENDBRANCH   1  11
TORSDOF 14
ENDMDL
MODEL 2
REMARK VINA RESULT:    -0.843      2.840      5.113
REMARK INTER + INTRA:          -3.923
REMARK INTER:                  -1.280
REMARK INTRA:                  -2.643
REMARK UNBOUND:                -2.389
REMARK SMILES CCCCCCCCCCCCCCCC(=O)[O-]
REMARK SMILES IDX 9 1 10 2 11 3 12 4 13 5 14 6 15 7 16 8 17 9 18 10 8 11 7 12
REMARK SMILES IDX 6 13 5 14 4 15 3 16 2 17 1 18
REMARK H PARENT
REMARK Flexibility Score: inf
ROOT
ATOM      1  C   UNL     1      39.043   4.856  37.223  1.00  0.00     0.000 C 
ENDROOT
BRANCH   1   2
ATOM      2  C   UNL     1      37.576   5.013  37.659  1.00  0.00     0.000 C 
BRANCH   2   3
ATOM      3  C   UNL     1      37.289   4.367  39.026  1.00  0.00     0.000 C 
BRANCH   3   4
ATOM      4  C   UNL     1      37.010   5.361  40.172  1.00  0.00     0.000 C 
BRANCH   4   5
ATOM      5  C   UNL     1      36.783   4.719  41.556  1.00  0.00     0.000 C 
BRANCH   5   6
ATOM      6  C   UNL     1      36.903   3.185  41.587  1.00  0.00     0.006 C 
BRANCH   6   7
ATOM      7  C   UNL     1      35.640   2.500  42.125  1.00  0.00     0.053 C 
BRANCH   7   8
ATOM      8  C   UNL     1      34.780   2.029  40.995  1.00  0.00     0.041 C 
ATOM      9  O   UNL     1      35.307   1.612  39.929  1.00  0.00    -0.550 OA
ATOM     10  O   UNL     1      33.399   2.005  41.136  1.00  0.00    -0.550 OA
ENDBRANCH   7   8
ENDBRANCH   6   7
ENDBRANCH   5   6
ENDBRANCH   4   5
ENDBRANCH   3   4
ENDBRANCH   2   3
ENDBRANCH   1   2
BRANCH   1  11
ATOM     11  C   UNL     1      39.913   6.051  37.645  1.00  0.00     0.000 C 
BRANCH  11  12
ATOM     12  C   UNL     1      40.968   5.668  38.698  1.00  0.00    -0.000 C 
BRANCH  12  13
ATOM     13  C   UNL     1      40.573   6.087  40.125  1.00  0.00    -0.000 C 
BRANCH  13  14
ATOM     14  C   UNL     1      40.626   4.959  41.173  1.00  0.00    -0.000 C 
BRANCH  14  15
ATOM     15  C   UNL     1      41.263   3.669  40.630  1.00  0.00    -0.000 C 
BRANCH  15  16
ATOM     16  C   UNL     1      40.286   2.480  40.617  1.00  0.00    -0.000 C 
BRANCH  16  17
ATOM     17  C   UNL     1      40.055   1.852  39.230  1.00  0.00    -0.003 C 
ATOM     18  C   UNL     1      38.781   1.010  39.160  1.00  0.00     0.004 C 
ENDBRANCH  16  17
ENDBRANCH  15  16
ENDBRANCH  14  15
ENDBRANCH  13  14
ENDBRANCH  12  13
ENDBRANCH  11  12
ENDBRANCH   1  11
TORSDOF 14
ENDMDL
MODEL 3
REMARK VINA RESULT:    -0.829      3.291      5.637
REMARK INTER + INTRA:          -3.898
REMARK INTER:                  -1.369
REMARK INTRA:                  -2.529
REMARK UNBOUND:                -2.389
REMARK SMILES CCCCCCCCCCCCCCCC(=O)[O-]
REMARK SMILES IDX 9 1 10 2 11 3 12 4 13 5 14 6 15 7 16 8 17 9 18 10 8 11 7 12
REMARK SMILES IDX 6 13 5 14 4 15 3 16 2 17 1 18
REMARK H PARENT
REMARK Flexibility Score: inf
ROOT
ATOM      1  C   UNL     1      40.269   3.072  37.521  1.00  0.00     0.000 C 
ENDROOT
BRANCH   1   2
ATOM      2  C   UNL     1      39.631   4.461  37.696  1.00  0.00     0.000 C 
BRANCH   2   3
ATOM      3  C   UNL     1      38.479   4.463  38.717  1.00  0.00     0.000 C 
BRANCH   3   4
ATOM      4  C   UNL     1      38.872   4.904  40.142  1.00  0.00     0.000 C 
BRANCH   4   5
ATOM      5  C   UNL     1      38.373   3.983  41.274  1.00  0.00     0.000 C 
BRANCH   5   6
ATOM      6  C   UNL     1      37.438   2.847  40.822  1.00  0.00     0.006 C 
BRANCH   6   7
ATOM      7  C   UNL     1      36.880   2.032  41.997  1.00  0.00     0.053 C 
BRANCH   7   8
ATOM      8  C   UNL     1      35.385   2.050  41.980  1.00  0.00     0.041 C 
ATOM      9  O   UNL     1      34.762   3.136  42.125  1.00  0.00    -0.550 OA
ATOM     10  O   UNL     1      34.677   0.876  41.757  1.00  0.00    -0.550 OA
ENDBRANCH   7   8
ENDBRANCH   6   7
ENDBRANCH   5   6
ENDBRANCH   4   5
ENDBRANCH   3   4
ENDBRANCH   2   3
ENDBRANCH   1   2
BRANCH   1  11
ATOM     11  C   UNL     1      39.267   1.931  37.761  1.00  0.00     0.000 C 
BRANCH  11  12
ATOM     12  C   UNL     1      39.779   0.904  38.786  1.00  0.00    -0.000 C 
BRANCH  12  13
ATOM     13  C   UNL     1      41.165   1.263  39.354  1.00  0.00    -0.000 C 
BRANCH  13  14
ATOM     14  C   UNL     1      41.180   1.630  40.849  1.00  0.00    -0.000 C 
BRANCH  14  15
ATOM     15  C   UNL     1      42.367   2.530  41.232  1.00  0.00    -0.000 C 
BRANCH  15  16
ATOM     16  C   UNL     1      42.230   3.964  40.687  1.00  0.00    -0.000 C 
BRANCH  16  17
ATOM     17  C   UNL     1      43.486   4.506  39.982  1.00  0.00    -0.003 C 
ATOM     18  C   UNL     1      43.720   3.875  38.609  1.00  0.00     0.004 C 
ENDBRANCH  16  17
ENDBRANCH  15  16
ENDBRANCH  14  15
ENDBRANCH  13  14
ENDBRANCH  12  13
ENDBRANCH  11  12
ENDBRANCH   1  11
TORSDOF 14
ENDMDL
MODEL 4
REMARK VINA RESULT:    -0.829      2.108      4.002
REMARK INTER + INTRA:          -3.897
REMARK INTER:                  -1.131
REMARK INTRA:                  -2.766
REMARK UNBOUND:                -2.389
REMARK SMILES CCCCCCCCCCCCCCCC(=O)[O-]
REMARK SMILES IDX 9 1 10 2 11 3 12 4 13 5 14 6 15 7 16 8 17 9 18 10 8 11 7 12
REMARK SMILES IDX 6 13 5 14 4 15 3 16 2 17 1 18
REMARK H PARENT
REMARK Flexibility Score: inf
ROOT
ATOM      1  C   UNL     1      38.028   4.567  37.792  1.00  0.00     0.000 C 
ENDROOT
BRANCH   1   2
ATOM      2  C   UNL     1      37.612   5.960  38.297  1.00  0.00     0.000 C 
BRANCH   2   3
ATOM      3  C   UNL     1      38.560   6.509  39.378  1.00  0.00     0.000 C 
BRANCH   3   4
ATOM      4  C   UNL     1      39.971   5.885  39.386  1.00  0.00     0.000 C 
BRANCH   4   5
ATOM      5  C   UNL     1      40.614   5.738  40.780  1.00  0.00     0.000 C 
BRANCH   5   6
ATOM      6  C   UNL     1      41.394   4.430  41.000  1.00  0.00     0.006 C 
BRANCH   6   7
ATOM      7  C   UNL     1      41.813   3.758  39.685  1.00  0.00     0.053 C 
BRANCH   7   8
ATOM      8  C   UNL     1      43.229   4.102  39.350  1.00  0.00     0.041 C 
ATOM      9  O   UNL     1      44.088   4.212  40.265  1.00  0.00    -0.550 OA
ATOM     10  O   UNL     1      43.613   4.255  38.024  1.00  0.00    -0.550 OA
ENDBRANCH   7   8
ENDBRANCH   6   7
ENDBRANCH   5   6
ENDBRANCH   4   5
ENDBRANCH   3   4
ENDBRANCH   2   3
ENDBRANCH   1   2
BRANCH   1  11
ATOM     11  C   UNL     1      36.863   3.565  37.805  1.00  0.00     0.000 C 
BRANCH  11  12
ATOM     12  C   UNL     1      37.108   2.389  38.768  1.00  0.00    -0.000 C 
BRANCH  12  13
ATOM     13  C   UNL     1      38.350   2.590  39.656  1.00  0.00    -0.000 C 
BRANCH  13  14
ATOM     14  C   UNL     1      38.123   2.340  41.158  1.00  0.00    -0.000 C 
BRANCH  14  15
ATOM     15  C   UNL     1      37.813   3.629  41.938  1.00  0.00    -0.000 C 
BRANCH  15  16
ATOM     16  C   UNL     1      36.304   3.866  42.125  1.00  0.00    -0.000 C 
BRANCH  16  17
ATOM     17  C   UNL     1      35.711   4.970  41.230  1.00  0.00    -0.003 C 
ATOM     18  C   UNL     1      34.473   4.513  40.458  1.00  0.00     0.004 C 
ENDBRANCH  16  17
ENDBRANCH  15  16
ENDBRANCH  14  15
ENDBRANCH  13  14
ENDBRANCH  12  13
ENDBRANCH  11  12
ENDBRANCH   1  11
TORSDOF 14
ENDMDL
MODEL 5
REMARK VINA RESULT:    -0.823      3.146      4.968
REMARK INTER + INTRA:          -3.885
REMARK INTER:                  -1.296
REMARK INTRA:                  -2.589
REMARK UNBOUND:                -2.389
REMARK SMILES CCCCCCCCCCCCCCCC(=O)[O-]
REMARK SMILES IDX 9 1 10 2 11 3 12 4 13 5 14 6 15 7 16 8 17 9 18 10 8 11 7 12
REMARK SMILES IDX 6 13 5 14 4 15 3 16 2 17 1 18
REMARK H PARENT
REMARK Flexibility Score: inf
ROOT
ATOM      1  C   UNL     1      40.652   2.708  39.940  1.00  0.00     0.000 C 
ENDROOT
BRANCH   1   2
ATOM      2  C   UNL     1      40.007   1.568  40.746  1.00  0.00     0.000 C 
BRANCH   2   3
ATOM      3  C   UNL     1      38.687   1.074  40.128  1.00  0.00     0.000 C 
BRANCH   3   4
ATOM      4  C   UNL     1      37.432   1.309  40.993  1.00  0.00     0.000 C 
BRANCH   4   5
ATOM      5  C   UNL     1      37.601   2.343  42.125  1.00  0.00     0.000 C 
BRANCH   5   6
ATOM      6  C   UNL     1      36.706   3.589  42.005  1.00  0.00     0.006 C 
BRANCH   6   7
ATOM      7  C   UNL     1      35.529   3.387  41.040  1.00  0.00     0.053 C 
BRANCH   7   8
ATOM      8  C   UNL     1      34.658   4.602  41.017  1.00  0.00     0.041 C 
ATOM      9  O   UNL     1      33.939   4.848  40.013  1.00  0.00    -0.550 OA
ATOM     10  O   UNL     1      34.601   5.438  42.125  1.00  0.00    -0.550 OA
ENDBRANCH   7   8
ENDBRANCH   6   7
ENDBRANCH   5   6
ENDBRANCH   4   5
ENDBRANCH   3   4
ENDBRANCH   2   3
ENDBRANCH   1   2
BRANCH   1  11
ATOM     11  C   UNL     1      40.434   4.084  40.590  1.00  0.00     0.000 C 
BRANCH  11  12
ATOM     12  C   UNL     1      40.868   5.242  39.674  1.00  0.00    -0.000 C 
BRANCH  12  13
ATOM     13  C   UNL     1      39.761   6.293  39.469  1.00  0.00    -0.000 C 
BRANCH  13  14
ATOM     14  C   UNL     1      38.332   5.796  39.752  1.00  0.00    -0.000 C 
BRANCH  14  15
ATOM     15  C   UNL     1      37.553   5.455  38.470  1.00  0.00    -0.000 C 
BRANCH  15  16
ATOM     16  C   UNL     1      37.653   3.967  38.087  1.00  0.00    -0.000 C 
BRANCH  16  17
ATOM     17  C   UNL     1      38.122   3.704  36.645  1.00  0.00    -0.003 C 
ATOM     18  C   UNL     1      39.642   3.594  36.521  1.00  0.00     0.004 C 
ENDBRANCH  16  17
ENDBRANCH  15  16
ENDBRANCH  14  15
ENDBRANCH  13  14
ENDBRANCH  12  13
ENDBRANCH  11  12
ENDBRANCH   1  11
TORSDOF 14
ENDMDL
MODEL 6
REMARK VINA RESULT:    -0.750      3.247      5.729
REMARK INTER + INTRA:          -3.753
REMARK INTER:                  -1.200
REMARK INTRA:                  -2.552
REMARK UNBOUND:                -2.389
REMARK SMILES CCCCCCCCCCCCCCCC(=O)[O-]
REMARK SMILES IDX 9 1 10 2 11 3 12 4 13 5 14 6 15 7 16 8 17 9 18 10 8 11 7 12
REMARK SMILES IDX 6 13 5 14 4 15 3 16 2 17 1 18
REMARK H PARENT
REMARK Flexibility Score: inf
ROOT
ATOM      1  C   UNL     1      39.864   4.924  37.673  1.00  0.00     0.000 C 
ENDROOT
BRANCH   1   2
ATOM      2  C   UNL     1      38.990   5.433  38.833  1.00  0.00     0.000 C 
BRANCH   2   3
ATOM      3  C   UNL     1      37.485   5.358  38.521  1.00  0.00     0.000 C 
BRANCH   3   4
ATOM      4  C   UNL     1      37.030   4.070  37.806  1.00  0.00     0.000 C 
BRANCH   4   5
ATOM      5  C   UNL     1      36.051   3.186  38.606  1.00  0.00     0.000 C 
BRANCH   5   6
ATOM      6  C   UNL     1      34.575   3.615  38.525  1.00  0.00     0.006 C 
BRANCH   6   7
ATOM      7  C   UNL     1      33.797   3.318  39.814  1.00  0.00     0.053 C 
BRANCH   7   8
ATOM      8  C   UNL     1      33.640   4.564  40.627  1.00  0.00     0.041 C 
ATOM      9  O   UNL     1      33.298   4.492  41.837  1.00  0.00    -0.550 OA
ATOM     10  O   UNL     1      33.918   5.802  40.063  1.00  0.00    -0.550 OA
ENDBRANCH   7   8
ENDBRANCH   6   7
ENDBRANCH   5   6
ENDBRANCH   4   5
ENDBRANCH   3   4
ENDBRANCH   2   3
ENDBRANCH   1   2
BRANCH   1  11
ATOM     11  C   UNL     1      40.583   3.609  38.013  1.00  0.00     0.000 C 
BRANCH  11  12
ATOM     12  C   UNL     1      41.221   3.632  39.414  1.00  0.00    -0.000 C 
BRANCH  12  13
ATOM     13  C   UNL     1      40.735   2.481  40.314  1.00  0.00    -0.000 C 
BRANCH  13  14
ATOM     14  C   UNL     1      39.359   1.900  39.942  1.00  0.00    -0.000 C 
BRANCH  14  15
ATOM     15  C   UNL     1      38.347   1.973  41.098  1.00  0.00    -0.000 C 
BRANCH  15  16
ATOM     16  C   UNL     1      38.352   3.336  41.812  1.00  0.00    -0.000 C 
BRANCH  16  17
ATOM     17  C   UNL     1      36.955   3.906  42.120  1.00  0.00    -0.003 C 
ATOM     18  C   UNL     1      36.921   5.435  42.125  1.00  0.00     0.004 C 
ENDBRANCH  16  17
ENDBRANCH  15  16
ENDBRANCH  14  15
ENDBRANCH  13  14
ENDBRANCH  12  13
ENDBRANCH  11  12
ENDBRANCH   1  11
TORSDOF 14
ENDMDL
MODEL 7
REMARK VINA RESULT:    -0.732      3.089      4.979
REMARK INTER + INTRA:          -3.721
REMARK INTER:                  -1.230
REMARK INTRA:                  -2.492
REMARK UNBOUND:                -2.389
REMARK SMILES CCCCCCCCCCCCCCCC(=O)[O-]
REMARK SMILES IDX 9 1 10 2 11 3 12 4 13 5 14 6 15 7 16 8 17 9 18 10 8 11 7 12
REMARK SMILES IDX 6 13 5 14 4 15 3 16 2 17 1 18
REMARK H PARENT
REMARK Flexibility Score: inf
ROOT
ATOM      1  C   UNL     1      37.497   4.524  38.546  1.00  0.00     0.000 C 
ENDROOT
BRANCH   1   2
ATOM      2  C   UNL     1      37.576   3.213  37.744  1.00  0.00     0.000 C 
BRANCH   2   3
ATOM      3  C   UNL     1      38.895   2.453  37.974  1.00  0.00     0.000 C 
BRANCH   3   4
ATOM      4  C   UNL     1      39.653   2.059  36.690  1.00  0.00     0.000 C 
BRANCH   4   5
ATOM      5  C   UNL     1      39.677   3.136  35.586  1.00  0.00     0.000 C 
BRANCH   5   6
ATOM      6  C   UNL     1      40.674   4.284  35.821  1.00  0.00     0.006 C 
BRANCH   6   7
ATOM      7  C   UNL     1      39.986   5.646  35.985  1.00  0.00     0.053 C 
BRANCH   7   8
ATOM      8  C   UNL     1      39.177   5.972  34.771  1.00  0.00     0.041 C 
ATOM      9  O   UNL     1      39.736   6.082  33.647  1.00  0.00    -0.550 OA
ATOM     10  O   UNL     1      37.798   6.106  34.868  1.00  0.00    -0.550 OA
ENDBRANCH   7   8
ENDBRANCH   6   7
ENDBRANCH   5   6
ENDBRANCH   4   5
ENDBRANCH   3   4
ENDBRANCH   2   3
ENDBRANCH   1   2
BRANCH   1  11
ATOM     11  C   UNL     1      38.754   4.769  39.397  1.00  0.00     0.000 C 
BRANCH  11  12
ATOM     12  C   UNL     1      38.419   5.048  40.873  1.00  0.00    -0.000 C 
BRANCH  12  13
ATOM     13  C   UNL     1      36.908   5.006  41.164  1.00  0.00    -0.000 C 
BRANCH  13  14
ATOM     14  C   UNL     1      36.461   3.888  42.125  1.00  0.00    -0.000 C 
BRANCH  14  15
ATOM     15  C   UNL     1      35.823   2.694  41.396  1.00  0.00    -0.000 C 
BRANCH  15  16
ATOM     16  C   UNL     1      36.835   1.580  41.073  1.00  0.00    -0.000 C 
BRANCH  16  17
ATOM     17  C   UNL     1      37.993   1.452  42.079  1.00  0.00    -0.003 C 
ATOM     18  C   UNL     1      39.365   1.403  41.406  1.00  0.00     0.004 C 
ENDBRANCH  16  17
ENDBRANCH  15  16
ENDBRANCH  14  15
ENDBRANCH  13  14
ENDBRANCH  12  13
ENDBRANCH  11  12
ENDBRANCH   1  11
TORSDOF 14
ENDMDL
MODEL 8
REMARK VINA RESULT:    -0.726      3.107      5.803
REMARK INTER + INTRA:          -3.709
REMARK INTER:                  -1.152
REMARK INTRA:                  -2.557
REMARK UNBOUND:                -2.389
REMARK SMILES CCCCCCCCCCCCCCCC(=O)[O-]
REMARK SMILES IDX 9 1 10 2 11 3 12 4 13 5 14 6 15 7 16 8 17 9 18 10 8 11 7 12
REMARK SMILES IDX 6 13 5 14 4 15 3 16 2 17 1 18
REMARK H PARENT
REMARK Flexibility Score: inf
ROOT
ATOM      1  C   UNL     1      38.801   3.789  40.919  1.00  0.00     0.000 C 
ENDROOT
BRANCH   1   2
ATOM      2  C   UNL     1      38.680   5.312  40.728  1.00  0.00     0.000 C 
BRANCH   2   3
ATOM      3  C   UNL     1      38.036   6.013  41.938  1.00  0.00     0.000 C 
BRANCH   3   4
ATOM      4  C   UNL     1      36.816   6.896  41.606  1.00  0.00     0.000 C 
BRANCH   4   5
ATOM      5  C   UNL     1      36.428   6.945  40.115  1.00  0.00     0.000 C 
BRANCH   5   6
ATOM      6  C   UNL     1      36.701   8.288  39.416  1.00  0.00     0.006 C 
BRANCH   6   7
ATOM      7  C   UNL     1      37.528   8.136  38.132  1.00  0.00     0.053 C 
BRANCH   7   8
ATOM      8  C   UNL     1      36.731   8.570  36.944  1.00  0.00     0.041 C 
ATOM      9  O   UNL     1      35.984   9.581  37.016  1.00  0.00    -0.550 OA
ATOM     10  O   UNL     1      36.850   7.887  35.740  1.00  0.00    -0.550 OA
ENDBRANCH   7   8
ENDBRANCH   6   7
ENDBRANCH   5   6
ENDBRANCH   4   5
ENDBRANCH   3   4
ENDBRANCH   2   3
ENDBRANCH   1   2
BRANCH   1  11
ATOM     11  C   UNL     1      37.991   3.282  42.123  1.00  0.00     0.000 C 
BRANCH  11  12
ATOM     12  C   UNL     1      36.773   2.441  41.700  1.00  0.00    -0.000 C 
BRANCH  12  13
ATOM     13  C   UNL     1      35.433   3.069  42.125  1.00  0.00    -0.000 C 
BRANCH  13  14
ATOM     14  C   UNL     1      34.719   3.883  41.030  1.00  0.00    -0.000 C 
BRANCH  14  15
ATOM     15  C   UNL     1      34.507   3.083  39.734  1.00  0.00    -0.000 C 
BRANCH  15  16
ATOM     16  C   UNL     1      35.053   3.805  38.489  1.00  0.00    -0.000 C 
BRANCH  16  17
ATOM     17  C   UNL     1      36.507   3.453  38.127  1.00  0.00    -0.003 C 
ATOM     18  C   UNL     1      37.222   4.571  37.369  1.00  0.00     0.004 C 
ENDBRANCH  16  17
ENDBRANCH  15  16
ENDBRANCH  14  15
ENDBRANCH  13  14
ENDBRANCH  12  13
ENDBRANCH  11  12
ENDBRANCH   1  11
TORSDOF 14
ENDMDL
MODEL 9
REMARK VINA RESULT:     1.055      3.220      5.634
REMARK INTER + INTRA:          -0.470
REMARK INTER:                   1.990
REMARK INTRA:                  -2.460
REMARK UNBOUND:                -2.389
REMARK SMILES CCCCCCCCCCCCCCCC(=O)[O-]
REMARK SMILES IDX 9 1 10 2 11 3 12 4 13 5 14 6 15 7 16 8 17 9 18 10 8 11 7 12
REMARK SMILES IDX 6 13 5 14 4 15 3 16 2 17 1 18
REMARK H PARENT
REMARK Flexibility Score: inf
ROOT
ATOM      1  C   UNL     1      40.619   4.097  39.920  1.00  0.00     0.000 C 
ENDROOT
BRANCH   1   2
ATOM      2  C   UNL     1      39.476   5.025  40.368  1.00  0.00     0.000 C 
BRANCH   2   3
ATOM      3  C   UNL     1      38.914   4.651  41.751  1.00  0.00     0.000 C 
BRANCH   3   4
ATOM      4  C   UNL     1      37.483   4.076  41.739  1.00  0.00     0.000 C 
BRANCH   4   5
ATOM      5  C   UNL     1      37.372   2.585  42.118  1.00  0.00     0.000 C 
BRANCH   5   6
ATOM      6  C   UNL     1      35.941   2.021  42.125  1.00  0.00     0.006 C 
BRANCH   6   7
ATOM      7  C   UNL     1      34.868   3.119  42.119  1.00  0.00     0.053 C 
BRANCH   7   8
ATOM      8  C   UNL     1      33.915   2.911  40.985  1.00  0.00     0.041 C 
ATOM      9  O   UNL     1      34.186   2.086  40.072  1.00  0.00    -0.550 OA
ATOM     10  O   UNL     1      32.704   3.591  40.960  1.00  0.00    -0.550 OA
ENDBRANCH   7   8
ENDBRANCH   6   7
ENDBRANCH   5   6
ENDBRANCH   4   5
ENDBRANCH   3   4
ENDBRANCH   2   3
ENDBRANCH   1   2
BRANCH   1  11
ATOM     11  C   UNL     1      40.724   2.833  40.788  1.00  0.00     0.000 C 
BRANCH  11  12
ATOM     12  C   UNL     1      40.248   1.570  40.047  1.00  0.00    -0.000 C 
BRANCH  12  13
ATOM     13  C   UNL     1      40.102   1.784  38.529  1.00  0.00    -0.000 C 
BRANCH  13  14
ATOM     14  C   UNL     1      38.827   1.185  37.907  1.00  0.00    -0.000 C 
BRANCH  14  15
ATOM     15  C   UNL     1      37.544   1.630  38.629  1.00  0.00    -0.000 C 
BRANCH  15  16
ATOM     16  C   UNL     1      37.152   3.084  38.308  1.00  0.00    -0.000 C 
BRANCH  16  17
ATOM     17  C   UNL     1      37.469   3.534  36.871  1.00  0.00    -0.003 C 
ATOM     18  C   UNL     1      38.390   4.753  36.816  1.00  0.00     0.004 C 
ENDBRANCH  16  17
ENDBRANCH  15  16
ENDBRANCH  14  15
ENDBRANCH  13  14
ENDBRANCH  12  13
ENDBRANCH  11  12
ENDBRANCH   1  11
TORSDOF 14
ENDMDL
