MODEL 1
REMARK VINA RESULT:    -3.377      0.000      0.000
REMARK INTER + INTRA:          -3.377
REMARK INTER:                  -3.377
REMARK INTRA:                   0.000
REMARK UNBOUND:                 0.000
REMARK SMILES CC1(C)C(=O)[C@]2(C)CC[C@H]1C2
REMARK SMILES IDX 1 1 2 2 10 3 9 4 8 5 6 6 11 7 4 8 5 9 7 10 3 11
REMARK H PARENT
REMARK Flexibility Score: inf
ROOT
ATOM      1  C   UNL     1      -6.061  23.691  11.740  1.00  0.00     0.020 C 
ATOM      2  C   UNL     1      -7.064  22.639  11.220  1.00  0.00     0.027 C 
ATOM      3  C   UNL     1      -8.537  23.181  11.247  1.00  0.00     0.003 C 
ATOM      4  C   UNL     1      -9.510  22.191  10.557  1.00  0.00     0.005 C 
ATOM      5  C   UNL     1      -9.520  20.982  11.521  1.00  0.00     0.015 C 
ATOM      6  C   UNL     1      -8.637  21.472  12.684  1.00  0.00     0.027 C 
ATOM      7  C   UNL     1      -8.950  22.954  12.701  1.00  0.00     0.019 C 
ATOM      8  C   UNL     1      -7.216  21.506  12.194  1.00  0.00     0.144 C 
ATOM      9  O   UNL     1      -6.345  20.697  12.481  1.00  0.00    -0.298 OA
ATOM     10  C   UNL     1      -8.853  20.757  14.019  1.00  0.00     0.020 C 
ATOM     11  C   UNL     1      -6.597  22.136   9.836  1.00  0.00     0.020 C 
ENDROOT
TORSDOF 0
ENDMDL
MODEL 2
REMARK VINA RESULT:    -3.299      0.894      3.163
REMARK INTER + INTRA:          -3.299
REMARK INTER:                  -3.299
REMARK INTRA:                   0.000
REMARK UNBOUND:                 0.000
REMARK SMILES CC1(C)C(=O)[C@]2(C)CC[C@H]1C2
REMARK SMILES IDX 1 1 2 2 10 3 9 4 8 5 6 6 11 7 4 8 5 9 7 10 3 11
REMARK H PARENT
REMARK Flexibility Score: inf
ROOT
ATOM      1  C   UNL     1      -9.151  20.055  13.238  1.00  0.00     0.020 C 
ATOM      2  C   UNL     1      -8.590  21.488  13.117  1.00  0.00     0.027 C 
ATOM      3  C   UNL     1      -9.498  22.390  12.207  1.00  0.00     0.003 C 
ATOM      4  C   UNL     1      -9.030  23.868  12.239  1.00  0.00     0.005 C 
ATOM      5  C   UNL     1      -7.669  23.818  11.506  1.00  0.00     0.015 C 
ATOM      6  C   UNL     1      -7.580  22.346  11.062  1.00  0.00     0.027 C 
ATOM      7  C   UNL     1      -9.035  22.018  10.799  1.00  0.00     0.019 C 
ATOM      8  C   UNL     1      -7.337  21.514  12.290  1.00  0.00     0.144 C 
ATOM      9  O   UNL     1      -6.271  21.003  12.604  1.00  0.00    -0.298 OA
ATOM     10  C   UNL     1      -6.639  22.071   9.887  1.00  0.00     0.020 C 
ATOM     11  C   UNL     1      -8.346  22.057  14.532  1.00  0.00     0.020 C 
ENDROOT
TORSDOF 0
ENDMDL
MODEL 3
REMARK VINA RESULT:    -3.243      1.990      3.651
REMARK INTER + INTRA:          -3.243
REMARK INTER:                  -3.243
REMARK INTRA:                   0.000
REMARK UNBOUND:                 0.000
REMARK SMILES CC1(C)C(=O)[C@]2(C)CC[C@H]1C2
REMARK SMILES IDX 1 1 2 2 10 3 9 4 8 5 6 6 11 7 4 8 5 9 7 10 3 11
REMARK H PARENT
REMARK Flexibility Score: inf
ROOT
ATOM      1  C   UNL     1      -8.233  23.144  15.013  1.00  0.00     0.020 C 
ATOM      2  C   UNL     1      -9.226  22.260  14.227  1.00  0.00     0.027 C 
ATOM      3  C   UNL     1      -8.641  20.826  13.963  1.00  0.00     0.003 C 
ATOM      4  C   UNL     1      -9.709  19.893  13.339  1.00  0.00     0.005 C 
ATOM      5  C   UNL     1      -9.918  20.495  11.930  1.00  0.00     0.015 C 
ATOM      6  C   UNL     1      -8.875  21.629  11.891  1.00  0.00     0.027 C 
ATOM      7  C   UNL     1      -7.760  21.046  12.734  1.00  0.00     0.019 C 
ATOM      8  C   UNL     1      -9.357  22.721  12.805  1.00  0.00     0.144 C 
ATOM      9  O   UNL     1      -9.846  23.784  12.447  1.00  0.00    -0.298 OA
ATOM     10  C   UNL     1      -8.451  22.083  10.493  1.00  0.00     0.020 C 
ATOM     11  C   UNL     1     -10.590  22.265  14.952  1.00  0.00     0.020 C 
ENDROOT
TORSDOF 0
ENDMDL
MODEL 4
REMARK VINA RESULT:    -3.191      2.089      3.428
REMARK INTER + INTRA:          -3.191
REMARK INTER:                  -3.191
REMARK INTRA:                   0.000
REMARK UNBOUND:                 0.000
REMARK SMILES CC1(C)C(=O)[C@]2(C)CC[C@H]1C2
REMARK SMILES IDX 1 1 2 2 10 3 9 4 8 5 6 6 11 7 4 8 5 9 7 10 3 11
REMARK H PARENT
REMARK Flexibility Score: inf
ROOT
ATOM      1  C   UNL     1     -10.466  20.060  11.676  1.00  0.00     0.020 C 
ATOM      2  C   UNL     1      -9.457  21.215  11.852  1.00  0.00     0.027 C 
ATOM      3  C   UNL     1      -8.237  20.787  12.743  1.00  0.00     0.003 C 
ATOM      4  C   UNL     1      -7.145  21.888  12.763  1.00  0.00     0.005 C 
ATOM      5  C   UNL     1      -7.821  23.034  13.550  1.00  0.00     0.015 C 
ATOM      6  C   UNL     1      -9.167  22.410  13.966  1.00  0.00     0.027 C 
ATOM      7  C   UNL     1      -8.782  20.958  14.160  1.00  0.00     0.019 C 
ATOM      8  C   UNL     1     -10.017  22.296  12.730  1.00  0.00     0.144 C 
ATOM      9  O   UNL     1     -10.964  23.017  12.450  1.00  0.00    -0.298 OA
ATOM     10  C   UNL     1      -9.848  23.059  15.172  1.00  0.00     0.020 C 
ATOM     11  C   UNL     1      -9.067  21.762  10.461  1.00  0.00     0.020 C 
ENDROOT
TORSDOF 0
ENDMDL
MODEL 5
REMARK VINA RESULT:    -3.156      1.510      2.462
REMARK INTER + INTRA:          -3.156
REMARK INTER:                  -3.156
REMARK INTRA:                   0.000
REMARK UNBOUND:                 0.000
REMARK SMILES CC1(C)C(=O)[C@]2(C)CC[C@H]1C2
REMARK SMILES IDX 1 1 2 2 10 3 9 4 8 5 6 6 11 7 4 8 5 9 7 10 3 11
REMARK H PARENT
REMARK Flexibility Score: inf
ROOT
ATOM      1  C   UNL     1      -6.804  22.133   9.469  1.00  0.00     0.020 C 
ATOM      2  C   UNL     1      -7.548  22.782  10.655  1.00  0.00     0.027 C 
ATOM      3  C   UNL     1      -6.617  22.930  11.911  1.00  0.00     0.003 C 
ATOM      4  C   UNL     1      -7.314  23.745  13.031  1.00  0.00     0.005 C 
ATOM      5  C   UNL     1      -8.448  22.802  13.495  1.00  0.00     0.015 C 
ATOM      6  C   UNL     1      -8.194  21.534  12.657  1.00  0.00     0.027 C 
ATOM      7  C   UNL     1      -6.684  21.540  12.543  1.00  0.00     0.019 C 
ATOM      8  C   UNL     1      -8.570  21.846  11.235  1.00  0.00     0.144 C 
ATOM      9  O   UNL     1      -9.581  21.462  10.665  1.00  0.00    -0.298 OA
ATOM     10  C   UNL     1      -8.789  20.243  13.223  1.00  0.00     0.020 C 
ATOM     11  C   UNL     1      -8.194  24.104  10.185  1.00  0.00     0.020 C 
ENDROOT
TORSDOF 0
ENDMDL
MODEL 6
REMARK VINA RESULT:    -3.089      1.644      2.695
REMARK INTER + INTRA:          -3.089
REMARK INTER:                  -3.089
REMARK INTRA:                   0.000
REMARK UNBOUND:                 0.000
REMARK SMILES CC1(C)C(=O)[C@]2(C)CC[C@H]1C2
REMARK SMILES IDX 1 1 2 2 10 3 9 4 8 5 6 6 11 7 4 8 5 9 7 10 3 11
REMARK H PARENT
REMARK Flexibility Score: inf
ROOT
ATOM      1  C   UNL     1      -8.191  22.688  10.631  1.00  0.00     0.020 C 
ATOM      2  C   UNL     1      -8.063  22.022  12.018  1.00  0.00     0.027 C 
ATOM      3  C   UNL     1      -9.198  20.964  12.260  1.00  0.00     0.003 C 
ATOM      4  C   UNL     1      -8.956  20.173  13.571  1.00  0.00     0.005 C 
ATOM      5  C   UNL     1      -9.178  21.240  14.667  1.00  0.00     0.015 C 
ATOM      6  C   UNL     1      -9.616  22.473  13.853  1.00  0.00     0.027 C 
ATOM      7  C   UNL     1     -10.373  21.830  12.710  1.00  0.00     0.019 C 
ATOM      8  C   UNL     1      -8.408  22.984  13.118  1.00  0.00     0.144 C 
ATOM      9  O   UNL     1      -7.765  23.982  13.413  1.00  0.00    -0.298 OA
ATOM     10  C   UNL     1     -10.405  23.528  14.632  1.00  0.00     0.020 C 
ATOM     11  C   UNL     1      -6.631  21.466  12.182  1.00  0.00     0.020 C 
ENDROOT
TORSDOF 0
ENDMDL
MODEL 7
REMARK VINA RESULT:    -3.086      2.518      3.647
REMARK INTER + INTRA:          -3.086
REMARK INTER:                  -3.086
REMARK INTRA:                   0.000
REMARK UNBOUND:                 0.000
REMARK SMILES CC1(C)C(=O)[C@]2(C)CC[C@H]1C2
REMARK SMILES IDX 1 1 2 2 10 3 9 4 8 5 6 6 11 7 4 8 5 9 7 10 3 11
REMARK H PARENT
REMARK Flexibility Score: inf
ROOT
ATOM      1  C   UNL     1      -4.176  25.882   9.918  1.00  0.00     0.020 C 
ATOM      2  C   UNL     1      -4.563  24.455   9.473  1.00  0.00     0.027 C 
ATOM      3  C   UNL     1      -6.041  24.394   8.946  1.00  0.00     0.003 C 
ATOM      4  C   UNL     1      -6.360  23.006   8.333  1.00  0.00     0.005 C 
ATOM      5  C   UNL     1      -6.344  22.070   9.563  1.00  0.00     0.015 C 
ATOM      6  C   UNL     1      -6.120  23.051  10.730  1.00  0.00     0.027 C 
ATOM      7  C   UNL     1      -6.851  24.282  10.237  1.00  0.00     0.019 C 
ATOM      8  C   UNL     1      -4.699  23.535  10.651  1.00  0.00     0.144 C 
ATOM      9  O   UNL     1      -3.785  23.180  11.381  1.00  0.00    -0.298 OA
ATOM     10  C   UNL     1      -6.566  22.548  12.105  1.00  0.00     0.020 C 
ATOM     11  C   UNL     1      -3.509  23.936   8.469  1.00  0.00     0.020 C 
ENDROOT
TORSDOF 0
ENDMDL
MODEL 8
REMARK VINA RESULT:    -3.055      1.518      2.486
REMARK INTER + INTRA:          -3.055
REMARK INTER:                  -3.055
REMARK INTRA:                   0.000
REMARK UNBOUND:                 0.000
REMARK SMILES CC1(C)C(=O)[C@]2(C)CC[C@H]1C2
REMARK SMILES IDX 1 1 2 2 10 3 9 4 8 5 6 6 11 7 4 8 5 9 7 10 3 11
REMARK H PARENT
REMARK Flexibility Score: inf
ROOT
ATOM      1  C   UNL     1      -9.229  24.806  11.992  1.00  0.00     0.020 C 
ATOM      2  C   UNL     1      -7.975  23.915  12.126  1.00  0.00     0.027 C 
ATOM      3  C   UNL     1      -7.858  22.898  10.935  1.00  0.00     0.003 C 
ATOM      4  C   UNL     1      -6.509  22.137  10.979  1.00  0.00     0.005 C 
ATOM      5  C   UNL     1      -6.650  21.250  12.237  1.00  0.00     0.015 C 
ATOM      6  C   UNL     1      -8.093  21.539  12.692  1.00  0.00     0.027 C 
ATOM      7  C   UNL     1      -8.791  21.767  11.367  1.00  0.00     0.019 C 
ATOM      8  C   UNL     1      -8.123  22.934  13.253  1.00  0.00     0.144 C 
ATOM      9  O   UNL     1      -8.181  23.223  14.440  1.00  0.00    -0.298 OA
ATOM     10  C   UNL     1      -8.731  20.464  13.575  1.00  0.00     0.020 C 
ATOM     11  C   UNL     1      -6.734  24.814  12.317  1.00  0.00     0.020 C 
ENDROOT
TORSDOF 0
ENDMDL
MODEL 9
REMARK VINA RESULT:    -3.015      2.053      3.414
REMARK INTER + INTRA:          -3.015
REMARK INTER:                  -3.015
REMARK INTRA:                   0.000
REMARK UNBOUND:                 0.000
REMARK SMILES CC1(C)C(=O)[C@]2(C)CC[C@H]1C2
REMARK SMILES IDX 1 1 2 2 10 3 9 4 8 5 6 6 11 7 4 8 5 9 7 10 3 11
REMARK H PARENT
REMARK Flexibility Score: inf
ROOT
ATOM      1  C   UNL     1     -10.258  24.042  14.687  1.00  0.00     0.020 C 
ATOM      2  C   UNL     1      -9.029  23.155  14.392  1.00  0.00     0.027 C 
ATOM      3  C   UNL     1      -8.555  23.299  12.901  1.00  0.00     0.003 C 
ATOM      4  C   UNL     1      -7.218  22.551  12.664  1.00  0.00     0.005 C 
ATOM      5  C   UNL     1      -7.621  21.065  12.804  1.00  0.00     0.015 C 
ATOM      6  C   UNL     1      -9.147  21.147  13.001  1.00  0.00     0.027 C 
ATOM      7  C   UNL     1      -9.499  22.355  12.157  1.00  0.00     0.019 C 
ATOM      8  C   UNL     1      -9.399  21.700  14.376  1.00  0.00     0.144 C 
ATOM      9  O   UNL     1      -9.772  21.054  15.345  1.00  0.00    -0.298 OA
ATOM     10  C   UNL     1      -9.923  19.875  12.653  1.00  0.00     0.020 C 
ATOM     11  C   UNL     1      -7.931  23.448  15.438  1.00  0.00     0.020 C 
ENDROOT
TORSDOF 0
ENDMDL
