MODEL 1
REMARK VINA RESULT:    -3.040      0.000      0.000
REMARK INTER + INTRA:          -8.812
REMARK INTER:                  -5.884
REMARK INTRA:                  -2.928
REMARK UNBOUND:                -2.928
REMARK SMILES CCCCCCCCCCCCCCCCCC(=O)[O-]
REMARK SMILES IDX 10 1 11 2 12 3 13 4 14 5 15 6 16 7 17 8 18 9 19 10 20 11
REMARK SMILES IDX 9 12 8 13 7 14 6 15 5 16 4 17 3 18 2 19 1 20
REMARK H PARENT
REMARK Flexibility Score: inf
ROOT
ATOM      1  C   UNL     1      59.733  26.267  50.333  1.00  0.00     0.000 C 
ENDROOT
BRANCH   1   2
ATOM      2  C   UNL     1      59.776  27.303  49.197  1.00  0.00     0.000 C 
BRANCH   2   3
ATOM      3  C   UNL     1      59.568  28.737  49.705  1.00  0.00     0.000 C 
BRANCH   3   4
ATOM      4  C   UNL     1      58.076  29.099  49.735  1.00  0.00     0.000 C 
BRANCH   4   5
ATOM      5  C   UNL     1      57.543  29.236  51.172  1.00  0.00     0.000 C 
BRANCH   5   6
ATOM      6  C   UNL     1      58.621  29.719  52.171  1.00  0.00     0.000 C 
BRANCH   6   7
ATOM      7  C   UNL     1      58.638  28.930  53.493  1.00  0.00     0.006 C 
BRANCH   7   8
ATOM      8  C   UNL     1      59.736  27.850  53.561  1.00  0.00     0.053 C 
BRANCH   8   9
ATOM      9  C   UNL     1      61.113  28.433  53.453  1.00  0.00     0.041 C 
ATOM     10  O   UNL     1      61.821  28.197  52.440  1.00  0.00    -0.550 OA
ATOM     11  O   UNL     1      61.625  29.216  54.481  1.00  0.00    -0.550 OA
ENDBRANCH   8   9
ENDBRANCH   7   8
ENDBRANCH   6   7
ENDBRANCH   5   6
ENDBRANCH   4   5
ENDBRANCH   3   4
ENDBRANCH   2   3
ENDBRANCH   1   2
BRANCH   1  12
ATOM     12  C   UNL     1      58.455  25.394  50.323  1.00  0.00     0.000 C 
BRANCH  12  13
ATOM     13  C   UNL     1      57.579  25.583  51.579  1.00  0.00    -0.000 C 
BRANCH  13  14
ATOM     14  C   UNL     1      56.077  25.765  51.283  1.00  0.00    -0.000 C 
BRANCH  14  15
ATOM     15  C   UNL     1      55.782  26.255  49.849  1.00  0.00    -0.000 C 
BRANCH  15  16
ATOM     16  C   UNL     1      54.375  25.853  49.373  1.00  0.00    -0.000 C 
BRANCH  16  17
ATOM     17  C   UNL     1      53.314  26.910  49.727  1.00  0.00    -0.000 C 
BRANCH  17  18
ATOM     18  C   UNL     1      53.934  28.303  49.943  1.00  0.00    -0.000 C 
BRANCH  18  19
ATOM     19  C   UNL     1      53.332  29.042  51.148  1.00  0.00    -0.003 C 
ATOM     20  C   UNL     1      54.064  28.746  52.456  1.00  0.00     0.004 C 
ENDBRANCH  18  19
ENDBRANCH  17  18
ENDBRANCH  16  17
ENDBRANCH  15  16
ENDBRANCH  14  15
ENDBRANCH  13  14
ENDBRANCH  12  13
ENDBRANCH   1  12
TORSDOF 16
ENDMDL
MODEL 2
REMARK VINA RESULT:    -3.015      2.185      4.240
REMARK INTER + INTRA:          -8.763
REMARK INTER:                  -6.518
REMARK INTRA:                  -2.245
REMARK UNBOUND:                -2.928
REMARK SMILES CCCCCCCCCCCCCCCCCC(=O)[O-]
REMARK SMILES IDX 10 1 11 2 12 3 13 4 14 5 15 6 16 7 17 8 18 9 19 10 20 11
REMARK SMILES IDX 9 12 8 13 7 14 6 15 5 16 4 17 3 18 2 19 1 20
REMARK H PARENT
REMARK Flexibility Score: inf
ROOT
ATOM      1  C   UNL     1      56.245  29.094  51.843  1.00  0.00     0.000 C 
ENDROOT
BRANCH   1   2
ATOM      2  C   UNL     1      56.813  29.039  50.415  1.00  0.00     0.000 C 
BRANCH   2   3
ATOM      3  C   UNL     1      58.336  29.233  50.383  1.00  0.00     0.000 C 
BRANCH   3   4
ATOM      4  C   UNL     1      58.919  28.786  49.034  1.00  0.00     0.000 C 
BRANCH   4   5
ATOM      5  C   UNL     1      60.045  27.752  49.206  1.00  0.00     0.000 C 
BRANCH   5   6
ATOM      6  C   UNL     1      60.493  27.586  50.677  1.00  0.00     0.000 C 
BRANCH   6   7
ATOM      7  C   UNL     1      61.996  27.292  50.838  1.00  0.00     0.006 C 
BRANCH   7   8
ATOM      8  C   UNL     1      62.617  26.551  49.637  1.00  0.00     0.053 C 
BRANCH   8   9
ATOM      9  C   UNL     1      63.814  27.266  49.086  1.00  0.00     0.041 C 
ATOM     10  O   UNL     1      64.856  27.383  49.783  1.00  0.00    -0.550 OA
ATOM     11  O   UNL     1      63.773  27.823  47.814  1.00  0.00    -0.550 OA
ENDBRANCH   8   9
ENDBRANCH   7   8
ENDBRANCH   6   7
ENDBRANCH   5   6
ENDBRANCH   4   5
ENDBRANCH   3   4
ENDBRANCH   2   3
ENDBRANCH   1   2
BRANCH   1  12
ATOM     12  C   UNL     1      54.704  29.221  51.888  1.00  0.00     0.000 C 
BRANCH  12  13
ATOM     13  C   UNL     1      54.098  29.757  50.575  1.00  0.00    -0.000 C 
BRANCH  13  14
ATOM     14  C   UNL     1      52.988  28.868  49.979  1.00  0.00    -0.000 C 
BRANCH  14  15
ATOM     15  C   UNL     1      53.096  27.383  50.387  1.00  0.00    -0.000 C 
BRANCH  15  16
ATOM     16  C   UNL     1      53.742  26.521  49.289  1.00  0.00    -0.000 C 
BRANCH  16  17
ATOM     17  C   UNL     1      55.060  25.876  49.750  1.00  0.00    -0.000 C 
BRANCH  17  18
ATOM     18  C   UNL     1      55.125  25.723  51.282  1.00  0.00    -0.000 C 
BRANCH  18  19
ATOM     19  C   UNL     1      56.554  25.494  51.797  1.00  0.00    -0.003 C 
ATOM     20  C   UNL     1      57.600  25.508  50.684  1.00  0.00     0.004 C 
ENDBRANCH  18  19
ENDBRANCH  17  18
ENDBRANCH  16  17
ENDBRANCH  15  16
ENDBRANCH  14  15
ENDBRANCH  13  14
ENDBRANCH  12  13
ENDBRANCH   1  12
TORSDOF 16
ENDMDL
MODEL 3
REMARK VINA RESULT:    -3.000     10.084     12.620
REMARK INTER + INTRA:          -8.735
REMARK INTER:                  -5.971
REMARK INTRA:                  -2.764
REMARK UNBOUND:                -2.928
REMARK SMILES CCCCCCCCCCCCCCCCCC(=O)[O-]
REMARK SMILES IDX 10 1 11 2 12 3 13 4 14 5 15 6 16 7 17 8 18 9 19 10 20 11
REMARK SMILES IDX 9 12 8 13 7 14 6 15 5 16 4 17 3 18 2 19 1 20
REMARK H PARENT
REMARK Flexibility Score: inf
ROOT
ATOM      1  C   UNL     1      61.121  31.357  61.610  1.00  0.00     0.000 C 
ENDROOT
BRANCH   1   2
ATOM      2  C   UNL     1      62.006  30.168  62.020  1.00  0.00     0.000 C 
BRANCH   2   3
ATOM      3  C   UNL     1      61.732  28.916  61.175  1.00  0.00     0.000 C 
BRANCH   3   4
ATOM      4  C   UNL     1      62.637  27.752  61.606  1.00  0.00     0.000 C 
BRANCH   4   5
ATOM      5  C   UNL     1      63.564  27.289  60.469  1.00  0.00     0.000 C 
BRANCH   5   6
ATOM      6  C   UNL     1      64.884  26.668  60.983  1.00  0.00     0.000 C 
BRANCH   6   7
ATOM      7  C   UNL     1      66.147  27.379  60.462  1.00  0.00     0.006 C 
BRANCH   7   8
ATOM      8  C   UNL     1      66.671  28.485  61.401  1.00  0.00     0.053 C 
BRANCH   8   9
ATOM      9  C   UNL     1      68.011  29.004  60.975  1.00  0.00     0.041 C 
ATOM     10  O   UNL     1      68.999  28.910  61.749  1.00  0.00    -0.550 OA
ATOM     11  O   UNL     1      68.165  29.612  59.736  1.00  0.00    -0.550 OA
ENDBRANCH   8   9
ENDBRANCH   7   8
ENDBRANCH   6   7
ENDBRANCH   5   6
ENDBRANCH   4   5
ENDBRANCH   3   4
ENDBRANCH   2   3
ENDBRANCH   1   2
BRANCH   1  12
ATOM     12  C   UNL     1      60.942  31.492  60.078  1.00  0.00     0.000 C 
BRANCH  12  13
ATOM     13  C   UNL     1      61.104  32.939  59.571  1.00  0.00    -0.000 C 
BRANCH  13  14
ATOM     14  C   UNL     1      61.577  33.939  60.647  1.00  0.00    -0.000 C 
BRANCH  14  15
ATOM     15  C   UNL     1      63.008  34.470  60.414  1.00  0.00    -0.000 C 
BRANCH  15  16
ATOM     16  C   UNL     1      64.083  33.462  60.855  1.00  0.00    -0.000 C 
BRANCH  16  17
ATOM     17  C   UNL     1      64.679  32.686  59.667  1.00  0.00    -0.000 C 
BRANCH  17  18
ATOM     18  C   UNL     1      64.797  31.178  59.960  1.00  0.00    -0.000 C 
BRANCH  18  19
ATOM     19  C   UNL     1      64.834  30.325  58.684  1.00  0.00    -0.003 C 
ATOM     20  C   UNL     1      63.480  30.241  57.982  1.00  0.00     0.004 C 
ENDBRANCH  18  19
ENDBRANCH  17  18
ENDBRANCH  16  17
ENDBRANCH  15  16
ENDBRANCH  14  15
ENDBRANCH  13  14
ENDBRANCH  12  13
ENDBRANCH   1  12
TORSDOF 16
ENDMDL
MODEL 4
REMARK VINA RESULT:    -2.987      2.876      5.077
REMARK INTER + INTRA:          -8.709
REMARK INTER:                  -5.881
REMARK INTRA:                  -2.827
REMARK UNBOUND:                -2.928
REMARK SMILES CCCCCCCCCCCCCCCCCC(=O)[O-]
REMARK SMILES IDX 10 1 11 2 12 3 13 4 14 5 15 6 16 7 17 8 18 9 19 10 20 11
REMARK SMILES IDX 9 12 8 13 7 14 6 15 5 16 4 17 3 18 2 19 1 20
REMARK H PARENT
REMARK Flexibility Score: inf
ROOT
ATOM      1  C   UNL     1      60.459  28.781  52.523  1.00  0.00     0.000 C 
ENDROOT
BRANCH   1   2
ATOM      2  C   UNL     1      60.179  27.383  53.099  1.00  0.00     0.000 C 
BRANCH   2   3
ATOM      3  C   UNL     1      61.468  26.606  53.401  1.00  0.00     0.000 C 
BRANCH   3   4
ATOM      4  C   UNL     1      62.514  26.823  52.298  1.00  0.00     0.000 C 
BRANCH   4   5
ATOM      5  C   UNL     1      62.870  25.514  51.574  1.00  0.00     0.000 C 
BRANCH   5   6
ATOM      6  C   UNL     1      63.441  25.745  50.155  1.00  0.00     0.000 C 
BRANCH   6   7
ATOM      7  C   UNL     1      63.785  27.216  49.858  1.00  0.00     0.006 C 
BRANCH   7   8
ATOM      8  C   UNL     1      63.443  27.659  48.421  1.00  0.00     0.053 C 
BRANCH   8   9
ATOM      9  C   UNL     1      64.152  28.920  48.030  1.00  0.00     0.041 C 
ATOM     10  O   UNL     1      63.919  29.992  48.647  1.00  0.00    -0.550 OA
ATOM     11  O   UNL     1      65.051  28.919  46.971  1.00  0.00    -0.550 OA
ENDBRANCH   8   9
ENDBRANCH   7   8
ENDBRANCH   6   7
ENDBRANCH   5   6
ENDBRANCH   4   5
ENDBRANCH   3   4
ENDBRANCH   2   3
ENDBRANCH   1   2
BRANCH   1  12
ATOM     12  C   UNL     1      59.594  29.122  51.286  1.00  0.00     0.000 C 
BRANCH  12  13
ATOM     13  C   UNL     1      60.286  28.789  49.948  1.00  0.00    -0.000 C 
BRANCH  13  14
ATOM     14  C   UNL     1      59.561  27.719  49.107  1.00  0.00    -0.000 C 
BRANCH  14  15
ATOM     15  C   UNL     1      59.932  26.271  49.492  1.00  0.00    -0.000 C 
BRANCH  15  16
ATOM     16  C   UNL     1      58.802  25.563  50.258  1.00  0.00    -0.000 C 
BRANCH  16  17
ATOM     17  C   UNL     1      57.408  26.051  49.827  1.00  0.00    -0.000 C 
BRANCH  17  18
ATOM     18  C   UNL     1      56.665  26.766  50.971  1.00  0.00    -0.000 C 
BRANCH  18  19
ATOM     19  C   UNL     1      56.091  28.128  50.550  1.00  0.00    -0.003 C 
ATOM     20  C   UNL     1      54.595  28.077  50.247  1.00  0.00     0.004 C 
ENDBRANCH  18  19
ENDBRANCH  17  18
ENDBRANCH  16  17
ENDBRANCH  15  16
ENDBRANCH  14  15
ENDBRANCH  13  14
ENDBRANCH  12  13
ENDBRANCH   1  12
TORSDOF 16
ENDMDL
MODEL 5
REMARK VINA RESULT:    -2.986      2.254      4.072
REMARK INTER + INTRA:          -8.707
REMARK INTER:                  -5.977
REMARK INTRA:                  -2.730
REMARK UNBOUND:                -2.928
REMARK SMILES CCCCCCCCCCCCCCCCCC(=O)[O-]
REMARK SMILES IDX 10 1 11 2 12 3 13 4 14 5 15 6 16 7 17 8 18 9 19 10 20 11
REMARK SMILES IDX 9 12 8 13 7 14 6 15 5 16 4 17 3 18 2 19 1 20
REMARK H PARENT
REMARK Flexibility Score: inf
ROOT
ATOM      1  C   UNL     1      57.607  29.259  51.666  1.00  0.00     0.000 C 
ENDROOT
BRANCH   1   2
ATOM      2  C   UNL     1      57.494  28.773  50.212  1.00  0.00     0.000 C 
BRANCH   2   3
ATOM      3  C   UNL     1      58.623  29.315  49.324  1.00  0.00     0.000 C 
BRANCH   3   4
ATOM      4  C   UNL     1      59.796  28.325  49.258  1.00  0.00     0.000 C 
BRANCH   4   5
ATOM      5  C   UNL     1      59.322  26.863  49.319  1.00  0.00     0.000 C 
BRANCH   5   6
ATOM      6  C   UNL     1      60.099  26.020  50.358  1.00  0.00     0.000 C 
BRANCH   6   7
ATOM      7  C   UNL     1      59.332  25.798  51.674  1.00  0.00     0.006 C 
BRANCH   7   8
ATOM      8  C   UNL     1      58.436  24.543  51.669  1.00  0.00     0.053 C 
BRANCH   8   9
ATOM      9  C   UNL     1      58.918  23.496  52.628  1.00  0.00     0.041 C 
ATOM     10  O   UNL     1      59.811  23.775  53.469  1.00  0.00    -0.550 OA
ATOM     11  O   UNL     1      58.399  22.208  52.577  1.00  0.00    -0.550 OA
ENDBRANCH   8   9
ENDBRANCH   7   8
ENDBRANCH   6   7
ENDBRANCH   5   6
ENDBRANCH   4   5
ENDBRANCH   3   4
ENDBRANCH   2   3
ENDBRANCH   1   2
BRANCH   1  12
ATOM     12  C   UNL     1      56.618  28.560  52.629  1.00  0.00     0.000 C 
BRANCH  12  13
ATOM     13  C   UNL     1      55.630  29.535  53.301  1.00  0.00    -0.000 C 
BRANCH  13  14
ATOM     14  C   UNL     1      54.171  29.391  52.820  1.00  0.00    -0.000 C 
BRANCH  14  15
ATOM     15  C   UNL     1      53.833  30.265  51.593  1.00  0.00    -0.000 C 
BRANCH  15  16
ATOM     16  C   UNL     1      53.730  29.438  50.299  1.00  0.00    -0.000 C 
BRANCH  16  17
ATOM     17  C   UNL     1      53.436  27.954  50.576  1.00  0.00    -0.000 C 
BRANCH  17  18
ATOM     18  C   UNL     1      54.202  27.022  49.617  1.00  0.00    -0.000 C 
BRANCH  18  19
ATOM     19  C   UNL     1      55.079  25.999  50.355  1.00  0.00    -0.003 C 
ATOM     20  C   UNL     1      54.573  25.682  51.761  1.00  0.00     0.004 C 
ENDBRANCH  18  19
ENDBRANCH  17  18
ENDBRANCH  16  17
ENDBRANCH  15  16
ENDBRANCH  14  15
ENDBRANCH  13  14
ENDBRANCH  12  13
ENDBRANCH   1  12
TORSDOF 16
ENDMDL
MODEL 6
REMARK VINA RESULT:    -2.954      2.027      3.804
REMARK INTER + INTRA:          -8.646
REMARK INTER:                  -5.530
REMARK INTRA:                  -3.116
REMARK UNBOUND:                -2.928
REMARK SMILES CCCCCCCCCCCCCCCCCC(=O)[O-]
REMARK SMILES IDX 10 1 11 2 12 3 13 4 14 5 15 6 16 7 17 8 18 9 19 10 20 11
REMARK SMILES IDX 9 12 8 13 7 14 6 15 5 16 4 17 3 18 2 19 1 20
REMARK H PARENT
REMARK Flexibility Score: inf
ROOT
ATOM      1  C   UNL     1      59.445  26.893  49.254  1.00  0.00     0.000 C 
ENDROOT
BRANCH   1   2
ATOM      2  C   UNL     1      58.167  26.210  49.768  1.00  0.00     0.000 C 
BRANCH   2   3
ATOM      3  C   UNL     1      58.455  25.188  50.877  1.00  0.00     0.000 C 
BRANCH   3   4
ATOM      4  C   UNL     1      58.461  25.860  52.258  1.00  0.00     0.000 C 
BRANCH   4   5
ATOM      5  C   UNL     1      59.858  25.851  52.899  1.00  0.00     0.000 C 
BRANCH   5   6
ATOM      6  C   UNL     1      60.558  27.229  52.841  1.00  0.00     0.000 C 
BRANCH   6   7
ATOM      7  C   UNL     1      61.891  27.215  52.070  1.00  0.00     0.006 C 
BRANCH   7   8
ATOM      8  C   UNL     1      62.191  25.875  51.369  1.00  0.00     0.053 C 
BRANCH   8   9
ATOM      9  C   UNL     1      63.610  25.789  50.891  1.00  0.00     0.041 C 
ATOM     10  O   UNL     1      64.168  24.667  50.773  1.00  0.00    -0.550 OA
ATOM     11  O   UNL     1      64.323  26.945  50.600  1.00  0.00    -0.550 OA
ENDBRANCH   8   9
ENDBRANCH   7   8
ENDBRANCH   6   7
ENDBRANCH   5   6
ENDBRANCH   4   5
ENDBRANCH   3   4
ENDBRANCH   2   3
ENDBRANCH   1   2
BRANCH   1  12
ATOM     12  C   UNL     1      59.408  28.436  49.367  1.00  0.00     0.000 C 
BRANCH  12  13
ATOM     13  C   UNL     1      58.120  28.966  50.030  1.00  0.00    -0.000 C 
BRANCH  13  14
ATOM     14  C   UNL     1      58.339  29.616  51.412  1.00  0.00    -0.000 C 
BRANCH  14  15
ATOM     15  C   UNL     1      57.130  29.474  52.362  1.00  0.00    -0.000 C 
BRANCH  15  16
ATOM     16  C   UNL     1      55.892  28.903  51.650  1.00  0.00    -0.000 C 
BRANCH  16  17
ATOM     17  C   UNL     1      55.313  27.678  52.379  1.00  0.00    -0.000 C 
BRANCH  17  18
ATOM     18  C   UNL     1      54.335  26.884  51.491  1.00  0.00    -0.000 C 
BRANCH  18  19
ATOM     19  C   UNL     1      54.592  27.090  49.990  1.00  0.00    -0.003 C 
ATOM     20  C   UNL     1      54.465  25.801  49.181  1.00  0.00     0.004 C 
ENDBRANCH  18  19
ENDBRANCH  17  18
ENDBRANCH  16  17
ENDBRANCH  15  16
ENDBRANCH  14  15
ENDBRANCH  13  14
ENDBRANCH  12  13
ENDBRANCH   1  12
TORSDOF 16
ENDMDL
MODEL 7
REMARK VINA RESULT:    -2.940      3.107      5.694
REMARK INTER + INTRA:          -8.619
REMARK INTER:                  -5.598
REMARK INTRA:                  -3.021
REMARK UNBOUND:                -2.928
REMARK SMILES CCCCCCCCCCCCCCCCCC(=O)[O-]
REMARK SMILES IDX 10 1 11 2 12 3 13 4 14 5 15 6 16 7 17 8 18 9 19 10 20 11
REMARK SMILES IDX 9 12 8 13 7 14 6 15 5 16 4 17 3 18 2 19 1 20
REMARK H PARENT
REMARK Flexibility Score: inf
ROOT
ATOM      1  C   UNL     1      60.394  26.225  49.749  1.00  0.00     0.000 C 
ENDROOT
BRANCH   1   2
ATOM      2  C   UNL     1      59.135  26.933  49.222  1.00  0.00     0.000 C 
BRANCH   2   3
ATOM      3  C   UNL     1      59.311  28.457  49.145  1.00  0.00     0.000 C 
BRANCH   3   4
ATOM      4  C   UNL     1      58.154  29.181  49.850  1.00  0.00     0.000 C 
BRANCH   4   5
ATOM      5  C   UNL     1      57.066  28.204  50.327  1.00  0.00     0.000 C 
BRANCH   5   6
ATOM      6  C   UNL     1      56.100  28.834  51.358  1.00  0.00     0.000 C 
BRANCH   6   7
ATOM      7  C   UNL     1      54.677  28.246  51.314  1.00  0.00     0.006 C 
BRANCH   7   8
ATOM      8  C   UNL     1      54.272  27.699  49.930  1.00  0.00     0.053 C 
BRANCH   8   9
ATOM      9  C   UNL     1      53.923  26.242  49.975  1.00  0.00     0.041 C 
ATOM     10  O   UNL     1      53.669  25.687  51.076  1.00  0.00    -0.550 OA
ATOM     11  O   UNL     1      53.902  25.490  48.807  1.00  0.00    -0.550 OA
ENDBRANCH   8   9
ENDBRANCH   7   8
ENDBRANCH   6   7
ENDBRANCH   5   6
ENDBRANCH   4   5
ENDBRANCH   3   4
ENDBRANCH   2   3
ENDBRANCH   1   2
BRANCH   1  12
ATOM     12  C   UNL     1      61.688  27.055  49.572  1.00  0.00     0.000 C 
BRANCH  12  13
ATOM     13  C   UNL     1      62.491  27.216  50.879  1.00  0.00    -0.000 C 
BRANCH  13  14
ATOM     14  C   UNL     1      62.013  28.373  51.780  1.00  0.00    -0.000 C 
BRANCH  14  15
ATOM     15  C   UNL     1      61.229  27.906  53.025  1.00  0.00    -0.000 C 
BRANCH  15  16
ATOM     16  C   UNL     1      59.757  28.352  52.989  1.00  0.00    -0.000 C 
BRANCH  16  17
ATOM     17  C   UNL     1      58.802  27.259  53.499  1.00  0.00    -0.000 C 
BRANCH  17  18
ATOM     18  C   UNL     1      59.293  25.845  53.136  1.00  0.00    -0.000 C 
BRANCH  18  19
ATOM     19  C   UNL     1      58.263  25.048  52.321  1.00  0.00    -0.003 C 
ATOM     20  C   UNL     1      56.820  25.426  52.650  1.00  0.00     0.004 C 
ENDBRANCH  18  19
ENDBRANCH  17  18
ENDBRANCH  16  17
ENDBRANCH  15  16
ENDBRANCH  14  15
ENDBRANCH  13  14
ENDBRANCH  12  13
ENDBRANCH   1  12
TORSDOF 16
ENDMDL
MODEL 8
REMARK VINA RESULT:    -2.929      2.083      2.416
REMARK INTER + INTRA:          -8.597
REMARK INTER:                  -5.787
REMARK INTRA:                  -2.809
REMARK UNBOUND:                -2.928
REMARK SMILES CCCCCCCCCCCCCCCCCC(=O)[O-]
REMARK SMILES IDX 10 1 11 2 12 3 13 4 14 5 15 6 16 7 17 8 18 9 19 10 20 11
REMARK SMILES IDX 9 12 8 13 7 14 6 15 5 16 4 17 3 18 2 19 1 20
REMARK H PARENT
REMARK Flexibility Score: inf
ROOT
ATOM      1  C   UNL     1      59.363  26.038  50.324  1.00  0.00     0.000 C 
ENDROOT
BRANCH   1   2
ATOM      2  C   UNL     1      59.663  27.071  49.226  1.00  0.00     0.000 C 
BRANCH   2   3
ATOM      3  C   UNL     1      59.688  28.508  49.766  1.00  0.00     0.000 C 
BRANCH   3   4
ATOM      4  C   UNL     1      58.295  29.151  49.687  1.00  0.00     0.000 C 
BRANCH   4   5
ATOM      5  C   UNL     1      57.704  29.423  51.081  1.00  0.00     0.000 C 
BRANCH   5   6
ATOM      6  C   UNL     1      58.710  29.154  52.225  1.00  0.00     0.000 C 
BRANCH   6   7
ATOM      7  C   UNL     1      58.078  29.195  53.628  1.00  0.00     0.006 C 
BRANCH   7   8
ATOM      8  C   UNL     1      58.344  30.507  54.394  1.00  0.00     0.053 C 
BRANCH   8   9
ATOM      9  C   UNL     1      57.258  31.518  54.184  1.00  0.00     0.041 C 
ATOM     10  O   UNL     1      57.341  32.347  53.241  1.00  0.00    -0.550 OA
ATOM     11  O   UNL     1      56.166  31.562  55.042  1.00  0.00    -0.550 OA
ENDBRANCH   8   9
ENDBRANCH   7   8
ENDBRANCH   6   7
ENDBRANCH   5   6
ENDBRANCH   4   5
ENDBRANCH   3   4
ENDBRANCH   2   3
ENDBRANCH   1   2
BRANCH   1  12
ATOM     12  C   UNL     1      57.916  25.491  50.277  1.00  0.00     0.000 C 
BRANCH  12  13
ATOM     13  C   UNL     1      57.100  25.820  51.544  1.00  0.00    -0.000 C 
BRANCH  13  14
ATOM     14  C   UNL     1      55.605  26.093  51.281  1.00  0.00    -0.000 C 
BRANCH  14  15
ATOM     15  C   UNL     1      55.335  26.854  49.965  1.00  0.00    -0.000 C 
BRANCH  15  16
ATOM     16  C   UNL     1      53.846  26.839  49.577  1.00  0.00    -0.000 C 
BRANCH  16  17
ATOM     17  C   UNL     1      53.146  28.172  49.894  1.00  0.00    -0.000 C 
BRANCH  17  18
ATOM     18  C   UNL     1      54.144  29.262  50.329  1.00  0.00    -0.000 C 
BRANCH  18  19
ATOM     19  C   UNL     1      53.744  29.943  51.647  1.00  0.00    -0.003 C 
ATOM     20  C   UNL     1      54.428  29.328  52.867  1.00  0.00     0.004 C 
ENDBRANCH  18  19
ENDBRANCH  17  18
ENDBRANCH  16  17
ENDBRANCH  15  16
ENDBRANCH  14  15
ENDBRANCH  13  14
ENDBRANCH  12  13
ENDBRANCH   1  12
TORSDOF 16
ENDMDL
MODEL 9
REMARK VINA RESULT:    -2.904      9.980     12.612
REMARK INTER + INTRA:          -8.548
REMARK INTER:                  -6.056
REMARK INTRA:                  -2.492
REMARK UNBOUND:                -2.928
REMARK SMILES CCCCCCCCCCCCCCCCCC(=O)[O-]
REMARK SMILES IDX 10 1 11 2 12 3 13 4 14 5 15 6 16 7 17 8 18 9 19 10 20 11
REMARK SMILES IDX 9 12 8 13 7 14 6 15 5 16 4 17 3 18 2 19 1 20
REMARK H PARENT
REMARK Flexibility Score: inf
ROOT
ATOM      1  C   UNL     1      64.371  34.302  60.641  1.00  0.00     0.000 C 
ENDROOT
BRANCH   1   2
ATOM      2  C   UNL     1      64.524  35.316  61.786  1.00  0.00     0.000 C 
BRANCH   2   3
ATOM      3  C   UNL     1      64.511  36.768  61.288  1.00  0.00     0.000 C 
BRANCH   3   4
ATOM      4  C   UNL     1      63.253  37.053  60.454  1.00  0.00     0.000 C 
BRANCH   4   5
ATOM      5  C   UNL     1      61.968  36.943  61.292  1.00  0.00     0.000 C 
BRANCH   5   6
ATOM      6  C   UNL     1      60.849  36.148  60.578  1.00  0.00     0.000 C 
BRANCH   6   7
ATOM      7  C   UNL     1      60.875  36.282  59.045  1.00  0.00     0.006 C 
BRANCH   7   8
ATOM      8  C   UNL     1      59.562  35.853  58.359  1.00  0.00     0.053 C 
BRANCH   8   9
ATOM      9  C   UNL     1      59.720  34.588  57.570  1.00  0.00     0.041 C 
ATOM     10  O   UNL     1      58.848  33.684  57.647  1.00  0.00    -0.550 OA
ATOM     11  O   UNL     1      60.839  34.397  56.770  1.00  0.00    -0.550 OA
ENDBRANCH   8   9
ENDBRANCH   7   8
ENDBRANCH   6   7
ENDBRANCH   5   6
ENDBRANCH   4   5
ENDBRANCH   3   4
ENDBRANCH   2   3
ENDBRANCH   1   2
BRANCH   1  12
ATOM     12  C   UNL     1      63.308  33.212  60.921  1.00  0.00     0.000 C 
BRANCH  12  13
ATOM     13  C   UNL     1      62.388  32.935  59.714  1.00  0.00    -0.000 C 
BRANCH  13  14
ATOM     14  C   UNL     1      61.100  32.162  60.064  1.00  0.00    -0.000 C 
BRANCH  14  15
ATOM     15  C   UNL     1      61.106  31.555  61.483  1.00  0.00    -0.000 C 
BRANCH  15  16
ATOM     16  C   UNL     1      60.915  30.028  61.465  1.00  0.00    -0.000 C 
BRANCH  16  17
ATOM     17  C   UNL     1      62.239  29.271  61.663  1.00  0.00    -0.000 C 
BRANCH  17  18
ATOM     18  C   UNL     1      62.765  28.669  60.347  1.00  0.00    -0.000 C 
BRANCH  18  19
ATOM     19  C   UNL     1      64.206  29.098  60.030  1.00  0.00    -0.003 C 
ATOM     20  C   UNL     1      64.813  29.995  61.107  1.00  0.00     0.004 C 
ENDBRANCH  18  19
ENDBRANCH  17  18
ENDBRANCH  16  17
ENDBRANCH  15  16
ENDBRANCH  14  15
ENDBRANCH  13  14
ENDBRANCH  12  13
ENDBRANCH   1  12
TORSDOF 16
ENDMDL
