MODEL 1
REMARK VINA RESULT:    -4.145      0.000      0.000
REMARK INTER + INTRA:          -5.178
REMARK INTER:                  -4.872
REMARK INTRA:                  -0.306
REMARK UNBOUND:                -0.306
REMARK SMILES O=c1cc(-c2ccc(O)c(O)c2)oc2cc(O)cc(O)c12
REMARK SMILES IDX 4 1 3 2 2 3 1 4 21 5 19 6 18 7 16 8 15 9 14 10 13 11 5 12
REMARK SMILES IDX 6 13 7 14 8 15 12 16 10 17 9 18 11 20 20 22 17 24
REMARK H PARENT 9 19 11 21 20 23 17 25
REMARK Flexibility Score: inf
ROOT
ATOM      1  C   UNL     1      19.903  -1.725  11.415  1.00  0.00     0.138 A 
ATOM      2  C   UNL     1      19.369  -2.628  12.350  1.00  0.00     0.100 A 
ATOM      3  C   UNL     1      19.391  -2.304  13.706  1.00  0.00     0.197 A 
ATOM      4  O   UNL     1      18.912  -3.121  14.538  1.00  0.00    -0.289 OA
ATOM      5  C   UNL     1      19.952  -1.078  14.120  1.00  0.00     0.107 A 
ATOM      6  C   UNL     1      20.012  -0.673  15.475  1.00  0.00     0.134 A 
ATOM      7  C   UNL     1      20.592   0.562  15.804  1.00  0.00     0.093 A 
ATOM      8  C   UNL     1      21.110   1.394  14.810  1.00  0.00     0.123 A 
ATOM      9  C   UNL     1      21.052   0.998  13.469  1.00  0.00     0.094 A 
ATOM     10  C   UNL     1      20.477  -0.227  13.120  1.00  0.00     0.146 A 
ATOM     11  O   UNL     1      20.433  -0.580  11.838  1.00  0.00    -0.456 OA
ENDROOT
BRANCH   1  12
ATOM     12  C   UNL     1      19.907  -2.018   9.958  1.00  0.00     0.021 A 
ATOM     13  C   UNL     1      18.896  -2.828   9.414  1.00  0.00     0.016 A 
ATOM     14  C   UNL     1      18.880  -3.125   8.049  1.00  0.00     0.051 A 
ATOM     15  C   UNL     1      19.881  -2.627   7.206  1.00  0.00     0.157 A 
ATOM     16  C   UNL     1      20.918  -1.530   9.107  1.00  0.00     0.062 A 
ATOM     17  C   UNL     1      20.905  -1.828   7.740  1.00  0.00     0.158 A 
BRANCH  15  18
ATOM     18  O   UNL     1      19.862  -2.923   5.844  1.00  0.00    -0.504 OA
ATOM     19  H   UNL     1      20.000  -2.204   5.143  1.00  0.00     0.293 HD
ENDBRANCH  15  18
BRANCH  17  20
ATOM     20  O   UNL     1      21.923  -1.326   6.929  1.00  0.00    -0.504 OA
ATOM     21  H   UNL     1      22.848  -1.740   6.906  1.00  0.00     0.293 HD
ENDBRANCH  17  20
ENDBRANCH   1  12
BRANCH   6  22
ATOM     22  O   UNL     1      19.504  -1.484  16.490  1.00  0.00    -0.507 OA
ATOM     23  H   UNL     1      18.507  -1.582  16.643  1.00  0.00     0.293 HD
ENDBRANCH   6  22
BRANCH   8  24
ATOM     24  O   UNL     1      21.680   2.615  15.165  1.00  0.00    -0.508 OA
ATOM     25  H   UNL     1      22.684   2.754  15.155  1.00  0.00     0.293 HD
ENDBRANCH   8  24
TORSDOF 5
ENDMDL
MODEL 2
REMARK VINA RESULT:    -2.695     12.162     14.476
REMARK INTER + INTRA:          -3.473
REMARK INTER:                  -3.155
REMARK INTRA:                  -0.318
REMARK UNBOUND:                -0.306
REMARK SMILES O=c1cc(-c2ccc(O)c(O)c2)oc2cc(O)cc(O)c12
REMARK SMILES IDX 4 1 3 2 2 3 1 4 21 5 19 6 18 7 16 8 15 9 14 10 13 11 5 12
REMARK SMILES IDX 6 13 7 14 8 15 12 16 10 17 9 18 11 20 20 22 17 24
REMARK H PARENT 9 19 11 21 20 23 17 25
REMARK Flexibility Score: inf
ROOT
ATOM      1  C   UNL     1      27.606   1.980   0.881  1.00  0.00     0.138 A 
ATOM      2  C   UNL     1      28.741   1.152   0.886  1.00  0.00     0.100 A 
ATOM      3  C   UNL     1      28.579  -0.233   0.893  1.00  0.00     0.197 A 
ATOM      4  O   UNL     1      29.604  -0.968   0.900  1.00  0.00    -0.289 OA
ATOM      5  C   UNL     1      27.281  -0.783   0.896  1.00  0.00     0.107 A 
ATOM      6  C   UNL     1      27.030  -2.176   0.901  1.00  0.00     0.134 A 
ATOM      7  C   UNL     1      25.707  -2.642   0.910  1.00  0.00     0.093 A 
ATOM      8  C   UNL     1      24.636  -1.747   0.915  1.00  0.00     0.123 A 
ATOM      9  C   UNL     1      24.878  -0.369   0.910  1.00  0.00     0.094 A 
ATOM     10  C   UNL     1      26.189   0.116   0.900  1.00  0.00     0.146 A 
ATOM     11  O   UNL     1      26.394   1.430   0.894  1.00  0.00    -0.456 OA
ENDROOT
BRANCH   1  12
ATOM     12  C   UNL     1      27.717   3.461   0.875  1.00  0.00     0.021 A 
ATOM     13  C   UNL     1      28.989   4.058   0.891  1.00  0.00     0.016 A 
ATOM     14  C   UNL     1      29.123   5.448   0.893  1.00  0.00     0.051 A 
ATOM     15  C   UNL     1      27.987   6.267   0.892  1.00  0.00     0.157 A 
ATOM     16  C   UNL     1      26.579   4.291   0.887  1.00  0.00     0.062 A 
ATOM     17  C   UNL     1      26.710   5.684   0.892  1.00  0.00     0.158 A 
BRANCH  15  18
ATOM     18  O   UNL     1      28.123   7.654   0.893  1.00  0.00    -0.504 OA
ATOM     19  H   UNL     1      28.446   8.156   1.712  1.00  0.00     0.293 HD
ENDBRANCH  15  18
BRANCH  17  20
ATOM     20  O   UNL     1      25.559   6.471   0.902  1.00  0.00    -0.504 OA
ATOM     21  H   UNL     1      25.131   6.791   1.764  1.00  0.00     0.293 HD
ENDBRANCH  17  20
ENDBRANCH   1  12
BRANCH   6  22
ATOM     22  O   UNL     1      28.080  -3.094   0.897  1.00  0.00    -0.507 OA
ATOM     23  H   UNL     1      28.777  -3.102   0.161  1.00  0.00     0.293 HD
ENDBRANCH   6  22
BRANCH   8  24
ATOM     24  O   UNL     1      23.331  -2.237   0.924  1.00  0.00    -0.508 OA
ATOM     25  H   UNL     1      22.839  -2.420   1.791  1.00  0.00     0.293 HD
ENDBRANCH   8  24
TORSDOF 5
ENDMDL
MODEL 3
REMARK VINA RESULT:    -2.586     11.884     14.282
REMARK INTER + INTRA:          -3.345
REMARK INTER:                  -3.048
REMARK INTRA:                  -0.297
REMARK UNBOUND:                -0.306
REMARK SMILES O=c1cc(-c2ccc(O)c(O)c2)oc2cc(O)cc(O)c12
REMARK SMILES IDX 4 1 3 2 2 3 1 4 21 5 19 6 18 7 16 8 15 9 14 10 13 11 5 12
REMARK SMILES IDX 6 13 7 14 8 15 12 16 10 17 9 18 11 20 20 22 17 24
REMARK H PARENT 9 19 11 21 20 23 17 25
REMARK Flexibility Score: inf
ROOT
ATOM      1  C   UNL     1      27.142   2.046   0.894  1.00  0.00     0.138 A 
ATOM      2  C   UNL     1      28.160   1.077   0.892  1.00  0.00     0.100 A 
ATOM      3  C   UNL     1      27.819  -0.275   0.889  1.00  0.00     0.197 A 
ATOM      4  O   UNL     1      28.740  -1.137   0.890  1.00  0.00    -0.289 OA
ATOM      5  C   UNL     1      26.460  -0.651   0.891  1.00  0.00     0.107 A 
ATOM      6  C   UNL     1      26.030  -2.000   0.887  1.00  0.00     0.134 A 
ATOM      7  C   UNL     1      24.657  -2.290   0.895  1.00  0.00     0.093 A 
ATOM      8  C   UNL     1      23.712  -1.263   0.908  1.00  0.00     0.123 A 
ATOM      9  C   UNL     1      24.132   0.072   0.912  1.00  0.00     0.094 A 
ATOM     10  C   UNL     1      25.495   0.382   0.903  1.00  0.00     0.146 A 
ATOM     11  O   UNL     1      25.869   1.659   0.905  1.00  0.00    -0.456 OA
ENDROOT
BRANCH   1  12
ATOM     12  C   UNL     1      27.445   3.500   0.899  1.00  0.00     0.021 A 
ATOM     13  C   UNL     1      26.389   4.426   0.879  1.00  0.00     0.016 A 
ATOM     14  C   UNL     1      26.646   5.799   0.875  1.00  0.00     0.051 A 
ATOM     15  C   UNL     1      27.963   6.271   0.880  1.00  0.00     0.157 A 
ATOM     16  C   UNL     1      28.769   3.981   0.890  1.00  0.00     0.062 A 
ATOM     17  C   UNL     1      29.030   5.356   0.884  1.00  0.00     0.158 A 
BRANCH  15  18
ATOM     18  O   UNL     1      28.218   7.641   0.878  1.00  0.00    -0.504 OA
ATOM     19  H   UNL     1      27.492   8.316   1.088  1.00  0.00     0.293 HD
ENDBRANCH  15  18
BRANCH  17  20
ATOM     20  O   UNL     1      30.354   5.794   0.876  1.00  0.00    -0.504 OA
ATOM     21  H   UNL     1      30.880   5.934   1.731  1.00  0.00     0.293 HD
ENDBRANCH  17  20
ENDBRANCH   1  12
BRANCH   6  22
ATOM     22  O   UNL     1      26.952  -3.047   0.875  1.00  0.00    -0.507 OA
ATOM     23  H   UNL     1      27.524  -3.261   1.684  1.00  0.00     0.293 HD
ENDBRANCH   6  22
BRANCH   8  24
ATOM     24  O   UNL     1      22.355  -1.579   0.916  1.00  0.00    -0.508 OA
ATOM     25  H   UNL     1      21.655  -0.921   0.591  1.00  0.00     0.293 HD
ENDBRANCH   8  24
TORSDOF 5
ENDMDL
MODEL 4
REMARK VINA RESULT:    -2.341     12.994     14.503
REMARK INTER + INTRA:          -3.057
REMARK INTER:                  -2.739
REMARK INTRA:                  -0.318
REMARK UNBOUND:                -0.306
REMARK SMILES O=c1cc(-c2ccc(O)c(O)c2)oc2cc(O)cc(O)c12
REMARK SMILES IDX 4 1 3 2 2 3 1 4 21 5 19 6 18 7 16 8 15 9 14 10 13 11 5 12
REMARK SMILES IDX 6 13 7 14 8 15 12 16 10 17 9 18 11 20 20 22 17 24
REMARK H PARENT 9 19 11 21 20 23 17 25
REMARK Flexibility Score: inf
ROOT
ATOM      1  C   UNL     1      26.919   1.966   0.903  1.00  0.00     0.138 A 
ATOM      2  C   UNL     1      26.141   0.796   0.893  1.00  0.00     0.100 A 
ATOM      3  C   UNL     1      26.772  -0.448   0.887  1.00  0.00     0.197 A 
ATOM      4  O   UNL     1      26.065  -1.492   0.875  1.00  0.00    -0.289 OA
ATOM      5  C   UNL     1      28.180  -0.514   0.888  1.00  0.00     0.107 A 
ATOM      6  C   UNL     1      28.898  -1.734   0.884  1.00  0.00     0.134 A 
ATOM      7  C   UNL     1      30.301  -1.713   0.880  1.00  0.00     0.093 A 
ATOM      8  C   UNL     1      30.996  -0.503   0.879  1.00  0.00     0.123 A 
ATOM      9  C   UNL     1      30.291   0.706   0.884  1.00  0.00     0.094 A 
ATOM     10  C   UNL     1      28.894   0.708   0.889  1.00  0.00     0.146 A 
ATOM     11  O   UNL     1      28.247   1.870   0.895  1.00  0.00    -0.456 OA
ENDROOT
BRANCH   1  12
ATOM     12  C   UNL     1      26.302   3.317   0.909  1.00  0.00     0.021 A 
ATOM     13  C   UNL     1      24.902   3.437   0.894  1.00  0.00     0.016 A 
ATOM     14  C   UNL     1      24.296   4.695   0.891  1.00  0.00     0.051 A 
ATOM     15  C   UNL     1      25.077   5.856   0.892  1.00  0.00     0.157 A 
ATOM     16  C   UNL     1      27.083   4.489   0.897  1.00  0.00     0.062 A 
ATOM     17  C   UNL     1      26.478   5.751   0.892  1.00  0.00     0.158 A 
BRANCH  15  18
ATOM     18  O   UNL     1      24.470   7.111   0.891  1.00  0.00    -0.504 OA
ATOM     19  H   UNL     1      23.682   7.319   1.493  1.00  0.00     0.293 HD
ENDBRANCH  15  18
BRANCH  17  20
ATOM     20  O   UNL     1      27.285   6.888   0.881  1.00  0.00    -0.504 OA
ATOM     21  H   UNL     1      28.297   6.831   0.857  1.00  0.00     0.293 HD
ENDBRANCH  17  20
ENDBRANCH   1  12
BRANCH   6  22
ATOM     22  O   UNL     1      28.230  -2.959   0.883  1.00  0.00    -0.507 OA
ATOM     23  H   UNL     1      27.794  -3.327   0.046  1.00  0.00     0.293 HD
ENDBRANCH   6  22
BRANCH   8  24
ATOM     24  O   UNL     1      32.390  -0.511   0.875  1.00  0.00    -0.508 OA
ATOM     25  H   UNL     1      32.921  -0.758   1.702  1.00  0.00     0.293 HD
ENDBRANCH   8  24
TORSDOF 5
ENDMDL
MODEL 5
REMARK VINA RESULT:    -2.079     12.004     13.949
REMARK INTER + INTRA:          -2.750
REMARK INTER:                  -2.432
REMARK INTRA:                  -0.318
REMARK UNBOUND:                -0.306
REMARK SMILES O=c1cc(-c2ccc(O)c(O)c2)oc2cc(O)cc(O)c12
REMARK SMILES IDX 4 1 3 2 2 3 1 4 21 5 19 6 18 7 16 8 15 9 14 10 13 11 5 12
REMARK SMILES IDX 6 13 7 14 8 15 12 16 10 17 9 18 11 20 20 22 17 24
REMARK H PARENT 9 19 11 21 20 23 17 25
REMARK Flexibility Score: inf
ROOT
ATOM      1  C   UNL     1      25.833   2.707   0.875  1.00  0.00     0.138 A 
ATOM      2  C   UNL     1      24.931   3.784   0.884  1.00  0.00     0.100 A 
ATOM      3  C   UNL     1      25.421   5.090   0.884  1.00  0.00     0.197 A 
ATOM      4  O   UNL     1      24.603   6.050   0.894  1.00  0.00    -0.289 OA
ATOM      5  C   UNL     1      26.814   5.311   0.879  1.00  0.00     0.107 A 
ATOM      6  C   UNL     1      27.393   6.602   0.877  1.00  0.00     0.134 A 
ATOM      7  C   UNL     1      28.789   6.736   0.878  1.00  0.00     0.093 A 
ATOM      8  C   UNL     1      29.614   5.609   0.881  1.00  0.00     0.123 A 
ATOM      9  C   UNL     1      29.046   4.330   0.882  1.00  0.00     0.094 A 
ATOM     10  C   UNL     1      27.657   4.175   0.880  1.00  0.00     0.146 A 
ATOM     11  O   UNL     1      27.142   2.949   0.880  1.00  0.00    -0.456 OA
ENDROOT
BRANCH   1  12
ATOM     12  C   UNL     1      25.368   1.296   0.876  1.00  0.00     0.021 A 
ATOM     13  C   UNL     1      23.989   1.024   0.886  1.00  0.00     0.016 A 
ATOM     14  C   UNL     1      23.525  -0.293   0.895  1.00  0.00     0.051 A 
ATOM     15  C   UNL     1      24.430  -1.362   0.904  1.00  0.00     0.157 A 
ATOM     16  C   UNL     1      26.273   0.217   0.898  1.00  0.00     0.062 A 
ATOM     17  C   UNL     1      25.810  -1.103   0.908  1.00  0.00     0.158 A 
BRANCH  15  18
ATOM     18  O   UNL     1      23.964  -2.675   0.910  1.00  0.00    -0.504 OA
ATOM     19  H   UNL     1      23.293  -3.004   0.225  1.00  0.00     0.293 HD
ENDBRANCH  15  18
BRANCH  17  20
ATOM     20  O   UNL     1      26.738  -2.145   0.929  1.00  0.00    -0.504 OA
ATOM     21  H   UNL     1      26.859  -2.743   1.739  1.00  0.00     0.293 HD
ENDBRANCH  17  20
ENDBRANCH   1  12
BRANCH   6  22
ATOM     22  O   UNL     1      26.595   7.746   0.875  1.00  0.00    -0.507 OA
ATOM     23  H   UNL     1      26.506   8.334   1.696  1.00  0.00     0.293 HD
ENDBRANCH   6  22
BRANCH   8  24
ATOM     24  O   UNL     1      30.998   5.770   0.881  1.00  0.00    -0.508 OA
ATOM     25  H   UNL     1      31.618   5.028   0.578  1.00  0.00     0.293 HD
ENDBRANCH   8  24
TORSDOF 5
ENDMDL
MODEL 6
REMARK VINA RESULT:    -2.059      1.086      2.642
REMARK INTER + INTRA:          -2.726
REMARK INTER:                  -2.439
REMARK INTRA:                  -0.286
REMARK UNBOUND:                -0.306
REMARK SMILES O=c1cc(-c2ccc(O)c(O)c2)oc2cc(O)cc(O)c12
REMARK SMILES IDX 4 1 3 2 2 3 1 4 21 5 19 6 18 7 16 8 15 9 14 10 13 11 5 12
REMARK SMILES IDX 6 13 7 14 8 15 12 16 10 17 9 18 11 20 20 22 17 24
REMARK H PARENT 9 19 11 21 20 23 17 25
REMARK Flexibility Score: inf
ROOT
ATOM      1  C   UNL     1      20.200  -1.218  11.144  1.00  0.00     0.138 A 
ATOM      2  C   UNL     1      20.737   0.043  11.451  1.00  0.00     0.100 A 
ATOM      3  C   UNL     1      20.828   0.444  12.784  1.00  0.00     0.197 A 
ATOM      4  O   UNL     1      21.309   1.579  13.050  1.00  0.00    -0.289 OA
ATOM      5  C   UNL     1      20.376  -0.420  13.803  1.00  0.00     0.107 A 
ATOM      6  C   UNL     1      20.434  -0.091  15.179  1.00  0.00     0.134 A 
ATOM      7  C   UNL     1      19.958  -1.005  16.131  1.00  0.00     0.093 A 
ATOM      8  C   UNL     1      19.428  -2.235  15.736  1.00  0.00     0.123 A 
ATOM      9  C   UNL     1      19.370  -2.565  14.378  1.00  0.00     0.094 A 
ATOM     10  C   UNL     1      19.839  -1.669  13.413  1.00  0.00     0.146 A 
ATOM     11  O   UNL     1      19.774  -2.006  12.128  1.00  0.00    -0.456 OA
ENDROOT
BRANCH   1  12
ATOM     12  C   UNL     1      20.078  -1.697   9.743  1.00  0.00     0.021 A 
ATOM     13  C   UNL     1      19.009  -2.539   9.392  1.00  0.00     0.016 A 
ATOM     14  C   UNL     1      18.875  -3.010   8.084  1.00  0.00     0.051 A 
ATOM     15  C   UNL     1      19.812  -2.656   7.106  1.00  0.00     0.157 A 
ATOM     16  C   UNL     1      21.024  -1.355   8.758  1.00  0.00     0.062 A 
ATOM     17  C   UNL     1      20.893  -1.826   7.447  1.00  0.00     0.158 A 
BRANCH  15  18
ATOM     18  O   UNL     1      19.675  -3.125   5.801  1.00  0.00    -0.504 OA
ATOM     19  H   UNL     1      18.951  -2.775   5.184  1.00  0.00     0.293 HD
ENDBRANCH  15  18
BRANCH  17  20
ATOM     20  O   UNL     1      21.850  -1.465   6.499  1.00  0.00    -0.504 OA
ATOM     21  H   UNL     1      21.787  -1.757   5.530  1.00  0.00     0.293 HD
ENDBRANCH  17  20
ENDBRANCH   1  12
BRANCH   6  22
ATOM     22  O   UNL     1      20.957   1.131  15.603  1.00  0.00    -0.507 OA
ATOM     23  H   UNL     1      21.748   1.180  16.235  1.00  0.00     0.293 HD
ENDBRANCH   6  22
BRANCH   8  24
ATOM     24  O   UNL     1      18.963  -3.124  16.703  1.00  0.00    -0.508 OA
ATOM     25  H   UNL     1      18.057  -3.005  17.141  1.00  0.00     0.293 HD
ENDBRANCH   8  24
TORSDOF 5
ENDMDL
