MODEL 1
REMARK VINA RESULT:    -4.065      0.000      0.000
REMARK INTER + INTRA:          -8.000
REMARK INTER:                  -6.917
REMARK INTRA:                  -1.083
REMARK UNBOUND:                -1.083
REMARK SMILES CCCCCCCCCCCCCC(=O)[O-]
REMARK SMILES IDX 8 1 9 2 10 3 11 4 12 5 13 6 14 7 15 8 16 9 7 10 6 11 5 12
REMARK SMILES IDX 4 13 3 14 2 15 1 16
REMARK H PARENT
REMARK Flexibility Score: inf
ROOT
ATOM      1  C   UNL     1     162.486 175.008 187.809  1.00  0.00     0.000 C 
ENDROOT
BRANCH   1   2
ATOM      2  C   UNL     1     162.807 176.519 187.831  1.00  0.00     0.000 C 
BRANCH   2   3
ATOM      3  C   UNL     1     161.769 177.363 188.595  1.00  0.00     0.000 C 
BRANCH   3   4
ATOM      4  C   UNL     1     160.817 178.181 187.705  1.00  0.00     0.000 C 
BRANCH   4   5
ATOM      5  C   UNL     1     161.288 178.260 186.245  1.00  0.00     0.006 C 
BRANCH   5   6
ATOM      6  C   UNL     1     160.095 178.225 185.285  1.00  0.00     0.053 C 
BRANCH   6   7
ATOM      7  C   UNL     1     160.426 177.418 184.069  1.00  0.00     0.041 C 
ATOM      8  O   UNL     1     159.895 176.290 183.892  1.00  0.00    -0.550 OA
ATOM      9  O   UNL     1     161.287 177.933 183.107  1.00  0.00    -0.550 OA
ENDBRANCH   6   7
ENDBRANCH   5   6
ENDBRANCH   4   5
ENDBRANCH   3   4
ENDBRANCH   2   3
ENDBRANCH   1   2
BRANCH   1  10
ATOM     10  C   UNL     1     161.272 174.682 186.923  1.00  0.00     0.000 C 
BRANCH  10  11
ATOM     11  C   UNL     1     160.490 173.451 187.410  1.00  0.00    -0.000 C 
BRANCH  11  12
ATOM     12  C   UNL     1     160.604 172.238 186.462  1.00  0.00    -0.000 C 
BRANCH  12  13
ATOM     13  C   UNL     1     160.947 170.943 187.216  1.00  0.00    -0.000 C 
BRANCH  13  14
ATOM     14  C   UNL     1     161.100 171.156 188.733  1.00  0.00    -0.000 C 
BRANCH  14  15
ATOM     15  C   UNL     1     162.550 171.122 189.245  1.00  0.00    -0.003 C 
ATOM     16  C   UNL     1     163.498 170.376 188.307  1.00  0.00     0.004 C 
ENDBRANCH  14  15
ENDBRANCH  13  14
ENDBRANCH  12  13
ENDBRANCH  11  12
ENDBRANCH  10  11
ENDBRANCH   1  10
TORSDOF 12
ENDMDL
MODEL 2
REMARK VINA RESULT:    -4.059      2.392      5.613
REMARK INTER + INTRA:          -7.988
REMARK INTER:                  -6.198
REMARK INTRA:                  -1.791
REMARK UNBOUND:                -1.083
REMARK SMILES CCCCCCCCCCCCCC(=O)[O-]
REMARK SMILES IDX 8 1 9 2 10 3 11 4 12 5 13 6 14 7 15 8 16 9 7 10 6 11 5 12
REMARK SMILES IDX 4 13 3 14 2 15 1 16
REMARK H PARENT
REMARK Flexibility Score: inf
ROOT
ATOM      1  C   UNL     1     162.687 177.293 187.965  1.00  0.00     0.000 C 
ENDROOT
BRANCH   1   2
ATOM      2  C   UNL     1     161.147 177.184 187.953  1.00  0.00     0.000 C 
BRANCH   2   3
ATOM      3  C   UNL     1     160.626 175.767 187.642  1.00  0.00     0.000 C 
BRANCH   3   4
ATOM      4  C   UNL     1     161.718 174.694 187.487  1.00  0.00     0.000 C 
BRANCH   4   5
ATOM      5  C   UNL     1     161.151 173.320 187.101  1.00  0.00     0.006 C 
BRANCH   5   6
ATOM      6  C   UNL     1     159.917 173.472 186.206  1.00  0.00     0.053 C 
BRANCH   6   7
ATOM      7  C   UNL     1     159.963 172.488 185.080  1.00  0.00     0.041 C 
ATOM      8  O   UNL     1     159.875 172.884 183.888  1.00  0.00    -0.550 OA
ATOM      9  O   UNL     1     160.148 171.137 185.345  1.00  0.00    -0.550 OA
ENDBRANCH   6   7
ENDBRANCH   5   6
ENDBRANCH   4   5
ENDBRANCH   3   4
ENDBRANCH   2   3
ENDBRANCH   1   2
BRANCH   1  10
ATOM     10  C   UNL     1     163.193 178.509 187.171  1.00  0.00     0.000 C 
BRANCH  10  11
ATOM     11  C   UNL     1     164.297 178.148 186.164  1.00  0.00    -0.000 C 
BRANCH  11  12
ATOM     12  C   UNL     1     163.767 177.899 184.735  1.00  0.00    -0.000 C 
BRANCH  12  13
ATOM     13  C   UNL     1     163.202 176.479 184.566  1.00  0.00    -0.000 C 
BRANCH  13  14
ATOM     14  C   UNL     1     162.069 176.404 183.527  1.00  0.00    -0.000 C 
BRANCH  14  15
ATOM     15  C   UNL     1     160.650 176.408 184.120  1.00  0.00    -0.003 C 
ATOM     16  C   UNL     1     160.129 177.813 184.416  1.00  0.00     0.004 C 
ENDBRANCH  14  15
ENDBRANCH  13  14
ENDBRANCH  12  13
ENDBRANCH  11  12
ENDBRANCH  10  11
ENDBRANCH   1  10
TORSDOF 12
ENDMDL
MODEL 3
REMARK VINA RESULT:    -4.050      3.072      5.765
REMARK INTER + INTRA:          -7.974
REMARK INTER:                  -6.017
REMARK INTRA:                  -1.957
REMARK UNBOUND:                -1.083
REMARK SMILES CCCCCCCCCCCCCC(=O)[O-]
REMARK SMILES IDX 8 1 9 2 10 3 11 4 12 5 13 6 14 7 15 8 16 9 7 10 6 11 5 12
REMARK SMILES IDX 4 13 3 14 2 15 1 16
REMARK H PARENT
REMARK Flexibility Score: inf
ROOT
ATOM      1  C   UNL     1     162.415 176.958 188.047  1.00  0.00     0.000 C 
ENDROOT
BRANCH   1   2
ATOM      2  C   UNL     1     163.168 175.736 187.478  1.00  0.00     0.000 C 
BRANCH   2   3
ATOM      3  C   UNL     1     162.338 174.438 187.479  1.00  0.00     0.000 C 
BRANCH   3   4
ATOM      4  C   UNL     1     160.814 174.642 187.530  1.00  0.00     0.000 C 
BRANCH   4   5
ATOM      5  C   UNL     1     160.033 173.432 186.998  1.00  0.00     0.006 C 
BRANCH   5   6
ATOM      6  C   UNL     1     160.983 172.286 186.638  1.00  0.00     0.053 C 
BRANCH   6   7
ATOM      7  C   UNL     1     160.683 171.077 187.467  1.00  0.00     0.041 C 
ATOM      8  O   UNL     1     160.727 171.143 188.724  1.00  0.00    -0.550 OA
ATOM      9  O   UNL     1     160.310 169.888 186.852  1.00  0.00    -0.550 OA
ENDBRANCH   6   7
ENDBRANCH   5   6
ENDBRANCH   4   5
ENDBRANCH   3   4
ENDBRANCH   2   3
ENDBRANCH   1   2
BRANCH   1  10
ATOM     10  C   UNL     1     162.142 178.027 186.976  1.00  0.00     0.000 C 
BRANCH  10  11
ATOM     11  C   UNL     1     160.642 178.263 186.735  1.00  0.00    -0.000 C 
BRANCH  11  12
ATOM     12  C   UNL     1     160.237 178.163 185.249  1.00  0.00    -0.000 C 
BRANCH  12  13
ATOM     13  C   UNL     1     161.279 177.400 184.414  1.00  0.00    -0.000 C 
BRANCH  13  14
ATOM     14  C   UNL     1     160.677 176.206 183.650  1.00  0.00    -0.000 C 
BRANCH  14  15
ATOM     15  C   UNL     1     161.394 174.865 183.884  1.00  0.00    -0.003 C 
ATOM     16  C   UNL     1     162.916 174.986 183.854  1.00  0.00     0.004 C 
ENDBRANCH  14  15
ENDBRANCH  13  14
ENDBRANCH  12  13
ENDBRANCH  11  12
ENDBRANCH  10  11
ENDBRANCH   1  10
TORSDOF 12
ENDMDL
MODEL 4
REMARK VINA RESULT:    -4.015      3.763      5.315
REMARK INTER + INTRA:          -7.914
REMARK INTER:                  -6.232
REMARK INTRA:                  -1.682
REMARK UNBOUND:                -1.083
REMARK SMILES CCCCCCCCCCCCCC(=O)[O-]
REMARK SMILES IDX 8 1 9 2 10 3 11 4 12 5 13 6 14 7 15 8 16 9 7 10 6 11 5 12
REMARK SMILES IDX 4 13 3 14 2 15 1 16
REMARK H PARENT
REMARK Flexibility Score: inf
ROOT
ATOM      1  C   UNL     1     160.649 177.626 187.514  1.00  0.00     0.000 C 
ENDROOT
BRANCH   1   2
ATOM      2  C   UNL     1     162.008 177.589 188.246  1.00  0.00     0.000 C 
BRANCH   2   3
ATOM      3  C   UNL     1     163.159 178.238 187.454  1.00  0.00     0.000 C 
BRANCH   3   4
ATOM      4  C   UNL     1     164.333 177.298 187.128  1.00  0.00     0.000 C 
BRANCH   4   5
ATOM      5  C   UNL     1     165.612 178.055 186.744  1.00  0.00     0.006 C 
BRANCH   5   6
ATOM      6  C   UNL     1     166.852 177.193 186.996  1.00  0.00     0.053 C 
BRANCH   6   7
ATOM      7  C   UNL     1     167.996 178.042 187.456  1.00  0.00     0.041 C 
ATOM      8  O   UNL     1     168.077 178.398 188.661  1.00  0.00    -0.550 OA
ATOM      9  O   UNL     1     168.995 178.404 186.561  1.00  0.00    -0.550 OA
ENDBRANCH   6   7
ENDBRANCH   5   6
ENDBRANCH   4   5
ENDBRANCH   3   4
ENDBRANCH   2   3
ENDBRANCH   1   2
BRANCH   1  10
ATOM     10  C   UNL     1     160.786 178.078 186.051  1.00  0.00     0.000 C 
BRANCH  10  11
ATOM     11  C   UNL     1     160.523 176.943 185.047  1.00  0.00    -0.000 C 
BRANCH  11  12
ATOM     12  C   UNL     1     161.808 176.222 184.587  1.00  0.00    -0.000 C 
BRANCH  12  13
ATOM     13  C   UNL     1     161.819 174.739 184.996  1.00  0.00    -0.000 C 
BRANCH  13  14
ATOM     14  C   UNL     1     160.614 174.351 185.872  1.00  0.00    -0.000 C 
BRANCH  14  15
ATOM     15  C   UNL     1     160.972 173.913 187.302  1.00  0.00    -0.003 C 
ATOM     16  C   UNL     1     162.465 174.020 187.605  1.00  0.00     0.004 C 
ENDBRANCH  14  15
ENDBRANCH  13  14
ENDBRANCH  12  13
ENDBRANCH  11  12
ENDBRANCH  10  11
ENDBRANCH   1  10
TORSDOF 12
ENDMDL
MODEL 5
REMARK VINA RESULT:    -4.010      3.296      5.886
REMARK INTER + INTRA:          -7.905
REMARK INTER:                  -6.269
REMARK INTRA:                  -1.636
REMARK UNBOUND:                -1.083
REMARK SMILES CCCCCCCCCCCCCC(=O)[O-]
REMARK SMILES IDX 8 1 9 2 10 3 11 4 12 5 13 6 14 7 15 8 16 9 7 10 6 11 5 12
REMARK SMILES IDX 4 13 3 14 2 15 1 16
REMARK H PARENT
REMARK Flexibility Score: inf
ROOT
ATOM      1  C   UNL     1     161.020 177.456 187.885  1.00  0.00     0.000 C 
ENDROOT
BRANCH   1   2
ATOM      2  C   UNL     1     160.865 175.940 187.635  1.00  0.00     0.000 C 
BRANCH   2   3
ATOM      3  C   UNL     1     162.202 175.207 187.413  1.00  0.00     0.000 C 
BRANCH   3   4
ATOM      4  C   UNL     1     163.451 176.104 187.471  1.00  0.00     0.000 C 
BRANCH   4   5
ATOM      5  C   UNL     1     164.356 175.943 186.240  1.00  0.00     0.006 C 
BRANCH   5   6
ATOM      6  C   UNL     1     164.422 177.247 185.439  1.00  0.00     0.053 C 
BRANCH   6   7
ATOM      7  C   UNL     1     165.167 178.295 186.204  1.00  0.00     0.041 C 
ATOM      8  O   UNL     1     166.423 178.247 186.286  1.00  0.00    -0.550 OA
ATOM      9  O   UNL     1     164.478 179.350 186.788  1.00  0.00    -0.550 OA
ENDBRANCH   6   7
ENDBRANCH   5   6
ENDBRANCH   4   5
ENDBRANCH   3   4
ENDBRANCH   2   3
ENDBRANCH   1   2
BRANCH   1  10
ATOM     10  C   UNL     1     160.344 178.300 186.792  1.00  0.00     0.000 C 
BRANCH  10  11
ATOM     11  C   UNL     1     161.052 178.193 185.431  1.00  0.00    -0.000 C 
BRANCH  11  12
ATOM     12  C   UNL     1     160.191 177.513 184.344  1.00  0.00    -0.000 C 
BRANCH  12  13
ATOM     13  C   UNL     1     160.910 176.315 183.702  1.00  0.00    -0.000 C 
BRANCH  13  14
ATOM     14  C   UNL     1     161.047 176.447 182.174  1.00  0.00    -0.000 C 
BRANCH  14  15
ATOM     15  C   UNL     1     161.631 177.787 181.693  1.00  0.00    -0.003 C 
ATOM     16  C   UNL     1     163.100 177.967 182.068  1.00  0.00     0.004 C 
ENDBRANCH  14  15
ENDBRANCH  13  14
ENDBRANCH  12  13
ENDBRANCH  11  12
ENDBRANCH  10  11
ENDBRANCH   1  10
TORSDOF 12
ENDMDL
MODEL 6
REMARK VINA RESULT:    -4.001      2.731      5.804
REMARK INTER + INTRA:          -7.890
REMARK INTER:                  -6.000
REMARK INTRA:                  -1.890
REMARK UNBOUND:                -1.083
REMARK SMILES CCCCCCCCCCCCCC(=O)[O-]
REMARK SMILES IDX 8 1 9 2 10 3 11 4 12 5 13 6 14 7 15 8 16 9 7 10 6 11 5 12
REMARK SMILES IDX 4 13 3 14 2 15 1 16
REMARK H PARENT
REMARK Flexibility Score: inf
ROOT
ATOM      1  C   UNL     1     161.446 176.835 184.476  1.00  0.00     0.000 C 
ENDROOT
BRANCH   1   2
ATOM      2  C   UNL     1     161.627 175.321 184.715  1.00  0.00     0.000 C 
BRANCH   2   3
ATOM      3  C   UNL     1     160.609 174.721 185.704  1.00  0.00     0.000 C 
BRANCH   3   4
ATOM      4  C   UNL     1     161.226 173.955 186.886  1.00  0.00     0.000 C 
BRANCH   4   5
ATOM      5  C   UNL     1     160.200 173.098 187.641  1.00  0.00     0.006 C 
BRANCH   5   6
ATOM      6  C   UNL     1     160.744 171.687 187.889  1.00  0.00     0.053 C 
BRANCH   6   7
ATOM      7  C   UNL     1     161.116 171.035 186.594  1.00  0.00     0.041 C 
ATOM      8  O   UNL     1     160.232 170.785 185.734  1.00  0.00    -0.550 OA
ATOM      9  O   UNL     1     162.447 170.746 186.320  1.00  0.00    -0.550 OA
ENDBRANCH   6   7
ENDBRANCH   5   6
ENDBRANCH   4   5
ENDBRANCH   3   4
ENDBRANCH   2   3
ENDBRANCH   1   2
BRANCH   1  10
ATOM     10  C   UNL     1     160.310 177.429 185.326  1.00  0.00     0.000 C 
BRANCH  10  11
ATOM     11  C   UNL     1     160.817 178.386 186.417  1.00  0.00    -0.000 C 
BRANCH  11  12
ATOM     12  C   UNL     1     160.919 177.729 187.811  1.00  0.00    -0.000 C 
BRANCH  12  13
ATOM     13  C   UNL     1     162.370 177.375 188.179  1.00  0.00    -0.000 C 
BRANCH  13  14
ATOM     14  C   UNL     1     163.406 178.178 187.371  1.00  0.00    -0.000 C 
BRANCH  14  15
ATOM     15  C   UNL     1     164.390 177.322 186.555  1.00  0.00    -0.003 C 
ATOM     16  C   UNL     1     164.426 175.862 187.002  1.00  0.00     0.004 C 
ENDBRANCH  14  15
ENDBRANCH  13  14
ENDBRANCH  12  13
ENDBRANCH  11  12
ENDBRANCH  10  11
ENDBRANCH   1  10
TORSDOF 12
ENDMDL
MODEL 7
REMARK VINA RESULT:    -3.996      1.633      2.778
REMARK INTER + INTRA:          -7.882
REMARK INTER:                  -5.871
REMARK INTRA:                  -2.011
REMARK UNBOUND:                -1.083
REMARK SMILES CCCCCCCCCCCCCC(=O)[O-]
REMARK SMILES IDX 8 1 9 2 10 3 11 4 12 5 13 6 14 7 15 8 16 9 7 10 6 11 5 12
REMARK SMILES IDX 4 13 3 14 2 15 1 16
REMARK H PARENT
REMARK Flexibility Score: inf
ROOT
ATOM      1  C   UNL     1     164.369 176.789 187.045  1.00  0.00     0.000 C 
ENDROOT
BRANCH   1   2
ATOM      2  C   UNL     1     163.402 177.968 187.288  1.00  0.00     0.000 C 
BRANCH   2   3
ATOM      3  C   UNL     1     162.284 177.656 188.302  1.00  0.00     0.000 C 
BRANCH   3   4
ATOM      4  C   UNL     1     160.855 177.744 187.738  1.00  0.00     0.000 C 
BRANCH   4   5
ATOM      5  C   UNL     1     160.819 178.215 186.277  1.00  0.00     0.006 C 
BRANCH   5   6
ATOM      6  C   UNL     1     160.440 177.063 185.342  1.00  0.00     0.053 C 
BRANCH   6   7
ATOM      7  C   UNL     1     161.150 177.197 184.032  1.00  0.00     0.041 C 
ATOM      8  O   UNL     1     162.198 177.890 183.947  1.00  0.00    -0.550 OA
ATOM      9  O   UNL     1     160.680 176.519 182.914  1.00  0.00    -0.550 OA
ENDBRANCH   6   7
ENDBRANCH   5   6
ENDBRANCH   4   5
ENDBRANCH   3   4
ENDBRANCH   2   3
ENDBRANCH   1   2
BRANCH   1  10
ATOM     10  C   UNL     1     163.657 175.563 186.450  1.00  0.00     0.000 C 
BRANCH  10  11
ATOM     11  C   UNL     1     164.045 174.249 187.148  1.00  0.00    -0.000 C 
BRANCH  11  12
ATOM     12  C   UNL     1     162.877 173.595 187.917  1.00  0.00    -0.000 C 
BRANCH  12  13
ATOM     13  C   UNL     1     161.512 174.153 187.481  1.00  0.00    -0.000 C 
BRANCH  13  14
ATOM     14  C   UNL     1     160.592 173.078 186.874  1.00  0.00    -0.000 C 
BRANCH  14  15
ATOM     15  C   UNL     1     160.201 173.320 185.406  1.00  0.00    -0.003 C 
ATOM     16  C   UNL     1     161.401 173.329 184.460  1.00  0.00     0.004 C 
ENDBRANCH  14  15
ENDBRANCH  13  14
ENDBRANCH  12  13
ENDBRANCH  11  12
ENDBRANCH  10  11
ENDBRANCH   1  10
TORSDOF 12
ENDMDL
MODEL 8
REMARK VINA RESULT:    -3.972      2.302      3.809
REMARK INTER + INTRA:          -7.840
REMARK INTER:                  -6.142
REMARK INTRA:                  -1.698
REMARK UNBOUND:                -1.083
REMARK SMILES CCCCCCCCCCCCCC(=O)[O-]
REMARK SMILES IDX 8 1 9 2 10 3 11 4 12 5 13 6 14 7 15 8 16 9 7 10 6 11 5 12
REMARK SMILES IDX 4 13 3 14 2 15 1 16
REMARK H PARENT
REMARK Flexibility Score: inf
ROOT
ATOM      1  C   UNL     1     163.105 177.698 187.800  1.00  0.00     0.000 C 
ENDROOT
BRANCH   1   2
ATOM      2  C   UNL     1     163.767 178.672 186.801  1.00  0.00     0.000 C 
BRANCH   2   3
ATOM      3  C   UNL     1     164.731 177.987 185.812  1.00  0.00     0.000 C 
BRANCH   3   4
ATOM      4  C   UNL     1     164.268 176.612 185.301  1.00  0.00     0.000 C 
BRANCH   4   5
ATOM      5  C   UNL     1     164.078 176.577 183.778  1.00  0.00     0.006 C 
BRANCH   5   6
ATOM      6  C   UNL     1     163.721 177.967 183.241  1.00  0.00     0.053 C 
BRANCH   6   7
ATOM      7  C   UNL     1     162.984 177.853 181.943  1.00  0.00     0.041 C 
ATOM      8  O   UNL     1     163.062 176.798 181.260  1.00  0.00    -0.550 OA
ATOM      9  O   UNL     1     162.174 178.896 181.511  1.00  0.00    -0.550 OA
ENDBRANCH   6   7
ENDBRANCH   5   6
ENDBRANCH   4   5
ENDBRANCH   3   4
ENDBRANCH   2   3
ENDBRANCH   1   2
BRANCH   1  10
ATOM     10  C   UNL     1     161.578 177.874 187.862  1.00  0.00     0.000 C 
BRANCH  10  11
ATOM     11  C   UNL     1     160.939 178.041 186.473  1.00  0.00    -0.000 C 
BRANCH  11  12
ATOM     12  C   UNL     1     160.675 176.700 185.755  1.00  0.00    -0.000 C 
BRANCH  12  13
ATOM     13  C   UNL     1     160.510 175.535 186.745  1.00  0.00    -0.000 C 
BRANCH  13  14
ATOM     14  C   UNL     1     161.153 174.229 186.245  1.00  0.00    -0.000 C 
BRANCH  14  15
ATOM     15  C   UNL     1     161.840 173.390 187.336  1.00  0.00    -0.003 C 
ATOM     16  C   UNL     1     163.084 174.062 187.913  1.00  0.00     0.004 C 
ENDBRANCH  14  15
ENDBRANCH  13  14
ENDBRANCH  12  13
ENDBRANCH  11  12
ENDBRANCH  10  11
ENDBRANCH   1  10
TORSDOF 12
ENDMDL
MODEL 9
REMARK VINA RESULT:    -3.952      2.789      4.767
REMARK INTER + INTRA:          -7.806
REMARK INTER:                  -6.137
REMARK INTRA:                  -1.669
REMARK UNBOUND:                -1.083
REMARK SMILES CCCCCCCCCCCCCC(=O)[O-]
REMARK SMILES IDX 8 1 9 2 10 3 11 4 12 5 13 6 14 7 15 8 16 9 7 10 6 11 5 12
REMARK SMILES IDX 4 13 3 14 2 15 1 16
REMARK H PARENT
REMARK Flexibility Score: inf
ROOT
ATOM      1  C   UNL     1     164.884 177.964 186.742  1.00  0.00     0.000 C 
ENDROOT
BRANCH   1   2
ATOM      2  C   UNL     1     164.727 176.465 186.405  1.00  0.00     0.000 C 
BRANCH   2   3
ATOM      3  C   UNL     1     164.288 176.197 184.952  1.00  0.00     0.000 C 
BRANCH   3   4
ATOM      4  C   UNL     1     164.811 177.210 183.919  1.00  0.00     0.000 C 
BRANCH   4   5
ATOM      5  C   UNL     1     163.681 177.946 183.183  1.00  0.00     0.006 C 
BRANCH   5   6
ATOM      6  C   UNL     1     163.008 177.027 182.159  1.00  0.00     0.053 C 
BRANCH   6   7
ATOM      7  C   UNL     1     162.286 177.834 181.127  1.00  0.00     0.041 C 
ATOM      8  O   UNL     1     161.981 177.319 180.019  1.00  0.00    -0.550 OA
ATOM      9  O   UNL     1     161.908 179.142 181.407  1.00  0.00    -0.550 OA
ENDBRANCH   6   7
ENDBRANCH   5   6
ENDBRANCH   4   5
ENDBRANCH   3   4
ENDBRANCH   2   3
ENDBRANCH   1   2
BRANCH   1  10
ATOM     10  C   UNL     1     163.530 178.656 186.971  1.00  0.00     0.000 C 
BRANCH  10  11
ATOM     11  C   UNL     1     162.645 177.916 187.988  1.00  0.00    -0.000 C 
BRANCH  11  12
ATOM     12  C   UNL     1     161.180 177.761 187.527  1.00  0.00    -0.000 C 
BRANCH  12  13
ATOM     13  C   UNL     1     161.061 177.665 185.997  1.00  0.00    -0.000 C 
BRANCH  13  14
ATOM     14  C   UNL     1     160.611 176.272 185.518  1.00  0.00    -0.000 C 
BRANCH  14  15
ATOM     15  C   UNL     1     161.082 175.104 186.401  1.00  0.00    -0.003 C 
ATOM     16  C   UNL     1     159.943 174.439 187.171  1.00  0.00     0.004 C 
ENDBRANCH  14  15
ENDBRANCH  13  14
ENDBRANCH  12  13
ENDBRANCH  11  12
ENDBRANCH  10  11
ENDBRANCH   1  10
TORSDOF 12
ENDMDL
