MODEL 1
REMARK VINA RESULT:    -4.914      0.000      0.000
REMARK INTER + INTRA:          -8.942
REMARK INTER:                  -7.787
REMARK INTRA:                  -1.155
REMARK UNBOUND:                -1.155
REMARK SMILES CCCCCCCCCCCC(=O)[O-]
REMARK SMILES IDX 7 1 8 2 9 3 10 4 11 5 12 6 13 7 14 8 6 9 5 10 4 11 3 12 2 13
REMARK SMILES IDX 1 14
REMARK H PARENT
REMARK Flexibility Score: inf
ROOT
ATOM      1  C   UNL     1      15.349  76.852  71.061  1.00  0.00     0.000 C 
ENDROOT
BRANCH   1   2
ATOM      2  C   UNL     1      14.271  76.902  69.967  1.00  0.00     0.000 C 
BRANCH   2   3
ATOM      3  C   UNL     1      13.187  75.827  70.154  1.00  0.00     0.000 C 
BRANCH   3   4
ATOM      4  C   UNL     1      13.332  74.664  69.160  1.00  0.00     0.006 C 
BRANCH   4   5
ATOM      5  C   UNL     1      14.332  73.602  69.636  1.00  0.00     0.053 C 
BRANCH   5   6
ATOM      6  C   UNL     1      15.102  73.053  68.477  1.00  0.00     0.041 C 
ATOM      7  O   UNL     1      15.451  71.844  68.465  1.00  0.00    -0.550 OA
ATOM      8  O   UNL     1      15.478  73.889  67.433  1.00  0.00    -0.550 OA
ENDBRANCH   5   6
ENDBRANCH   4   5
ENDBRANCH   3   4
ENDBRANCH   2   3
ENDBRANCH   1   2
BRANCH   1   9
ATOM      9  C   UNL     1      14.784  76.432  72.427  1.00  0.00     0.000 C 
BRANCH   9  10
ATOM     10  C   UNL     1      15.515  75.197  72.967  1.00  0.00    -0.000 C 
BRANCH  10  11
ATOM     11  C   UNL     1      16.850  74.985  72.242  1.00  0.00    -0.000 C 
BRANCH  11  12
ATOM     12  C   UNL     1      18.026  75.044  73.229  1.00  0.00    -0.000 C 
BRANCH  12  13
ATOM     13  C   UNL     1      18.946  76.249  72.977  1.00  0.00    -0.003 C 
ATOM     14  C   UNL     1      18.358  77.561  73.497  1.00  0.00     0.004 C 
ENDBRANCH  12  13
ENDBRANCH  11  12
ENDBRANCH  10  11
ENDBRANCH   9  10
ENDBRANCH   1   9
TORSDOF 10
ENDMDL
MODEL 2
REMARK VINA RESULT:    -4.878      2.359      3.265
REMARK INTER + INTRA:          -8.885
REMARK INTER:                  -7.959
REMARK INTRA:                  -0.927
REMARK UNBOUND:                -1.155
REMARK SMILES CCCCCCCCCCCC(=O)[O-]
REMARK SMILES IDX 7 1 8 2 9 3 10 4 11 5 12 6 13 7 14 8 6 9 5 10 4 11 3 12 2 13
REMARK SMILES IDX 1 14
REMARK H PARENT
REMARK Flexibility Score: inf
ROOT
ATOM      1  C   UNL     1      14.816  73.763  70.614  1.00  0.00     0.000 C 
ENDROOT
BRANCH   1   2
ATOM      2  C   UNL     1      15.426  73.560  69.217  1.00  0.00     0.000 C 
BRANCH   2   3
ATOM      3  C   UNL     1      14.739  74.420  68.142  1.00  0.00     0.000 C 
BRANCH   3   4
ATOM      4  C   UNL     1      13.378  74.965  68.603  1.00  0.00     0.006 C 
BRANCH   4   5
ATOM      5  C   UNL     1      13.185  76.445  68.249  1.00  0.00     0.053 C 
BRANCH   5   6
ATOM      6  C   UNL     1      13.544  77.312  69.413  1.00  0.00     0.041 C 
ATOM      7  O   UNL     1      13.136  77.022  70.568  1.00  0.00    -0.550 OA
ATOM      8  O   UNL     1      14.287  78.469  69.216  1.00  0.00    -0.550 OA
ENDBRANCH   5   6
ENDBRANCH   4   5
ENDBRANCH   3   4
ENDBRANCH   2   3
ENDBRANCH   1   2
BRANCH   1   9
ATOM      9  C   UNL     1      15.651  74.706  71.492  1.00  0.00     0.000 C 
BRANCH   9  10
ATOM     10  C   UNL     1      14.854  75.165  72.718  1.00  0.00    -0.000 C 
BRANCH  10  11
ATOM     11  C   UNL     1      15.374  76.509  73.244  1.00  0.00    -0.000 C 
BRANCH  11  12
ATOM     12  C   UNL     1      16.508  77.044  72.357  1.00  0.00    -0.000 C 
BRANCH  12  13
ATOM     13  C   UNL     1      17.749  77.448  73.167  1.00  0.00    -0.003 C 
ATOM     14  C   UNL     1      18.864  76.405  73.101  1.00  0.00     0.004 C 
ENDBRANCH  12  13
ENDBRANCH  11  12
ENDBRANCH  10  11
ENDBRANCH   9  10
ENDBRANCH   1   9
TORSDOF 10
ENDMDL
MODEL 3
REMARK VINA RESULT:    -4.764      2.972      5.550
REMARK INTER + INTRA:          -8.704
REMARK INTER:                  -7.651
REMARK INTRA:                  -1.053
REMARK UNBOUND:                -1.155
REMARK SMILES CCCCCCCCCCCC(=O)[O-]
REMARK SMILES IDX 7 1 8 2 9 3 10 4 11 5 12 6 13 7 14 8 6 9 5 10 4 11 3 12 2 13
REMARK SMILES IDX 1 14
REMARK H PARENT
REMARK Flexibility Score: inf
ROOT
ATOM      1  C   UNL     1      14.930  73.305  70.154  1.00  0.00     0.000 C 
ENDROOT
BRANCH   1   2
ATOM      2  C   UNL     1      15.626  74.353  71.036  1.00  0.00     0.000 C 
BRANCH   2   3
ATOM      3  C   UNL     1      14.682  74.960  72.089  1.00  0.00     0.000 C 
BRANCH   3   4
ATOM      4  C   UNL     1      15.383  75.994  72.984  1.00  0.00     0.006 C 
BRANCH   4   5
ATOM      5  C   UNL     1      16.422  76.827  72.220  1.00  0.00     0.053 C 
BRANCH   5   6
ATOM      6  C   UNL     1      17.727  76.832  72.951  1.00  0.00     0.041 C 
ATOM      7  O   UNL     1      18.248  77.920  73.310  1.00  0.00    -0.550 OA
ATOM      8  O   UNL     1      18.394  75.637  73.191  1.00  0.00    -0.550 OA
ENDBRANCH   5   6
ENDBRANCH   4   5
ENDBRANCH   3   4
ENDBRANCH   2   3
ENDBRANCH   1   2
BRANCH   1   9
ATOM      9  C   UNL     1      15.420  73.338  68.699  1.00  0.00     0.000 C 
BRANCH   9  10
ATOM     10  C   UNL     1      14.788  74.506  67.933  1.00  0.00    -0.000 C 
BRANCH  10  11
ATOM     11  C   UNL     1      13.382  74.817  68.463  1.00  0.00    -0.000 C 
BRANCH  11  12
ATOM     12  C   UNL     1      13.068  76.315  68.338  1.00  0.00    -0.000 C 
BRANCH  12  13
ATOM     13  C   UNL     1      13.531  77.119  69.564  1.00  0.00    -0.003 C 
ATOM     14  C   UNL     1      14.179  78.451  69.187  1.00  0.00     0.004 C 
ENDBRANCH  12  13
ENDBRANCH  11  12
ENDBRANCH  10  11
ENDBRANCH   9  10
ENDBRANCH   1   9
TORSDOF 10
ENDMDL
MODEL 4
REMARK VINA RESULT:    -4.652      2.847      5.333
REMARK INTER + INTRA:          -8.526
REMARK INTER:                  -7.456
REMARK INTRA:                  -1.070
REMARK UNBOUND:                -1.155
REMARK SMILES CCCCCCCCCCCC(=O)[O-]
REMARK SMILES IDX 7 1 8 2 9 3 10 4 11 5 12 6 13 7 14 8 6 9 5 10 4 11 3 12 2 13
REMARK SMILES IDX 1 14
REMARK H PARENT
REMARK Flexibility Score: inf
ROOT
ATOM      1  C   UNL     1      13.394  75.388  71.177  1.00  0.00     0.000 C 
ENDROOT
BRANCH   1   2
ATOM      2  C   UNL     1      14.506  75.110  72.201  1.00  0.00     0.000 C 
BRANCH   2   3
ATOM      3  C   UNL     1      15.095  76.399  72.799  1.00  0.00     0.000 C 
BRANCH   3   4
ATOM      4  C   UNL     1      16.616  76.500  72.601  1.00  0.00     0.006 C 
BRANCH   4   5
ATOM      5  C   UNL     1      17.274  75.131  72.385  1.00  0.00     0.053 C 
BRANCH   5   6
ATOM      6  C   UNL     1      18.538  75.028  73.179  1.00  0.00     0.041 C 
ATOM      7  O   UNL     1      19.112  73.916  73.314  1.00  0.00    -0.550 OA
ATOM      8  O   UNL     1      19.055  76.152  73.812  1.00  0.00    -0.550 OA
ENDBRANCH   5   6
ENDBRANCH   4   5
ENDBRANCH   3   4
ENDBRANCH   2   3
ENDBRANCH   1   2
BRANCH   1   9
ATOM      9  C   UNL     1      13.529  76.770  70.520  1.00  0.00     0.000 C 
BRANCH   9  10
ATOM     10  C   UNL     1      13.639  76.645  68.996  1.00  0.00    -0.000 C 
BRANCH  10  11
ATOM     11  C   UNL     1      13.488  75.185  68.549  1.00  0.00    -0.000 C 
BRANCH  11  12
ATOM     12  C   UNL     1      14.791  74.665  67.924  1.00  0.00    -0.000 C 
BRANCH  12  13
ATOM     13  C   UNL     1      15.400  73.498  68.716  1.00  0.00    -0.003 C 
ATOM     14  C   UNL     1      14.374  72.419  69.062  1.00  0.00     0.004 C 
ENDBRANCH  12  13
ENDBRANCH  11  12
ENDBRANCH  10  11
ENDBRANCH   9  10
ENDBRANCH   1   9
TORSDOF 10
ENDMDL
MODEL 5
REMARK VINA RESULT:    -3.958     10.581     12.249
REMARK INTER + INTRA:          -7.428
REMARK INTER:                  -6.339
REMARK INTRA:                  -1.088
REMARK UNBOUND:                -1.155
REMARK SMILES CCCCCCCCCCCC(=O)[O-]
REMARK SMILES IDX 7 1 8 2 9 3 10 4 11 5 12 6 13 7 14 8 6 9 5 10 4 11 3 12 2 13
REMARK SMILES IDX 1 14
REMARK H PARENT
REMARK Flexibility Score: inf
ROOT
ATOM      1  C   UNL     1       6.425  78.366  68.050  1.00  0.00     0.000 C 
ENDROOT
BRANCH   1   2
ATOM      2  C   UNL     1       5.170  79.238  67.887  1.00  0.00     0.000 C 
BRANCH   2   3
ATOM      3  C   UNL     1       3.991  78.743  68.744  1.00  0.00     0.000 C 
BRANCH   3   4
ATOM      4  C   UNL     1       3.037  77.828  67.961  1.00  0.00     0.006 C 
BRANCH   4   5
ATOM      5  C   UNL     1       2.585  76.610  68.777  1.00  0.00     0.053 C 
BRANCH   5   6
ATOM      6  C   UNL     1       3.353  75.393  68.369  1.00  0.00     0.041 C 
ATOM      7  O   UNL     1       4.556  75.257  68.716  1.00  0.00    -0.550 OA
ATOM      8  O   UNL     1       2.756  74.432  67.562  1.00  0.00    -0.550 OA
ENDBRANCH   5   6
ENDBRANCH   4   5
ENDBRANCH   3   4
ENDBRANCH   2   3
ENDBRANCH   1   2
BRANCH   1   9
ATOM      9  C   UNL     1       6.998  77.897  66.704  1.00  0.00     0.000 C 
BRANCH   9  10
ATOM     10  C   UNL     1       6.092  76.841  66.060  1.00  0.00    -0.000 C 
BRANCH  10  11
ATOM     11  C   UNL     1       5.887  77.127  64.567  1.00  0.00    -0.000 C 
BRANCH  11  12
ATOM     12  C   UNL     1       5.953  78.635  64.282  1.00  0.00    -0.000 C 
BRANCH  12  13
ATOM     13  C   UNL     1       6.761  78.961  63.016  1.00  0.00    -0.003 C 
ATOM     14  C   UNL     1       8.262  79.066  63.283  1.00  0.00     0.004 C 
ENDBRANCH  12  13
ENDBRANCH  11  12
ENDBRANCH  10  11
ENDBRANCH   9  10
ENDBRANCH   1   9
TORSDOF 10
ENDMDL
MODEL 6
REMARK VINA RESULT:    -3.868     17.413     19.865
REMARK INTER + INTRA:          -7.285
REMARK INTER:                  -6.253
REMARK INTRA:                  -1.032
REMARK UNBOUND:                -1.155
REMARK SMILES CCCCCCCCCCCC(=O)[O-]
REMARK SMILES IDX 7 1 8 2 9 3 10 4 11 5 12 6 13 7 14 8 6 9 5 10 4 11 3 12 2 13
REMARK SMILES IDX 1 14
REMARK H PARENT
REMARK Flexibility Score: inf
ROOT
ATOM      1  C   UNL     1       4.399  88.523  60.509  1.00  0.00     0.000 C 
ENDROOT
BRANCH   1   2
ATOM      2  C   UNL     1       4.393  87.036  60.896  1.00  0.00     0.000 C 
BRANCH   2   3
ATOM      3  C   UNL     1       4.097  86.814  62.390  1.00  0.00     0.000 C 
BRANCH   3   4
ATOM      4  C   UNL     1       4.340  85.362  62.830  1.00  0.00     0.006 C 
BRANCH   4   5
ATOM      5  C   UNL     1       4.148  85.163  64.339  1.00  0.00     0.053 C 
BRANCH   5   6
ATOM      6  C   UNL     1       3.327  83.942  64.605  1.00  0.00     0.041 C 
ATOM      7  O   UNL     1       2.184  84.048  65.122  1.00  0.00    -0.550 OA
ATOM      8  O   UNL     1       3.844  82.682  64.329  1.00  0.00    -0.550 OA
ENDBRANCH   5   6
ENDBRANCH   4   5
ENDBRANCH   3   4
ENDBRANCH   2   3
ENDBRANCH   1   2
BRANCH   1   9
ATOM      9  C   UNL     1       3.418  89.356  61.347  1.00  0.00     0.000 C 
BRANCH   9  10
ATOM     10  C   UNL     1       2.320  89.962  60.465  1.00  0.00    -0.000 C 
BRANCH  10  11
ATOM     11  C   UNL     1       0.930  89.713  61.064  1.00  0.00    -0.000 C 
BRANCH  11  12
ATOM     12  C   UNL     1       1.035  88.985  62.413  1.00  0.00    -0.000 C 
BRANCH  12  13
ATOM     13  C   UNL     1      -0.011  87.869  62.564  1.00  0.00    -0.003 C 
ATOM     14  C   UNL     1       0.610  86.473  62.558  1.00  0.00     0.004 C 
ENDBRANCH  12  13
ENDBRANCH  11  12
ENDBRANCH  10  11
ENDBRANCH   9  10
ENDBRANCH   1   9
TORSDOF 10
ENDMDL
MODEL 7
REMARK VINA RESULT:    -3.866     10.432     12.399
REMARK INTER + INTRA:          -7.281
REMARK INTER:                  -5.990
REMARK INTRA:                  -1.291
REMARK UNBOUND:                -1.155
REMARK SMILES CCCCCCCCCCCC(=O)[O-]
REMARK SMILES IDX 7 1 8 2 9 3 10 4 11 5 12 6 13 7 14 8 6 9 5 10 4 11 3 12 2 13
REMARK SMILES IDX 1 14
REMARK H PARENT
REMARK Flexibility Score: inf
ROOT
ATOM      1  C   UNL     1       7.142  78.042  65.262  1.00  0.00     0.000 C 
ENDROOT
BRANCH   1   2
ATOM      2  C   UNL     1       6.060  77.164  64.614  1.00  0.00     0.000 C 
BRANCH   2   3
ATOM      3  C   UNL     1       5.254  77.915  63.539  1.00  0.00     0.000 C 
BRANCH   3   4
ATOM      4  C   UNL     1       5.643  79.398  63.440  1.00  0.00     0.006 C 
BRANCH   4   5
ATOM      5  C   UNL     1       5.526  79.945  62.011  1.00  0.00     0.053 C 
BRANCH   5   6
ATOM      6  C   UNL     1       6.428  79.190  61.088  1.00  0.00     0.041 C 
ATOM      7  O   UNL     1       5.961  78.640  60.056  1.00  0.00    -0.550 OA
ATOM      8  O   UNL     1       7.776  79.049  61.393  1.00  0.00    -0.550 OA
ENDBRANCH   5   6
ENDBRANCH   4   5
ENDBRANCH   3   4
ENDBRANCH   2   3
ENDBRANCH   1   2
BRANCH   1   9
ATOM      9  C   UNL     1       7.328  77.744  66.757  1.00  0.00     0.000 C 
BRANCH   9  10
ATOM     10  C   UNL     1       6.525  76.506  67.173  1.00  0.00    -0.000 C 
BRANCH  10  11
ATOM     11  C   UNL     1       5.593  76.823  68.350  1.00  0.00    -0.000 C 
BRANCH  11  12
ATOM     12  C   UNL     1       5.357  78.336  68.472  1.00  0.00    -0.000 C 
BRANCH  12  13
ATOM     13  C   UNL     1       3.964  78.757  67.979  1.00  0.00    -0.003 C 
ATOM     14  C   UNL     1       4.023  79.741  66.810  1.00  0.00     0.004 C 
ENDBRANCH  12  13
ENDBRANCH  11  12
ENDBRANCH  10  11
ENDBRANCH   9  10
ENDBRANCH   1   9
TORSDOF 10
ENDMDL
MODEL 8
REMARK VINA RESULT:    -3.824     10.730     12.442
REMARK INTER + INTRA:          -7.215
REMARK INTER:                  -5.855
REMARK INTRA:                  -1.360
REMARK UNBOUND:                -1.155
REMARK SMILES CCCCCCCCCCCC(=O)[O-]
REMARK SMILES IDX 7 1 8 2 9 3 10 4 11 5 12 6 13 7 14 8 6 9 5 10 4 11 3 12 2 13
REMARK SMILES IDX 1 14
REMARK H PARENT
REMARK Flexibility Score: inf
ROOT
ATOM      1  C   UNL     1       6.107  76.148  68.373  1.00  0.00     0.000 C 
ENDROOT
BRANCH   1   2
ATOM      2  C   UNL     1       6.156  76.510  66.880  1.00  0.00     0.000 C 
BRANCH   2   3
ATOM      3  C   UNL     1       7.061  77.721  66.595  1.00  0.00     0.000 C 
BRANCH   3   4
ATOM      4  C   UNL     1       7.153  78.049  65.097  1.00  0.00     0.006 C 
BRANCH   4   5
ATOM      5  C   UNL     1       5.882  77.663  64.329  1.00  0.00     0.053 C 
BRANCH   5   6
ATOM      6  C   UNL     1       5.298  78.860  63.649  1.00  0.00     0.041 C 
ATOM      7  O   UNL     1       4.098  79.182  63.853  1.00  0.00    -0.550 OA
ATOM      8  O   UNL     1       6.064  79.592  62.750  1.00  0.00    -0.550 OA
ENDBRANCH   5   6
ENDBRANCH   4   5
ENDBRANCH   3   4
ENDBRANCH   2   3
ENDBRANCH   1   2
BRANCH   1   9
ATOM      9  C   UNL     1       4.779  75.492  68.778  1.00  0.00     0.000 C 
BRANCH   9  10
ATOM     10  C   UNL     1       3.609  76.086  67.986  1.00  0.00    -0.000 C 
BRANCH  10  11
ATOM     11  C   UNL     1       3.028  77.315  68.698  1.00  0.00    -0.000 C 
BRANCH  11  12
ATOM     12  C   UNL     1       2.590  78.382  67.683  1.00  0.00    -0.000 C 
BRANCH  12  13
ATOM     13  C   UNL     1       3.716  79.373  67.348  1.00  0.00    -0.003 C 
ATOM     14  C   UNL     1       4.602  79.690  68.552  1.00  0.00     0.004 C 
ENDBRANCH  12  13
ENDBRANCH  11  12
ENDBRANCH  10  11
ENDBRANCH   9  10
ENDBRANCH   1   9
TORSDOF 10
ENDMDL
MODEL 9
REMARK VINA RESULT:    -3.818     10.965     13.047
REMARK INTER + INTRA:          -7.205
REMARK INTER:                  -6.208
REMARK INTRA:                  -0.997
REMARK UNBOUND:                -1.155
REMARK SMILES CCCCCCCCCCCC(=O)[O-]
REMARK SMILES IDX 7 1 8 2 9 3 10 4 11 5 12 6 13 7 14 8 6 9 5 10 4 11 3 12 2 13
REMARK SMILES IDX 1 14
REMARK H PARENT
REMARK Flexibility Score: inf
ROOT
ATOM      1  C   UNL     1       7.212  78.009  65.550  1.00  0.00     0.000 C 
ENDROOT
BRANCH   1   2
ATOM      2  C   UNL     1       6.229  77.217  64.674  1.00  0.00     0.000 C 
BRANCH   2   3
ATOM      3  C   UNL     1       5.254  78.128  63.908  1.00  0.00     0.000 C 
BRANCH   3   4
ATOM      4  C   UNL     1       4.548  79.139  64.826  1.00  0.00     0.006 C 
BRANCH   4   5
ATOM      5  C   UNL     1       3.312  79.768  64.169  1.00  0.00     0.053 C 
BRANCH   5   6
ATOM      6  C   UNL     1       3.433  81.259  64.151  1.00  0.00     0.041 C 
ATOM      7  O   UNL     1       4.074  81.831  63.231  1.00  0.00    -0.550 OA
ATOM      8  O   UNL     1       2.880  82.015  65.178  1.00  0.00    -0.550 OA
ENDBRANCH   5   6
ENDBRANCH   4   5
ENDBRANCH   3   4
ENDBRANCH   2   3
ENDBRANCH   1   2
BRANCH   1   9
ATOM      9  C   UNL     1       7.259  77.496  66.997  1.00  0.00     0.000 C 
BRANCH   9  10
ATOM     10  C   UNL     1       6.524  78.453  67.943  1.00  0.00    -0.000 C 
BRANCH  10  11
ATOM     11  C   UNL     1       5.201  77.844  68.425  1.00  0.00    -0.000 C 
BRANCH  11  12
ATOM     12  C   UNL     1       5.251  76.310  68.376  1.00  0.00    -0.000 C 
BRANCH  12  13
ATOM     13  C   UNL     1       3.879  75.685  68.081  1.00  0.00    -0.003 C 
ATOM     14  C   UNL     1       2.721  76.505  68.648  1.00  0.00     0.004 C 
ENDBRANCH  12  13
ENDBRANCH  11  12
ENDBRANCH  10  11
ENDBRANCH   9  10
ENDBRANCH   1   9
TORSDOF 10
ENDMDL
