MODEL 1
REMARK VINA RESULT:    -4.013      0.000      0.000
REMARK INTER + INTRA:          -7.846
REMARK INTER:                  -6.359
REMARK INTRA:                  -1.487
REMARK UNBOUND:                -1.487
REMARK SMILES CCCCCCCCCCCC(=O)[O-]
REMARK SMILES IDX 7 1 8 2 9 3 10 4 11 5 12 6 13 7 14 8 6 9 5 10 4 11 3 12 2 13
REMARK SMILES IDX 1 14
REMARK H PARENT
REMARK Flexibility Score: inf
ROOT
ATOM      1  C   UNL     1      17.465   9.060 -15.443  1.00  0.00     0.000 C 
ENDROOT
BRANCH   1   2
ATOM      2  C   UNL     1      18.480  10.195 -15.236  1.00  0.00     0.000 C 
BRANCH   2   3
ATOM      3  C   UNL     1      18.871  10.380 -13.762  1.00  0.00     0.000 C 
BRANCH   3   4
ATOM      4  C   UNL     1      18.944  11.861 -13.350  1.00  0.00     0.006 C 
BRANCH   4   5
ATOM      5  C   UNL     1      19.484  12.750 -14.479  1.00  0.00     0.053 C 
BRANCH   5   6
ATOM      6  C   UNL     1      20.721  13.489 -14.066  1.00  0.00     0.041 C 
ATOM      7  O   UNL     1      21.408  13.076 -13.095  1.00  0.00    -0.550 OA
ATOM      8  O   UNL     1      21.096  14.647 -14.733  1.00  0.00    -0.550 OA
ENDBRANCH   5   6
ENDBRANCH   4   5
ENDBRANCH   3   4
ENDBRANCH   2   3
ENDBRANCH   1   2
BRANCH   1   9
ATOM      9  C   UNL     1      16.505   8.961 -14.247  1.00  0.00     0.000 C 
BRANCH   9  10
ATOM     10  C   UNL     1      15.028   8.930 -14.670  1.00  0.00    -0.000 C 
BRANCH  10  11
ATOM     11  C   UNL     1      14.453  10.337 -14.914  1.00  0.00    -0.000 C 
BRANCH  11  12
ATOM     12  C   UNL     1      14.650  11.270 -13.708  1.00  0.00    -0.000 C 
BRANCH  12  13
ATOM     13  C   UNL     1      15.475  12.519 -14.052  1.00  0.00    -0.003 C 
ATOM     14  C   UNL     1      15.690  12.638 -15.558  1.00  0.00     0.004 C 
ENDBRANCH  12  13
ENDBRANCH  11  12
ENDBRANCH  10  11
ENDBRANCH   9  10
ENDBRANCH   1   9
TORSDOF 10
ENDMDL
MODEL 2
REMARK VINA RESULT:    -3.959      2.373      5.028
REMARK INTER + INTRA:          -7.760
REMARK INTER:                  -6.591
REMARK INTRA:                  -1.169
REMARK UNBOUND:                -1.487
REMARK SMILES CCCCCCCCCCCC(=O)[O-]
REMARK SMILES IDX 7 1 8 2 9 3 10 4 11 5 12 6 13 7 14 8 6 9 5 10 4 11 3 12 2 13
REMARK SMILES IDX 1 14
REMARK H PARENT
REMARK Flexibility Score: inf
ROOT
ATOM      1  C   UNL     1      18.567   9.946 -15.066  1.00  0.00     0.000 C 
ENDROOT
BRANCH   1   2
ATOM      2  C   UNL     1      17.415   8.990 -15.415  1.00  0.00     0.000 C 
BRANCH   2   3
ATOM      3  C   UNL     1      16.253   9.070 -14.412  1.00  0.00     0.000 C 
BRANCH   3   4
ATOM      4  C   UNL     1      14.951   9.577 -15.055  1.00  0.00     0.006 C 
BRANCH   4   5
ATOM      5  C   UNL     1      14.361  10.776 -14.300  1.00  0.00     0.053 C 
BRANCH   5   6
ATOM      6  C   UNL     1      15.218  11.999 -14.436  1.00  0.00     0.041 C 
ATOM      7  O   UNL     1      15.519  12.676 -13.419  1.00  0.00    -0.550 OA
ATOM      8  O   UNL     1      15.658  12.405 -15.689  1.00  0.00    -0.550 OA
ENDBRANCH   5   6
ENDBRANCH   4   5
ENDBRANCH   3   4
ENDBRANCH   2   3
ENDBRANCH   1   2
BRANCH   1   9
ATOM      9  C   UNL     1      18.649  10.171 -13.548  1.00  0.00     0.000 C 
BRANCH   9  10
ATOM     10  C   UNL     1      18.805  11.654 -13.174  1.00  0.00    -0.000 C 
BRANCH  10  11
ATOM     11  C   UNL     1      19.037  12.553 -14.402  1.00  0.00    -0.000 C 
BRANCH  11  12
ATOM     12  C   UNL     1      20.331  13.375 -14.293  1.00  0.00    -0.000 C 
BRANCH  12  13
ATOM     13  C   UNL     1      21.478  12.593 -13.636  1.00  0.00    -0.003 C 
ATOM     14  C   UNL     1      22.374  13.518 -12.816  1.00  0.00     0.004 C 
ENDBRANCH  12  13
ENDBRANCH  11  12
ENDBRANCH  10  11
ENDBRANCH   9  10
ENDBRANCH   1   9
TORSDOF 10
ENDMDL
MODEL 3
REMARK VINA RESULT:    -3.871      0.940      1.690
REMARK INTER + INTRA:          -7.621
REMARK INTER:                  -6.452
REMARK INTRA:                  -1.169
REMARK UNBOUND:                -1.487
REMARK SMILES CCCCCCCCCCCC(=O)[O-]
REMARK SMILES IDX 7 1 8 2 9 3 10 4 11 5 12 6 13 7 14 8 6 9 5 10 4 11 3 12 2 13
REMARK SMILES IDX 1 14
REMARK H PARENT
REMARK Flexibility Score: inf
ROOT
ATOM      1  C   UNL     1      18.807  10.041 -15.035  1.00  0.00     0.000 C 
ENDROOT
BRANCH   1   2
ATOM      2  C   UNL     1      18.786  10.347 -13.529  1.00  0.00     0.000 C 
BRANCH   2   3
ATOM      3  C   UNL     1      18.990  11.839 -13.224  1.00  0.00     0.000 C 
BRANCH   3   4
ATOM      4  C   UNL     1      19.263  12.670 -14.490  1.00  0.00     0.006 C 
BRANCH   4   5
ATOM      5  C   UNL     1      20.470  13.603 -14.321  1.00  0.00     0.053 C 
BRANCH   5   6
ATOM      6  C   UNL     1      21.623  12.911 -13.660  1.00  0.00     0.041 C 
ATOM      7  O   UNL     1      22.108  13.371 -12.593  1.00  0.00    -0.550 OA
ATOM      8  O   UNL     1      22.181  11.779 -14.238  1.00  0.00    -0.550 OA
ENDBRANCH   5   6
ENDBRANCH   4   5
ENDBRANCH   3   4
ENDBRANCH   2   3
ENDBRANCH   1   2
BRANCH   1   9
ATOM      9  C   UNL     1      17.498   9.366 -15.474  1.00  0.00     0.000 C 
BRANCH   9  10
ATOM     10  C   UNL     1      16.618   8.946 -14.286  1.00  0.00    -0.000 C 
BRANCH  10  11
ATOM     11  C   UNL     1      15.115   9.019 -14.610  1.00  0.00    -0.000 C 
BRANCH  11  12
ATOM     12  C   UNL     1      14.668  10.434 -15.013  1.00  0.00    -0.000 C 
BRANCH  12  13
ATOM     13  C   UNL     1      14.422  11.346 -13.802  1.00  0.00    -0.003 C 
ATOM     14  C   UNL     1      15.484  12.438 -13.712  1.00  0.00     0.004 C 
ENDBRANCH  12  13
ENDBRANCH  11  12
ENDBRANCH  10  11
ENDBRANCH   9  10
ENDBRANCH   1   9
TORSDOF 10
ENDMDL
MODEL 4
REMARK VINA RESULT:    -3.837      2.769      5.423
REMARK INTER + INTRA:          -7.566
REMARK INTER:                  -6.320
REMARK INTRA:                  -1.247
REMARK UNBOUND:                -1.487
REMARK SMILES CCCCCCCCCCCC(=O)[O-]
REMARK SMILES IDX 7 1 8 2 9 3 10 4 11 5 12 6 13 7 14 8 6 9 5 10 4 11 3 12 2 13
REMARK SMILES IDX 1 14
REMARK H PARENT
REMARK Flexibility Score: inf
ROOT
ATOM      1  C   UNL     1      18.635  10.300 -13.722  1.00  0.00     0.000 C 
ENDROOT
BRANCH   1   2
ATOM      2  C   UNL     1      18.400  10.026 -15.216  1.00  0.00     0.000 C 
BRANCH   2   3
ATOM      3  C   UNL     1      17.248   9.042 -15.466  1.00  0.00     0.000 C 
BRANCH   3   4
ATOM      4  C   UNL     1      16.240   9.004 -14.304  1.00  0.00     0.006 C 
BRANCH   4   5
ATOM      5  C   UNL     1      14.892   9.632 -14.686  1.00  0.00     0.053 C 
BRANCH   5   6
ATOM      6  C   UNL     1      14.847  11.096 -14.366  1.00  0.00     0.041 C 
ATOM      7  O   UNL     1      14.329  11.491 -13.289  1.00  0.00    -0.550 OA
ATOM      8  O   UNL     1      15.350  12.022 -15.270  1.00  0.00    -0.550 OA
ENDBRANCH   5   6
ENDBRANCH   4   5
ENDBRANCH   3   4
ENDBRANCH   2   3
ENDBRANCH   1   2
BRANCH   1   9
ATOM      9  C   UNL     1      18.581  11.807 -13.427  1.00  0.00     0.000 C 
BRANCH   9  10
ATOM     10  C   UNL     1      18.807  12.667 -14.680  1.00  0.00    -0.000 C 
BRANCH  10  11
ATOM     11  C   UNL     1      20.191  13.341 -14.693  1.00  0.00    -0.000 C 
BRANCH  11  12
ATOM     12  C   UNL     1      20.971  13.107 -13.389  1.00  0.00    -0.000 C 
BRANCH  12  13
ATOM     13  C   UNL     1      22.302  12.376 -13.617  1.00  0.00    -0.003 C 
ATOM     14  C   UNL     1      22.153  11.275 -14.663  1.00  0.00     0.004 C 
ENDBRANCH  12  13
ENDBRANCH  11  12
ENDBRANCH  10  11
ENDBRANCH   9  10
ENDBRANCH   1   9
TORSDOF 10
ENDMDL
MODEL 5
REMARK VINA RESULT:    -3.803      2.733      5.573
REMARK INTER + INTRA:          -7.513
REMARK INTER:                  -6.571
REMARK INTRA:                  -0.943
REMARK UNBOUND:                -1.487
REMARK SMILES CCCCCCCCCCCC(=O)[O-]
REMARK SMILES IDX 7 1 8 2 9 3 10 4 11 5 12 6 13 7 14 8 6 9 5 10 4 11 3 12 2 13
REMARK SMILES IDX 1 14
REMARK H PARENT
REMARK Flexibility Score: inf
ROOT
ATOM      1  C   UNL     1      18.647  10.353 -13.503  1.00  0.00     0.000 C 
ENDROOT
BRANCH   1   2
ATOM      2  C   UNL     1      18.656  10.016 -15.003  1.00  0.00     0.000 C 
BRANCH   2   3
ATOM      3  C   UNL     1      17.451   9.162 -15.426  1.00  0.00     0.000 C 
BRANCH   3   4
ATOM      4  C   UNL     1      16.375   9.073 -14.330  1.00  0.00     0.006 C 
BRANCH   4   5
ATOM      5  C   UNL     1      15.038   9.679 -14.780  1.00  0.00     0.053 C 
BRANCH   5   6
ATOM      6  C   UNL     1      14.941  11.135 -14.437  1.00  0.00     0.041 C 
ATOM      7  O   UNL     1      15.490  11.996 -15.175  1.00  0.00    -0.550 OA
ATOM      8  O   UNL     1      14.272  11.538 -13.290  1.00  0.00    -0.550 OA
ENDBRANCH   5   6
ENDBRANCH   4   5
ENDBRANCH   3   4
ENDBRANCH   2   3
ENDBRANCH   1   2
BRANCH   1   9
ATOM      9  C   UNL     1      18.843  11.861 -13.281  1.00  0.00     0.000 C 
BRANCH   9  10
ATOM     10  C   UNL     1      19.004  12.641 -14.596  1.00  0.00    -0.000 C 
BRANCH  10  11
ATOM     11  C   UNL     1      20.253  13.541 -14.601  1.00  0.00    -0.000 C 
BRANCH  11  12
ATOM     12  C   UNL     1      21.248  13.172 -13.489  1.00  0.00    -0.000 C 
BRANCH  12  13
ATOM     13  C   UNL     1      22.451  14.124 -13.429  1.00  0.00    -0.003 C 
ATOM     14  C   UNL     1      22.282  15.285 -14.405  1.00  0.00     0.004 C 
ENDBRANCH  12  13
ENDBRANCH  11  12
ENDBRANCH  10  11
ENDBRANCH   9  10
ENDBRANCH   1   9
TORSDOF 10
ENDMDL
MODEL 6
REMARK VINA RESULT:    -3.717      1.048      2.884
REMARK INTER + INTRA:          -7.377
REMARK INTER:                  -6.123
REMARK INTRA:                  -1.254
REMARK UNBOUND:                -1.487
REMARK SMILES CCCCCCCCCCCC(=O)[O-]
REMARK SMILES IDX 7 1 8 2 9 3 10 4 11 5 12 6 13 7 14 8 6 9 5 10 4 11 3 12 2 13
REMARK SMILES IDX 1 14
REMARK H PARENT
REMARK Flexibility Score: inf
ROOT
ATOM      1  C   UNL     1      15.520  12.391 -14.187  1.00  0.00     0.000 C 
ENDROOT
BRANCH   1   2
ATOM      2  C   UNL     1      15.720  12.506 -15.706  1.00  0.00     0.000 C 
BRANCH   2   3
ATOM      3  C   UNL     1      17.071  13.136 -16.081  1.00  0.00     0.000 C 
BRANCH   3   4
ATOM      4  C   UNL     1      18.190  12.769 -15.090  1.00  0.00     0.006 C 
BRANCH   4   5
ATOM      5  C   UNL     1      19.463  13.594 -15.323  1.00  0.00     0.053 C 
BRANCH   5   6
ATOM      6  C   UNL     1      20.456  13.415 -14.215  1.00  0.00     0.041 C 
ATOM      7  O   UNL     1      20.312  12.482 -13.382  1.00  0.00    -0.550 OA
ATOM      8  O   UNL     1      21.520  14.296 -14.084  1.00  0.00    -0.550 OA
ENDBRANCH   5   6
ENDBRANCH   4   5
ENDBRANCH   3   4
ENDBRANCH   2   3
ENDBRANCH   1   2
BRANCH   1   9
ATOM      9  C   UNL     1      14.441  11.349 -13.855  1.00  0.00     0.000 C 
BRANCH   9  10
ATOM     10  C   UNL     1      14.252  10.311 -14.973  1.00  0.00    -0.000 C 
BRANCH  10  11
ATOM     11  C   UNL     1      14.897   8.955 -14.635  1.00  0.00    -0.000 C 
BRANCH  11  12
ATOM     12  C   UNL     1      15.851   8.466 -15.738  1.00  0.00    -0.000 C 
BRANCH  12  13
ATOM     13  C   UNL     1      17.241   9.112 -15.649  1.00  0.00    -0.003 C 
ATOM     14  C   UNL     1      17.658   9.323 -14.196  1.00  0.00     0.004 C 
ENDBRANCH  12  13
ENDBRANCH  11  12
ENDBRANCH  10  11
ENDBRANCH   9  10
ENDBRANCH   1   9
TORSDOF 10
ENDMDL
MODEL 7
REMARK VINA RESULT:    -3.632      3.738      6.893
REMARK INTER + INTRA:          -7.242
REMARK INTER:                  -6.712
REMARK INTRA:                  -0.530
REMARK UNBOUND:                -1.487
REMARK SMILES CCCCCCCCCCCC(=O)[O-]
REMARK SMILES IDX 7 1 8 2 9 3 10 4 11 5 12 6 13 7 14 8 6 9 5 10 4 11 3 12 2 13
REMARK SMILES IDX 1 14
REMARK H PARENT
REMARK Flexibility Score: inf
ROOT
ATOM      1  C   UNL     1      19.569  13.201 -14.864  1.00  0.00     0.000 C 
ENDROOT
BRANCH   1   2
ATOM      2  C   UNL     1      19.733  12.308 -13.624  1.00  0.00     0.000 C 
BRANCH   2   3
ATOM      3  C   UNL     1      18.550  11.348 -13.423  1.00  0.00     0.000 C 
BRANCH   3   4
ATOM      4  C   UNL     1      17.271  11.831 -14.128  1.00  0.00     0.006 C 
BRANCH   4   5
ATOM      5  C   UNL     1      16.428  10.665 -14.662  1.00  0.00     0.053 C 
BRANCH   5   6
ATOM      6  C   UNL     1      14.965  10.869 -14.406  1.00  0.00     0.041 C 
ATOM      7  O   UNL     1      14.113  10.392 -15.201  1.00  0.00    -0.550 OA
ATOM      8  O   UNL     1      14.546  11.610 -13.310  1.00  0.00    -0.550 OA
ENDBRANCH   5   6
ENDBRANCH   4   5
ENDBRANCH   3   4
ENDBRANCH   2   3
ENDBRANCH   1   2
BRANCH   1   9
ATOM      9  C   UNL     1      20.696  14.244 -14.940  1.00  0.00     0.000 C 
BRANCH   9  10
ATOM     10  C   UNL     1      21.762  14.049 -13.850  1.00  0.00    -0.000 C 
BRANCH  10  11
ATOM     11  C   UNL     1      22.864  15.122 -13.902  1.00  0.00    -0.000 C 
BRANCH  11  12
ATOM     12  C   UNL     1      22.505  16.288 -14.837  1.00  0.00    -0.000 C 
BRANCH  12  13
ATOM     13  C   UNL     1      22.834  17.659 -14.228  1.00  0.00    -0.003 C 
ATOM     14  C   UNL     1      21.838  18.719 -14.692  1.00  0.00     0.004 C 
ENDBRANCH  12  13
ENDBRANCH  11  12
ENDBRANCH  10  11
ENDBRANCH   9  10
ENDBRANCH   1   9
TORSDOF 10
ENDMDL
MODEL 8
REMARK VINA RESULT:    -3.584      1.598      3.109
REMARK INTER + INTRA:          -7.165
REMARK INTER:                  -6.380
REMARK INTRA:                  -0.785
REMARK UNBOUND:                -1.487
REMARK SMILES CCCCCCCCCCCC(=O)[O-]
REMARK SMILES IDX 7 1 8 2 9 3 10 4 11 5 12 6 13 7 14 8 6 9 5 10 4 11 3 12 2 13
REMARK SMILES IDX 1 14
REMARK H PARENT
REMARK Flexibility Score: inf
ROOT
ATOM      1  C   UNL     1      18.411  12.556 -14.573  1.00  0.00     0.000 C 
ENDROOT
BRANCH   1   2
ATOM      2  C   UNL     1      19.862  13.031 -14.761  1.00  0.00     0.000 C 
BRANCH   2   3
ATOM      3  C   UNL     1      20.704  12.883 -13.484  1.00  0.00     0.000 C 
BRANCH   3   4
ATOM      4  C   UNL     1      22.215  12.980 -13.757  1.00  0.00     0.006 C 
BRANCH   4   5
ATOM      5  C   UNL     1      22.856  14.180 -13.047  1.00  0.00     0.053 C 
BRANCH   5   6
ATOM      6  C   UNL     1      22.871  15.401 -13.917  1.00  0.00     0.041 C 
ATOM      7  O   UNL     1      22.686  15.296 -15.157  1.00  0.00    -0.550 OA
ATOM      8  O   UNL     1      23.121  16.649 -13.361  1.00  0.00    -0.550 OA
ENDBRANCH   5   6
ENDBRANCH   4   5
ENDBRANCH   3   4
ENDBRANCH   2   3
ENDBRANCH   1   2
BRANCH   1   9
ATOM      9  C   UNL     1      18.321  11.500 -13.462  1.00  0.00     0.000 C 
BRANCH   9  10
ATOM     10  C   UNL     1      18.148  10.074 -14.009  1.00  0.00    -0.000 C 
BRANCH  10  11
ATOM     11  C   UNL     1      17.016   9.973 -15.047  1.00  0.00    -0.000 C 
BRANCH  11  12
ATOM     12  C   UNL     1      15.687   9.513 -14.427  1.00  0.00    -0.000 C 
BRANCH  12  13
ATOM     13  C   UNL     1      14.538  10.498 -14.688  1.00  0.00    -0.003 C 
ATOM     14  C   UNL     1      14.499  11.591 -13.624  1.00  0.00     0.004 C 
ENDBRANCH  12  13
ENDBRANCH  11  12
ENDBRANCH  10  11
ENDBRANCH   9  10
ENDBRANCH   1   9
TORSDOF 10
ENDMDL
