MODEL 1
REMARK VINA RESULT:    -4.686      0.000      0.000
REMARK INTER + INTRA:         -11.138
REMARK INTER:                  -8.795
REMARK INTRA:                  -2.344
REMARK UNBOUND:                -2.344
REMARK SMILES CCCCCCCCC=CCCCCCCCC(=O)[O-]
REMARK SMILES IDX 10 1 9 2 11 3 12 4 13 5 14 6 15 7 16 8 17 9 18 10 19 11
REMARK SMILES IDX 20 12 8 13 7 14 6 15 5 16 4 17 3 18 2 19 1 20
REMARK H PARENT
REMARK Flexibility Score: inf
ROOT
ATOM      1  C   UNL     1      45.961  35.285 -13.507  1.00  0.00    -0.031 C 
ATOM      2  C   UNL     1      47.012  34.944 -12.739  1.00  0.00    -0.031 C 
ENDROOT
BRANCH   1   3
ATOM      3  C   UNL     1      45.603  36.690 -13.933  1.00  0.00     0.027 C 
BRANCH   3   4
ATOM      4  C   UNL     1      44.497  37.325 -13.074  1.00  0.00     0.004 C 
BRANCH   4   5
ATOM      5  C   UNL     1      43.354  36.346 -12.767  1.00  0.00     0.000 C 
BRANCH   5   6
ATOM      6  C   UNL     1      42.977  36.397 -11.279  1.00  0.00     0.000 C 
BRANCH   6   7
ATOM      7  C   UNL     1      44.197  36.575 -10.362  1.00  0.00     0.000 C 
BRANCH   7   8
ATOM      8  C   UNL     1      44.228  35.553  -9.212  1.00  0.00     0.006 C 
BRANCH   8   9
ATOM      9  C   UNL     1      45.572  34.818  -9.127  1.00  0.00     0.053 C 
BRANCH   9  10
ATOM     10  C   UNL     1      45.543  33.720  -8.107  1.00  0.00     0.041 C 
ATOM     11  O   UNL     1      46.604  33.116  -7.799  1.00  0.00    -0.550 OA
ATOM     12  O   UNL     1      44.351  33.383  -7.479  1.00  0.00    -0.550 OA
ENDBRANCH   9  10
ENDBRANCH   8   9
ENDBRANCH   7   8
ENDBRANCH   6   7
ENDBRANCH   5   6
ENDBRANCH   4   5
ENDBRANCH   3   4
ENDBRANCH   1   3
BRANCH   2  13
ATOM     13  C   UNL     1      48.002  35.909 -12.132  1.00  0.00     0.027 C 
BRANCH  13  14
ATOM     14  C   UNL     1      49.324  35.945 -12.922  1.00  0.00     0.004 C 
BRANCH  14  15
ATOM     15  C   UNL     1      49.362  36.975 -14.067  1.00  0.00     0.000 C 
BRANCH  15  16
ATOM     16  C   UNL     1      50.378  36.672 -15.187  1.00  0.00     0.000 C 
BRANCH  16  17
ATOM     17  C   UNL     1      49.726  36.338 -16.546  1.00  0.00    -0.000 C 
BRANCH  17  18
ATOM     18  C   UNL     1      49.089  34.941 -16.562  1.00  0.00    -0.000 C 
BRANCH  18  19
ATOM     19  C   UNL     1      47.565  35.032 -16.705  1.00  0.00    -0.003 C 
ATOM     20  C   UNL     1      47.151  36.355 -17.344  1.00  0.00     0.004 C 
ENDBRANCH  18  19
ENDBRANCH  17  18
ENDBRANCH  16  17
ENDBRANCH  15  16
ENDBRANCH  14  15
ENDBRANCH  13  14
ENDBRANCH   2  13
TORSDOF 15
ENDMDL
MODEL 2
REMARK VINA RESULT:    -4.674      1.658      3.305
REMARK INTER + INTRA:         -11.117
REMARK INTER:                  -8.593
REMARK INTRA:                  -2.524
REMARK UNBOUND:                -2.344
REMARK SMILES CCCCCCCCC=CCCCCCCCC(=O)[O-]
REMARK SMILES IDX 10 1 9 2 11 3 12 4 13 5 14 6 15 7 16 8 17 9 18 10 19 11
REMARK SMILES IDX 20 12 8 13 7 14 6 15 5 16 4 17 3 18 2 19 1 20
REMARK H PARENT
REMARK Flexibility Score: inf
ROOT
ATOM      1  C   UNL     1      46.710  37.303 -16.104  1.00  0.00    -0.031 C 
ATOM      2  C   UNL     1      47.165  36.323 -16.906  1.00  0.00    -0.031 C 
ENDROOT
BRANCH   1   3
ATOM      3  C   UNL     1      46.607  37.230 -14.598  1.00  0.00     0.027 C 
BRANCH   3   4
ATOM      4  C   UNL     1      45.172  37.398 -14.075  1.00  0.00     0.004 C 
BRANCH   4   5
ATOM      5  C   UNL     1      44.749  36.258 -13.137  1.00  0.00     0.000 C 
BRANCH   5   6
ATOM      6  C   UNL     1      45.547  34.980 -13.434  1.00  0.00     0.000 C 
BRANCH   6   7
ATOM      7  C   UNL     1      46.205  34.385 -12.179  1.00  0.00     0.000 C 
BRANCH   7   8
ATOM      8  C   UNL     1      46.565  35.458 -11.136  1.00  0.00     0.006 C 
BRANCH   8   9
ATOM      9  C   UNL     1      46.123  35.060  -9.722  1.00  0.00     0.053 C 
BRANCH   9  10
ATOM     10  C   UNL     1      44.979  35.900  -9.238  1.00  0.00     0.041 C 
ATOM     11  O   UNL     1      45.148  36.714  -8.292  1.00  0.00    -0.550 OA
ATOM     12  O   UNL     1      43.736  35.803  -9.850  1.00  0.00    -0.550 OA
ENDBRANCH   9  10
ENDBRANCH   8   9
ENDBRANCH   7   8
ENDBRANCH   6   7
ENDBRANCH   5   6
ENDBRANCH   4   5
ENDBRANCH   3   4
ENDBRANCH   1   3
BRANCH   2  13
ATOM     13  C   UNL     1      47.619  34.957 -16.449  1.00  0.00     0.027 C 
BRANCH  13  14
ATOM     14  C   UNL     1      49.126  34.747 -16.684  1.00  0.00     0.004 C 
BRANCH  14  15
ATOM     15  C   UNL     1      49.879  35.992 -17.190  1.00  0.00     0.000 C 
BRANCH  15  16
ATOM     16  C   UNL     1      51.329  36.131 -16.687  1.00  0.00     0.000 C 
BRANCH  16  17
ATOM     17  C   UNL     1      51.552  37.339 -15.751  1.00  0.00    -0.000 C 
BRANCH  17  18
ATOM     18  C   UNL     1      50.354  37.587 -14.822  1.00  0.00    -0.000 C 
BRANCH  18  19
ATOM     19  C   UNL     1      50.594  36.970 -13.439  1.00  0.00    -0.003 C 
ATOM     20  C   UNL     1      49.632  35.813 -13.179  1.00  0.00     0.004 C 
ENDBRANCH  18  19
ENDBRANCH  17  18
ENDBRANCH  16  17
ENDBRANCH  15  16
ENDBRANCH  14  15
ENDBRANCH  13  14
ENDBRANCH   2  13
TORSDOF 15
ENDMDL
MODEL 3
REMARK VINA RESULT:    -4.559      1.973      5.837
REMARK INTER + INTRA:         -10.900
REMARK INTER:                  -8.391
REMARK INTRA:                  -2.509
REMARK UNBOUND:                -2.344
REMARK SMILES CCCCCCCCC=CCCCCCCCC(=O)[O-]
REMARK SMILES IDX 10 1 9 2 11 3 12 4 13 5 14 6 15 7 16 8 17 9 18 10 19 11
REMARK SMILES IDX 20 12 8 13 7 14 6 15 5 16 4 17 3 18 2 19 1 20
REMARK H PARENT
REMARK Flexibility Score: inf
ROOT
ATOM      1  C   UNL     1      48.871  34.957 -16.451  1.00  0.00    -0.031 C 
ATOM      2  C   UNL     1      47.627  35.469 -16.483  1.00  0.00    -0.031 C 
ENDROOT
BRANCH   1   3
ATOM      3  C   UNL     1      50.037  35.426 -17.290  1.00  0.00     0.027 C 
BRANCH   3   4
ATOM      4  C   UNL     1      51.175  36.044 -16.462  1.00  0.00     0.004 C 
BRANCH   4   5
ATOM      5  C   UNL     1      50.777  37.382 -15.820  1.00  0.00     0.000 C 
BRANCH   5   6
ATOM      6  C   UNL     1      51.067  37.374 -14.312  1.00  0.00     0.000 C 
BRANCH   6   7
ATOM      7  C   UNL     1      49.789  37.320 -13.462  1.00  0.00     0.000 C 
BRANCH   7   8
ATOM      8  C   UNL     1      49.575  35.947 -12.802  1.00  0.00     0.006 C 
BRANCH   8   9
ATOM      9  C   UNL     1      48.090  35.564 -12.731  1.00  0.00     0.053 C 
BRANCH   9  10
ATOM     10  C   UNL     1      47.575  35.589 -11.324  1.00  0.00     0.041 C 
ATOM     11  O   UNL     1      48.149  36.293 -10.452  1.00  0.00    -0.550 OA
ATOM     12  O   UNL     1      46.446  34.855 -10.982  1.00  0.00    -0.550 OA
ENDBRANCH   9  10
ENDBRANCH   8   9
ENDBRANCH   7   8
ENDBRANCH   6   7
ENDBRANCH   5   6
ENDBRANCH   4   5
ENDBRANCH   3   4
ENDBRANCH   1   3
BRANCH   2  13
ATOM     13  C   UNL     1      47.162  36.582 -17.393  1.00  0.00     0.027 C 
BRANCH  13  14
ATOM     14  C   UNL     1      47.151  37.943 -16.672  1.00  0.00     0.004 C 
BRANCH  14  15
ATOM     15  C   UNL     1      46.798  37.875 -15.174  1.00  0.00     0.000 C 
BRANCH  15  16
ATOM     16  C   UNL     1      45.290  37.808 -14.858  1.00  0.00     0.000 C 
BRANCH  16  17
ATOM     17  C   UNL     1      44.977  37.465 -13.386  1.00  0.00    -0.000 C 
BRANCH  17  18
ATOM     18  C   UNL     1      44.100  36.211 -13.251  1.00  0.00    -0.000 C 
BRANCH  18  19
ATOM     19  C   UNL     1      42.852  36.501 -12.408  1.00  0.00    -0.003 C 
ATOM     20  C   UNL     1      43.138  36.314 -10.920  1.00  0.00     0.004 C 
ENDBRANCH  18  19
ENDBRANCH  17  18
ENDBRANCH  16  17
ENDBRANCH  15  16
ENDBRANCH  14  15
ENDBRANCH  13  14
ENDBRANCH   2  13
TORSDOF 15
ENDMDL
MODEL 4
REMARK VINA RESULT:    -4.509      1.333      2.066
REMARK INTER + INTRA:         -10.807
REMARK INTER:                  -8.024
REMARK INTRA:                  -2.784
REMARK UNBOUND:                -2.344
REMARK SMILES CCCCCCCCC=CCCCCCCCC(=O)[O-]
REMARK SMILES IDX 10 1 9 2 11 3 12 4 13 5 14 6 15 7 16 8 17 9 18 10 19 11
REMARK SMILES IDX 20 12 8 13 7 14 6 15 5 16 4 17 3 18 2 19 1 20
REMARK H PARENT
REMARK Flexibility Score: inf
ROOT
ATOM      1  C   UNL     1      48.477  34.782 -13.375  1.00  0.00    -0.031 C 
ATOM      2  C   UNL     1      49.172  35.890 -13.057  1.00  0.00    -0.031 C 
ENDROOT
BRANCH   1   3
ATOM      3  C   UNL     1      47.229  34.742 -14.227  1.00  0.00     0.027 C 
BRANCH   3   4
ATOM      4  C   UNL     1      45.965  34.364 -13.439  1.00  0.00     0.004 C 
BRANCH   4   5
ATOM      5  C   UNL     1      45.001  35.548 -13.269  1.00  0.00     0.000 C 
BRANCH   5   6
ATOM      6  C   UNL     1      44.797  35.877 -11.782  1.00  0.00     0.000 C 
BRANCH   6   7
ATOM      7  C   UNL     1      45.902  36.784 -11.218  1.00  0.00     0.000 C 
BRANCH   7   8
ATOM      8  C   UNL     1      46.445  36.283  -9.868  1.00  0.00     0.006 C 
BRANCH   8   9
ATOM      9  C   UNL     1      46.406  34.753  -9.761  1.00  0.00     0.053 C 
BRANCH   9  10
ATOM     10  C   UNL     1      45.710  34.299  -8.513  1.00  0.00     0.041 C 
ATOM     11  O   UNL     1      44.953  35.088  -7.888  1.00  0.00    -0.550 OA
ATOM     12  O   UNL     1      45.877  32.998  -8.056  1.00  0.00    -0.550 OA
ENDBRANCH   9  10
ENDBRANCH   8   9
ENDBRANCH   7   8
ENDBRANCH   6   7
ENDBRANCH   5   6
ENDBRANCH   4   5
ENDBRANCH   3   4
ENDBRANCH   1   3
BRANCH   2  13
ATOM     13  C   UNL     1      48.809  37.298 -13.463  1.00  0.00     0.027 C 
BRANCH  13  14
ATOM     14  C   UNL     1      49.937  37.970 -14.268  1.00  0.00     0.004 C 
BRANCH  14  15
ATOM     15  C   UNL     1      50.964  36.996 -14.876  1.00  0.00     0.000 C 
BRANCH  15  16
ATOM     16  C   UNL     1      50.855  36.796 -16.400  1.00  0.00     0.000 C 
BRANCH  16  17
ATOM     17  C   UNL     1      49.558  36.089 -16.846  1.00  0.00    -0.000 C 
BRANCH  17  18
ATOM     18  C   UNL     1      48.544  37.062 -17.466  1.00  0.00    -0.000 C 
BRANCH  18  19
ATOM     19  C   UNL     1      47.106  36.600 -17.202  1.00  0.00    -0.003 C 
ATOM     20  C   UNL     1      46.399  37.531 -16.221  1.00  0.00     0.004 C 
ENDBRANCH  18  19
ENDBRANCH  17  18
ENDBRANCH  16  17
ENDBRANCH  15  16
ENDBRANCH  14  15
ENDBRANCH  13  14
ENDBRANCH   2  13
TORSDOF 15
ENDMDL
MODEL 5
REMARK VINA RESULT:    -4.444      1.342      2.782
REMARK INTER + INTRA:         -10.685
REMARK INTER:                  -8.510
REMARK INTRA:                  -2.175
REMARK UNBOUND:                -2.344
REMARK SMILES CCCCCCCCC=CCCCCCCCC(=O)[O-]
REMARK SMILES IDX 10 1 9 2 11 3 12 4 13 5 14 6 15 7 16 8 17 9 18 10 19 11
REMARK SMILES IDX 20 12 8 13 7 14 6 15 5 16 4 17 3 18 2 19 1 20
REMARK H PARENT
REMARK Flexibility Score: inf
ROOT
ATOM      1  C   UNL     1      45.518  37.017 -12.757  1.00  0.00    -0.031 C 
ATOM      2  C   UNL     1      45.997  37.798 -13.742  1.00  0.00    -0.031 C 
ENDROOT
BRANCH   1   3
ATOM      3  C   UNL     1      44.532  35.885 -12.934  1.00  0.00     0.027 C 
BRANCH   3   4
ATOM      4  C   UNL     1      43.074  36.301 -12.683  1.00  0.00     0.004 C 
BRANCH   4   5
ATOM      5  C   UNL     1      42.924  37.214 -11.457  1.00  0.00     0.000 C 
BRANCH   5   6
ATOM      6  C   UNL     1      42.947  36.395 -10.158  1.00  0.00     0.000 C 
BRANCH   6   7
ATOM      7  C   UNL     1      43.521  37.182  -8.969  1.00  0.00     0.000 C 
BRANCH   7   8
ATOM      8  C   UNL     1      44.665  36.434  -8.263  1.00  0.00     0.006 C 
BRANCH   8   9
ATOM      9  C   UNL     1      44.685  34.941  -8.617  1.00  0.00     0.053 C 
BRANCH   9  10
ATOM     10  C   UNL     1      46.058  34.478  -9.002  1.00  0.00     0.041 C 
ATOM     11  O   UNL     1      46.550  34.813 -10.111  1.00  0.00    -0.550 OA
ATOM     12  O   UNL     1      46.802  33.699  -8.125  1.00  0.00    -0.550 OA
ENDBRANCH   9  10
ENDBRANCH   8   9
ENDBRANCH   7   8
ENDBRANCH   6   7
ENDBRANCH   5   6
ENDBRANCH   4   5
ENDBRANCH   3   4
ENDBRANCH   1   3
BRANCH   2  13
ATOM     13  C   UNL     1      45.606  37.710 -15.198  1.00  0.00     0.027 C 
BRANCH  13  14
ATOM     14  C   UNL     1      46.815  37.926 -16.128  1.00  0.00     0.004 C 
BRANCH  14  15
ATOM     15  C   UNL     1      47.059  36.790 -17.140  1.00  0.00     0.000 C 
BRANCH  15  16
ATOM     16  C   UNL     1      48.323  35.945 -16.885  1.00  0.00     0.000 C 
BRANCH  16  17
ATOM     17  C   UNL     1      48.057  34.652 -16.084  1.00  0.00    -0.000 C 
BRANCH  17  18
ATOM     18  C   UNL     1      48.150  34.874 -14.567  1.00  0.00    -0.000 C 
BRANCH  18  19
ATOM     19  C   UNL     1      49.223  35.916 -14.228  1.00  0.00    -0.003 C 
ATOM     20  C   UNL     1      49.560  35.896 -12.739  1.00  0.00     0.004 C 
ENDBRANCH  18  19
ENDBRANCH  17  18
ENDBRANCH  16  17
ENDBRANCH  15  16
ENDBRANCH  14  15
ENDBRANCH  13  14
ENDBRANCH   2  13
TORSDOF 15
ENDMDL
MODEL 6
REMARK VINA RESULT:    -4.416      1.290      2.444
REMARK INTER + INTRA:         -10.633
REMARK INTER:                  -8.228
REMARK INTRA:                  -2.405
REMARK UNBOUND:                -2.344
REMARK SMILES CCCCCCCCC=CCCCCCCCC(=O)[O-]
REMARK SMILES IDX 10 1 9 2 11 3 12 4 13 5 14 6 15 7 16 8 17 9 18 10 19 11
REMARK SMILES IDX 20 12 8 13 7 14 6 15 5 16 4 17 3 18 2 19 1 20
REMARK H PARENT
REMARK Flexibility Score: inf
ROOT
ATOM      1  C   UNL     1      48.289  34.911 -13.601  1.00  0.00    -0.031 C 
ATOM      2  C   UNL     1      48.818  36.141 -13.470  1.00  0.00    -0.031 C 
ENDROOT
BRANCH   1   3
ATOM      3  C   UNL     1      46.821  34.600 -13.777  1.00  0.00     0.027 C 
BRANCH   3   4
ATOM      4  C   UNL     1      46.038  34.581 -12.455  1.00  0.00     0.004 C 
BRANCH   4   5
ATOM      5  C   UNL     1      44.858  35.565 -12.453  1.00  0.00     0.000 C 
BRANCH   5   6
ATOM      6  C   UNL     1      45.108  36.716 -11.468  1.00  0.00     0.000 C 
BRANCH   6   7
ATOM      7  C   UNL     1      45.634  36.231 -10.108  1.00  0.00     0.000 C 
BRANCH   7   8
ATOM      8  C   UNL     1      44.530  35.601  -9.239  1.00  0.00     0.006 C 
BRANCH   8   9
ATOM      9  C   UNL     1      45.013  35.312  -7.812  1.00  0.00     0.053 C 
BRANCH   9  10
ATOM     10  C   UNL     1      45.235  33.847  -7.585  1.00  0.00     0.041 C 
ATOM     11  O   UNL     1      44.337  33.146  -7.048  1.00  0.00    -0.550 OA
ATOM     12  O   UNL     1      46.423  33.252  -7.989  1.00  0.00    -0.550 OA
ENDBRANCH   9  10
ENDBRANCH   8   9
ENDBRANCH   7   8
ENDBRANCH   6   7
ENDBRANCH   5   6
ENDBRANCH   4   5
ENDBRANCH   3   4
ENDBRANCH   1   3
BRANCH   2  13
ATOM     13  C   UNL     1      48.035  37.432 -13.437  1.00  0.00     0.027 C 
BRANCH  13  14
ATOM     14  C   UNL     1      47.992  38.110 -14.820  1.00  0.00     0.004 C 
BRANCH  14  15
ATOM     15  C   UNL     1      46.816  37.675 -15.714  1.00  0.00     0.000 C 
BRANCH  15  16
ATOM     16  C   UNL     1      47.172  36.658 -16.817  1.00  0.00     0.000 C 
BRANCH  16  17
ATOM     17  C   UNL     1      48.628  36.766 -17.318  1.00  0.00    -0.000 C 
BRANCH  17  18
ATOM     18  C   UNL     1      49.441  35.495 -17.033  1.00  0.00    -0.000 C 
BRANCH  18  19
ATOM     19  C   UNL     1      50.940  35.806 -16.956  1.00  0.00    -0.003 C 
ATOM     20  C   UNL     1      51.191  37.127 -16.232  1.00  0.00     0.004 C 
ENDBRANCH  18  19
ENDBRANCH  17  18
ENDBRANCH  16  17
ENDBRANCH  15  16
ENDBRANCH  14  15
ENDBRANCH  13  14
ENDBRANCH   2  13
TORSDOF 15
ENDMDL
MODEL 7
REMARK VINA RESULT:    -4.411      3.309      7.216
REMARK INTER + INTRA:         -10.622
REMARK INTER:                  -7.956
REMARK INTRA:                  -2.666
REMARK UNBOUND:                -2.344
REMARK SMILES CCCCCCCCC=CCCCCCCCC(=O)[O-]
REMARK SMILES IDX 10 1 9 2 11 3 12 4 13 5 14 6 15 7 16 8 17 9 18 10 19 11
REMARK SMILES IDX 20 12 8 13 7 14 6 15 5 16 4 17 3 18 2 19 1 20
REMARK H PARENT
REMARK Flexibility Score: inf
ROOT
ATOM      1  C   UNL     1      46.095  34.562 -12.414  1.00  0.00    -0.031 C 
ATOM      2  C   UNL     1      45.303  35.142 -13.335  1.00  0.00    -0.031 C 
ENDROOT
BRANCH   1   3
ATOM      3  C   UNL     1      46.371  35.099 -11.029  1.00  0.00     0.027 C 
BRANCH   3   4
ATOM      4  C   UNL     1      47.697  35.869 -10.927  1.00  0.00     0.004 C 
BRANCH   4   5
ATOM      5  C   UNL     1      47.496  37.392 -10.914  1.00  0.00     0.000 C 
BRANCH   5   6
ATOM      6  C   UNL     1      47.867  38.004 -12.273  1.00  0.00     0.000 C 
BRANCH   6   7
ATOM      7  C   UNL     1      48.877  37.148 -13.054  1.00  0.00     0.000 C 
BRANCH   7   8
ATOM      8  C   UNL     1      48.376  36.781 -14.462  1.00  0.00     0.006 C 
BRANCH   8   9
ATOM      9  C   UNL     1      48.714  35.333 -14.838  1.00  0.00     0.053 C 
BRANCH   9  10
ATOM     10  C   UNL     1      48.615  35.102 -16.315  1.00  0.00     0.041 C 
ATOM     11  O   UNL     1      47.511  34.787 -16.833  1.00  0.00    -0.550 OA
ATOM     12  O   UNL     1      49.734  35.260 -17.122  1.00  0.00    -0.550 OA
ENDBRANCH   9  10
ENDBRANCH   8   9
ENDBRANCH   7   8
ENDBRANCH   6   7
ENDBRANCH   5   6
ENDBRANCH   4   5
ENDBRANCH   3   4
ENDBRANCH   1   3
BRANCH   2  13
ATOM     13  C   UNL     1      44.579  36.456 -13.164  1.00  0.00     0.027 C 
BRANCH  13  14
ATOM     14  C   UNL     1      43.109  36.250 -12.754  1.00  0.00     0.004 C 
BRANCH  14  15
ATOM     15  C   UNL     1      42.523  37.369 -11.872  1.00  0.00     0.000 C 
BRANCH  15  16
ATOM     16  C   UNL     1      43.400  37.789 -10.676  1.00  0.00     0.000 C 
BRANCH  16  17
ATOM     17  C   UNL     1      42.921  37.222  -9.322  1.00  0.00    -0.000 C 
BRANCH  17  18
ATOM     18  C   UNL     1      43.551  35.859  -9.001  1.00  0.00    -0.000 C 
BRANCH  18  19
ATOM     19  C   UNL     1      44.680  36.004  -7.973  1.00  0.00    -0.003 C 
ATOM     20  C   UNL     1      45.184  34.639  -7.513  1.00  0.00     0.004 C 
ENDBRANCH  18  19
ENDBRANCH  17  18
ENDBRANCH  16  17
ENDBRANCH  15  16
ENDBRANCH  14  15
ENDBRANCH  13  14
ENDBRANCH   2  13
TORSDOF 15
ENDMDL
MODEL 8
REMARK VINA RESULT:    -4.390      2.017      3.255
REMARK INTER + INTRA:         -10.584
REMARK INTER:                  -7.886
REMARK INTRA:                  -2.698
REMARK UNBOUND:                -2.344
REMARK SMILES CCCCCCCCC=CCCCCCCCC(=O)[O-]
REMARK SMILES IDX 10 1 9 2 11 3 12 4 13 5 14 6 15 7 16 8 17 9 18 10 19 11
REMARK SMILES IDX 20 12 8 13 7 14 6 15 5 16 4 17 3 18 2 19 1 20
REMARK H PARENT
REMARK Flexibility Score: inf
ROOT
ATOM      1  C   UNL     1      49.163  36.430 -12.908  1.00  0.00    -0.031 C 
ATOM      2  C   UNL     1      50.418  36.469 -13.391  1.00  0.00    -0.031 C 
ENDROOT
BRANCH   1   3
ATOM      3  C   UNL     1      48.223  37.609 -12.810  1.00  0.00     0.027 C 
BRANCH   3   4
ATOM      4  C   UNL     1      46.751  37.202 -12.628  1.00  0.00     0.004 C 
BRANCH   4   5
ATOM      5  C   UNL     1      46.579  35.690 -12.420  1.00  0.00     0.000 C 
BRANCH   5   6
ATOM      6  C   UNL     1      45.227  35.213 -12.970  1.00  0.00     0.000 C 
BRANCH   6   7
ATOM      7  C   UNL     1      44.290  36.376 -13.333  1.00  0.00     0.000 C 
BRANCH   7   8
ATOM      8  C   UNL     1      42.933  36.289 -12.612  1.00  0.00     0.006 C 
BRANCH   8   9
ATOM      9  C   UNL     1      42.828  37.290 -11.454  1.00  0.00     0.053 C 
BRANCH   9  10
ATOM     10  C   UNL     1      43.427  36.747 -10.192  1.00  0.00     0.041 C 
ATOM     11  O   UNL     1      42.903  35.756  -9.618  1.00  0.00    -0.550 OA
ATOM     12  O   UNL     1      44.578  37.319  -9.665  1.00  0.00    -0.550 OA
ENDBRANCH   9  10
ENDBRANCH   8   9
ENDBRANCH   7   8
ENDBRANCH   6   7
ENDBRANCH   5   6
ENDBRANCH   4   5
ENDBRANCH   3   4
ENDBRANCH   1   3
BRANCH   2  13
ATOM     13  C   UNL     1      51.128  37.706 -13.887  1.00  0.00     0.027 C 
BRANCH  13  14
ATOM     14  C   UNL     1      51.101  37.803 -15.424  1.00  0.00     0.004 C 
BRANCH  14  15
ATOM     15  C   UNL     1      51.930  36.728 -16.152  1.00  0.00     0.000 C 
BRANCH  15  16
ATOM     16  C   UNL     1      51.135  35.831 -17.120  1.00  0.00     0.000 C 
BRANCH  16  17
ATOM     17  C   UNL     1      49.606  36.032 -17.043  1.00  0.00    -0.000 C 
BRANCH  17  18
ATOM     18  C   UNL     1      48.879  34.790 -16.506  1.00  0.00    -0.000 C 
BRANCH  18  19
ATOM     19  C   UNL     1      47.479  35.152 -15.993  1.00  0.00    -0.003 C 
ATOM     20  C   UNL     1      47.140  36.608 -16.300  1.00  0.00     0.004 C 
ENDBRANCH  18  19
ENDBRANCH  17  18
ENDBRANCH  16  17
ENDBRANCH  15  16
ENDBRANCH  14  15
ENDBRANCH  13  14
ENDBRANCH   2  13
TORSDOF 15
ENDMDL
MODEL 9
REMARK VINA RESULT:    -4.363      1.328      2.315
REMARK INTER + INTRA:         -10.532
REMARK INTER:                  -8.201
REMARK INTRA:                  -2.332
REMARK UNBOUND:                -2.344
REMARK SMILES CCCCCCCCC=CCCCCCCCC(=O)[O-]
REMARK SMILES IDX 10 1 9 2 11 3 12 4 13 5 14 6 15 7 16 8 17 9 18 10 19 11
REMARK SMILES IDX 20 12 8 13 7 14 6 15 5 16 4 17 3 18 2 19 1 20
REMARK H PARENT
REMARK Flexibility Score: inf
ROOT
ATOM      1  C   UNL     1      46.956  35.379 -11.555  1.00  0.00    -0.031 C 
ATOM      2  C   UNL     1      47.949  36.284 -11.485  1.00  0.00    -0.031 C 
ENDROOT
BRANCH   1   3
ATOM      3  C   UNL     1      46.556  34.607 -12.791  1.00  0.00     0.027 C 
BRANCH   3   4
ATOM      4  C   UNL     1      45.214  35.062 -13.387  1.00  0.00     0.004 C 
BRANCH   4   5
ATOM      5  C   UNL     1      44.649  36.306 -12.685  1.00  0.00     0.000 C 
BRANCH   5   6
ATOM      6  C   UNL     1      43.117  36.238 -12.601  1.00  0.00     0.000 C 
BRANCH   6   7
ATOM      7  C   UNL     1      42.529  37.266 -11.621  1.00  0.00     0.000 C 
BRANCH   7   8
ATOM      8  C   UNL     1      43.231  37.244 -10.252  1.00  0.00     0.006 C 
BRANCH   8   9
ATOM      9  C   UNL     1      43.018  35.916  -9.514  1.00  0.00     0.053 C 
BRANCH   9  10
ATOM     10  C   UNL     1      44.230  35.514  -8.728  1.00  0.00     0.041 C 
ATOM     11  O   UNL     1      44.278  34.385  -8.173  1.00  0.00    -0.550 OA
ATOM     12  O   UNL     1      45.315  36.376  -8.631  1.00  0.00    -0.550 OA
ENDBRANCH   9  10
ENDBRANCH   8   9
ENDBRANCH   7   8
ENDBRANCH   6   7
ENDBRANCH   5   6
ENDBRANCH   4   5
ENDBRANCH   3   4
ENDBRANCH   1   3
BRANCH   2  13
ATOM     13  C   UNL     1      48.819  36.721 -12.640  1.00  0.00     0.027 C 
BRANCH  13  14
ATOM     14  C   UNL     1      48.306  38.024 -13.281  1.00  0.00     0.004 C 
BRANCH  14  15
ATOM     15  C   UNL     1      48.310  38.029 -14.821  1.00  0.00     0.000 C 
BRANCH  15  16
ATOM     16  C   UNL     1      47.025  37.493 -15.482  1.00  0.00     0.000 C 
BRANCH  16  17
ATOM     17  C   UNL     1      47.279  36.666 -16.761  1.00  0.00    -0.000 C 
BRANCH  17  18
ATOM     18  C   UNL     1      47.288  35.154 -16.489  1.00  0.00    -0.000 C 
BRANCH  18  19
ATOM     19  C   UNL     1      48.693  34.672 -16.108  1.00  0.00    -0.003 C 
ATOM     20  C   UNL     1      49.760  35.362 -16.953  1.00  0.00     0.004 C 
ENDBRANCH  18  19
ENDBRANCH  17  18
ENDBRANCH  16  17
ENDBRANCH  15  16
ENDBRANCH  14  15
ENDBRANCH  13  14
ENDBRANCH   2  13
TORSDOF 15
ENDMDL
