MODEL 1
REMARK VINA RESULT:    -4.350      0.000      0.000
REMARK INTER + INTRA:         -10.678
REMARK INTER:                  -8.420
REMARK INTRA:                  -2.258
REMARK UNBOUND:                -2.258
REMARK SMILES CCCCCCCCCCCCCCCCCC(=O)[O-]
REMARK SMILES IDX 10 1 11 2 12 3 13 4 14 5 15 6 16 7 17 8 18 9 19 10 20 11
REMARK SMILES IDX 9 12 8 13 7 14 6 15 5 16 4 17 3 18 2 19 1 20
REMARK H PARENT
REMARK Flexibility Score: inf
ROOT
ATOM      1  C   UNL     1      96.460  86.874  83.075  1.00  0.00     0.000 C 
ENDROOT
BRANCH   1   2
ATOM      2  C   UNL     1      95.723  87.236  81.778  1.00  0.00     0.000 C 
BRANCH   2   3
ATOM      3  C   UNL     1      96.522  86.786  80.548  1.00  0.00     0.000 C 
BRANCH   3   4
ATOM      4  C   UNL     1      95.643  85.969  79.589  1.00  0.00     0.000 C 
BRANCH   4   5
ATOM      5  C   UNL     1      95.295  84.581  80.147  1.00  0.00     0.000 C 
BRANCH   5   6
ATOM      6  C   UNL     1      94.270  83.835  79.279  1.00  0.00     0.000 C 
BRANCH   6   7
ATOM      7  C   UNL     1      92.887  84.491  79.375  1.00  0.00     0.006 C 
BRANCH   7   8
ATOM      8  C   UNL     1      92.103  83.945  80.572  1.00  0.00     0.053 C 
BRANCH   8   9
ATOM      9  C   UNL     1      91.859  85.026  81.579  1.00  0.00     0.041 C 
ATOM     10  O   UNL     1      92.302  86.186  81.381  1.00  0.00    -0.550 OA
ATOM     11  O   UNL     1      91.181  84.738  82.757  1.00  0.00    -0.550 OA
ENDBRANCH   8   9
ENDBRANCH   7   8
ENDBRANCH   6   7
ENDBRANCH   5   6
ENDBRANCH   4   5
ENDBRANCH   3   4
ENDBRANCH   2   3
ENDBRANCH   1   2
BRANCH   1  12
ATOM     12  C   UNL     1      97.761  86.096  82.819  1.00  0.00     0.000 C 
BRANCH  12  13
ATOM     13  C   UNL     1      97.655  84.616  83.228  1.00  0.00    -0.000 C 
BRANCH  13  14
ATOM     14  C   UNL     1      98.308  83.678  82.192  1.00  0.00    -0.000 C 
BRANCH  14  15
ATOM     15  C   UNL     1      99.681  84.165  81.698  1.00  0.00    -0.000 C 
BRANCH  15  16
ATOM     16  C   UNL     1     100.838  83.703  82.594  1.00  0.00    -0.000 C 
BRANCH  16  17
ATOM     17  C   UNL     1     101.622  84.906  83.143  1.00  0.00    -0.000 C 
BRANCH  17  18
ATOM     18  C   UNL     1     101.066  85.412  84.483  1.00  0.00    -0.000 C 
BRANCH  18  19
ATOM     19  C   UNL     1     100.689  84.267  85.435  1.00  0.00    -0.003 C 
ATOM     20  C   UNL     1      99.637  84.716  86.445  1.00  0.00     0.004 C 
ENDBRANCH  18  19
ENDBRANCH  17  18
ENDBRANCH  16  17
ENDBRANCH  15  16
ENDBRANCH  14  15
ENDBRANCH  13  14
ENDBRANCH  12  13
ENDBRANCH   1  12
TORSDOF 16
ENDMDL
MODEL 2
REMARK VINA RESULT:    -4.309      3.157      7.834
REMARK INTER + INTRA:         -10.598
REMARK INTER:                  -9.134
REMARK INTRA:                  -1.464
REMARK UNBOUND:                -2.258
REMARK SMILES CCCCCCCCCCCCCCCCCC(=O)[O-]
REMARK SMILES IDX 10 1 11 2 12 3 13 4 14 5 15 6 16 7 17 8 18 9 19 10 20 11
REMARK SMILES IDX 9 12 8 13 7 14 6 15 5 16 4 17 3 18 2 19 1 20
REMARK H PARENT
REMARK Flexibility Score: inf
ROOT
ATOM      1  C   UNL     1      96.111  86.984  80.558  1.00  0.00     0.000 C 
ENDROOT
BRANCH   1   2
ATOM      2  C   UNL     1      97.606  86.981  80.911  1.00  0.00     0.000 C 
BRANCH   2   3
ATOM      3  C   UNL     1      98.215  85.588  80.708  1.00  0.00     0.000 C 
BRANCH   3   4
ATOM      4  C   UNL     1      97.569  84.562  81.651  1.00  0.00     0.000 C 
BRANCH   4   5
ATOM      5  C   UNL     1      98.572  83.513  82.157  1.00  0.00     0.000 C 
BRANCH   5   6
ATOM      6  C   UNL     1     100.016  83.828  81.740  1.00  0.00     0.000 C 
BRANCH   6   7
ATOM      7  C   UNL     1     100.935  83.913  82.965  1.00  0.00     0.006 C 
BRANCH   7   8
ATOM      8  C   UNL     1     100.586  85.127  83.830  1.00  0.00     0.053 C 
BRANCH   8   9
ATOM      9  C   UNL     1     100.111  84.692  85.181  1.00  0.00     0.041 C 
ATOM     10  O   UNL     1     100.835  83.956  85.899  1.00  0.00    -0.550 OA
ATOM     11  O   UNL     1      98.848  85.062  85.626  1.00  0.00    -0.550 OA
ENDBRANCH   8   9
ENDBRANCH   7   8
ENDBRANCH   6   7
ENDBRANCH   5   6
ENDBRANCH   4   5
ENDBRANCH   3   4
ENDBRANCH   2   3
ENDBRANCH   1   2
BRANCH   1  12
ATOM     12  C   UNL     1      95.843  86.516  79.119  1.00  0.00     0.000 C 
BRANCH  12  13
ATOM     13  C   UNL     1      94.428  85.937  78.939  1.00  0.00    -0.000 C 
BRANCH  13  14
ATOM     14  C   UNL     1      94.378  84.423  79.236  1.00  0.00    -0.000 C 
BRANCH  14  15
ATOM     15  C   UNL     1      93.494  84.061  80.442  1.00  0.00    -0.000 C 
BRANCH  15  16
ATOM     16  C   UNL     1      92.614  85.227  80.912  1.00  0.00    -0.000 C 
BRANCH  16  17
ATOM     17  C   UNL     1      91.508  84.734  81.859  1.00  0.00    -0.000 C 
BRANCH  17  18
ATOM     18  C   UNL     1      90.486  83.829  81.154  1.00  0.00    -0.000 C 
BRANCH  18  19
ATOM     19  C   UNL     1      89.239  84.597  80.692  1.00  0.00    -0.003 C 
ATOM     20  C   UNL     1      88.686  84.018  79.393  1.00  0.00     0.004 C 
ENDBRANCH  18  19
ENDBRANCH  17  18
ENDBRANCH  16  17
ENDBRANCH  15  16
ENDBRANCH  14  15
ENDBRANCH  13  14
ENDBRANCH  12  13
ENDBRANCH   1  12
TORSDOF 16
ENDMDL
MODEL 3
REMARK VINA RESULT:    -4.277      1.422      2.810
REMARK INTER + INTRA:         -10.535
REMARK INTER:                  -8.268
REMARK INTRA:                  -2.267
REMARK UNBOUND:                -2.258
REMARK SMILES CCCCCCCCCCCCCCCCCC(=O)[O-]
REMARK SMILES IDX 10 1 11 2 12 3 13 4 14 5 15 6 16 7 17 8 18 9 19 10 20 11
REMARK SMILES IDX 9 12 8 13 7 14 6 15 5 16 4 17 3 18 2 19 1 20
REMARK H PARENT
REMARK Flexibility Score: inf
ROOT
ATOM      1  C   UNL     1      98.896  83.256  81.902  1.00  0.00     0.000 C 
ENDROOT
BRANCH   1   2
ATOM      2  C   UNL     1      97.698  84.216  81.853  1.00  0.00     0.000 C 
BRANCH   2   3
ATOM      3  C   UNL     1      98.067  85.517  81.127  1.00  0.00     0.000 C 
BRANCH   3   4
ATOM      4  C   UNL     1      96.989  85.900  80.102  1.00  0.00     0.000 C 
BRANCH   4   5
ATOM      5  C   UNL     1      95.624  85.269  80.419  1.00  0.00     0.000 C 
BRANCH   5   6
ATOM      6  C   UNL     1      94.894  84.777  79.160  1.00  0.00     0.000 C 
BRANCH   6   7
ATOM      7  C   UNL     1      93.824  83.738  79.516  1.00  0.00     0.006 C 
BRANCH   7   8
ATOM      8  C   UNL     1      92.420  84.345  79.429  1.00  0.00     0.053 C 
BRANCH   8   9
ATOM      9  C   UNL     1      91.790  84.411  80.785  1.00  0.00     0.041 C 
ATOM     10  O   UNL     1      90.839  83.642  81.079  1.00  0.00    -0.550 OA
ATOM     11  O   UNL     1      92.224  85.354  81.708  1.00  0.00    -0.550 OA
ENDBRANCH   8   9
ENDBRANCH   7   8
ENDBRANCH   6   7
ENDBRANCH   5   6
ENDBRANCH   4   5
ENDBRANCH   3   4
ENDBRANCH   2   3
ENDBRANCH   1   2
BRANCH   1  12
ATOM     12  C   UNL     1     100.226  83.983  82.156  1.00  0.00     0.000 C 
BRANCH  12  13
ATOM     13  C   UNL     1     100.626  83.984  83.642  1.00  0.00    -0.000 C 
BRANCH  13  14
ATOM     14  C   UNL     1     101.350  85.284  84.049  1.00  0.00    -0.000 C 
BRANCH  14  15
ATOM     15  C   UNL     1     100.954  86.503  83.197  1.00  0.00    -0.000 C 
BRANCH  15  16
ATOM     16  C   UNL     1     100.436  87.677  84.037  1.00  0.00    -0.000 C 
BRANCH  16  17
ATOM     17  C   UNL     1      99.478  87.188  85.134  1.00  0.00    -0.000 C 
BRANCH  17  18
ATOM     18  C   UNL     1      98.094  86.809  84.585  1.00  0.00    -0.000 C 
BRANCH  18  19
ATOM     19  C   UNL     1      97.560  85.500  85.184  1.00  0.00    -0.003 C 
ATOM     20  C   UNL     1      98.339  85.110  86.437  1.00  0.00     0.004 C 
ENDBRANCH  18  19
ENDBRANCH  17  18
ENDBRANCH  16  17
ENDBRANCH  15  16
ENDBRANCH  14  15
ENDBRANCH  13  14
ENDBRANCH  12  13
ENDBRANCH   1  12
TORSDOF 16
ENDMDL
MODEL 4
REMARK VINA RESULT:    -4.193      3.370      7.674
REMARK INTER + INTRA:         -10.373
REMARK INTER:                  -8.395
REMARK INTRA:                  -1.979
REMARK UNBOUND:                -2.258
REMARK SMILES CCCCCCCCCCCCCCCCCC(=O)[O-]
REMARK SMILES IDX 10 1 11 2 12 3 13 4 14 5 15 6 16 7 17 8 18 9 19 10 20 11
REMARK SMILES IDX 9 12 8 13 7 14 6 15 5 16 4 17 3 18 2 19 1 20
REMARK H PARENT
REMARK Flexibility Score: inf
ROOT
ATOM      1  C   UNL     1      95.591  87.266  82.129  1.00  0.00     0.000 C 
ENDROOT
BRANCH   1   2
ATOM      2  C   UNL     1      96.705  87.433  81.085  1.00  0.00     0.000 C 
BRANCH   2   3
ATOM      3  C   UNL     1      98.027  86.846  81.595  1.00  0.00     0.000 C 
BRANCH   3   4
ATOM      4  C   UNL     1      98.368  85.540  80.862  1.00  0.00     0.000 C 
BRANCH   4   5
ATOM      5  C   UNL     1      97.720  84.310  81.516  1.00  0.00     0.000 C 
BRANCH   5   6
ATOM      6  C   UNL     1      98.753  83.358  82.137  1.00  0.00     0.000 C 
BRANCH   6   7
ATOM      7  C   UNL     1     100.175  83.908  81.974  1.00  0.00     0.006 C 
BRANCH   7   8
ATOM      8  C   UNL     1     100.867  84.052  83.333  1.00  0.00     0.053 C 
BRANCH   8   9
ATOM      9  C   UNL     1     101.599  85.354  83.416  1.00  0.00     0.041 C 
ATOM     10  O   UNL     1     101.006  86.432  83.152  1.00  0.00    -0.550 OA
ATOM     11  O   UNL     1     102.950  85.373  83.740  1.00  0.00    -0.550 OA
ENDBRANCH   8   9
ENDBRANCH   7   8
ENDBRANCH   6   7
ENDBRANCH   5   6
ENDBRANCH   4   5
ENDBRANCH   3   4
ENDBRANCH   2   3
ENDBRANCH   1   2
BRANCH   1  12
ATOM     12  C   UNL     1      94.552  86.209  81.722  1.00  0.00     0.000 C 
BRANCH  12  13
ATOM     13  C   UNL     1      94.528  85.958  80.203  1.00  0.00    -0.000 C 
BRANCH  13  14
ATOM     14  C   UNL     1      94.525  84.453  79.862  1.00  0.00    -0.000 C 
BRANCH  14  15
ATOM     15  C   UNL     1      93.193  83.957  79.273  1.00  0.00    -0.000 C 
BRANCH  15  16
ATOM     16  C   UNL     1      92.208  85.096  78.978  1.00  0.00    -0.000 C 
BRANCH  16  17
ATOM     17  C   UNL     1      90.763  84.665  79.277  1.00  0.00    -0.000 C 
BRANCH  17  18
ATOM     18  C   UNL     1      90.075  85.577  80.304  1.00  0.00    -0.000 C 
BRANCH  18  19
ATOM     19  C   UNL     1      90.972  85.886  81.512  1.00  0.00    -0.003 C 
ATOM     20  C   UNL     1      91.014  84.708  82.481  1.00  0.00     0.004 C 
ENDBRANCH  18  19
ENDBRANCH  17  18
ENDBRANCH  16  17
ENDBRANCH  15  16
ENDBRANCH  14  15
ENDBRANCH  13  14
ENDBRANCH  12  13
ENDBRANCH   1  12
TORSDOF 16
ENDMDL
MODEL 5
REMARK VINA RESULT:    -4.182      1.648      2.528
REMARK INTER + INTRA:         -10.351
REMARK INTER:                  -8.859
REMARK INTRA:                  -1.492
REMARK UNBOUND:                -2.258
REMARK SMILES CCCCCCCCCCCCCCCCCC(=O)[O-]
REMARK SMILES IDX 10 1 11 2 12 3 13 4 14 5 15 6 16 7 17 8 18 9 19 10 20 11
REMARK SMILES IDX 9 12 8 13 7 14 6 15 5 16 4 17 3 18 2 19 1 20
REMARK H PARENT
REMARK Flexibility Score: inf
ROOT
ATOM      1  C   UNL     1      96.551  86.814  80.773  1.00  0.00     0.000 C 
ENDROOT
BRANCH   1   2
ATOM      2  C   UNL     1      96.165  86.126  79.456  1.00  0.00     0.000 C 
BRANCH   2   3
ATOM      3  C   UNL     1      94.685  85.722  79.460  1.00  0.00     0.000 C 
BRANCH   3   4
ATOM      4  C   UNL     1      94.531  84.196  79.543  1.00  0.00     0.000 C 
BRANCH   4   5
ATOM      5  C   UNL     1      93.122  83.769  79.984  1.00  0.00     0.000 C 
BRANCH   5   6
ATOM      6  C   UNL     1      92.555  84.664  81.096  1.00  0.00     0.000 C 
BRANCH   6   7
ATOM      7  C   UNL     1      91.049  84.433  81.272  1.00  0.00     0.006 C 
BRANCH   7   8
ATOM      8  C   UNL     1      90.345  84.341  79.915  1.00  0.00     0.053 C 
BRANCH   8   9
ATOM      9  C   UNL     1      89.967  85.704  79.424  1.00  0.00     0.041 C 
ATOM     10  O   UNL     1      88.881  86.227  79.784  1.00  0.00    -0.550 OA
ATOM     11  O   UNL     1      90.793  86.375  78.532  1.00  0.00    -0.550 OA
ENDBRANCH   8   9
ENDBRANCH   7   8
ENDBRANCH   6   7
ENDBRANCH   5   6
ENDBRANCH   4   5
ENDBRANCH   3   4
ENDBRANCH   2   3
ENDBRANCH   1   2
BRANCH   1  12
ATOM     12  C   UNL     1      97.643  86.052  81.541  1.00  0.00     0.000 C 
BRANCH  12  13
ATOM     13  C   UNL     1      97.145  84.707  82.099  1.00  0.00    -0.000 C 
BRANCH  13  14
ATOM     14  C   UNL     1      98.171  83.574  81.888  1.00  0.00    -0.000 C 
BRANCH  14  15
ATOM     15  C   UNL     1      99.593  84.078  81.588  1.00  0.00    -0.000 C 
BRANCH  15  16
ATOM     16  C   UNL     1     100.612  83.667  82.659  1.00  0.00    -0.000 C 
BRANCH  16  17
ATOM     17  C   UNL     1     100.355  84.414  83.978  1.00  0.00    -0.000 C 
BRANCH  17  18
ATOM     18  C   UNL     1     101.615  85.102  84.523  1.00  0.00    -0.000 C 
BRANCH  18  19
ATOM     19  C   UNL     1     102.501  85.678  83.408  1.00  0.00    -0.003 C 
ATOM     20  C   UNL     1     102.327  87.189  83.294  1.00  0.00     0.004 C 
ENDBRANCH  18  19
ENDBRANCH  17  18
ENDBRANCH  16  17
ENDBRANCH  15  16
ENDBRANCH  14  15
ENDBRANCH  13  14
ENDBRANCH  12  13
ENDBRANCH   1  12
TORSDOF 16
ENDMDL
MODEL 6
REMARK VINA RESULT:    -4.165      2.242      6.483
REMARK INTER + INTRA:         -10.319
REMARK INTER:                  -8.262
REMARK INTRA:                  -2.057
REMARK UNBOUND:                -2.258
REMARK SMILES CCCCCCCCCCCCCCCCCC(=O)[O-]
REMARK SMILES IDX 10 1 11 2 12 3 13 4 14 5 15 6 16 7 17 8 18 9 19 10 20 11
REMARK SMILES IDX 9 12 8 13 7 14 6 15 5 16 4 17 3 18 2 19 1 20
REMARK H PARENT
REMARK Flexibility Score: inf
ROOT
ATOM      1  C   UNL     1     100.055  84.023  81.972  1.00  0.00     0.000 C 
ENDROOT
BRANCH   1   2
ATOM      2  C   UNL     1     100.713  83.864  83.351  1.00  0.00     0.000 C 
BRANCH   2   3
ATOM      3  C   UNL     1     101.382  85.171  83.794  1.00  0.00     0.000 C 
BRANCH   3   4
ATOM      4  C   UNL     1     100.588  86.390  83.301  1.00  0.00     0.000 C 
BRANCH   4   5
ATOM      5  C   UNL     1      99.724  87.017  84.406  1.00  0.00     0.000 C 
BRANCH   5   6
ATOM      6  C   UNL     1      98.287  86.474  84.412  1.00  0.00     0.000 C 
BRANCH   6   7
ATOM      7  C   UNL     1      97.998  85.698  85.703  1.00  0.00     0.006 C 
BRANCH   7   8
ATOM      8  C   UNL     1      96.755  84.817  85.546  1.00  0.00     0.053 C 
BRANCH   8   9
ATOM      9  C   UNL     1      95.527  85.557  85.974  1.00  0.00     0.041 C 
ATOM     10  O   UNL     1      94.571  85.715  85.171  1.00  0.00    -0.550 OA
ATOM     11  O   UNL     1      95.457  86.114  87.245  1.00  0.00    -0.550 OA
ENDBRANCH   8   9
ENDBRANCH   7   8
ENDBRANCH   6   7
ENDBRANCH   5   6
ENDBRANCH   4   5
ENDBRANCH   3   4
ENDBRANCH   2   3
ENDBRANCH   1   2
BRANCH   1  12
ATOM     12  C   UNL     1      98.650  83.402  81.912  1.00  0.00     0.000 C 
BRANCH  12  13
ATOM     13  C   UNL     1      97.550  84.451  81.670  1.00  0.00    -0.000 C 
BRANCH  13  14
ATOM     14  C   UNL     1      98.035  85.607  80.771  1.00  0.00    -0.000 C 
BRANCH  14  15
ATOM     15  C   UNL     1      96.948  86.652  80.470  1.00  0.00    -0.000 C 
BRANCH  15  16
ATOM     16  C   UNL     1      96.067  86.272  79.272  1.00  0.00    -0.000 C 
BRANCH  16  17
ATOM     17  C   UNL     1      94.668  85.834  79.735  1.00  0.00    -0.000 C 
BRANCH  17  18
ATOM     18  C   UNL     1      94.547  84.311  79.893  1.00  0.00    -0.000 C 
BRANCH  18  19
ATOM     19  C   UNL     1      93.321  83.739  79.167  1.00  0.00    -0.003 C 
ATOM     20  C   UNL     1      92.298  84.831  78.871  1.00  0.00     0.004 C 
ENDBRANCH  18  19
ENDBRANCH  17  18
ENDBRANCH  16  17
ENDBRANCH  15  16
ENDBRANCH  14  15
ENDBRANCH  13  14
ENDBRANCH  12  13
ENDBRANCH   1  12
TORSDOF 16
ENDMDL
MODEL 7
REMARK VINA RESULT:    -4.158      1.247      2.416
REMARK INTER + INTRA:         -10.305
REMARK INTER:                  -8.005
REMARK INTRA:                  -2.301
REMARK UNBOUND:                -2.258
REMARK SMILES CCCCCCCCCCCCCCCCCC(=O)[O-]
REMARK SMILES IDX 10 1 11 2 12 3 13 4 14 5 15 6 16 7 17 8 18 9 19 10 20 11
REMARK SMILES IDX 9 12 8 13 7 14 6 15 5 16 4 17 3 18 2 19 1 20
REMARK H PARENT
REMARK Flexibility Score: inf
ROOT
ATOM      1  C   UNL     1      96.105  87.678  81.822  1.00  0.00     0.000 C 
ENDROOT
BRANCH   1   2
ATOM      2  C   UNL     1      96.558  86.424  81.059  1.00  0.00     0.000 C 
BRANCH   2   3
ATOM      3  C   UNL     1      96.166  86.511  79.578  1.00  0.00     0.000 C 
BRANCH   3   4
ATOM      4  C   UNL     1      94.880  85.718  79.302  1.00  0.00     0.000 C 
BRANCH   4   5
ATOM      5  C   UNL     1      94.982  84.253  79.754  1.00  0.00     0.000 C 
BRANCH   5   6
ATOM      6  C   UNL     1      93.613  83.561  79.828  1.00  0.00     0.000 C 
BRANCH   6   7
ATOM      7  C   UNL     1      92.475  84.590  79.815  1.00  0.00     0.006 C 
BRANCH   7   8
ATOM      8  C   UNL     1      91.434  84.271  80.892  1.00  0.00     0.053 C 
BRANCH   8   9
ATOM      9  C   UNL     1      91.752  84.996  82.162  1.00  0.00     0.041 C 
ATOM     10  O   UNL     1      91.088  84.764  83.206  1.00  0.00    -0.550 OA
ATOM     11  O   UNL     1      92.750  85.961  82.181  1.00  0.00    -0.550 OA
ENDBRANCH   8   9
ENDBRANCH   7   8
ENDBRANCH   6   7
ENDBRANCH   5   6
ENDBRANCH   4   5
ENDBRANCH   3   4
ENDBRANCH   2   3
ENDBRANCH   1   2
BRANCH   1  12
ATOM     12  C   UNL     1      96.026  87.451  83.339  1.00  0.00     0.000 C 
BRANCH  12  13
ATOM     13  C   UNL     1      96.232  85.976  83.728  1.00  0.00    -0.000 C 
BRANCH  13  14
ATOM     14  C   UNL     1      97.019  85.826  85.046  1.00  0.00    -0.000 C 
BRANCH  14  15
ATOM     15  C   UNL     1      98.462  85.330  84.850  1.00  0.00    -0.000 C 
BRANCH  15  16
ATOM     16  C   UNL     1      99.366  86.372  84.177  1.00  0.00    -0.000 C 
BRANCH  16  17
ATOM     17  C   UNL     1     100.153  85.747  83.014  1.00  0.00    -0.000 C 
BRANCH  17  18
ATOM     18  C   UNL     1     100.025  84.217  82.968  1.00  0.00    -0.000 C 
BRANCH  18  19
ATOM     19  C   UNL     1      99.323  83.721  81.695  1.00  0.00    -0.003 C 
ATOM     20  C   UNL     1      97.968  83.101  82.021  1.00  0.00     0.004 C 
ENDBRANCH  18  19
ENDBRANCH  17  18
ENDBRANCH  16  17
ENDBRANCH  15  16
ENDBRANCH  14  15
ENDBRANCH  13  14
ENDBRANCH  12  13
ENDBRANCH   1  12
TORSDOF 16
ENDMDL
MODEL 8
REMARK VINA RESULT:    -4.151      3.964      9.081
REMARK INTER + INTRA:         -10.292
REMARK INTER:                  -9.464
REMARK INTRA:                  -0.828
REMARK UNBOUND:                -2.258
REMARK SMILES CCCCCCCCCCCCCCCCCC(=O)[O-]
REMARK SMILES IDX 10 1 11 2 12 3 13 4 14 5 15 6 16 7 17 8 18 9 19 10 20 11
REMARK SMILES IDX 9 12 8 13 7 14 6 15 5 16 4 17 3 18 2 19 1 20
REMARK H PARENT
REMARK Flexibility Score: inf
ROOT
ATOM      1  C   UNL     1      94.965  84.377  79.645  1.00  0.00     0.000 C 
ENDROOT
BRANCH   1   2
ATOM      2  C   UNL     1      95.004  85.876  79.312  1.00  0.00     0.000 C 
BRANCH   2   3
ATOM      3  C   UNL     1      96.048  86.602  80.170  1.00  0.00     0.000 C 
BRANCH   3   4
ATOM      4  C   UNL     1      97.280  85.715  80.405  1.00  0.00     0.000 C 
BRANCH   4   5
ATOM      5  C   UNL     1      97.422  85.281  81.872  1.00  0.00     0.000 C 
BRANCH   5   6
ATOM      6  C   UNL     1      97.814  83.803  82.016  1.00  0.00     0.000 C 
BRANCH   6   7
ATOM      7  C   UNL     1      99.338  83.635  82.009  1.00  0.00     0.006 C 
BRANCH   7   8
ATOM      8  C   UNL     1      99.948  84.099  83.335  1.00  0.00     0.053 C 
BRANCH   8   9
ATOM      9  C   UNL     1     101.413  84.361  83.178  1.00  0.00     0.041 C 
ATOM     10  O   UNL     1     102.059  83.807  82.251  1.00  0.00    -0.550 OA
ATOM     11  O   UNL     1     102.074  85.180  84.084  1.00  0.00    -0.550 OA
ENDBRANCH   8   9
ENDBRANCH   7   8
ENDBRANCH   6   7
ENDBRANCH   5   6
ENDBRANCH   4   5
ENDBRANCH   3   4
ENDBRANCH   2   3
ENDBRANCH   1   2
BRANCH   1  12
ATOM     12  C   UNL     1      93.634  83.717  79.250  1.00  0.00     0.000 C 
BRANCH  12  13
ATOM     13  C   UNL     1      92.463  84.715  79.229  1.00  0.00    -0.000 C 
BRANCH  13  14
ATOM     14  C   UNL     1      91.739  84.792  80.589  1.00  0.00    -0.000 C 
BRANCH  14  15
ATOM     15  C   UNL     1      90.563  85.784  80.607  1.00  0.00    -0.000 C 
BRANCH  15  16
ATOM     16  C   UNL     1      89.406  85.324  81.503  1.00  0.00    -0.000 C 
BRANCH  16  17
ATOM     17  C   UNL     1      88.188  84.911  80.661  1.00  0.00    -0.000 C 
BRANCH  17  18
ATOM     18  C   UNL     1      88.358  83.527  80.015  1.00  0.00    -0.000 C 
BRANCH  18  19
ATOM     19  C   UNL     1      87.019  82.900  79.603  1.00  0.00    -0.003 C 
ATOM     20  C   UNL     1      86.788  81.574  80.322  1.00  0.00     0.004 C 
ENDBRANCH  18  19
ENDBRANCH  17  18
ENDBRANCH  16  17
ENDBRANCH  15  16
ENDBRANCH  14  15
ENDBRANCH  13  14
ENDBRANCH  12  13
ENDBRANCH   1  12
TORSDOF 16
ENDMDL
MODEL 9
REMARK VINA RESULT:    -4.148      3.344      7.421
REMARK INTER + INTRA:         -10.286
REMARK INTER:                  -8.099
REMARK INTRA:                  -2.187
REMARK UNBOUND:                -2.258
REMARK SMILES CCCCCCCCCCCCCCCCCC(=O)[O-]
REMARK SMILES IDX 10 1 11 2 12 3 13 4 14 5 15 6 16 7 17 8 18 9 19 10 20 11
REMARK SMILES IDX 9 12 8 13 7 14 6 15 5 16 4 17 3 18 2 19 1 20
REMARK H PARENT
REMARK Flexibility Score: inf
ROOT
ATOM      1  C   UNL     1      94.971  85.600  79.156  1.00  0.00     0.000 C 
ENDROOT
BRANCH   1   2
ATOM      2  C   UNL     1      96.233  86.354  79.600  1.00  0.00     0.000 C 
BRANCH   2   3
ATOM      3  C   UNL     1      96.012  87.045  80.951  1.00  0.00     0.000 C 
BRANCH   3   4
ATOM      4  C   UNL     1      97.162  86.737  81.922  1.00  0.00     0.000 C 
BRANCH   4   5
ATOM      5  C   UNL     1      97.992  85.520  81.484  1.00  0.00     0.000 C 
BRANCH   5   6
ATOM      6  C   UNL     1      97.578  84.231  82.210  1.00  0.00     0.000 C 
BRANCH   6   7
ATOM      7  C   UNL     1      98.728  83.216  82.228  1.00  0.00     0.006 C 
BRANCH   7   8
ATOM      8  C   UNL     1     100.038  83.864  81.770  1.00  0.00     0.053 C 
BRANCH   8   9
ATOM      9  C   UNL     1     100.955  84.079  82.933  1.00  0.00     0.041 C 
ATOM     10  O   UNL     1     102.167  84.352  82.741  1.00  0.00    -0.550 OA
ATOM     11  O   UNL     1     100.479  83.932  84.230  1.00  0.00    -0.550 OA
ENDBRANCH   8   9
ENDBRANCH   7   8
ENDBRANCH   6   7
ENDBRANCH   5   6
ENDBRANCH   4   5
ENDBRANCH   3   4
ENDBRANCH   2   3
ENDBRANCH   1   2
BRANCH   1  12
ATOM     12  C   UNL     1      94.686  84.362  80.020  1.00  0.00     0.000 C 
BRANCH  12  13
ATOM     13  C   UNL     1      93.181  84.115  80.223  1.00  0.00    -0.000 C 
BRANCH  13  14
ATOM     14  C   UNL     1      92.344  84.601  79.021  1.00  0.00    -0.000 C 
BRANCH  14  15
ATOM     15  C   UNL     1      91.036  85.303  79.424  1.00  0.00    -0.000 C 
BRANCH  15  16
ATOM     16  C   UNL     1      91.270  86.607  80.198  1.00  0.00    -0.000 C 
BRANCH  16  17
ATOM     17  C   UNL     1      90.351  86.689  81.428  1.00  0.00    -0.000 C 
BRANCH  17  18
ATOM     18  C   UNL     1      91.120  87.005  82.720  1.00  0.00    -0.000 C 
BRANCH  18  19
ATOM     19  C   UNL     1      92.639  87.060  82.503  1.00  0.00    -0.003 C 
ATOM     20  C   UNL     1      93.360  86.066  83.408  1.00  0.00     0.004 C 
ENDBRANCH  18  19
ENDBRANCH  17  18
ENDBRANCH  16  17
ENDBRANCH  15  16
ENDBRANCH  14  15
ENDBRANCH  13  14
ENDBRANCH  12  13
ENDBRANCH   1  12
TORSDOF 16
ENDMDL
