MODEL 1
REMARK VINA RESULT:    -5.431      0.000      0.000
REMARK INTER + INTRA:         -13.620
REMARK INTER:                 -11.780
REMARK INTRA:                  -1.841
REMARK UNBOUND:                -1.841
REMARK SMILES CCCCCCCCCCCCCCCCCCCCCC(=O)[O-]
REMARK SMILES IDX 12 1 11 2 10 3 9 4 8 5 7 6 6 7 5 8 4 9 3 10 2 11 1 12 13 13
REMARK SMILES IDX 14 14 15 15 16 16 17 17 18 18 19 19 20 20 21 21 22 22 23 23
REMARK SMILES IDX 24 24
REMARK H PARENT
REMARK Flexibility Score: inf
ROOT
ATOM      1  C   UNL     1      -7.990  28.014 -24.237  1.00  0.00     0.000 C 
ENDROOT
BRANCH   1   2
ATOM      2  C   UNL     1      -8.408  27.743 -25.697  1.00  0.00     0.000 C 
BRANCH   2   3
ATOM      3  C   UNL     1      -7.244  27.554 -26.688  1.00  0.00     0.000 C 
BRANCH   3   4
ATOM      4  C   UNL     1      -7.558  26.640 -27.889  1.00  0.00    -0.000 C 
BRANCH   4   5
ATOM      5  C   UNL     1      -8.930  25.936 -27.796  1.00  0.00    -0.000 C 
BRANCH   5   6
ATOM      6  C   UNL     1      -8.880  24.482 -27.283  1.00  0.00    -0.000 C 
BRANCH   6   7
ATOM      7  C   UNL     1      -9.787  24.173 -26.076  1.00  0.00    -0.000 C 
BRANCH   7   8
ATOM      8  C   UNL     1     -10.335  22.739 -26.080  1.00  0.00    -0.000 C 
BRANCH   8   9
ATOM      9  C   UNL     1      -9.962  22.005 -24.783  1.00  0.00    -0.000 C 
BRANCH   9  10
ATOM     10  C   UNL     1      -9.210  22.901 -23.782  1.00  0.00    -0.000 C 
BRANCH  10  11
ATOM     11  C   UNL     1      -9.942  23.140 -22.451  1.00  0.00    -0.003 C 
ATOM     12  C   UNL     1      -9.119  22.726 -21.233  1.00  0.00     0.004 C 
ENDBRANCH  10  11
ENDBRANCH   9  10
ENDBRANCH   8   9
ENDBRANCH   7   8
ENDBRANCH   6   7
ENDBRANCH   5   6
ENDBRANCH   4   5
ENDBRANCH   3   4
ENDBRANCH   2   3
ENDBRANCH   1   2
BRANCH   1  13
ATOM     13  C   UNL     1      -6.557  28.545 -24.053  1.00  0.00     0.000 C 
BRANCH  13  14
ATOM     14  C   UNL     1      -6.283  29.052 -22.630  1.00  0.00     0.000 C 
BRANCH  14  15
ATOM     15  C   UNL     1      -4.802  28.882 -22.266  1.00  0.00     0.000 C 
BRANCH  15  16
ATOM     16  C   UNL     1      -4.639  28.046 -20.989  1.00  0.00     0.000 C 
BRANCH  16  17
ATOM     17  C   UNL     1      -5.985  27.573 -20.417  1.00  0.00     0.000 C 
BRANCH  17  18
ATOM     18  C   UNL     1      -6.254  28.119 -19.007  1.00  0.00     0.000 C 
BRANCH  18  19
ATOM     19  C   UNL     1      -5.659  29.527 -18.844  1.00  0.00     0.000 C 
BRANCH  19  20
ATOM     20  C   UNL     1      -6.738  30.617 -18.748  1.00  0.00     0.006 C 
BRANCH  20  21
ATOM     21  C   UNL     1      -6.820  31.478 -20.015  1.00  0.00     0.053 C 
BRANCH  21  22
ATOM     22  C   UNL     1      -5.700  32.471 -20.043  1.00  0.00     0.041 C 
ATOM     23  O   UNL     1      -5.655  33.398 -19.191  1.00  0.00    -0.550 OA
ATOM     24  O   UNL     1      -4.743  32.411 -21.047  1.00  0.00    -0.550 OA
ENDBRANCH  21  22
ENDBRANCH  20  21
ENDBRANCH  19  20
ENDBRANCH  18  19
ENDBRANCH  17  18
ENDBRANCH  16  17
ENDBRANCH  15  16
ENDBRANCH  14  15
ENDBRANCH  13  14
ENDBRANCH   1  13
TORSDOF 20
ENDMDL
MODEL 2
REMARK VINA RESULT:    -5.290      3.799      8.806
REMARK INTER + INTRA:         -13.315
REMARK INTER:                 -11.133
REMARK INTRA:                  -2.183
REMARK UNBOUND:                -1.841
REMARK SMILES CCCCCCCCCCCCCCCCCCCCCC(=O)[O-]
REMARK SMILES IDX 12 1 11 2 10 3 9 4 8 5 7 6 6 7 5 8 4 9 3 10 2 11 1 12 13 13
REMARK SMILES IDX 14 14 15 15 16 16 17 17 18 18 19 19 20 20 21 21 22 22 23 23
REMARK SMILES IDX 24 24
REMARK H PARENT
REMARK Flexibility Score: inf
ROOT
ATOM      1  C   UNL     1      -5.827  28.494 -22.239  1.00  0.00     0.000 C 
ENDROOT
BRANCH   1   2
ATOM      2  C   UNL     1      -4.480  29.228 -22.409  1.00  0.00     0.000 C 
BRANCH   2   3
ATOM      3  C   UNL     1      -4.525  30.747 -22.158  1.00  0.00     0.000 C 
BRANCH   3   4
ATOM      4  C   UNL     1      -4.399  31.163 -20.679  1.00  0.00    -0.000 C 
BRANCH   4   5
ATOM      5  C   UNL     1      -5.694  31.762 -20.087  1.00  0.00    -0.000 C 
BRANCH   5   6
ATOM      6  C   UNL     1      -6.756  30.724 -19.667  1.00  0.00    -0.000 C 
BRANCH   6   7
ATOM      7  C   UNL     1      -6.745  30.331 -18.177  1.00  0.00    -0.000 C 
BRANCH   7   8
ATOM      8  C   UNL     1      -6.631  28.816 -17.950  1.00  0.00    -0.000 C 
BRANCH   8   9
ATOM      9  C   UNL     1      -5.818  28.152 -19.071  1.00  0.00    -0.000 C 
BRANCH   9  10
ATOM     10  C   UNL     1      -4.307  28.112 -18.774  1.00  0.00    -0.000 C 
BRANCH  10  11
ATOM     11  C   UNL     1      -3.503  27.136 -19.649  1.00  0.00    -0.003 C 
ATOM     12  C   UNL     1      -4.332  25.950 -20.138  1.00  0.00     0.004 C 
ENDBRANCH  10  11
ENDBRANCH   9  10
ENDBRANCH   8   9
ENDBRANCH   7   8
ENDBRANCH   6   7
ENDBRANCH   5   6
ENDBRANCH   4   5
ENDBRANCH   3   4
ENDBRANCH   2   3
ENDBRANCH   1   2
BRANCH   1  13
ATOM     13  C   UNL     1      -6.956  28.973 -23.168  1.00  0.00     0.000 C 
BRANCH  13  14
ATOM     14  C   UNL     1      -7.008  28.205 -24.496  1.00  0.00     0.000 C 
BRANCH  14  15
ATOM     15  C   UNL     1      -8.405  27.617 -24.732  1.00  0.00     0.000 C 
BRANCH  15  16
ATOM     16  C   UNL     1      -8.841  27.795 -26.193  1.00  0.00     0.000 C 
BRANCH  16  17
ATOM     17  C   UNL     1      -7.702  27.514 -27.187  1.00  0.00     0.000 C 
BRANCH  17  18
ATOM     18  C   UNL     1      -7.983  26.296 -28.080  1.00  0.00     0.000 C 
BRANCH  18  19
ATOM     19  C   UNL     1      -9.304  25.620 -27.682  1.00  0.00     0.000 C 
BRANCH  19  20
ATOM     20  C   UNL     1      -9.093  24.232 -27.058  1.00  0.00     0.006 C 
BRANCH  20  21
ATOM     21  C   UNL     1      -9.739  24.105 -25.672  1.00  0.00     0.053 C 
BRANCH  21  22
ATOM     22  C   UNL     1      -9.887  22.664 -25.297  1.00  0.00     0.041 C 
ATOM     23  O   UNL     1      -9.936  21.779 -26.192  1.00  0.00    -0.550 OA
ATOM     24  O   UNL     1     -10.034  22.303 -23.964  1.00  0.00    -0.550 OA
ENDBRANCH  21  22
ENDBRANCH  20  21
ENDBRANCH  19  20
ENDBRANCH  18  19
ENDBRANCH  17  18
ENDBRANCH  16  17
ENDBRANCH  15  16
ENDBRANCH  14  15
ENDBRANCH  13  14
ENDBRANCH   1  13
TORSDOF 20
ENDMDL
MODEL 3
REMARK VINA RESULT:    -5.264      3.971      8.802
REMARK INTER + INTRA:         -13.258
REMARK INTER:                 -11.289
REMARK INTRA:                  -1.969
REMARK UNBOUND:                -1.841
REMARK SMILES CCCCCCCCCCCCCCCCCCCCCC(=O)[O-]
REMARK SMILES IDX 12 1 11 2 10 3 9 4 8 5 7 6 6 7 5 8 4 9 3 10 2 11 1 12 13 13
REMARK SMILES IDX 14 14 15 15 16 16 17 17 18 18 19 19 20 20 21 21 22 22 23 23
REMARK SMILES IDX 24 24
REMARK H PARENT
REMARK Flexibility Score: inf
ROOT
ATOM      1  C   UNL     1      -6.264  28.686 -23.666  1.00  0.00     0.000 C 
ENDROOT
BRANCH   1   2
ATOM      2  C   UNL     1      -5.942  29.170 -22.236  1.00  0.00     0.000 C 
BRANCH   2   3
ATOM      3  C   UNL     1      -4.579  29.869 -22.072  1.00  0.00     0.000 C 
BRANCH   3   4
ATOM      4  C   UNL     1      -4.400  30.636 -20.747  1.00  0.00    -0.000 C 
BRANCH   4   5
ATOM      5  C   UNL     1      -3.406  29.971 -19.770  1.00  0.00    -0.000 C 
BRANCH   5   6
ATOM      6  C   UNL     1      -2.896  28.582 -20.209  1.00  0.00    -0.000 C 
BRANCH   6   7
ATOM      7  C   UNL     1      -3.453  27.388 -19.408  1.00  0.00    -0.000 C 
BRANCH   7   8
ATOM      8  C   UNL     1      -4.463  26.544 -20.200  1.00  0.00    -0.000 C 
BRANCH   8   9
ATOM      9  C   UNL     1      -5.837  26.545 -19.514  1.00  0.00    -0.000 C 
BRANCH   9  10
ATOM     10  C   UNL     1      -6.415  27.961 -19.332  1.00  0.00    -0.000 C 
BRANCH  10  11
ATOM     11  C   UNL     1      -6.802  28.321 -17.888  1.00  0.00    -0.003 C 
ATOM     12  C   UNL     1      -7.002  29.820 -17.678  1.00  0.00     0.004 C 
ENDBRANCH  10  11
ENDBRANCH   9  10
ENDBRANCH   8   9
ENDBRANCH   7   8
ENDBRANCH   6   7
ENDBRANCH   5   6
ENDBRANCH   4   5
ENDBRANCH   3   4
ENDBRANCH   2   3
ENDBRANCH   1   2
BRANCH   1  13
ATOM     13  C   UNL     1      -7.713  28.219 -23.888  1.00  0.00     0.000 C 
BRANCH  13  14
ATOM     14  C   UNL     1      -7.973  27.727 -25.320  1.00  0.00     0.000 C 
BRANCH  14  15
ATOM     15  C   UNL     1      -6.757  27.993 -26.217  1.00  0.00     0.000 C 
BRANCH  15  16
ATOM     16  C   UNL     1      -6.600  26.892 -27.276  1.00  0.00     0.000 C 
BRANCH  16  17
ATOM     17  C   UNL     1      -7.674  26.972 -28.372  1.00  0.00     0.000 C 
BRANCH  17  18
ATOM     18  C   UNL     1      -8.427  25.646 -28.560  1.00  0.00     0.000 C 
BRANCH  18  19
ATOM     19  C   UNL     1      -9.541  25.498 -27.512  1.00  0.00     0.000 C 
BRANCH  19  20
ATOM     20  C   UNL     1      -9.261  24.371 -26.507  1.00  0.00     0.006 C 
BRANCH  20  21
ATOM     21  C   UNL     1     -10.518  23.560 -26.165  1.00  0.00     0.053 C 
BRANCH  21  22
ATOM     22  C   UNL     1     -10.139  22.241 -25.568  1.00  0.00     0.041 C 
ATOM     23  O   UNL     1     -10.004  21.228 -26.304  1.00  0.00    -0.550 OA
ATOM     24  O   UNL     1      -9.999  22.116 -24.192  1.00  0.00    -0.550 OA
ENDBRANCH  21  22
ENDBRANCH  20  21
ENDBRANCH  19  20
ENDBRANCH  18  19
ENDBRANCH  17  18
ENDBRANCH  16  17
ENDBRANCH  15  16
ENDBRANCH  14  15
ENDBRANCH  13  14
ENDBRANCH   1  13
TORSDOF 20
ENDMDL
MODEL 4
REMARK VINA RESULT:    -5.247      1.520      2.661
REMARK INTER + INTRA:         -13.223
REMARK INTER:                 -11.453
REMARK INTRA:                  -1.771
REMARK UNBOUND:                -1.841
REMARK SMILES CCCCCCCCCCCCCCCCCCCCCC(=O)[O-]
REMARK SMILES IDX 12 1 11 2 10 3 9 4 8 5 7 6 6 7 5 8 4 9 3 10 2 11 1 12 13 13
REMARK SMILES IDX 14 14 15 15 16 16 17 17 18 18 19 19 20 20 21 21 22 22 23 23
REMARK SMILES IDX 24 24
REMARK H PARENT
REMARK Flexibility Score: inf
ROOT
ATOM      1  C   UNL     1      -5.940  28.743 -22.369  1.00  0.00     0.000 C 
ENDROOT
BRANCH   1   2
ATOM      2  C   UNL     1      -7.231  28.794 -23.212  1.00  0.00     0.000 C 
BRANCH   2   3
ATOM      3  C   UNL     1      -7.133  28.136 -24.601  1.00  0.00     0.000 C 
BRANCH   3   4
ATOM      4  C   UNL     1      -8.473  27.636 -25.177  1.00  0.00    -0.000 C 
BRANCH   4   5
ATOM      5  C   UNL     1      -8.360  27.048 -26.601  1.00  0.00    -0.000 C 
BRANCH   5   6
ATOM      6  C   UNL     1      -9.462  26.035 -26.974  1.00  0.00    -0.000 C 
BRANCH   6   7
ATOM      7  C   UNL     1      -9.004  24.569 -27.091  1.00  0.00    -0.000 C 
BRANCH   7   8
ATOM      8  C   UNL     1      -9.752  23.621 -26.143  1.00  0.00    -0.000 C 
BRANCH   8   9
ATOM      9  C   UNL     1      -9.576  24.054 -24.681  1.00  0.00    -0.000 C 
BRANCH   9  10
ATOM     10  C   UNL     1      -9.220  22.883 -23.746  1.00  0.00    -0.000 C 
BRANCH  10  11
ATOM     11  C   UNL     1      -9.938  22.901 -22.386  1.00  0.00    -0.003 C 
ATOM     12  C   UNL     1      -8.973  22.901 -21.202  1.00  0.00     0.004 C 
ENDBRANCH  10  11
ENDBRANCH   9  10
ENDBRANCH   8   9
ENDBRANCH   7   8
ENDBRANCH   6   7
ENDBRANCH   5   6
ENDBRANCH   4   5
ENDBRANCH   3   4
ENDBRANCH   2   3
ENDBRANCH   1   2
BRANCH   1  13
ATOM     13  C   UNL     1      -6.035  27.918 -21.074  1.00  0.00     0.000 C 
BRANCH  13  14
ATOM     14  C   UNL     1      -4.662  27.538 -20.501  1.00  0.00     0.000 C 
BRANCH  14  15
ATOM     15  C   UNL     1      -3.609  28.593 -20.861  1.00  0.00     0.000 C 
BRANCH  15  16
ATOM     16  C   UNL     1      -3.452  29.625 -19.735  1.00  0.00     0.000 C 
BRANCH  16  17
ATOM     17  C   UNL     1      -3.164  31.038 -20.268  1.00  0.00     0.000 C 
BRANCH  17  18
ATOM     18  C   UNL     1      -4.217  31.517 -21.278  1.00  0.00     0.000 C 
BRANCH  18  19
ATOM     19  C   UNL     1      -4.785  32.884 -20.868  1.00  0.00     0.000 C 
BRANCH  19  20
ATOM     20  C   UNL     1      -5.806  32.782 -19.725  1.00  0.00     0.006 C 
BRANCH  20  21
ATOM     21  C   UNL     1      -6.660  31.510 -19.809  1.00  0.00     0.053 C 
BRANCH  21  22
ATOM     22  C   UNL     1      -6.865  30.930 -18.445  1.00  0.00     0.041 C 
ATOM     23  O   UNL     1      -7.011  31.689 -17.449  1.00  0.00    -0.550 OA
ATOM     24  O   UNL     1      -6.832  29.554 -18.262  1.00  0.00    -0.550 OA
ENDBRANCH  21  22
ENDBRANCH  20  21
ENDBRANCH  19  20
ENDBRANCH  18  19
ENDBRANCH  17  18
ENDBRANCH  16  17
ENDBRANCH  15  16
ENDBRANCH  14  15
ENDBRANCH  13  14
ENDBRANCH   1  13
TORSDOF 20
ENDMDL
MODEL 5
REMARK VINA RESULT:    -5.171      3.334      9.241
REMARK INTER + INTRA:         -13.058
REMARK INTER:                 -11.104
REMARK INTRA:                  -1.954
REMARK UNBOUND:                -1.841
REMARK SMILES CCCCCCCCCCCCCCCCCCCCCC(=O)[O-]
REMARK SMILES IDX 12 1 11 2 10 3 9 4 8 5 7 6 6 7 5 8 4 9 3 10 2 11 1 12 13 13
REMARK SMILES IDX 14 14 15 15 16 16 17 17 18 18 19 19 20 20 21 21 22 22 23 23
REMARK SMILES IDX 24 24
REMARK H PARENT
REMARK Flexibility Score: inf
ROOT
ATOM      1  C   UNL     1      -6.352  28.577 -23.913  1.00  0.00     0.000 C 
ENDROOT
BRANCH   1   2
ATOM      2  C   UNL     1      -5.854  29.082 -22.542  1.00  0.00     0.000 C 
BRANCH   2   3
ATOM      3  C   UNL     1      -6.083  28.115 -21.365  1.00  0.00     0.000 C 
BRANCH   3   4
ATOM      4  C   UNL     1      -4.878  27.952 -20.417  1.00  0.00    -0.000 C 
BRANCH   4   5
ATOM      5  C   UNL     1      -5.050  28.672 -19.061  1.00  0.00    -0.000 C 
BRANCH   5   6
ATOM      6  C   UNL     1      -6.494  29.109 -18.737  1.00  0.00    -0.000 C 
BRANCH   6   7
ATOM      7  C   UNL     1      -6.685  30.613 -18.459  1.00  0.00    -0.000 C 
BRANCH   7   8
ATOM      8  C   UNL     1      -6.897  31.444 -19.733  1.00  0.00    -0.000 C 
BRANCH   8   9
ATOM      9  C   UNL     1      -6.606  32.929 -19.474  1.00  0.00    -0.000 C 
BRANCH   9  10
ATOM     10  C   UNL     1      -5.356  33.434 -20.219  1.00  0.00    -0.000 C 
BRANCH  10  11
ATOM     11  C   UNL     1      -4.224  32.402 -20.356  1.00  0.00    -0.003 C 
ATOM     12  C   UNL     1      -3.847  32.117 -21.808  1.00  0.00     0.004 C 
ENDBRANCH  10  11
ENDBRANCH   9  10
ENDBRANCH   8   9
ENDBRANCH   7   8
ENDBRANCH   6   7
ENDBRANCH   5   6
ENDBRANCH   4   5
ENDBRANCH   3   4
ENDBRANCH   2   3
ENDBRANCH   1   2
BRANCH   1  13
ATOM     13  C   UNL     1      -7.817  28.109 -23.947  1.00  0.00     0.000 C 
BRANCH  13  14
ATOM     14  C   UNL     1      -8.287  27.709 -25.353  1.00  0.00     0.000 C 
BRANCH  14  15
ATOM     15  C   UNL     1      -7.114  27.704 -26.340  1.00  0.00     0.000 C 
BRANCH  15  16
ATOM     16  C   UNL     1      -7.452  26.891 -27.598  1.00  0.00     0.000 C 
BRANCH  16  17
ATOM     17  C   UNL     1      -8.902  26.382 -27.599  1.00  0.00     0.000 C 
BRANCH  17  18
ATOM     18  C   UNL     1      -8.991  24.849 -27.579  1.00  0.00     0.000 C 
BRANCH  18  19
ATOM     19  C   UNL     1      -9.684  24.359 -26.298  1.00  0.00     0.000 C 
BRANCH  19  20
ATOM     20  C   UNL     1      -9.653  22.829 -26.156  1.00  0.00     0.006 C 
BRANCH  20  21
ATOM     21  C   UNL     1     -10.420  22.336 -24.923  1.00  0.00     0.053 C 
BRANCH  21  22
ATOM     22  C   UNL     1      -9.747  22.802 -23.670  1.00  0.00     0.041 C 
ATOM     23  O   UNL     1     -10.398  23.441 -22.802  1.00  0.00    -0.550 OA
ATOM     24  O   UNL     1      -8.387  22.586 -23.491  1.00  0.00    -0.550 OA
ENDBRANCH  21  22
ENDBRANCH  20  21
ENDBRANCH  19  20
ENDBRANCH  18  19
ENDBRANCH  17  18
ENDBRANCH  16  17
ENDBRANCH  15  16
ENDBRANCH  14  15
ENDBRANCH  13  14
ENDBRANCH   1  13
TORSDOF 20
ENDMDL
MODEL 6
REMARK VINA RESULT:    -5.123      1.395      2.138
REMARK INTER + INTRA:         -12.953
REMARK INTER:                 -11.377
REMARK INTRA:                  -1.577
REMARK UNBOUND:                -1.841
REMARK SMILES CCCCCCCCCCCCCCCCCCCCCC(=O)[O-]
REMARK SMILES IDX 12 1 11 2 10 3 9 4 8 5 7 6 6 7 5 8 4 9 3 10 2 11 1 12 13 13
REMARK SMILES IDX 14 14 15 15 16 16 17 17 18 18 19 19 20 20 21 21 22 22 23 23
REMARK SMILES IDX 24 24
REMARK H PARENT
REMARK Flexibility Score: inf
ROOT
ATOM      1  C   UNL     1      -7.425  28.421 -23.637  1.00  0.00     0.000 C 
ENDROOT
BRANCH   1   2
ATOM      2  C   UNL     1      -6.811  28.246 -25.042  1.00  0.00     0.000 C 
BRANCH   2   3
ATOM      3  C   UNL     1      -7.777  27.717 -26.119  1.00  0.00     0.000 C 
BRANCH   3   4
ATOM      4  C   UNL     1      -7.108  27.310 -27.446  1.00  0.00    -0.000 C 
BRANCH   4   5
ATOM      5  C   UNL     1      -7.451  25.875 -27.903  1.00  0.00    -0.000 C 
BRANCH   5   6
ATOM      6  C   UNL     1      -8.903  25.677 -28.386  1.00  0.00    -0.000 C 
BRANCH   6   7
ATOM      7  C   UNL     1      -9.895  25.180 -27.316  1.00  0.00    -0.000 C 
BRANCH   7   8
ATOM      8  C   UNL     1      -9.276  24.176 -26.333  1.00  0.00    -0.000 C 
BRANCH   8   9
ATOM      9  C   UNL     1     -10.179  22.945 -26.164  1.00  0.00    -0.000 C 
BRANCH   9  10
ATOM     10  C   UNL     1     -10.464  22.609 -24.688  1.00  0.00    -0.000 C 
BRANCH  10  11
ATOM     11  C   UNL     1      -9.287  22.859 -23.730  1.00  0.00    -0.003 C 
ATOM     12  C   UNL     1      -9.718  22.958 -22.268  1.00  0.00     0.004 C 
ENDBRANCH  10  11
ENDBRANCH   9  10
ENDBRANCH   8   9
ENDBRANCH   7   8
ENDBRANCH   6   7
ENDBRANCH   5   6
ENDBRANCH   4   5
ENDBRANCH   3   4
ENDBRANCH   2   3
ENDBRANCH   1   2
BRANCH   1  13
ATOM     13  C   UNL     1      -6.409  28.520 -22.486  1.00  0.00     0.000 C 
BRANCH  13  14
ATOM     14  C   UNL     1      -5.306  29.556 -22.745  1.00  0.00     0.000 C 
BRANCH  14  15
ATOM     15  C   UNL     1      -4.010  29.166 -22.024  1.00  0.00     0.000 C 
BRANCH  15  16
ATOM     16  C   UNL     1      -3.549  30.279 -21.072  1.00  0.00     0.000 C 
BRANCH  16  17
ATOM     17  C   UNL     1      -3.663  29.874 -19.593  1.00  0.00     0.000 C 
BRANCH  17  18
ATOM     18  C   UNL     1      -3.744  28.352 -19.401  1.00  0.00     0.000 C 
BRANCH  18  19
ATOM     19  C   UNL     1      -4.992  27.971 -18.589  1.00  0.00     0.000 C 
BRANCH  19  20
ATOM     20  C   UNL     1      -6.244  28.743 -19.032  1.00  0.00     0.006 C 
BRANCH  20  21
ATOM     21  C   UNL     1      -7.036  29.312 -17.848  1.00  0.00     0.053 C 
BRANCH  21  22
ATOM     22  C   UNL     1      -6.983  30.808 -17.857  1.00  0.00     0.041 C 
ATOM     23  O   UNL     1      -6.846  31.430 -18.944  1.00  0.00    -0.550 OA
ATOM     24  O   UNL     1      -7.019  31.512 -16.661  1.00  0.00    -0.550 OA
ENDBRANCH  21  22
ENDBRANCH  20  21
ENDBRANCH  19  20
ENDBRANCH  18  19
ENDBRANCH  17  18
ENDBRANCH  16  17
ENDBRANCH  15  16
ENDBRANCH  14  15
ENDBRANCH  13  14
ENDBRANCH   1  13
TORSDOF 20
ENDMDL
MODEL 7
REMARK VINA RESULT:    -5.063      1.748      2.295
REMARK INTER + INTRA:         -12.823
REMARK INTER:                 -11.429
REMARK INTRA:                  -1.393
REMARK UNBOUND:                -1.841
REMARK SMILES CCCCCCCCCCCCCCCCCCCCCC(=O)[O-]
REMARK SMILES IDX 12 1 11 2 10 3 9 4 8 5 7 6 6 7 5 8 4 9 3 10 2 11 1 12 13 13
REMARK SMILES IDX 14 14 15 15 16 16 17 17 18 18 19 19 20 20 21 21 22 22 23 23
REMARK SMILES IDX 24 24
REMARK H PARENT
REMARK Flexibility Score: inf
ROOT
ATOM      1  C   UNL     1      -7.027  27.967 -25.995  1.00  0.00     0.000 C 
ENDROOT
BRANCH   1   2
ATOM      2  C   UNL     1      -7.608  27.551 -27.362  1.00  0.00     0.000 C 
BRANCH   2   3
ATOM      3  C   UNL     1      -7.085  26.213 -27.918  1.00  0.00     0.000 C 
BRANCH   3   4
ATOM      4  C   UNL     1      -8.175  25.168 -28.224  1.00  0.00    -0.000 C 
BRANCH   4   5
ATOM      5  C   UNL     1      -9.348  25.177 -27.218  1.00  0.00    -0.000 C 
BRANCH   5   6
ATOM      6  C   UNL     1      -9.206  24.183 -26.046  1.00  0.00    -0.000 C 
BRANCH   6   7
ATOM      7  C   UNL     1      -9.991  22.865 -26.195  1.00  0.00    -0.000 C 
BRANCH   7   8
ATOM      8  C   UNL     1     -10.354  22.220 -24.850  1.00  0.00    -0.000 C 
BRANCH   8   9
ATOM      9  C   UNL     1     -10.325  23.257 -23.718  1.00  0.00    -0.000 C 
BRANCH   9  10
ATOM     10  C   UNL     1      -9.347  22.884 -22.588  1.00  0.00    -0.000 C 
BRANCH  10  11
ATOM     11  C   UNL     1      -9.964  22.867 -21.179  1.00  0.00    -0.003 C 
ATOM     12  C   UNL     1      -8.916  22.856 -20.068  1.00  0.00     0.004 C 
ENDBRANCH  10  11
ENDBRANCH   9  10
ENDBRANCH   8   9
ENDBRANCH   7   8
ENDBRANCH   6   7
ENDBRANCH   5   6
ENDBRANCH   4   5
ENDBRANCH   3   4
ENDBRANCH   2   3
ENDBRANCH   1   2
BRANCH   1  13
ATOM     13  C   UNL     1      -7.934  27.686 -24.784  1.00  0.00     0.000 C 
BRANCH  13  14
ATOM     14  C   UNL     1      -7.699  28.657 -23.618  1.00  0.00     0.000 C 
BRANCH  14  15
ATOM     15  C   UNL     1      -6.297  28.467 -23.025  1.00  0.00     0.000 C 
BRANCH  15  16
ATOM     16  C   UNL     1      -6.269  28.852 -21.539  1.00  0.00     0.000 C 
BRANCH  16  17
ATOM     17  C   UNL     1      -5.840  27.685 -20.635  1.00  0.00     0.000 C 
BRANCH  17  18
ATOM     18  C   UNL     1      -4.313  27.566 -20.506  1.00  0.00     0.000 C 
BRANCH  18  19
ATOM     19  C   UNL     1      -3.803  28.379 -19.307  1.00  0.00     0.000 C 
BRANCH  19  20
ATOM     20  C   UNL     1      -2.683  29.359 -19.691  1.00  0.00     0.006 C 
BRANCH  20  21
ATOM     21  C   UNL     1      -3.210  30.597 -20.428  1.00  0.00     0.053 C 
BRANCH  21  22
ATOM     22  C   UNL     1      -2.180  31.682 -20.424  1.00  0.00     0.041 C 
ATOM     23  O   UNL     1      -1.242  31.662 -19.583  1.00  0.00    -0.550 OA
ATOM     24  O   UNL     1      -2.291  32.749 -21.305  1.00  0.00    -0.550 OA
ENDBRANCH  21  22
ENDBRANCH  20  21
ENDBRANCH  19  20
ENDBRANCH  18  19
ENDBRANCH  17  18
ENDBRANCH  16  17
ENDBRANCH  15  16
ENDBRANCH  14  15
ENDBRANCH  13  14
ENDBRANCH   1  13
TORSDOF 20
ENDMDL
MODEL 8
REMARK VINA RESULT:    -5.048      2.687      5.874
REMARK INTER + INTRA:         -12.791
REMARK INTER:                 -10.304
REMARK INTRA:                  -2.488
REMARK UNBOUND:                -1.841
REMARK SMILES CCCCCCCCCCCCCCCCCCCCCC(=O)[O-]
REMARK SMILES IDX 12 1 11 2 10 3 9 4 8 5 7 6 6 7 5 8 4 9 3 10 2 11 1 12 13 13
REMARK SMILES IDX 14 14 15 15 16 16 17 17 18 18 19 19 20 20 21 21 22 22 23 23
REMARK SMILES IDX 24 24
REMARK H PARENT
REMARK Flexibility Score: inf
ROOT
ATOM      1  C   UNL     1      -2.614  29.206 -19.441  1.00  0.00     0.000 C 
ENDROOT
BRANCH   1   2
ATOM      2  C   UNL     1      -3.438  27.902 -19.465  1.00  0.00     0.000 C 
BRANCH   2   3
ATOM      3  C   UNL     1      -4.192  27.625 -20.780  1.00  0.00     0.000 C 
BRANCH   3   4
ATOM      4  C   UNL     1      -5.729  27.653 -20.664  1.00  0.00    -0.000 C 
BRANCH   4   5
ATOM      5  C   UNL     1      -6.401  28.733 -21.541  1.00  0.00    -0.000 C 
BRANCH   5   6
ATOM      6  C   UNL     1      -5.641  29.081 -22.838  1.00  0.00    -0.000 C 
BRANCH   6   7
ATOM      7  C   UNL     1      -6.270  28.545 -24.139  1.00  0.00    -0.000 C 
BRANCH   7   8
ATOM      8  C   UNL     1      -7.727  28.090 -23.966  1.00  0.00    -0.000 C 
BRANCH   8   9
ATOM      9  C   UNL     1      -8.344  27.701 -25.318  1.00  0.00    -0.000 C 
BRANCH   9  10
ATOM     10  C   UNL     1      -7.311  27.661 -26.460  1.00  0.00    -0.000 C 
BRANCH  10  11
ATOM     11  C   UNL     1      -7.741  26.844 -27.690  1.00  0.00    -0.003 C 
ATOM     12  C   UNL     1      -8.807  25.798 -27.371  1.00  0.00     0.004 C 
ENDBRANCH  10  11
ENDBRANCH   9  10
ENDBRANCH   8   9
ENDBRANCH   7   8
ENDBRANCH   6   7
ENDBRANCH   5   6
ENDBRANCH   4   5
ENDBRANCH   3   4
ENDBRANCH   2   3
ENDBRANCH   1   2
BRANCH   1  13
ATOM     13  C   UNL     1      -3.217  30.376 -20.238  1.00  0.00     0.000 C 
BRANCH  13  14
ATOM     14  C   UNL     1      -2.412  31.676 -20.097  1.00  0.00     0.000 C 
BRANCH  14  15
ATOM     15  C   UNL     1      -2.356  32.430 -21.431  1.00  0.00     0.000 C 
BRANCH  15  16
ATOM     16  C   UNL     1      -3.745  32.514 -22.080  1.00  0.00     0.000 C 
BRANCH  16  17
ATOM     17  C   UNL     1      -4.276  33.955 -22.151  1.00  0.00     0.000 C 
BRANCH  17  18
ATOM     18  C   UNL     1      -4.585  34.541 -20.765  1.00  0.00     0.000 C 
BRANCH  18  19
ATOM     19  C   UNL     1      -6.028  34.219 -20.346  1.00  0.00     0.000 C 
BRANCH  19  20
ATOM     20  C   UNL     1      -6.095  33.297 -19.118  1.00  0.00     0.006 C 
BRANCH  20  21
ATOM     21  C   UNL     1      -6.561  31.879 -19.470  1.00  0.00     0.053 C 
BRANCH  21  22
ATOM     22  C   UNL     1      -6.852  31.102 -18.225  1.00  0.00     0.041 C 
ATOM     23  O   UNL     1      -6.985  29.850 -18.275  1.00  0.00    -0.550 OA
ATOM     24  O   UNL     1      -7.040  31.766 -17.020  1.00  0.00    -0.550 OA
ENDBRANCH  21  22
ENDBRANCH  20  21
ENDBRANCH  19  20
ENDBRANCH  18  19
ENDBRANCH  17  18
ENDBRANCH  16  17
ENDBRANCH  15  16
ENDBRANCH  14  15
ENDBRANCH  13  14
ENDBRANCH   1  13
TORSDOF 20
ENDMDL
MODEL 9
REMARK VINA RESULT:    -5.001      3.314      8.918
REMARK INTER + INTRA:         -12.688
REMARK INTER:                 -10.959
REMARK INTRA:                  -1.730
REMARK UNBOUND:                -1.841
REMARK SMILES CCCCCCCCCCCCCCCCCCCCCC(=O)[O-]
REMARK SMILES IDX 12 1 11 2 10 3 9 4 8 5 7 6 6 7 5 8 4 9 3 10 2 11 1 12 13 13
REMARK SMILES IDX 14 14 15 15 16 16 17 17 18 18 19 19 20 20 21 21 22 22 23 23
REMARK SMILES IDX 24 24
REMARK H PARENT
REMARK Flexibility Score: inf
ROOT
ATOM      1  C   UNL     1      -6.257  28.775 -23.679  1.00  0.00     0.000 C 
ENDROOT
BRANCH   1   2
ATOM      2  C   UNL     1      -6.232  29.098 -22.170  1.00  0.00     0.000 C 
BRANCH   2   3
ATOM      3  C   UNL     1      -6.100  27.877 -21.240  1.00  0.00     0.000 C 
BRANCH   3   4
ATOM      4  C   UNL     1      -5.375  28.153 -19.909  1.00  0.00    -0.000 C 
BRANCH   4   5
ATOM      5  C   UNL     1      -3.893  27.716 -19.904  1.00  0.00    -0.000 C 
BRANCH   5   6
ATOM      6  C   UNL     1      -2.879  28.864 -19.710  1.00  0.00    -0.000 C 
BRANCH   6   7
ATOM      7  C   UNL     1      -3.104  30.103 -20.597  1.00  0.00    -0.000 C 
BRANCH   7   8
ATOM      8  C   UNL     1      -3.761  31.273 -19.851  1.00  0.00    -0.000 C 
BRANCH   8   9
ATOM      9  C   UNL     1      -4.609  32.127 -20.805  1.00  0.00    -0.000 C 
BRANCH   9  10
ATOM     10  C   UNL     1      -5.929  32.603 -20.172  1.00  0.00    -0.000 C 
BRANCH  10  11
ATOM     11  C   UNL     1      -6.794  31.485 -19.565  1.00  0.00    -0.003 C 
ATOM     12  C   UNL     1      -6.903  31.574 -18.044  1.00  0.00     0.004 C 
ENDBRANCH  10  11
ENDBRANCH   9  10
ENDBRANCH   8   9
ENDBRANCH   7   8
ENDBRANCH   6   7
ENDBRANCH   5   6
ENDBRANCH   4   5
ENDBRANCH   3   4
ENDBRANCH   2   3
ENDBRANCH   1   2
BRANCH   1  13
ATOM     13  C   UNL     1      -7.554  28.122 -24.188  1.00  0.00     0.000 C 
BRANCH  13  14
ATOM     14  C   UNL     1      -7.498  27.759 -25.679  1.00  0.00     0.000 C 
BRANCH  14  15
ATOM     15  C   UNL     1      -8.807  27.097 -26.128  1.00  0.00     0.000 C 
BRANCH  15  16
ATOM     16  C   UNL     1      -8.534  25.820 -26.936  1.00  0.00     0.000 C 
BRANCH  16  17
ATOM     17  C   UNL     1      -9.673  24.795 -26.820  1.00  0.00     0.000 C 
BRANCH  17  18
ATOM     18  C   UNL     1      -9.259  23.536 -26.043  1.00  0.00     0.000 C 
BRANCH  18  19
ATOM     19  C   UNL     1     -10.195  23.302 -24.847  1.00  0.00     0.000 C 
BRANCH  19  20
ATOM     20  C   UNL     1      -9.431  23.073 -23.534  1.00  0.00     0.006 C 
BRANCH  20  21
ATOM     21  C   UNL     1     -10.352  23.077 -22.307  1.00  0.00     0.053 C 
BRANCH  21  22
ATOM     22  C   UNL     1      -9.570  22.769 -21.069  1.00  0.00     0.041 C 
ATOM     23  O   UNL     1     -10.133  22.219 -20.085  1.00  0.00    -0.550 OA
ATOM     24  O   UNL     1      -8.237  23.146 -20.976  1.00  0.00    -0.550 OA
ENDBRANCH  21  22
ENDBRANCH  20  21
ENDBRANCH  19  20
ENDBRANCH  18  19
ENDBRANCH  17  18
ENDBRANCH  16  17
ENDBRANCH  15  16
ENDBRANCH  14  15
ENDBRANCH  13  14
ENDBRANCH   1  13
TORSDOF 20
ENDMDL
