MODEL 1
REMARK VINA RESULT:    -5.043      0.000      0.000
REMARK INTER + INTRA:         -15.436
REMARK INTER:                 -10.940
REMARK INTRA:                  -4.496
REMARK UNBOUND:                -4.496
REMARK SMILES CCCCCCCCCCCCCCCCCCCCCC(=O)[O-]
REMARK SMILES IDX 12 1 11 2 10 3 9 4 8 5 7 6 6 7 5 8 4 9 3 10 2 11 1 12 13 13
REMARK SMILES IDX 14 14 15 15 16 16 17 17 18 18 19 19 20 20 21 21 22 22 23 23
REMARK SMILES IDX 24 24
REMARK H PARENT
REMARK Flexibility Score: inf
ROOT
ATOM      1  C   UNL     1     121.174 175.918 124.616  1.00  0.00     0.000 C 
ENDROOT
BRANCH   1   2
ATOM      2  C   UNL     1     121.824 176.316 125.952  1.00  0.00     0.000 C 
BRANCH   2   3
ATOM      3  C   UNL     1     122.425 177.731 125.920  1.00  0.00     0.000 C 
BRANCH   3   4
ATOM      4  C   UNL     1     122.219 178.493 127.237  1.00  0.00    -0.000 C 
BRANCH   4   5
ATOM      5  C   UNL     1     121.627 177.577 128.318  1.00  0.00    -0.000 C 
BRANCH   5   6
ATOM      6  C   UNL     1     121.329 178.318 129.633  1.00  0.00    -0.000 C 
BRANCH   6   7
ATOM      7  C   UNL     1     120.763 177.436 130.767  1.00  0.00    -0.000 C 
BRANCH   7   8
ATOM      8  C   UNL     1     120.463 175.980 130.372  1.00  0.00    -0.000 C 
BRANCH   8   9
ATOM      9  C   UNL     1     118.966 175.642 130.438  1.00  0.00    -0.000 C 
BRANCH   9  10
ATOM     10  C   UNL     1     118.615 174.523 129.449  1.00  0.00    -0.000 C 
BRANCH  10  11
ATOM     11  C   UNL     1     119.730 174.328 128.417  1.00  0.00    -0.003 C 
ATOM     12  C   UNL     1     119.165 173.892 127.069  1.00  0.00     0.004 C 
ENDBRANCH  10  11
ENDBRANCH   9  10
ENDBRANCH   8   9
ENDBRANCH   7   8
ENDBRANCH   6   7
ENDBRANCH   5   6
ENDBRANCH   4   5
ENDBRANCH   3   4
ENDBRANCH   2   3
ENDBRANCH   1   2
BRANCH   1  13
ATOM     13  C   UNL     1     120.735 177.138 123.789  1.00  0.00     0.000 C 
BRANCH  13  14
ATOM     14  C   UNL     1     119.242 177.462 123.957  1.00  0.00     0.000 C 
BRANCH  14  15
ATOM     15  C   UNL     1     118.995 178.920 124.388  1.00  0.00     0.000 C 
BRANCH  15  16
ATOM     16  C   UNL     1     118.873 179.137 125.909  1.00  0.00     0.000 C 
BRANCH  16  17
ATOM     17  C   UNL     1     118.620 177.860 126.734  1.00  0.00     0.000 C 
BRANCH  17  18
ATOM     18  C   UNL     1     117.628 178.025 127.900  1.00  0.00     0.000 C 
BRANCH  18  19
ATOM     19  C   UNL     1     116.441 177.055 127.812  1.00  0.00     0.000 C 
BRANCH  19  20
ATOM     20  C   UNL     1     116.422 176.331 126.460  1.00  0.00     0.006 C 
BRANCH  20  21
ATOM     21  C   UNL     1     115.163 176.690 125.665  1.00  0.00     0.053 C 
BRANCH  21  22
ATOM     22  C   UNL     1     115.372 177.954 124.893  1.00  0.00     0.041 C 
ATOM     23  O   UNL     1     115.253 179.071 125.463  1.00  0.00    -0.550 OA
ATOM     24  O   UNL     1     115.656 177.902 123.535  1.00  0.00    -0.550 OA
ENDBRANCH  21  22
ENDBRANCH  20  21
ENDBRANCH  19  20
ENDBRANCH  18  19
ENDBRANCH  17  18
ENDBRANCH  16  17
ENDBRANCH  15  16
ENDBRANCH  14  15
ENDBRANCH  13  14
ENDBRANCH   1  13
TORSDOF 20
ENDMDL
MODEL 2
REMARK VINA RESULT:    -5.029      2.391      5.520
REMARK INTER + INTRA:         -15.404
REMARK INTER:                 -11.434
REMARK INTRA:                  -3.971
REMARK UNBOUND:                -4.496
REMARK SMILES CCCCCCCCCCCCCCCCCCCCCC(=O)[O-]
REMARK SMILES IDX 12 1 11 2 10 3 9 4 8 5 7 6 6 7 5 8 4 9 3 10 2 11 1 12 13 13
REMARK SMILES IDX 14 14 15 15 16 16 17 17 18 18 19 19 20 20 21 21 22 22 23 23
REMARK SMILES IDX 24 24
REMARK H PARENT
REMARK Flexibility Score: inf
ROOT
ATOM      1  C   UNL     1     119.768 177.875 130.201  1.00  0.00     0.000 C 
ENDROOT
BRANCH   1   2
ATOM      2  C   UNL     1     119.278 176.594 130.898  1.00  0.00     0.000 C 
BRANCH   2   3
ATOM      3  C   UNL     1     119.493 175.335 130.041  1.00  0.00     0.000 C 
BRANCH   3   4
ATOM      4  C   UNL     1     118.173 174.692 129.590  1.00  0.00    -0.000 C 
BRANCH   4   5
ATOM      5  C   UNL     1     116.979 175.605 129.906  1.00  0.00    -0.000 C 
BRANCH   5   6
ATOM      6  C   UNL     1     116.171 175.990 128.654  1.00  0.00    -0.000 C 
BRANCH   6   7
ATOM      7  C   UNL     1     117.010 176.508 127.468  1.00  0.00    -0.000 C 
BRANCH   7   8
ATOM      8  C   UNL     1     117.205 178.033 127.423  1.00  0.00    -0.000 C 
BRANCH   8   9
ATOM      9  C   UNL     1     117.983 178.499 126.185  1.00  0.00    -0.000 C 
BRANCH   9  10
ATOM     10  C   UNL     1     117.447 177.824 124.915  1.00  0.00    -0.000 C 
BRANCH  10  11
ATOM     11  C   UNL     1     118.594 177.382 124.000  1.00  0.00    -0.003 C 
ATOM     12  C   UNL     1     119.239 178.578 123.306  1.00  0.00     0.004 C 
ENDBRANCH  10  11
ENDBRANCH   9  10
ENDBRANCH   8   9
ENDBRANCH   7   8
ENDBRANCH   6   7
ENDBRANCH   5   6
ENDBRANCH   4   5
ENDBRANCH   3   4
ENDBRANCH   2   3
ENDBRANCH   1   2
BRANCH   1  13
ATOM     13  C   UNL     1     120.543 177.581 128.906  1.00  0.00     0.000 C 
BRANCH  13  14
ATOM     14  C   UNL     1     121.845 178.391 128.798  1.00  0.00     0.000 C 
BRANCH  14  15
ATOM     15  C   UNL     1     122.118 178.891 127.367  1.00  0.00     0.000 C 
BRANCH  15  16
ATOM     16  C   UNL     1     121.479 178.045 126.249  1.00  0.00     0.000 C 
BRANCH  16  17
ATOM     17  C   UNL     1     122.349 176.884 125.729  1.00  0.00     0.000 C 
BRANCH  17  18
ATOM     18  C   UNL     1     121.576 175.602 125.369  1.00  0.00     0.000 C 
BRANCH  18  19
ATOM     19  C   UNL     1     120.527 175.224 126.425  1.00  0.00     0.000 C 
BRANCH  19  20
ATOM     20  C   UNL     1     119.501 174.239 125.853  1.00  0.00     0.006 C 
BRANCH  20  21
ATOM     21  C   UNL     1     119.703 172.837 126.436  1.00  0.00     0.053 C 
BRANCH  21  22
ATOM     22  C   UNL     1     118.389 172.232 126.815  1.00  0.00     0.041 C 
ATOM     23  O   UNL     1     118.348 171.094 127.353  1.00  0.00    -0.550 OA
ATOM     24  O   UNL     1     117.207 172.904 126.537  1.00  0.00    -0.550 OA
ENDBRANCH  21  22
ENDBRANCH  20  21
ENDBRANCH  19  20
ENDBRANCH  18  19
ENDBRANCH  17  18
ENDBRANCH  16  17
ENDBRANCH  15  16
ENDBRANCH  14  15
ENDBRANCH  13  14
ENDBRANCH   1  13
TORSDOF 20
ENDMDL
MODEL 3
REMARK VINA RESULT:    -4.976      2.436      5.262
REMARK INTER + INTRA:         -15.289
REMARK INTER:                 -11.611
REMARK INTRA:                  -3.678
REMARK UNBOUND:                -4.496
REMARK SMILES CCCCCCCCCCCCCCCCCCCCCC(=O)[O-]
REMARK SMILES IDX 12 1 11 2 10 3 9 4 8 5 7 6 6 7 5 8 4 9 3 10 2 11 1 12 13 13
REMARK SMILES IDX 14 14 15 15 16 16 17 17 18 18 19 19 20 20 21 21 22 22 23 23
REMARK SMILES IDX 24 24
REMARK H PARENT
REMARK Flexibility Score: inf
ROOT
ATOM      1  C   UNL     1     121.728 178.630 127.489  1.00  0.00     0.000 C 
ENDROOT
BRANCH   1   2
ATOM      2  C   UNL     1     122.304 177.863 126.286  1.00  0.00     0.000 C 
BRANCH   2   3
ATOM      3  C   UNL     1     121.486 176.609 125.938  1.00  0.00     0.000 C 
BRANCH   3   4
ATOM      4  C   UNL     1     120.804 176.707 124.565  1.00  0.00    -0.000 C 
BRANCH   4   5
ATOM      5  C   UNL     1     119.293 176.942 124.717  1.00  0.00    -0.000 C 
BRANCH   5   6
ATOM      6  C   UNL     1     118.873 178.381 124.368  1.00  0.00    -0.000 C 
BRANCH   6   7
ATOM      7  C   UNL     1     118.734 179.333 125.574  1.00  0.00    -0.000 C 
BRANCH   7   8
ATOM      8  C   UNL     1     118.049 178.725 126.809  1.00  0.00    -0.000 C 
BRANCH   8   9
ATOM      9  C   UNL     1     116.523 178.896 126.790  1.00  0.00    -0.000 C 
BRANCH   9  10
ATOM     10  C   UNL     1     115.818 177.541 126.930  1.00  0.00    -0.000 C 
BRANCH  10  11
ATOM     11  C   UNL     1     115.523 176.928 125.556  1.00  0.00    -0.003 C 
ATOM     12  C   UNL     1     115.178 178.007 124.534  1.00  0.00     0.004 C 
ENDBRANCH  10  11
ENDBRANCH   9  10
ENDBRANCH   8   9
ENDBRANCH   7   8
ENDBRANCH   6   7
ENDBRANCH   5   6
ENDBRANCH   4   5
ENDBRANCH   3   4
ENDBRANCH   2   3
ENDBRANCH   1   2
BRANCH   1  13
ATOM     13  C   UNL     1     121.944 177.888 128.818  1.00  0.00     0.000 C 
BRANCH  13  14
ATOM     14  C   UNL     1     120.746 178.022 129.772  1.00  0.00     0.000 C 
BRANCH  14  15
ATOM     15  C   UNL     1     120.557 176.783 130.667  1.00  0.00     0.000 C 
BRANCH  15  16
ATOM     16  C   UNL     1     119.117 176.240 130.731  1.00  0.00     0.000 C 
BRANCH  16  17
ATOM     17  C   UNL     1     118.392 176.147 129.375  1.00  0.00     0.000 C 
BRANCH  17  18
ATOM     18  C   UNL     1     119.075 175.243 128.332  1.00  0.00     0.000 C 
BRANCH  18  19
ATOM     19  C   UNL     1     118.077 174.601 127.357  1.00  0.00     0.000 C 
BRANCH  19  20
ATOM     20  C   UNL     1     118.792 173.661 126.380  1.00  0.00     0.006 C 
BRANCH  20  21
ATOM     21  C   UNL     1     118.894 172.246 126.956  1.00  0.00     0.053 C 
BRANCH  21  22
ATOM     22  C   UNL     1     117.614 171.501 126.750  1.00  0.00     0.041 C 
ATOM     23  O   UNL     1     117.363 170.473 127.433  1.00  0.00    -0.550 OA
ATOM     24  O   UNL     1     116.715 171.917 125.777  1.00  0.00    -0.550 OA
ENDBRANCH  21  22
ENDBRANCH  20  21
ENDBRANCH  19  20
ENDBRANCH  18  19
ENDBRANCH  17  18
ENDBRANCH  16  17
ENDBRANCH  15  16
ENDBRANCH  14  15
ENDBRANCH  13  14
ENDBRANCH   1  13
TORSDOF 20
ENDMDL
MODEL 4
REMARK VINA RESULT:    -4.967      1.350      3.149
REMARK INTER + INTRA:         -15.270
REMARK INTER:                 -11.520
REMARK INTRA:                  -3.750
REMARK UNBOUND:                -4.496
REMARK SMILES CCCCCCCCCCCCCCCCCCCCCC(=O)[O-]
REMARK SMILES IDX 12 1 11 2 10 3 9 4 8 5 7 6 6 7 5 8 4 9 3 10 2 11 1 12 13 13
REMARK SMILES IDX 14 14 15 15 16 16 17 17 18 18 19 19 20 20 21 21 22 22 23 23
REMARK SMILES IDX 24 24
REMARK H PARENT
REMARK Flexibility Score: inf
ROOT
ATOM      1  C   UNL     1     121.719 178.269 126.647  1.00  0.00     0.000 C 
ENDROOT
BRANCH   1   2
ATOM      2  C   UNL     1     121.615 177.902 128.137  1.00  0.00     0.000 C 
BRANCH   2   3
ATOM      3  C   UNL     1     120.328 177.129 128.468  1.00  0.00     0.000 C 
BRANCH   3   4
ATOM      4  C   UNL     1     119.575 177.715 129.671  1.00  0.00    -0.000 C 
BRANCH   4   5
ATOM      5  C   UNL     1     119.451 176.682 130.800  1.00  0.00    -0.000 C 
BRANCH   5   6
ATOM      6  C   UNL     1     118.649 175.436 130.386  1.00  0.00    -0.000 C 
BRANCH   6   7
ATOM      7  C   UNL     1     117.156 175.687 130.088  1.00  0.00    -0.000 C 
BRANCH   7   8
ATOM      8  C   UNL     1     116.731 175.437 128.631  1.00  0.00    -0.000 C 
BRANCH   8   9
ATOM      9  C   UNL     1     117.525 174.305 127.965  1.00  0.00    -0.000 C 
BRANCH   9  10
ATOM     10  C   UNL     1     118.269 174.815 126.723  1.00  0.00    -0.000 C 
BRANCH  10  11
ATOM     11  C   UNL     1     119.258 173.765 126.204  1.00  0.00    -0.003 C 
ATOM     12  C   UNL     1     120.518 173.721 127.062  1.00  0.00     0.004 C 
ENDBRANCH  10  11
ENDBRANCH   9  10
ENDBRANCH   8   9
ENDBRANCH   7   8
ENDBRANCH   6   7
ENDBRANCH   5   6
ENDBRANCH   4   5
ENDBRANCH   3   4
ENDBRANCH   2   3
ENDBRANCH   1   2
BRANCH   1  13
ATOM     13  C   UNL     1     122.890 177.561 125.946  1.00  0.00     0.000 C 
BRANCH  13  14
ATOM     14  C   UNL     1     122.435 176.363 125.096  1.00  0.00     0.000 C 
BRANCH  14  15
ATOM     15  C   UNL     1     120.984 176.502 124.602  1.00  0.00     0.000 C 
BRANCH  15  16
ATOM     16  C   UNL     1     120.807 177.359 123.333  1.00  0.00     0.000 C 
BRANCH  16  17
ATOM     17  C   UNL     1     119.567 178.274 123.330  1.00  0.00     0.000 C 
BRANCH  17  18
ATOM     18  C   UNL     1     118.496 177.922 124.378  1.00  0.00     0.000 C 
BRANCH  18  19
ATOM     19  C   UNL     1     118.346 179.002 125.460  1.00  0.00     0.000 C 
BRANCH  19  20
ATOM     20  C   UNL     1     117.514 178.486 126.639  1.00  0.00     0.006 C 
BRANCH  20  21
ATOM     21  C   UNL     1     116.093 179.055 126.598  1.00  0.00     0.053 C 
BRANCH  21  22
ATOM     22  C   UNL     1     115.106 177.979 126.276  1.00  0.00     0.041 C 
ATOM     23  O   UNL     1     113.886 178.135 126.550  1.00  0.00    -0.550 OA
ATOM     24  O   UNL     1     115.536 176.785 125.712  1.00  0.00    -0.550 OA
ENDBRANCH  21  22
ENDBRANCH  20  21
ENDBRANCH  19  20
ENDBRANCH  18  19
ENDBRANCH  17  18
ENDBRANCH  16  17
ENDBRANCH  15  16
ENDBRANCH  14  15
ENDBRANCH  13  14
ENDBRANCH   1  13
TORSDOF 20
ENDMDL
MODEL 5
REMARK VINA RESULT:    -4.959      2.335      4.508
REMARK INTER + INTRA:         -15.253
REMARK INTER:                 -11.291
REMARK INTRA:                  -3.961
REMARK UNBOUND:                -4.496
REMARK SMILES CCCCCCCCCCCCCCCCCCCCCC(=O)[O-]
REMARK SMILES IDX 12 1 11 2 10 3 9 4 8 5 7 6 6 7 5 8 4 9 3 10 2 11 1 12 13 13
REMARK SMILES IDX 14 14 15 15 16 16 17 17 18 18 19 19 20 20 21 21 22 22 23 23
REMARK SMILES IDX 24 24
REMARK H PARENT
REMARK Flexibility Score: inf
ROOT
ATOM      1  C   UNL     1     121.249 178.626 127.076  1.00  0.00     0.000 C 
ENDROOT
BRANCH   1   2
ATOM      2  C   UNL     1     121.765 178.026 128.395  1.00  0.00     0.000 C 
BRANCH   2   3
ATOM      3  C   UNL     1     120.672 177.939 129.473  1.00  0.00     0.000 C 
BRANCH   3   4
ATOM      4  C   UNL     1     120.971 176.873 130.537  1.00  0.00    -0.000 C 
BRANCH   4   5
ATOM      5  C   UNL     1     120.077 175.639 130.348  1.00  0.00    -0.000 C 
BRANCH   5   6
ATOM      6  C   UNL     1     118.637 175.861 130.847  1.00  0.00    -0.000 C 
BRANCH   6   7
ATOM      7  C   UNL     1     117.530 175.402 129.875  1.00  0.00    -0.000 C 
BRANCH   7   8
ATOM      8  C   UNL     1     117.435 176.208 128.568  1.00  0.00    -0.000 C 
BRANCH   8   9
ATOM      9  C   UNL     1     116.017 176.226 127.980  1.00  0.00    -0.000 C 
BRANCH   9  10
ATOM     10  C   UNL     1     116.060 176.274 126.447  1.00  0.00    -0.000 C 
BRANCH  10  11
ATOM     11  C   UNL     1     115.769 177.688 125.932  1.00  0.00    -0.003 C 
ATOM     12  C   UNL     1     115.342 177.665 124.468  1.00  0.00     0.004 C 
ENDBRANCH  10  11
ENDBRANCH   9  10
ENDBRANCH   8   9
ENDBRANCH   7   8
ENDBRANCH   6   7
ENDBRANCH   5   6
ENDBRANCH   4   5
ENDBRANCH   3   4
ENDBRANCH   2   3
ENDBRANCH   1   2
BRANCH   1  13
ATOM     13  C   UNL     1     119.736 178.423 126.889  1.00  0.00     0.000 C 
BRANCH  13  14
ATOM     14  C   UNL     1     119.218 179.015 125.568  1.00  0.00     0.000 C 
BRANCH  14  15
ATOM     15  C   UNL     1     119.216 177.991 124.418  1.00  0.00     0.000 C 
BRANCH  15  16
ATOM     16  C   UNL     1     119.326 176.518 124.858  1.00  0.00     0.000 C 
BRANCH  16  17
ATOM     17  C   UNL     1     120.672 175.839 124.537  1.00  0.00     0.000 C 
BRANCH  17  18
ATOM     18  C   UNL     1     121.076 174.708 125.501  1.00  0.00     0.000 C 
BRANCH  18  19
ATOM     19  C   UNL     1     120.447 174.862 126.894  1.00  0.00     0.000 C 
BRANCH  19  20
ATOM     20  C   UNL     1     119.694 173.590 127.301  1.00  0.00     0.006 C 
BRANCH  20  21
ATOM     21  C   UNL     1     118.565 173.282 126.312  1.00  0.00     0.053 C 
BRANCH  21  22
ATOM     22  C   UNL     1     117.564 172.360 126.930  1.00  0.00     0.041 C 
ATOM     23  O   UNL     1     117.537 172.198 128.179  1.00  0.00    -0.550 OA
ATOM     24  O   UNL     1     116.687 171.644 126.126  1.00  0.00    -0.550 OA
ENDBRANCH  21  22
ENDBRANCH  20  21
ENDBRANCH  19  20
ENDBRANCH  18  19
ENDBRANCH  17  18
ENDBRANCH  16  17
ENDBRANCH  15  16
ENDBRANCH  14  15
ENDBRANCH  13  14
ENDBRANCH   1  13
TORSDOF 20
ENDMDL
MODEL 6
REMARK VINA RESULT:    -4.869      2.549      5.473
REMARK INTER + INTRA:         -15.057
REMARK INTER:                 -11.483
REMARK INTRA:                  -3.575
REMARK UNBOUND:                -4.496
REMARK SMILES CCCCCCCCCCCCCCCCCCCCCC(=O)[O-]
REMARK SMILES IDX 12 1 11 2 10 3 9 4 8 5 7 6 6 7 5 8 4 9 3 10 2 11 1 12 13 13
REMARK SMILES IDX 14 14 15 15 16 16 17 17 18 18 19 19 20 20 21 21 22 22 23 23
REMARK SMILES IDX 24 24
REMARK H PARENT
REMARK Flexibility Score: inf
ROOT
ATOM      1  C   UNL     1     119.411 176.733 130.911  1.00  0.00     0.000 C 
ENDROOT
BRANCH   1   2
ATOM      2  C   UNL     1     120.002 177.914 130.122  1.00  0.00     0.000 C 
BRANCH   2   3
ATOM      3  C   UNL     1     120.650 177.476 128.799  1.00  0.00     0.000 C 
BRANCH   3   4
ATOM      4  C   UNL     1     121.923 178.270 128.470  1.00  0.00    -0.000 C 
BRANCH   4   5
ATOM      5  C   UNL     1     121.989 178.610 126.974  1.00  0.00    -0.000 C 
BRANCH   5   6
ATOM      6  C   UNL     1     122.774 177.568 126.157  1.00  0.00    -0.000 C 
BRANCH   6   7
ATOM      7  C   UNL     1     121.928 176.409 125.590  1.00  0.00    -0.000 C 
BRANCH   7   8
ATOM      8  C   UNL     1     121.734 176.428 124.064  1.00  0.00    -0.000 C 
BRANCH   8   9
ATOM      9  C   UNL     1     120.691 177.458 123.609  1.00  0.00    -0.000 C 
BRANCH   9  10
ATOM     10  C   UNL     1     119.404 177.336 124.435  1.00  0.00    -0.000 C 
BRANCH  10  11
ATOM     11  C   UNL     1     118.771 178.711 124.675  1.00  0.00    -0.003 C 
ATOM     12  C   UNL     1     118.485 178.935 126.157  1.00  0.00     0.004 C 
ENDBRANCH  10  11
ENDBRANCH   9  10
ENDBRANCH   8   9
ENDBRANCH   7   8
ENDBRANCH   6   7
ENDBRANCH   5   6
ENDBRANCH   4   5
ENDBRANCH   3   4
ENDBRANCH   2   3
ENDBRANCH   1   2
BRANCH   1  13
ATOM     13  C   UNL     1     119.602 175.389 130.190  1.00  0.00     0.000 C 
BRANCH  13  14
ATOM     14  C   UNL     1     118.321 174.538 130.173  1.00  0.00     0.000 C 
BRANCH  14  15
ATOM     15  C   UNL     1     117.094 175.300 130.707  1.00  0.00     0.000 C 
BRANCH  15  16
ATOM     16  C   UNL     1     116.060 175.699 129.636  1.00  0.00     0.000 C 
BRANCH  16  17
ATOM     17  C   UNL     1     116.625 176.497 128.446  1.00  0.00     0.000 C 
BRANCH  17  18
ATOM     18  C   UNL     1     115.922 176.243 127.100  1.00  0.00     0.000 C 
BRANCH  18  19
ATOM     19  C   UNL     1     116.840 175.575 126.066  1.00  0.00     0.000 C 
BRANCH  19  20
ATOM     20  C   UNL     1     117.484 174.308 126.641  1.00  0.00     0.006 C 
BRANCH  20  21
ATOM     21  C   UNL     1     118.999 174.312 126.415  1.00  0.00     0.053 C 
BRANCH  21  22
ATOM     22  C   UNL     1     119.596 173.008 126.838  1.00  0.00     0.041 C 
ATOM     23  O   UNL     1     120.441 172.972 127.773  1.00  0.00    -0.550 OA
ATOM     24  O   UNL     1     119.255 171.837 126.175  1.00  0.00    -0.550 OA
ENDBRANCH  21  22
ENDBRANCH  20  21
ENDBRANCH  19  20
ENDBRANCH  18  19
ENDBRANCH  17  18
ENDBRANCH  16  17
ENDBRANCH  15  16
ENDBRANCH  14  15
ENDBRANCH  13  14
ENDBRANCH   1  13
TORSDOF 20
ENDMDL
MODEL 7
REMARK VINA RESULT:    -4.867      1.362      5.045
REMARK INTER + INTRA:         -15.054
REMARK INTER:                 -11.276
REMARK INTRA:                  -3.779
REMARK UNBOUND:                -4.496
REMARK SMILES CCCCCCCCCCCCCCCCCCCCCC(=O)[O-]
REMARK SMILES IDX 12 1 11 2 10 3 9 4 8 5 7 6 6 7 5 8 4 9 3 10 2 11 1 12 13 13
REMARK SMILES IDX 14 14 15 15 16 16 17 17 18 18 19 19 20 20 21 21 22 22 23 23
REMARK SMILES IDX 24 24
REMARK H PARENT
REMARK Flexibility Score: inf
ROOT
ATOM      1  C   UNL     1     117.886 175.303 130.948  1.00  0.00     0.000 C 
ENDROOT
BRANCH   1   2
ATOM      2  C   UNL     1     117.055 175.330 129.654  1.00  0.00     0.000 C 
BRANCH   2   3
ATOM      3  C   UNL     1     117.331 174.119 128.748  1.00  0.00     0.000 C 
BRANCH   3   4
ATOM      4  C   UNL     1     117.957 172.939 129.507  1.00  0.00    -0.000 C 
BRANCH   4   5
ATOM      5  C   UNL     1     119.312 172.549 128.899  1.00  0.00    -0.000 C 
BRANCH   5   6
ATOM      6  C   UNL     1     120.075 173.751 128.316  1.00  0.00    -0.000 C 
BRANCH   6   7
ATOM      7  C   UNL     1     120.446 173.629 126.823  1.00  0.00    -0.000 C 
BRANCH   7   8
ATOM      8  C   UNL     1     119.754 174.641 125.894  1.00  0.00    -0.000 C 
BRANCH   8   9
ATOM      9  C   UNL     1     120.650 175.095 124.733  1.00  0.00    -0.000 C 
BRANCH   9  10
ATOM     10  C   UNL     1     122.091 175.318 125.209  1.00  0.00    -0.000 C 
BRANCH  10  11
ATOM     11  C   UNL     1     122.854 176.235 124.246  1.00  0.00    -0.003 C 
ATOM     12  C   UNL     1     121.954 176.713 123.110  1.00  0.00     0.004 C 
ENDBRANCH  10  11
ENDBRANCH   9  10
ENDBRANCH   8   9
ENDBRANCH   7   8
ENDBRANCH   6   7
ENDBRANCH   5   6
ENDBRANCH   4   5
ENDBRANCH   3   4
ENDBRANCH   2   3
ENDBRANCH   1   2
BRANCH   1  13
ATOM     13  C   UNL     1     119.117 176.221 130.877  1.00  0.00     0.000 C 
BRANCH  13  14
ATOM     14  C   UNL     1     119.028 177.242 129.731  1.00  0.00     0.000 C 
BRANCH  14  15
ATOM     15  C   UNL     1     120.393 177.863 129.380  1.00  0.00     0.000 C 
BRANCH  15  16
ATOM     16  C   UNL     1     120.980 177.422 128.025  1.00  0.00     0.000 C 
BRANCH  16  17
ATOM     17  C   UNL     1     120.849 178.455 126.889  1.00  0.00     0.000 C 
BRANCH  17  18
ATOM     18  C   UNL     1     119.413 178.688 126.385  1.00  0.00     0.000 C 
BRANCH  18  19
ATOM     19  C   UNL     1     119.277 178.496 124.867  1.00  0.00     0.000 C 
BRANCH  19  20
ATOM     20  C   UNL     1     117.967 177.780 124.519  1.00  0.00     0.006 C 
BRANCH  20  21
ATOM     21  C   UNL     1     117.208 177.379 125.787  1.00  0.00     0.053 C 
BRANCH  21  22
ATOM     22  C   UNL     1     115.732 177.451 125.561  1.00  0.00     0.041 C 
ATOM     23  O   UNL     1     115.275 177.564 124.392  1.00  0.00    -0.550 OA
ATOM     24  O   UNL     1     114.860 177.437 126.641  1.00  0.00    -0.550 OA
ENDBRANCH  21  22
ENDBRANCH  20  21
ENDBRANCH  19  20
ENDBRANCH  18  19
ENDBRANCH  17  18
ENDBRANCH  16  17
ENDBRANCH  15  16
ENDBRANCH  14  15
ENDBRANCH  13  14
ENDBRANCH   1  13
TORSDOF 20
ENDMDL
MODEL 8
REMARK VINA RESULT:    -4.841      2.853      5.250
REMARK INTER + INTRA:         -14.998
REMARK INTER:                 -11.252
REMARK INTRA:                  -3.746
REMARK UNBOUND:                -4.496
REMARK SMILES CCCCCCCCCCCCCCCCCCCCCC(=O)[O-]
REMARK SMILES IDX 12 1 11 2 10 3 9 4 8 5 7 6 6 7 5 8 4 9 3 10 2 11 1 12 13 13
REMARK SMILES IDX 14 14 15 15 16 16 17 17 18 18 19 19 20 20 21 21 22 22 23 23
REMARK SMILES IDX 24 24
REMARK H PARENT
REMARK Flexibility Score: inf
ROOT
ATOM      1  C   UNL     1     115.490 177.632 126.455  1.00  0.00     0.000 C 
ENDROOT
BRANCH   1   2
ATOM      2  C   UNL     1     115.687 176.789 127.727  1.00  0.00     0.000 C 
BRANCH   2   3
ATOM      3  C   UNL     1     116.844 175.785 127.598  1.00  0.00     0.000 C 
BRANCH   3   4
ATOM      4  C   UNL     1     116.937 174.830 128.797  1.00  0.00    -0.000 C 
BRANCH   4   5
ATOM      5  C   UNL     1     116.879 175.602 130.123  1.00  0.00    -0.000 C 
BRANCH   5   6
ATOM      6  C   UNL     1     118.065 175.288 131.052  1.00  0.00    -0.000 C 
BRANCH   6   7
ATOM      7  C   UNL     1     119.402 175.946 130.652  1.00  0.00    -0.000 C 
BRANCH   7   8
ATOM      8  C   UNL     1     119.389 177.484 130.626  1.00  0.00    -0.000 C 
BRANCH   8   9
ATOM      9  C   UNL     1     119.276 178.055 129.205  1.00  0.00    -0.000 C 
BRANCH   9  10
ATOM     10  C   UNL     1     120.241 177.342 128.250  1.00  0.00    -0.000 C 
BRANCH  10  11
ATOM     11  C   UNL     1     121.667 177.882 128.402  1.00  0.00    -0.003 C 
ATOM     12  C   UNL     1     121.955 178.975 127.377  1.00  0.00     0.004 C 
ENDBRANCH  10  11
ENDBRANCH   9  10
ENDBRANCH   8   9
ENDBRANCH   7   8
ENDBRANCH   6   7
ENDBRANCH   5   6
ENDBRANCH   4   5
ENDBRANCH   3   4
ENDBRANCH   2   3
ENDBRANCH   1   2
BRANCH   1  13
ATOM     13  C   UNL     1     116.056 179.054 126.598  1.00  0.00     0.000 C 
BRANCH  13  14
ATOM     14  C   UNL     1     117.528 179.153 126.167  1.00  0.00     0.000 C 
BRANCH  14  15
ATOM     15  C   UNL     1     117.881 178.181 125.027  1.00  0.00     0.000 C 
BRANCH  15  16
ATOM     16  C   UNL     1     119.287 178.367 124.423  1.00  0.00     0.000 C 
BRANCH  16  17
ATOM     17  C   UNL     1     120.242 177.172 124.608  1.00  0.00     0.000 C 
BRANCH  17  18
ATOM     18  C   UNL     1     119.551 175.825 124.888  1.00  0.00     0.000 C 
BRANCH  18  19
ATOM     19  C   UNL     1     120.429 174.865 125.705  1.00  0.00     0.000 C 
BRANCH  19  20
ATOM     20  C   UNL     1     119.602 173.697 126.255  1.00  0.00     0.006 C 
BRANCH  20  21
ATOM     21  C   UNL     1     120.200 173.172 127.564  1.00  0.00     0.053 C 
BRANCH  21  22
ATOM     22  C   UNL     1     119.363 172.062 128.114  1.00  0.00     0.041 C 
ATOM     23  O   UNL     1     119.725 171.451 129.155  1.00  0.00    -0.550 OA
ATOM     24  O   UNL     1     118.203 171.672 127.458  1.00  0.00    -0.550 OA
ENDBRANCH  21  22
ENDBRANCH  20  21
ENDBRANCH  19  20
ENDBRANCH  18  19
ENDBRANCH  17  18
ENDBRANCH  16  17
ENDBRANCH  15  16
ENDBRANCH  14  15
ENDBRANCH  13  14
ENDBRANCH   1  13
TORSDOF 20
ENDMDL
MODEL 9
REMARK VINA RESULT:    -4.807      2.851      5.622
REMARK INTER + INTRA:         -14.924
REMARK INTER:                 -10.961
REMARK INTRA:                  -3.963
REMARK UNBOUND:                -4.496
REMARK SMILES CCCCCCCCCCCCCCCCCCCCCC(=O)[O-]
REMARK SMILES IDX 12 1 11 2 10 3 9 4 8 5 7 6 6 7 5 8 4 9 3 10 2 11 1 12 13 13
REMARK SMILES IDX 14 14 15 15 16 16 17 17 18 18 19 19 20 20 21 21 22 22 23 23
REMARK SMILES IDX 24 24
REMARK H PARENT
REMARK Flexibility Score: inf
ROOT
ATOM      1  C   UNL     1     121.059 178.586 126.677  1.00  0.00     0.000 C 
ENDROOT
BRANCH   1   2
ATOM      2  C   UNL     1     119.523 178.609 126.603  1.00  0.00     0.000 C 
BRANCH   2   3
ATOM      3  C   UNL     1     118.997 178.465 125.166  1.00  0.00     0.000 C 
BRANCH   3   4
ATOM      4  C   UNL     1     118.007 177.301 125.009  1.00  0.00    -0.000 C 
BRANCH   4   5
ATOM      5  C   UNL     1     117.786 176.583 126.349  1.00  0.00    -0.000 C 
BRANCH   5   6
ATOM      6  C   UNL     1     118.247 175.114 126.324  1.00  0.00    -0.000 C 
BRANCH   6   7
ATOM      7  C   UNL     1     119.609 174.845 126.997  1.00  0.00    -0.000 C 
BRANCH   7   8
ATOM      8  C   UNL     1     120.690 174.262 126.071  1.00  0.00    -0.000 C 
BRANCH   8   9
ATOM      9  C   UNL     1     121.080 175.218 124.935  1.00  0.00    -0.000 C 
BRANCH   9  10
ATOM     10  C   UNL     1     122.577 175.553 124.992  1.00  0.00    -0.000 C 
BRANCH  10  11
ATOM     11  C   UNL     1     122.913 176.732 124.071  1.00  0.00    -0.003 C 
ATOM     12  C   UNL     1     122.003 176.752 122.846  1.00  0.00     0.004 C 
ENDBRANCH  10  11
ENDBRANCH   9  10
ENDBRANCH   8   9
ENDBRANCH   7   8
ENDBRANCH   6   7
ENDBRANCH   5   6
ENDBRANCH   4   5
ENDBRANCH   3   4
ENDBRANCH   2   3
ENDBRANCH   1   2
BRANCH   1  13
ATOM     13  C   UNL     1     121.578 177.886 127.943  1.00  0.00     0.000 C 
BRANCH  13  14
ATOM     14  C   UNL     1     120.529 177.840 129.067  1.00  0.00     0.000 C 
BRANCH  14  15
ATOM     15  C   UNL     1     120.815 176.739 130.104  1.00  0.00     0.000 C 
BRANCH  15  16
ATOM     16  C   UNL     1     119.620 176.364 131.001  1.00  0.00     0.000 C 
BRANCH  16  17
ATOM     17  C   UNL     1     118.333 175.975 130.247  1.00  0.00     0.000 C 
BRANCH  17  18
ATOM     18  C   UNL     1     117.654 174.685 130.741  1.00  0.00     0.000 C 
BRANCH  18  19
ATOM     19  C   UNL     1     117.345 173.702 129.602  1.00  0.00     0.000 C 
BRANCH  19  20
ATOM     20  C   UNL     1     117.765 172.276 129.978  1.00  0.00     0.006 C 
BRANCH  20  21
ATOM     21  C   UNL     1     118.879 171.772 129.057  1.00  0.00     0.053 C 
BRANCH  21  22
ATOM     22  C   UNL     1     118.303 171.188 127.807  1.00  0.00     0.041 C 
ATOM     23  O   UNL     1     118.929 171.280 126.717  1.00  0.00    -0.550 OA
ATOM     24  O   UNL     1     117.056 170.578 127.833  1.00  0.00    -0.550 OA
ENDBRANCH  21  22
ENDBRANCH  20  21
ENDBRANCH  19  20
ENDBRANCH  18  19
ENDBRANCH  17  18
ENDBRANCH  16  17
ENDBRANCH  15  16
ENDBRANCH  14  15
ENDBRANCH  13  14
ENDBRANCH   1  13
TORSDOF 20
ENDMDL
