MODEL 1
REMARK VINA RESULT:    -6.080      0.000      0.000
REMARK INTER + INTRA:          -7.463
REMARK INTER:                  -7.146
REMARK INTRA:                  -0.317
REMARK UNBOUND:                -0.317
REMARK SMILES O=c1cc(-c2ccc(O)c(O)c2)oc2cc(O)cc(O)c12
REMARK SMILES IDX 4 1 3 2 2 3 1 4 21 5 19 6 18 7 16 8 15 9 14 10 13 11 5 12
REMARK SMILES IDX 6 13 7 14 8 15 12 16 10 17 9 18 11 20 20 22 17 24
REMARK H PARENT 9 19 11 21 20 23 17 25
REMARK Flexibility Score: inf
ROOT
ATOM      1  C   UNL     1      -0.234 -18.641  -7.969  1.00  0.00     0.138 A 
ATOM      2  C   UNL     1      -1.367 -18.258  -8.701  1.00  0.00     0.100 A 
ATOM      3  C   UNL     1      -1.925 -16.995  -8.500  1.00  0.00     0.197 A 
ATOM      4  O   UNL     1      -2.975 -16.704  -9.130  1.00  0.00    -0.289 OA
ATOM      5  C   UNL     1      -1.323 -16.097  -7.587  1.00  0.00     0.107 A 
ATOM      6  C   UNL     1      -1.783 -14.770  -7.325  1.00  0.00     0.134 A 
ATOM      7  C   UNL     1      -1.163 -14.009  -6.327  1.00  0.00     0.093 A 
ATOM      8  C   UNL     1      -0.065 -14.501  -5.622  1.00  0.00     0.123 A 
ATOM      9  C   UNL     1       0.425 -15.777  -5.904  1.00  0.00     0.094 A 
ATOM     10  C   UNL     1      -0.194 -16.574  -6.870  1.00  0.00     0.146 A 
ATOM     11  O   UNL     1       0.293 -17.790  -7.096  1.00  0.00    -0.456 OA
ENDROOT
BRANCH   1  12
ATOM     12  C   UNL     1       0.402 -19.970  -8.146  1.00  0.00     0.021 A 
ATOM     13  C   UNL     1       0.015 -20.845  -9.179  1.00  0.00     0.016 A 
ATOM     14  C   UNL     1       0.624 -22.096  -9.313  1.00  0.00     0.051 A 
ATOM     15  C   UNL     1       1.621 -22.497  -8.421  1.00  0.00     0.157 A 
ATOM     16  C   UNL     1       1.397 -20.386  -7.242  1.00  0.00     0.062 A 
ATOM     17  C   UNL     1       2.010 -21.640  -7.378  1.00  0.00     0.158 A 
BRANCH  15  18
ATOM     18  O   UNL     1       2.213 -23.750  -8.582  1.00  0.00    -0.504 OA
ATOM     19  H   UNL     1       2.946 -24.082  -7.968  1.00  0.00     0.293 HD
ENDBRANCH  15  18
BRANCH  17  20
ATOM     20  O   UNL     1       3.001 -22.036  -6.481  1.00  0.00    -0.504 OA
ATOM     21  H   UNL     1       2.777 -22.535  -5.628  1.00  0.00     0.293 HD
ENDBRANCH  17  20
ENDBRANCH   1  12
BRANCH   6  22
ATOM     22  O   UNL     1      -2.822 -14.149  -8.025  1.00  0.00    -0.507 OA
ATOM     23  H   UNL     1      -2.889 -13.160  -8.208  1.00  0.00     0.293 HD
ENDBRANCH   6  22
BRANCH   8  24
ATOM     24  O   UNL     1       0.536 -13.709  -4.647  1.00  0.00    -0.508 OA
ATOM     25  H   UNL     1       1.447 -13.940  -4.263  1.00  0.00     0.293 HD
ENDBRANCH   8  24
TORSDOF 5
ENDMDL
MODEL 2
REMARK VINA RESULT:    -6.055      1.578      7.337
REMARK INTER + INTRA:          -7.433
REMARK INTER:                  -7.117
REMARK INTRA:                  -0.316
REMARK UNBOUND:                -0.317
REMARK SMILES O=c1cc(-c2ccc(O)c(O)c2)oc2cc(O)cc(O)c12
REMARK SMILES IDX 4 1 3 2 2 3 1 4 21 5 19 6 18 7 16 8 15 9 14 10 13 11 5 12
REMARK SMILES IDX 6 13 7 14 8 15 12 16 10 17 9 18 11 20 20 22 17 24
REMARK H PARENT 9 19 11 21 20 23 17 25
REMARK Flexibility Score: inf
ROOT
ATOM      1  C   UNL     1       0.197 -18.159  -7.596  1.00  0.00     0.138 A 
ATOM      2  C   UNL     1       1.401 -18.777  -7.228  1.00  0.00     0.100 A 
ATOM      3  C   UNL     1       1.672 -20.075  -7.663  1.00  0.00     0.197 A 
ATOM      4  O   UNL     1       2.734 -20.622  -7.269  1.00  0.00    -0.289 OA
ATOM      5  C   UNL     1       0.749 -20.744  -8.502  1.00  0.00     0.107 A 
ATOM      6  C   UNL     1       0.934 -22.055  -9.036  1.00  0.00     0.134 A 
ATOM      7  C   UNL     1      -0.095 -22.652  -9.774  1.00  0.00     0.093 A 
ATOM      8  C   UNL     1      -1.278 -21.965 -10.048  1.00  0.00     0.123 A 
ATOM      9  C   UNL     1      -1.450 -20.664  -9.574  1.00  0.00     0.094 A 
ATOM     10  C   UNL     1      -0.456 -20.055  -8.805  1.00  0.00     0.146 A 
ATOM     11  O   UNL     1      -0.667 -18.821  -8.358  1.00  0.00    -0.456 OA
ENDROOT
BRANCH   1  12
ATOM     12  C   UNL     1      -0.141 -16.780  -7.164  1.00  0.00     0.021 A 
ATOM     13  C   UNL     1       0.589 -16.119  -6.158  1.00  0.00     0.016 A 
ATOM     14  C   UNL     1       0.240 -14.825  -5.764  1.00  0.00     0.051 A 
ATOM     15  C   UNL     1      -0.842 -14.170  -6.359  1.00  0.00     0.157 A 
ATOM     16  C   UNL     1      -1.238 -16.122  -7.749  1.00  0.00     0.062 A 
ATOM     17  C   UNL     1      -1.587 -14.821  -7.355  1.00  0.00     0.158 A 
BRANCH  15  18
ATOM     18  O   UNL     1      -1.164 -12.878  -5.946  1.00  0.00    -0.504 OA
ATOM     19  H   UNL     1      -1.502 -12.679  -5.012  1.00  0.00     0.293 HD
ENDBRANCH  15  18
BRANCH  17  20
ATOM     20  O   UNL     1      -2.671 -14.177  -7.950  1.00  0.00    -0.504 OA
ATOM     21  H   UNL     1      -3.546 -14.658  -8.121  1.00  0.00     0.293 HD
ENDBRANCH  17  20
ENDBRANCH   1  12
BRANCH   6  22
ATOM     22  O   UNL     1       2.108 -22.801  -8.891  1.00  0.00    -0.507 OA
ATOM     23  H   UNL     1       2.219 -23.766  -9.160  1.00  0.00     0.293 HD
ENDBRANCH   6  22
BRANCH   8  24
ATOM     24  O   UNL     1      -2.273 -22.585 -10.800  1.00  0.00    -0.508 OA
ATOM     25  H   UNL     1      -3.013 -22.051 -11.242  1.00  0.00     0.293 HD
ENDBRANCH   8  24
TORSDOF 5
ENDMDL
MODEL 3
REMARK VINA RESULT:    -6.015      1.646      2.374
REMARK INTER + INTRA:          -7.386
REMARK INTER:                  -7.092
REMARK INTRA:                  -0.294
REMARK UNBOUND:                -0.317
REMARK SMILES O=c1cc(-c2ccc(O)c(O)c2)oc2cc(O)cc(O)c12
REMARK SMILES IDX 4 1 3 2 2 3 1 4 21 5 19 6 18 7 16 8 15 9 14 10 13 11 5 12
REMARK SMILES IDX 6 13 7 14 8 15 12 16 10 17 9 18 11 20 20 22 17 24
REMARK H PARENT 9 19 11 21 20 23 17 25
REMARK Flexibility Score: inf
ROOT
ATOM      1  C   UNL     1      -1.202 -18.870  -8.718  1.00  0.00     0.138 A 
ATOM      2  C   UNL     1      -2.319 -18.186  -9.219  1.00  0.00     0.100 A 
ATOM      3  C   UNL     1      -2.599 -16.896  -8.765  1.00  0.00     0.197 A 
ATOM      4  O   UNL     1      -3.639 -16.331  -9.191  1.00  0.00    -0.289 OA
ATOM      5  C   UNL     1      -1.734 -16.274  -7.833  1.00  0.00     0.107 A 
ATOM      6  C   UNL     1      -1.899 -14.949  -7.325  1.00  0.00     0.134 A 
ATOM      7  C   UNL     1      -1.033 -14.478  -6.331  1.00  0.00     0.093 A 
ATOM      8  C   UNL     1       0.026 -15.259  -5.868  1.00  0.00     0.123 A 
ATOM      9  C   UNL     1       0.227 -16.536  -6.391  1.00  0.00     0.094 A 
ATOM     10  C   UNL     1      -0.641 -17.048  -7.360  1.00  0.00     0.146 A 
ATOM     11  O   UNL     1      -0.425 -18.276  -7.820  1.00  0.00    -0.456 OA
ENDROOT
BRANCH   1  12
ATOM     12  C   UNL     1      -0.856 -20.242  -9.167  1.00  0.00     0.021 A 
ATOM     13  C   UNL     1       0.362 -20.852  -8.812  1.00  0.00     0.016 A 
ATOM     14  C   UNL     1       0.665 -22.141  -9.260  1.00  0.00     0.051 A 
ATOM     15  C   UNL     1      -0.233 -22.839 -10.070  1.00  0.00     0.157 A 
ATOM     16  C   UNL     1      -1.751 -20.945  -9.995  1.00  0.00     0.062 A 
ATOM     17  C   UNL     1      -1.447 -22.239 -10.442  1.00  0.00     0.158 A 
BRANCH  15  18
ATOM     18  O   UNL     1       0.096 -24.125 -10.498  1.00  0.00    -0.504 OA
ATOM     19  H   UNL     1       1.052 -24.400 -10.690  1.00  0.00     0.293 HD
ENDBRANCH  15  18
BRANCH  17  20
ATOM     20  O   UNL     1      -2.347 -22.927 -11.255  1.00  0.00    -0.504 OA
ATOM     21  H   UNL     1      -2.851 -23.740 -10.920  1.00  0.00     0.293 HD
ENDBRANCH  17  20
ENDBRANCH   1  12
BRANCH   6  22
ATOM     22  O   UNL     1      -2.874 -14.054  -7.776  1.00  0.00    -0.507 OA
ATOM     23  H   UNL     1      -3.161 -13.218  -7.293  1.00  0.00     0.293 HD
ENDBRANCH   6  22
BRANCH   8  24
ATOM     24  O   UNL     1       0.876 -14.751  -4.888  1.00  0.00    -0.508 OA
ATOM     25  H   UNL     1       0.772 -15.006  -3.912  1.00  0.00     0.293 HD
ENDBRANCH   8  24
TORSDOF 5
ENDMDL
MODEL 4
REMARK VINA RESULT:    -5.915      1.630      3.221
REMARK INTER + INTRA:          -7.269
REMARK INTER:                  -6.952
REMARK INTRA:                  -0.317
REMARK UNBOUND:                -0.317
REMARK SMILES O=c1cc(-c2ccc(O)c(O)c2)oc2cc(O)cc(O)c12
REMARK SMILES IDX 4 1 3 2 2 3 1 4 21 5 19 6 18 7 16 8 15 9 14 10 13 11 5 12
REMARK SMILES IDX 6 13 7 14 8 15 12 16 10 17 9 18 11 20 20 22 17 24
REMARK H PARENT 9 19 11 21 20 23 17 25
REMARK Flexibility Score: inf
ROOT
ATOM      1  C   UNL     1       0.452 -19.008  -7.782  1.00  0.00     0.138 A 
ATOM      2  C   UNL     1       1.432 -18.630  -6.853  1.00  0.00     0.100 A 
ATOM      3  C   UNL     1       1.385 -17.360  -6.278  1.00  0.00     0.197 A 
ATOM      4  O   UNL     1       2.310 -17.031  -5.491  1.00  0.00    -0.289 OA
ATOM      5  C   UNL     1       0.330 -16.476  -6.608  1.00  0.00     0.107 A 
ATOM      6  C   UNL     1       0.159 -15.169  -6.059  1.00  0.00     0.134 A 
ATOM      7  C   UNL     1      -0.870 -14.348  -6.536  1.00  0.00     0.093 A 
ATOM      8  C   UNL     1      -1.769 -14.805  -7.499  1.00  0.00     0.123 A 
ATOM      9  C   UNL     1      -1.643 -16.098  -8.008  1.00  0.00     0.094 A 
ATOM     10  C   UNL     1      -0.605 -16.929  -7.576  1.00  0.00     0.146 A 
ATOM     11  O   UNL     1      -0.510 -18.148  -8.099  1.00  0.00    -0.456 OA
ENDROOT
BRANCH   1  12
ATOM     12  C   UNL     1       0.452 -20.347  -8.422  1.00  0.00     0.021 A 
ATOM     13  C   UNL     1       1.526 -21.244  -8.263  1.00  0.00     0.016 A 
ATOM     14  C   UNL     1       1.502 -22.494  -8.888  1.00  0.00     0.051 A 
ATOM     15  C   UNL     1       0.417 -22.869  -9.682  1.00  0.00     0.157 A 
ATOM     16  C   UNL     1      -0.632 -20.725  -9.235  1.00  0.00     0.062 A 
ATOM     17  C   UNL     1      -0.656 -21.981  -9.860  1.00  0.00     0.158 A 
BRANCH  15  18
ATOM     18  O   UNL     1       0.421 -24.125 -10.290  1.00  0.00    -0.504 OA
ATOM     19  H   UNL     1      -0.433 -24.588 -10.574  1.00  0.00     0.293 HD
ENDBRANCH  15  18
BRANCH  17  20
ATOM     20  O   UNL     1      -1.741 -22.346 -10.655  1.00  0.00    -0.504 OA
ATOM     21  H   UNL     1      -2.535 -22.847 -10.274  1.00  0.00     0.293 HD
ENDBRANCH  17  20
ENDBRANCH   1  12
BRANCH   6  22
ATOM     22  O   UNL     1       0.951 -14.640  -5.034  1.00  0.00    -0.507 OA
ATOM     23  H   UNL     1       0.602 -14.168  -4.216  1.00  0.00     0.293 HD
ENDBRANCH   6  22
BRANCH   8  24
ATOM     24  O   UNL     1      -2.790 -13.965  -7.939  1.00  0.00    -0.508 OA
ATOM     25  H   UNL     1      -3.646 -14.336  -8.337  1.00  0.00     0.293 HD
ENDBRANCH   8  24
TORSDOF 5
ENDMDL
MODEL 5
REMARK VINA RESULT:    -5.586      2.115      7.271
REMARK INTER + INTRA:          -6.882
REMARK INTER:                  -6.598
REMARK INTRA:                  -0.284
REMARK UNBOUND:                -0.317
REMARK SMILES O=c1cc(-c2ccc(O)c(O)c2)oc2cc(O)cc(O)c12
REMARK SMILES IDX 4 1 3 2 2 3 1 4 21 5 19 6 18 7 16 8 15 9 14 10 13 11 5 12
REMARK SMILES IDX 6 13 7 14 8 15 12 16 10 17 9 18 11 20 20 22 17 24
REMARK H PARENT 9 19 11 21 20 23 17 25
REMARK Flexibility Score: inf
ROOT
ATOM      1  C   UNL     1      -1.037 -15.673  -6.328  1.00  0.00     0.138 A 
ATOM      2  C   UNL     1      -2.000 -16.123  -7.242  1.00  0.00     0.100 A 
ATOM      3  C   UNL     1      -1.786 -17.312  -7.941  1.00  0.00     0.197 A 
ATOM      4  O   UNL     1      -2.642 -17.658  -8.796  1.00  0.00    -0.289 OA
ATOM      5  C   UNL     1      -0.618 -18.072  -7.697  1.00  0.00     0.107 A 
ATOM      6  C   UNL     1      -0.309 -19.318  -8.325  1.00  0.00     0.134 A 
ATOM      7  C   UNL     1       0.925 -19.929  -8.075  1.00  0.00     0.093 A 
ATOM      8  C   UNL     1       1.836 -19.374  -7.177  1.00  0.00     0.123 A 
ATOM      9  C   UNL     1       1.525 -18.184  -6.519  1.00  0.00     0.094 A 
ATOM     10  C   UNL     1       0.316 -17.531  -6.774  1.00  0.00     0.146 A 
ATOM     11  O   UNL     1       0.066 -16.390  -6.140  1.00  0.00    -0.456 OA
ENDROOT
BRANCH   1  12
ATOM     12  C   UNL     1      -1.214 -14.419  -5.555  1.00  0.00     0.021 A 
ATOM     13  C   UNL     1      -0.118 -13.619  -5.180  1.00  0.00     0.016 A 
ATOM     14  C   UNL     1      -0.315 -12.448  -4.442  1.00  0.00     0.051 A 
ATOM     15  C   UNL     1      -1.601 -12.059  -4.061  1.00  0.00     0.157 A 
ATOM     16  C   UNL     1      -2.505 -14.029  -5.155  1.00  0.00     0.062 A 
ATOM     17  C   UNL     1      -2.703 -12.853  -4.416  1.00  0.00     0.158 A 
BRANCH  15  18
ATOM     18  O   UNL     1      -1.765 -10.884  -3.327  1.00  0.00    -0.504 OA
ATOM     19  H   UNL     1      -2.071 -10.891  -2.362  1.00  0.00     0.293 HD
ENDBRANCH  15  18
BRANCH  17  20
ATOM     20  O   UNL     1      -3.989 -12.474  -4.036  1.00  0.00    -0.504 OA
ATOM     21  H   UNL     1      -4.176 -11.567  -3.625  1.00  0.00     0.293 HD
ENDBRANCH  17  20
ENDBRANCH   1  12
BRANCH   6  22
ATOM     22  O   UNL     1      -1.181 -20.001  -9.178  1.00  0.00    -0.507 OA
ATOM     23  H   UNL     1      -1.199 -19.913 -10.182  1.00  0.00     0.293 HD
ENDBRANCH   6  22
BRANCH   8  24
ATOM     24  O   UNL     1       3.048 -20.020  -6.942  1.00  0.00    -0.508 OA
ATOM     25  H   UNL     1       3.736 -19.639  -6.301  1.00  0.00     0.293 HD
ENDBRANCH   8  24
TORSDOF 5
ENDMDL
MODEL 6
REMARK VINA RESULT:    -5.534      2.753      3.827
REMARK INTER + INTRA:          -6.822
REMARK INTER:                  -6.534
REMARK INTRA:                  -0.288
REMARK UNBOUND:                -0.317
REMARK SMILES O=c1cc(-c2ccc(O)c(O)c2)oc2cc(O)cc(O)c12
REMARK SMILES IDX 4 1 3 2 2 3 1 4 21 5 19 6 18 7 16 8 15 9 14 10 13 11 5 12
REMARK SMILES IDX 6 13 7 14 8 15 12 16 10 17 9 18 11 20 20 22 17 24
REMARK H PARENT 9 19 11 21 20 23 17 25
REMARK Flexibility Score: inf
ROOT
ATOM      1  C   UNL     1       1.852 -17.465  -5.905  1.00  0.00     0.138 A 
ATOM      2  C   UNL     1       1.199 -18.002  -7.023  1.00  0.00     0.100 A 
ATOM      3  C   UNL     1       0.154 -17.295  -7.619  1.00  0.00     0.197 A 
ATOM      4  O   UNL     1      -0.449 -17.830  -8.585  1.00  0.00    -0.289 OA
ATOM      5  C   UNL     1      -0.216 -16.026  -7.114  1.00  0.00     0.107 A 
ATOM      6  C   UNL     1      -1.243 -15.197  -7.661  1.00  0.00     0.134 A 
ATOM      7  C   UNL     1      -1.585 -14.004  -7.014  1.00  0.00     0.093 A 
ATOM      8  C   UNL     1      -0.899 -13.578  -5.876  1.00  0.00     0.123 A 
ATOM      9  C   UNL     1       0.139 -14.354  -5.361  1.00  0.00     0.094 A 
ATOM     10  C   UNL     1       0.481 -15.567  -5.964  1.00  0.00     0.146 A 
ATOM     11  O   UNL     1       1.465 -16.285  -5.431  1.00  0.00    -0.456 OA
ENDROOT
BRANCH   1  12
ATOM     12  C   UNL     1       2.971 -18.172  -5.234  1.00  0.00     0.021 A 
ATOM     13  C   UNL     1       3.959 -17.477  -4.511  1.00  0.00     0.016 A 
ATOM     14  C   UNL     1       5.007 -18.169  -3.900  1.00  0.00     0.051 A 
ATOM     15  C   UNL     1       5.093 -19.559  -4.002  1.00  0.00     0.157 A 
ATOM     16  C   UNL     1       3.071 -19.571  -5.345  1.00  0.00     0.062 A 
ATOM     17  C   UNL     1       4.122 -20.265  -4.729  1.00  0.00     0.158 A 
BRANCH  15  18
ATOM     18  O   UNL     1       6.150 -20.222  -3.378  1.00  0.00    -0.504 OA
ATOM     19  H   UNL     1       6.931 -20.602  -3.900  1.00  0.00     0.293 HD
ENDBRANCH  15  18
BRANCH  17  20
ATOM     20  O   UNL     1       4.204 -21.653  -4.840  1.00  0.00    -0.504 OA
ATOM     21  H   UNL     1       3.409 -22.210  -5.133  1.00  0.00     0.293 HD
ENDBRANCH  17  20
ENDBRANCH   1  12
BRANCH   6  22
ATOM     22  O   UNL     1      -1.937 -15.487  -8.839  1.00  0.00    -0.507 OA
ATOM     23  H   UNL     1      -1.510 -15.719  -9.722  1.00  0.00     0.293 HD
ENDBRANCH   6  22
BRANCH   8  24
ATOM     24  O   UNL     1      -1.257 -12.376  -5.269  1.00  0.00    -0.508 OA
ATOM     25  H   UNL     1      -0.580 -11.636  -5.121  1.00  0.00     0.293 HD
ENDBRANCH   8  24
TORSDOF 5
ENDMDL
MODEL 7
REMARK VINA RESULT:    -5.454     10.729     12.098
REMARK INTER + INTRA:          -6.727
REMARK INTER:                  -6.460
REMARK INTRA:                  -0.268
REMARK UNBOUND:                -0.317
REMARK SMILES O=c1cc(-c2ccc(O)c(O)c2)oc2cc(O)cc(O)c12
REMARK SMILES IDX 4 1 3 2 2 3 1 4 21 5 19 6 18 7 16 8 15 9 14 10 13 11 5 12
REMARK SMILES IDX 6 13 7 14 8 15 12 16 10 17 9 18 11 20 20 22 17 24
REMARK H PARENT 9 19 11 21 20 23 17 25
REMARK Flexibility Score: inf
ROOT
ATOM      1  C   UNL     1      11.073 -17.525  -6.534  1.00  0.00     0.138 A 
ATOM      2  C   UNL     1       9.886 -17.091  -5.926  1.00  0.00     0.100 A 
ATOM      3  C   UNL     1       9.941 -16.137  -4.909  1.00  0.00     0.197 A 
ATOM      4  O   UNL     1       8.864 -15.810  -4.345  1.00  0.00    -0.289 OA
ATOM      5  C   UNL     1      11.187 -15.589  -4.523  1.00  0.00     0.107 A 
ATOM      6  C   UNL     1      11.363 -14.585  -3.522  1.00  0.00     0.134 A 
ATOM      7  C   UNL     1      12.656 -14.192  -3.158  1.00  0.00     0.093 A 
ATOM      8  C   UNL     1      13.777 -14.721  -3.797  1.00  0.00     0.123 A 
ATOM      9  C   UNL     1      13.617 -15.665  -4.811  1.00  0.00     0.094 A 
ATOM     10  C   UNL     1      12.341 -16.104  -5.173  1.00  0.00     0.146 A 
ATOM     11  O   UNL     1      12.233 -17.018  -6.132  1.00  0.00    -0.456 OA
ENDROOT
BRANCH   1  12
ATOM     12  C   UNL     1      11.073 -18.534  -7.622  1.00  0.00     0.021 A 
ATOM     13  C   UNL     1      10.796 -19.893  -7.373  1.00  0.00     0.016 A 
ATOM     14  C   UNL     1      10.815 -20.822  -8.417  1.00  0.00     0.051 A 
ATOM     15  C   UNL     1      11.114 -20.418  -9.720  1.00  0.00     0.157 A 
ATOM     16  C   UNL     1      11.386 -18.136  -8.934  1.00  0.00     0.062 A 
ATOM     17  C   UNL     1      11.403 -19.069  -9.982  1.00  0.00     0.158 A 
BRANCH  15  18
ATOM     18  O   UNL     1      11.122 -21.369 -10.740  1.00  0.00    -0.504 OA
ATOM     19  H   UNL     1      10.465 -22.140 -10.763  1.00  0.00     0.293 HD
ENDBRANCH  15  18
BRANCH  17  20
ATOM     20  O   UNL     1      11.707 -18.659 -11.279  1.00  0.00    -0.504 OA
ATOM     21  H   UNL     1      10.989 -18.332 -11.915  1.00  0.00     0.293 HD
ENDBRANCH  17  20
ENDBRANCH   1  12
BRANCH   6  22
ATOM     22  O   UNL     1      10.309 -13.932  -2.876  1.00  0.00    -0.507 OA
ATOM     23  H   UNL     1      10.315 -13.630  -1.915  1.00  0.00     0.293 HD
ENDBRANCH   6  22
BRANCH   8  24
ATOM     24  O   UNL     1      15.048 -14.293  -3.418  1.00  0.00    -0.508 OA
ATOM     25  H   UNL     1      15.608 -13.700  -4.020  1.00  0.00     0.293 HD
ENDBRANCH   8  24
TORSDOF 5
ENDMDL
MODEL 8
REMARK VINA RESULT:    -5.387      1.715      7.044
REMARK INTER + INTRA:          -6.648
REMARK INTER:                  -6.354
REMARK INTRA:                  -0.295
REMARK UNBOUND:                -0.317
REMARK SMILES O=c1cc(-c2ccc(O)c(O)c2)oc2cc(O)cc(O)c12
REMARK SMILES IDX 4 1 3 2 2 3 1 4 21 5 19 6 18 7 16 8 15 9 14 10 13 11 5 12
REMARK SMILES IDX 6 13 7 14 8 15 12 16 10 17 9 18 11 20 20 22 17 24
REMARK H PARENT 9 19 11 21 20 23 17 25
REMARK Flexibility Score: inf
ROOT
ATOM      1  C   UNL     1      -0.671 -18.720  -8.408  1.00  0.00     0.138 A 
ATOM      2  C   UNL     1      -1.768 -19.239  -9.109  1.00  0.00     0.100 A 
ATOM      3  C   UNL     1      -1.739 -20.562  -9.555  1.00  0.00     0.197 A 
ATOM      4  O   UNL     1      -2.715 -20.981 -10.230  1.00  0.00    -0.289 OA
ATOM      5  C   UNL     1      -0.620 -21.379  -9.265  1.00  0.00     0.107 A 
ATOM      6  C   UNL     1      -0.495 -22.752  -9.637  1.00  0.00     0.134 A 
ATOM      7  C   UNL     1       0.703 -23.430  -9.380  1.00  0.00     0.093 A 
ATOM      8  C   UNL     1       1.756 -22.806  -8.712  1.00  0.00     0.123 A 
ATOM      9  C   UNL     1       1.626 -21.480  -8.299  1.00  0.00     0.094 A 
ATOM     10  C   UNL     1       0.457 -20.765  -8.571  1.00  0.00     0.146 A 
ATOM     11  O   UNL     1       0.380 -19.499  -8.176  1.00  0.00    -0.456 OA
ENDROOT
BRANCH   1  12
ATOM     12  C   UNL     1      -0.649 -17.323  -7.908  1.00  0.00     0.021 A 
ATOM     13  C   UNL     1       0.429 -16.823  -7.152  1.00  0.00     0.016 A 
ATOM     14  C   UNL     1       0.416 -15.506  -6.685  1.00  0.00     0.051 A 
ATOM     15  C   UNL     1      -0.668 -14.668  -6.958  1.00  0.00     0.157 A 
ATOM     16  C   UNL     1      -1.744 -16.478  -8.167  1.00  0.00     0.062 A 
ATOM     17  C   UNL     1      -1.755 -15.155  -7.701  1.00  0.00     0.158 A 
BRANCH  15  18
ATOM     18  O   UNL     1      -0.650 -13.358  -6.481  1.00  0.00    -0.504 OA
ATOM     19  H   UNL     1      -1.474 -12.914  -6.094  1.00  0.00     0.293 HD
ENDBRANCH  15  18
BRANCH  17  20
ATOM     20  O   UNL     1      -2.843 -14.327  -7.973  1.00  0.00    -0.504 OA
ATOM     21  H   UNL     1      -3.774 -14.702  -8.116  1.00  0.00     0.293 HD
ENDBRANCH  17  20
ENDBRANCH   1  12
BRANCH   6  22
ATOM     22  O   UNL     1      -1.515 -23.496 -10.238  1.00  0.00    -0.507 OA
ATOM     23  H   UNL     1      -2.500 -23.377 -10.063  1.00  0.00     0.293 HD
ENDBRANCH   6  22
BRANCH   8  24
ATOM     24  O   UNL     1       2.927 -23.518  -8.460  1.00  0.00    -0.508 OA
ATOM     25  H   UNL     1       3.804 -23.044  -8.273  1.00  0.00     0.293 HD
ENDBRANCH   8  24
TORSDOF 5
ENDMDL
MODEL 9
REMARK VINA RESULT:    -5.333      2.453      4.477
REMARK INTER + INTRA:          -6.585
REMARK INTER:                  -6.270
REMARK INTRA:                  -0.315
REMARK UNBOUND:                -0.317
REMARK SMILES O=c1cc(-c2ccc(O)c(O)c2)oc2cc(O)cc(O)c12
REMARK SMILES IDX 4 1 3 2 2 3 1 4 21 5 19 6 18 7 16 8 15 9 14 10 13 11 5 12
REMARK SMILES IDX 6 13 7 14 8 15 12 16 10 17 9 18 11 20 20 22 17 24
REMARK H PARENT 9 19 11 21 20 23 17 25
REMARK Flexibility Score: inf
ROOT
ATOM      1  C   UNL     1       1.241 -17.091  -6.068  1.00  0.00     0.138 A 
ATOM      2  C   UNL     1       0.992 -15.716  -5.953  1.00  0.00     0.100 A 
ATOM      3  C   UNL     1      -0.140 -15.166  -6.558  1.00  0.00     0.197 A 
ATOM      4  O   UNL     1      -0.305 -13.921  -6.485  1.00  0.00    -0.289 OA
ATOM      5  C   UNL     1      -1.046 -16.005  -7.249  1.00  0.00     0.107 A 
ATOM      6  C   UNL     1      -2.252 -15.563  -7.875  1.00  0.00     0.134 A 
ATOM      7  C   UNL     1      -3.019 -16.470  -8.615  1.00  0.00     0.093 A 
ATOM      8  C   UNL     1      -2.658 -17.815  -8.704  1.00  0.00     0.123 A 
ATOM      9  C   UNL     1      -1.510 -18.269  -8.055  1.00  0.00     0.094 A 
ATOM     10  C   UNL     1      -0.705 -17.381  -7.338  1.00  0.00     0.146 A 
ATOM     11  O   UNL     1       0.390 -17.851  -6.749  1.00  0.00    -0.456 OA
ENDROOT
BRANCH   1  12
ATOM     12  C   UNL     1       2.426 -17.728  -5.443  1.00  0.00     0.021 A 
ATOM     13  C   UNL     1       3.519 -16.969  -4.982  1.00  0.00     0.016 A 
ATOM     14  C   UNL     1       4.627 -17.598  -4.409  1.00  0.00     0.051 A 
ATOM     15  C   UNL     1       4.669 -18.989  -4.289  1.00  0.00     0.157 A 
ATOM     16  C   UNL     1       2.480 -19.129  -5.332  1.00  0.00     0.062 A 
ATOM     17  C   UNL     1       3.592 -19.760  -4.754  1.00  0.00     0.158 A 
BRANCH  15  18
ATOM     18  O   UNL     1       5.787 -19.587  -3.709  1.00  0.00    -0.504 OA
ATOM     19  H   UNL     1       6.428 -19.072  -3.118  1.00  0.00     0.293 HD
ENDBRANCH  15  18
BRANCH  17  20
ATOM     20  O   UNL     1       3.628 -21.150  -4.643  1.00  0.00    -0.504 OA
ATOM     21  H   UNL     1       4.498 -21.649  -4.495  1.00  0.00     0.293 HD
ENDBRANCH  17  20
ENDBRANCH   1  12
BRANCH   6  22
ATOM     22  O   UNL     1      -2.748 -14.259  -7.784  1.00  0.00    -0.507 OA
ATOM     23  H   UNL     1      -2.940 -13.655  -8.567  1.00  0.00     0.293 HD
ENDBRANCH   6  22
BRANCH   8  24
ATOM     24  O   UNL     1      -3.455 -18.692  -9.436  1.00  0.00    -0.508 OA
ATOM     25  H   UNL     1      -3.298 -18.850 -10.425  1.00  0.00     0.293 HD
ENDBRANCH   8  24
TORSDOF 5
ENDMDL
