MODEL 1
REMARK VINA RESULT:    -8.678      0.000      0.000
REMARK INTER + INTRA:          -9.244
REMARK INTER:                  -9.439
REMARK INTRA:                   0.195
REMARK UNBOUND:                 0.195
REMARK SMILES C[C@@H]1[C@@H](C)CC[C@]2(C(=O)[O-])CC[C@]3(C)C(=CC[C@H]4[C@]5(C)CC[C@@H](O)C(C)(C)[C@@H]5CC[C@]43C)[C@@H]12
REMARK SMILES IDX 7 1 6 2 11 3 33 4 5 5 12 6 15 7 2 8 3 9 13 10 16 11 1 12
REMARK SMILES IDX 4 13 14 14 31 15 17 16 18 17 30 18 32 19 19 20 29 21 28 22
REMARK SMILES IDX 21 23 20 24 25 25 22 26 23 27 26 28 27 29 8 30 9 31 10 32
REMARK SMILES IDX 24 33
REMARK H PARENT 24 34
REMARK Flexibility Score: inf
ROOT
ATOM      1  C   UNL     1      52.352 -33.076  -7.381  1.00  0.00     0.017 C 
ATOM      2  C   UNL     1      52.363 -33.765  -8.769  1.00  0.00     0.014 C 
ATOM      3  C   UNL     1      53.227 -31.780  -7.460  1.00  0.00     0.014 C 
ATOM      4  C   UNL     1      53.010 -34.065  -6.350  1.00  0.00     0.030 C 
ATOM      5  C   UNL     1      51.646 -35.122  -8.735  1.00  0.00     0.004 C 
ATOM      6  C   UNL     1      53.577 -31.145  -6.079  1.00  0.00     0.013 C 
ATOM      7  C   UNL     1      53.204 -33.331  -5.018  1.00  0.00    -0.063 C 
ATOM      8  C   UNL     1      52.361 -35.486  -6.301  1.00  0.00    -0.003 C 
ATOM      9  C   UNL     1      52.312 -36.097  -7.738  1.00  0.00    -0.011 C 
ATOM     10  C   UNL     1      54.176 -32.151  -5.029  1.00  0.00    -0.006 C 
ATOM     11  C   UNL     1      52.217 -33.363  -4.109  1.00  0.00    -0.027 C 
ATOM     12  C   UNL     1      53.159 -36.393  -5.341  1.00  0.00     0.008 C 
ATOM     13  C   UNL     1      51.558 -37.440  -7.777  1.00  0.00     0.008 C 
ATOM     14  C   UNL     1      55.570 -32.657  -5.557  1.00  0.00     0.017 C 
ATOM     15  C   UNL     1      54.347 -31.490  -3.547  1.00  0.00    -0.020 C 
ATOM     16  C   UNL     1      51.786 -32.117  -3.415  1.00  0.00     0.032 C 
ATOM     17  C   UNL     1      52.943 -31.268  -2.795  1.00  0.00     0.006 C 
ATOM     18  C   UNL     1      55.265 -32.379  -2.616  1.00  0.00     0.008 C 
ATOM     19  C   UNL     1      55.061 -30.095  -3.735  1.00  0.00     0.012 C 
ATOM     20  C   UNL     1      52.967 -31.385  -1.197  1.00  0.00    -0.025 C 
ATOM     21  C   UNL     1      54.516 -33.418  -1.784  1.00  0.00     0.005 C 
ATOM     22  C   UNL     1      53.451 -32.841  -0.783  1.00  0.00     0.003 C 
ATOM     23  C   UNL     1      53.870 -30.266  -0.571  1.00  0.00     0.010 C 
ATOM     24  C   UNL     1      51.517 -31.092  -0.664  1.00  0.00     0.012 C 
ATOM     25  C   UNL     1      53.824 -33.007   0.760  1.00  0.00    -0.006 C 
ATOM     26  C   UNL     1      54.199 -30.457   0.914  1.00  0.00     0.033 C 
ATOM     27  C   UNL     1      54.780 -31.855   1.190  1.00  0.00     0.120 C 
ATOM     28  C   UNL     1      52.535 -33.029   1.640  1.00  0.00     0.014 C 
ATOM     29  C   UNL     1      54.529 -34.369   1.046  1.00  0.00     0.014 C 
ENDROOT
BRANCH   1  30
ATOM     30  C   UNL     1      50.909 -32.673  -7.062  1.00  0.00     0.048 C 
ATOM     31  O   UNL     1      50.463 -31.564  -7.478  1.00  0.00    -0.550 OA
ATOM     32  O   UNL     1      50.035 -33.522  -6.383  1.00  0.00    -0.550 OA
ENDBRANCH   1  30
BRANCH  27  33
ATOM     33  O   UNL     1      55.172 -31.981   2.535  1.00  0.00    -0.393 OA
ATOM     34  H   UNL     1      55.063 -31.094   2.971  1.00  0.00     0.210 HD
ENDBRANCH  27  33
TORSDOF 2
ENDMDL
MODEL 2
REMARK VINA RESULT:    -8.668      1.899      2.751
REMARK INTER + INTRA:          -9.234
REMARK INTER:                  -9.409
REMARK INTRA:                   0.175
REMARK UNBOUND:                 0.195
REMARK SMILES C[C@@H]1[C@@H](C)CC[C@]2(C(=O)[O-])CC[C@]3(C)C(=CC[C@H]4[C@]5(C)CC[C@@H](O)C(C)(C)[C@@H]5CC[C@]43C)[C@@H]12
REMARK SMILES IDX 7 1 6 2 11 3 33 4 5 5 12 6 15 7 2 8 3 9 13 10 16 11 1 12
REMARK SMILES IDX 4 13 14 14 31 15 17 16 18 17 30 18 32 19 19 20 29 21 28 22
REMARK SMILES IDX 21 23 20 24 25 25 22 26 23 27 26 28 27 29 8 30 9 31 10 32
REMARK SMILES IDX 24 33
REMARK H PARENT 24 34
REMARK Flexibility Score: inf
ROOT
ATOM      1  C   UNL     1      52.613 -34.106  -8.838  1.00  0.00     0.017 C 
ATOM      2  C   UNL     1      52.472 -35.361  -9.737  1.00  0.00     0.014 C 
ATOM      3  C   UNL     1      53.623 -33.118  -9.514  1.00  0.00     0.014 C 
ATOM      4  C   UNL     1      53.210 -34.569  -7.459  1.00  0.00     0.030 C 
ATOM      5  C   UNL     1      51.610 -36.442  -9.071  1.00  0.00     0.004 C 
ATOM      6  C   UNL     1      54.114 -31.959  -8.594  1.00  0.00     0.013 C 
ATOM      7  C   UNL     1      53.556 -33.327  -6.629  1.00  0.00    -0.063 C 
ATOM      8  C   UNL     1      52.409 -35.709  -6.749  1.00  0.00    -0.003 C 
ATOM      9  C   UNL     1      52.215 -36.910  -7.728  1.00  0.00    -0.011 C 
ATOM     10  C   UNL     1      54.652 -32.421  -7.190  1.00  0.00    -0.006 C 
ATOM     11  C   UNL     1      52.622 -32.806  -5.819  1.00  0.00    -0.027 C 
ATOM     12  C   UNL     1      53.150 -36.151  -5.470  1.00  0.00     0.008 C 
ATOM     13  C   UNL     1      51.314 -38.009  -7.133  1.00  0.00     0.008 C 
ATOM     14  C   UNL     1      55.950 -33.284  -7.409  1.00  0.00     0.017 C 
ATOM     15  C   UNL     1      54.976 -31.169  -6.194  1.00  0.00    -0.020 C 
ATOM     16  C   UNL     1      52.371 -31.338  -5.797  1.00  0.00     0.032 C 
ATOM     17  C   UNL     1      53.647 -30.448  -5.645  1.00  0.00     0.006 C 
ATOM     18  C   UNL     1      55.836 -31.624  -4.949  1.00  0.00     0.008 C 
ATOM     19  C   UNL     1      55.831 -30.126  -7.015  1.00  0.00     0.012 C 
ATOM     20  C   UNL     1      53.743 -29.804  -4.180  1.00  0.00    -0.025 C 
ATOM     21  C   UNL     1      55.021 -32.050  -3.730  1.00  0.00     0.005 C 
ATOM     22  C   UNL     1      54.083 -30.943  -3.126  1.00  0.00     0.003 C 
ATOM     23  C   UNL     1      54.799 -28.645  -4.151  1.00  0.00     0.010 C 
ATOM     24  C   UNL     1      52.367 -29.118  -3.856  1.00  0.00     0.012 C 
ATOM     25  C   UNL     1      54.517 -30.412  -1.684  1.00  0.00    -0.006 C 
ATOM     26  C   UNL     1      55.183 -28.156  -2.750  1.00  0.00     0.033 C 
ATOM     27  C   UNL     1      55.618 -29.322  -1.844  1.00  0.00     0.120 C 
ATOM     28  C   UNL     1      53.283 -29.858  -0.906  1.00  0.00     0.014 C 
ATOM     29  C   UNL     1      55.079 -31.557  -0.785  1.00  0.00     0.014 C 
ENDROOT
BRANCH   1  30
ATOM     30  C   UNL     1      51.243 -33.425  -8.756  1.00  0.00     0.048 C 
ATOM     31  O   UNL     1      50.931 -32.542  -9.607  1.00  0.00    -0.550 OA
ATOM     32  O   UNL     1      50.287 -33.795  -7.809  1.00  0.00    -0.550 OA
ENDBRANCH   1  30
BRANCH  27  33
ATOM     33  O   UNL     1      56.065 -28.850  -0.596  1.00  0.00    -0.393 OA
ATOM     34  H   UNL     1      55.580 -29.350   0.114  1.00  0.00     0.210 HD
ENDBRANCH  27  33
TORSDOF 2
ENDMDL
MODEL 3
REMARK VINA RESULT:    -8.393      4.525      7.303
REMARK INTER + INTRA:          -8.934
REMARK INTER:                  -9.135
REMARK INTRA:                   0.201
REMARK UNBOUND:                 0.195
REMARK SMILES C[C@@H]1[C@@H](C)CC[C@]2(C(=O)[O-])CC[C@]3(C)C(=CC[C@H]4[C@]5(C)CC[C@@H](O)C(C)(C)[C@@H]5CC[C@]43C)[C@@H]12
REMARK SMILES IDX 7 1 6 2 11 3 33 4 5 5 12 6 15 7 2 8 3 9 13 10 16 11 1 12
REMARK SMILES IDX 4 13 14 14 31 15 17 16 18 17 30 18 32 19 19 20 29 21 28 22
REMARK SMILES IDX 21 23 20 24 25 25 22 26 23 27 26 28 27 29 8 30 9 31 10 32
REMARK SMILES IDX 24 33
REMARK H PARENT 24 34
REMARK Flexibility Score: inf
ROOT
ATOM      1  C   UNL     1      53.777 -31.000  -1.317  1.00  0.00     0.017 C 
ATOM      2  C   UNL     1      54.680 -32.192  -1.726  1.00  0.00     0.014 C 
ATOM      3  C   UNL     1      54.476 -29.670  -1.759  1.00  0.00     0.014 C 
ATOM      4  C   UNL     1      53.655 -31.008   0.250  1.00  0.00     0.030 C 
ATOM      5  C   UNL     1      54.134 -33.525  -1.198  1.00  0.00     0.004 C 
ATOM      6  C   UNL     1      53.858 -28.376  -1.147  1.00  0.00     0.013 C 
ATOM      7  C   UNL     1      52.945 -29.724   0.695  1.00  0.00    -0.063 C 
ATOM      8  C   UNL     1      53.153 -32.357   0.861  1.00  0.00    -0.003 C 
ATOM      9  C   UNL     1      54.038 -33.535   0.344  1.00  0.00    -0.011 C 
ATOM     10  C   UNL     1      53.678 -28.412   0.416  1.00  0.00    -0.006 C 
ATOM     11  C   UNL     1      51.607 -29.722   0.794  1.00  0.00    -0.027 C 
ATOM     12  C   UNL     1      53.181 -32.277   2.401  1.00  0.00     0.008 C 
ATOM     13  C   UNL     1      53.510 -34.908   0.801  1.00  0.00     0.008 C 
ATOM     14  C   UNL     1      55.102 -28.483   1.083  1.00  0.00     0.017 C 
ATOM     15  C   UNL     1      52.857 -27.123   0.987  1.00  0.00    -0.020 C 
ATOM     16  C   UNL     1      50.806 -28.601   0.227  1.00  0.00     0.032 C 
ATOM     17  C   UNL     1      51.290 -27.170   0.629  1.00  0.00     0.006 C 
ATOM     18  C   UNL     1      52.996 -26.993   2.556  1.00  0.00     0.008 C 
ATOM     19  C   UNL     1      53.498 -25.834   0.339  1.00  0.00     0.012 C 
ATOM     20  C   UNL     1      50.298 -26.491   1.689  1.00  0.00    -0.025 C 
ATOM     21  C   UNL     1      51.913 -27.714   3.356  1.00  0.00     0.005 C 
ATOM     22  C   UNL     1      50.442 -27.226   3.090  1.00  0.00     0.003 C 
ATOM     23  C   UNL     1      50.577 -24.952   1.803  1.00  0.00     0.010 C 
ATOM     24  C   UNL     1      48.833 -26.606   1.132  1.00  0.00     0.012 C 
ATOM     25  C   UNL     1      49.757 -26.468   4.316  1.00  0.00    -0.006 C 
ATOM     26  C   UNL     1      49.894 -24.259   2.988  1.00  0.00     0.033 C 
ATOM     27  C   UNL     1      50.199 -24.975   4.315  1.00  0.00     0.120 C 
ATOM     28  C   UNL     1      48.203 -26.597   4.245  1.00  0.00     0.014 C 
ATOM     29  C   UNL     1      50.150 -27.101   5.687  1.00  0.00     0.014 C 
ENDROOT
BRANCH   1  30
ATOM     30  C   UNL     1      52.451 -31.130  -2.073  1.00  0.00     0.048 C 
ATOM     31  O   UNL     1      52.354 -30.675  -3.250  1.00  0.00    -0.550 OA
ATOM     32  O   UNL     1      51.353 -31.799  -1.532  1.00  0.00    -0.550 OA
ENDBRANCH   1  30
BRANCH  27  33
ATOM     33  O   UNL     1      49.652 -24.271   5.404  1.00  0.00    -0.393 OA
ATOM     34  H   UNL     1      50.154 -24.532   6.221  1.00  0.00     0.210 HD
ENDBRANCH  27  33
TORSDOF 2
ENDMDL
MODEL 4
REMARK VINA RESULT:    -8.352      7.425     10.775
REMARK INTER + INTRA:          -8.890
REMARK INTER:                  -9.068
REMARK INTRA:                   0.178
REMARK UNBOUND:                 0.195
REMARK SMILES C[C@@H]1[C@@H](C)CC[C@]2(C(=O)[O-])CC[C@]3(C)C(=CC[C@H]4[C@]5(C)CC[C@@H](O)C(C)(C)[C@@H]5CC[C@]43C)[C@@H]12
REMARK SMILES IDX 7 1 6 2 11 3 33 4 5 5 12 6 15 7 2 8 3 9 13 10 16 11 1 12
REMARK SMILES IDX 4 13 14 14 31 15 17 16 18 17 30 18 32 19 19 20 29 21 28 22
REMARK SMILES IDX 21 23 20 24 25 25 22 26 23 27 26 28 27 29 8 30 9 31 10 32
REMARK SMILES IDX 24 33
REMARK H PARENT 24 34
REMARK Flexibility Score: inf
ROOT
ATOM      1  C   UNL     1      52.774 -26.851  -0.009  1.00  0.00     0.017 C 
ATOM      2  C   UNL     1      53.474 -26.343  -1.295  1.00  0.00     0.014 C 
ATOM      3  C   UNL     1      51.337 -27.347  -0.386  1.00  0.00     0.014 C 
ATOM      4  C   UNL     1      52.644 -25.634   0.978  1.00  0.00     0.030 C 
ATOM      5  C   UNL     1      54.835 -25.704  -0.987  1.00  0.00     0.004 C 
ATOM      6  C   UNL     1      50.394 -27.593   0.831  1.00  0.00     0.013 C 
ATOM      7  C   UNL     1      51.771 -26.054   2.166  1.00  0.00    -0.063 C 
ATOM      8  C   UNL     1      53.987 -24.902   1.295  1.00  0.00    -0.003 C 
ATOM      9  C   UNL     1      54.697 -24.494  -0.035  1.00  0.00    -0.011 C 
ATOM     10  C   UNL     1      50.314 -26.397   1.851  1.00  0.00    -0.006 C 
ATOM     11  C   UNL     1      52.358 -26.602   3.241  1.00  0.00    -0.027 C 
ATOM     12  C   UNL     1      53.715 -23.666   2.179  1.00  0.00     0.008 C 
ATOM     13  C   UNL     1      56.093 -23.890   0.207  1.00  0.00     0.008 C 
ATOM     14  C   UNL     1      49.656 -25.164   1.127  1.00  0.00     0.017 C 
ATOM     15  C   UNL     1      49.472 -26.769   3.197  1.00  0.00    -0.020 C 
ATOM     16  C   UNL     1      51.794 -27.829   3.870  1.00  0.00     0.032 C 
ATOM     17  C   UNL     1      50.261 -27.777   4.170  1.00  0.00     0.006 C 
ATOM     18  C   UNL     1      49.102 -25.477   4.028  1.00  0.00     0.008 C 
ATOM     19  C   UNL     1      48.122 -27.446   2.734  1.00  0.00     0.012 C 
ATOM     20  C   UNL     1      49.975 -27.619   5.740  1.00  0.00    -0.025 C 
ATOM     21  C   UNL     1      50.128 -25.083   5.088  1.00  0.00     0.005 C 
ATOM     22  C   UNL     1      50.389 -26.158   6.205  1.00  0.00     0.003 C 
ATOM     23  C   UNL     1      48.473 -27.935   6.065  1.00  0.00     0.010 C 
ATOM     24  C   UNL     1      50.803 -28.717   6.501  1.00  0.00     0.012 C 
ATOM     25  C   UNL     1      49.875 -25.749   7.660  1.00  0.00    -0.006 C 
ATOM     26  C   UNL     1      48.021 -27.536   7.474  1.00  0.00     0.033 C 
ATOM     27  C   UNL     1      48.355 -26.065   7.781  1.00  0.00     0.120 C 
ATOM     28  C   UNL     1      50.695 -26.489   8.763  1.00  0.00     0.014 C 
ATOM     29  C   UNL     1      50.090 -24.231   7.950  1.00  0.00     0.014 C 
ENDROOT
BRANCH   1  30
ATOM     30  C   UNL     1      53.577 -28.040   0.529  1.00  0.00     0.048 C 
ATOM     31  O   UNL     1      53.264 -29.215   0.179  1.00  0.00    -0.550 OA
ATOM     32  O   UNL     1      54.695 -27.869   1.345  1.00  0.00    -0.550 OA
ENDBRANCH   1  30
BRANCH  27  33
ATOM     33  O   UNL     1      47.844 -25.684   9.035  1.00  0.00    -0.393 OA
ATOM     34  H   UNL     1      47.531 -24.743   8.966  1.00  0.00     0.210 HD
ENDBRANCH  27  33
TORSDOF 2
ENDMDL
MODEL 5
REMARK VINA RESULT:    -8.093      1.975      7.721
REMARK INTER + INTRA:          -8.608
REMARK INTER:                  -8.786
REMARK INTRA:                   0.178
REMARK UNBOUND:                 0.195
REMARK SMILES C[C@@H]1[C@@H](C)CC[C@]2(C(=O)[O-])CC[C@]3(C)C(=CC[C@H]4[C@]5(C)CC[C@@H](O)C(C)(C)[C@@H]5CC[C@]43C)[C@@H]12
REMARK SMILES IDX 7 1 6 2 11 3 33 4 5 5 12 6 15 7 2 8 3 9 13 10 16 11 1 12
REMARK SMILES IDX 4 13 14 14 31 15 17 16 18 17 30 18 32 19 19 20 29 21 28 22
REMARK SMILES IDX 21 23 20 24 25 25 22 26 23 27 26 28 27 29 8 30 9 31 10 32
REMARK SMILES IDX 24 33
REMARK H PARENT 24 34
REMARK Flexibility Score: inf
ROOT
ATOM      1  C   UNL     1      54.264 -30.642  -0.649  1.00  0.00     0.017 C 
ATOM      2  C   UNL     1      55.003 -29.689   0.324  1.00  0.00     0.014 C 
ATOM      3  C   UNL     1      55.007 -32.021  -0.659  1.00  0.00     0.014 C 
ATOM      4  C   UNL     1      54.348 -30.016  -2.089  1.00  0.00     0.030 C 
ATOM      5  C   UNL     1      54.422 -28.270   0.280  1.00  0.00     0.004 C 
ATOM      6  C   UNL     1      54.584 -32.981  -1.813  1.00  0.00     0.013 C 
ATOM      7  C   UNL     1      53.813 -31.035  -3.102  1.00  0.00    -0.063 C 
ATOM      8  C   UNL     1      53.821 -28.549  -2.196  1.00  0.00    -0.003 C 
ATOM      9  C   UNL     1      54.529 -27.651  -1.133  1.00  0.00    -0.011 C 
ATOM     10  C   UNL     1      54.609 -32.332  -3.246  1.00  0.00    -0.006 C 
ATOM     11  C   UNL     1      52.504 -31.029  -3.398  1.00  0.00    -0.027 C 
ATOM     12  C   UNL     1      54.058 -28.009  -3.622  1.00  0.00     0.008 C 
ATOM     13  C   UNL     1      53.953 -26.223  -1.095  1.00  0.00     0.008 C 
ATOM     14  C   UNL     1      56.097 -31.967  -3.606  1.00  0.00     0.017 C 
ATOM     15  C   UNL     1      53.981 -33.308  -4.393  1.00  0.00    -0.020 C 
ATOM     16  C   UNL     1      51.732 -32.303  -3.442  1.00  0.00     0.032 C 
ATOM     17  C   UNL     1      52.382 -33.445  -4.290  1.00  0.00     0.006 C 
ATOM     18  C   UNL     1      54.335 -32.801  -5.847  1.00  0.00     0.008 C 
ATOM     19  C   UNL     1      54.636 -34.732  -4.207  1.00  0.00     0.012 C 
ATOM     20  C   UNL     1      51.598 -33.671  -5.669  1.00  0.00    -0.025 C 
ATOM     21  C   UNL     1      53.311 -31.848  -6.459  1.00  0.00     0.005 C 
ATOM     22  C   UNL     1      51.864 -32.436  -6.634  1.00  0.00     0.003 C 
ATOM     23  C   UNL     1      52.016 -35.031  -6.329  1.00  0.00     0.010 C 
ATOM     24  C   UNL     1      50.068 -33.822  -5.344  1.00  0.00     0.012 C 
ATOM     25  C   UNL     1      51.411 -32.662  -8.148  1.00  0.00    -0.006 C 
ATOM     26  C   UNL     1      51.555 -35.213  -7.780  1.00  0.00     0.033 C 
ATOM     27  C   UNL     1      51.972 -34.021  -8.660  1.00  0.00     0.120 C 
ATOM     28  C   UNL     1      49.856 -32.610  -8.273  1.00  0.00     0.014 C 
ATOM     29  C   UNL     1      51.928 -31.528  -9.086  1.00  0.00     0.014 C 
ENDROOT
BRANCH   1  30
ATOM     30  C   UNL     1      52.843 -30.856  -0.117  1.00  0.00     0.048 C 
ATOM     31  O   UNL     1      52.598 -31.846   0.631  1.00  0.00    -0.550 OA
ATOM     32  O   UNL     1      51.812 -29.951  -0.373  1.00  0.00    -0.550 OA
ENDBRANCH   1  30
BRANCH  27  33
ATOM     33  O   UNL     1      51.634 -34.248 -10.007  1.00  0.00    -0.393 OA
ATOM     34  H   UNL     1      50.646 -34.176 -10.092  1.00  0.00     0.210 HD
ENDBRANCH  27  33
TORSDOF 2
ENDMDL
MODEL 6
REMARK VINA RESULT:    -8.078      2.003      3.088
REMARK INTER + INTRA:          -8.592
REMARK INTER:                  -8.767
REMARK INTRA:                   0.176
REMARK UNBOUND:                 0.195
REMARK SMILES C[C@@H]1[C@@H](C)CC[C@]2(C(=O)[O-])CC[C@]3(C)C(=CC[C@H]4[C@]5(C)CC[C@@H](O)C(C)(C)[C@@H]5CC[C@]43C)[C@@H]12
REMARK SMILES IDX 7 1 6 2 11 3 33 4 5 5 12 6 15 7 2 8 3 9 13 10 16 11 1 12
REMARK SMILES IDX 4 13 14 14 31 15 17 16 18 17 30 18 32 19 19 20 29 21 28 22
REMARK SMILES IDX 21 23 20 24 25 25 22 26 23 27 26 28 27 29 8 30 9 31 10 32
REMARK SMILES IDX 24 33
REMARK H PARENT 24 34
REMARK Flexibility Score: inf
ROOT
ATOM      1  C   UNL     1      53.529 -33.647  -6.539  1.00  0.00     0.017 C 
ATOM      2  C   UNL     1      53.247 -34.876  -7.440  1.00  0.00     0.014 C 
ATOM      3  C   UNL     1      54.995 -33.750  -5.998  1.00  0.00     0.014 C 
ATOM      4  C   UNL     1      52.537 -33.709  -5.320  1.00  0.00     0.030 C 
ATOM      5  C   UNL     1      51.781 -34.924  -7.892  1.00  0.00     0.004 C 
ATOM      6  C   UNL     1      55.330 -32.768  -4.835  1.00  0.00     0.013 C 
ATOM      7  C   UNL     1      52.933 -32.627  -4.308  1.00  0.00    -0.063 C 
ATOM      8  C   UNL     1      51.027 -33.812  -5.710  1.00  0.00    -0.003 C 
ATOM      9  C   UNL     1      50.813 -35.009  -6.690  1.00  0.00    -0.011 C 
ATOM     10  C   UNL     1      54.301 -32.786  -3.645  1.00  0.00    -0.006 C 
ATOM     11  C   UNL     1      52.395 -31.403  -4.422  1.00  0.00    -0.027 C 
ATOM     12  C   UNL     1      50.169 -33.978  -4.438  1.00  0.00     0.008 C 
ATOM     13  C   UNL     1      49.368 -35.080  -7.220  1.00  0.00     0.008 C 
ATOM     14  C   UNL     1      54.360 -34.199  -2.953  1.00  0.00     0.017 C 
ATOM     15  C   UNL     1      54.585 -31.614  -2.545  1.00  0.00    -0.020 C 
ATOM     16  C   UNL     1      53.250 -30.187  -4.321  1.00  0.00     0.032 C 
ATOM     17  C   UNL     1      54.205 -30.147  -3.084  1.00  0.00     0.006 C 
ATOM     18  C   UNL     1      53.785 -31.866  -1.206  1.00  0.00     0.008 C 
ATOM     19  C   UNL     1      56.125 -31.657  -2.201  1.00  0.00     0.012 C 
ATOM     20  C   UNL     1      53.697 -29.097  -1.984  1.00  0.00    -0.025 C 
ATOM     21  C   UNL     1      52.401 -31.222  -1.157  1.00  0.00     0.005 C 
ATOM     22  C   UNL     1      52.381 -29.656  -1.291  1.00  0.00     0.003 C 
ATOM     23  C   UNL     1      54.828 -28.796  -0.940  1.00  0.00     0.010 C 
ATOM     24  C   UNL     1      53.425 -27.727  -2.705  1.00  0.00     0.012 C 
ATOM     25  C   UNL     1      51.940 -28.878   0.032  1.00  0.00    -0.006 C 
ATOM     26  C   UNL     1      54.367 -28.039   0.311  1.00  0.00     0.033 C 
ATOM     27  C   UNL     1      53.167 -28.732   0.980  1.00  0.00     0.120 C 
ATOM     28  C   UNL     1      51.335 -27.484  -0.325  1.00  0.00     0.014 C 
ATOM     29  C   UNL     1      50.806 -29.625   0.798  1.00  0.00     0.014 C 
ENDROOT
BRANCH   1  30
ATOM     30  C   UNL     1      53.415 -32.388  -7.405  1.00  0.00     0.048 C 
ATOM     31  O   UNL     1      54.449 -31.915  -7.960  1.00  0.00    -0.550 OA
ATOM     32  O   UNL     1      52.188 -31.777  -7.665  1.00  0.00    -0.550 OA
ENDBRANCH   1  30
BRANCH  27  33
ATOM     33  O   UNL     1      52.819 -28.086   2.182  1.00  0.00    -0.393 OA
ATOM     34  H   UNL     1      52.735 -28.779   2.890  1.00  0.00     0.210 HD
ENDBRANCH  27  33
TORSDOF 2
ENDMDL
MODEL 7
REMARK VINA RESULT:    -7.902      2.004      7.820
REMARK INTER + INTRA:          -8.400
REMARK INTER:                  -8.584
REMARK INTRA:                   0.184
REMARK UNBOUND:                 0.195
REMARK SMILES C[C@@H]1[C@@H](C)CC[C@]2(C(=O)[O-])CC[C@]3(C)C(=CC[C@H]4[C@]5(C)CC[C@@H](O)C(C)(C)[C@@H]5CC[C@]43C)[C@@H]12
REMARK SMILES IDX 7 1 6 2 11 3 33 4 5 5 12 6 15 7 2 8 3 9 13 10 16 11 1 12
REMARK SMILES IDX 4 13 14 14 31 15 17 16 18 17 30 18 32 19 19 20 29 21 28 22
REMARK SMILES IDX 21 23 20 24 25 25 22 26 23 27 26 28 27 29 8 30 9 31 10 32
REMARK SMILES IDX 24 33
REMARK H PARENT 24 34
REMARK Flexibility Score: inf
ROOT
ATOM      1  C   UNL     1      53.553 -30.383   0.605  1.00  0.00     0.017 C 
ATOM      2  C   UNL     1      54.075 -29.442   1.720  1.00  0.00     0.014 C 
ATOM      3  C   UNL     1      54.250 -31.777   0.759  1.00  0.00     0.014 C 
ATOM      4  C   UNL     1      53.970 -29.762  -0.779  1.00  0.00     0.030 C 
ATOM      5  C   UNL     1      53.549 -28.011   1.550  1.00  0.00     0.004 C 
ATOM      6  C   UNL     1      54.076 -32.731  -0.462  1.00  0.00     0.013 C 
ATOM      7  C   UNL     1      53.653 -30.773  -1.888  1.00  0.00    -0.063 C 
ATOM      8  C   UNL     1      53.511 -28.285  -0.998  1.00  0.00    -0.003 C 
ATOM      9  C   UNL     1      53.982 -27.399   0.198  1.00  0.00    -0.011 C 
ATOM     10  C   UNL     1      54.435 -32.087  -1.852  1.00  0.00    -0.006 C 
ATOM     11  C   UNL     1      52.444 -30.741  -2.469  1.00  0.00    -0.027 C 
ATOM     12  C   UNL     1      54.072 -27.755  -2.334  1.00  0.00     0.008 C 
ATOM     13  C   UNL     1      53.442 -25.959   0.109  1.00  0.00     0.008 C 
ATOM     14  C   UNL     1      55.973 -31.754  -1.869  1.00  0.00     0.017 C 
ATOM     15  C   UNL     1      54.058 -33.053  -3.112  1.00  0.00    -0.020 C 
ATOM     16  C   UNL     1      51.675 -31.999  -2.686  1.00  0.00     0.032 C 
ATOM     17  C   UNL     1      52.474 -33.156  -3.369  1.00  0.00     0.006 C 
ATOM     18  C   UNL     1      54.739 -32.558  -4.449  1.00  0.00     0.008 C 
ATOM     19  C   UNL     1      54.625 -34.490  -2.787  1.00  0.00     0.012 C 
ATOM     20  C   UNL     1      52.014 -33.370  -4.889  1.00  0.00    -0.025 C 
ATOM     21  C   UNL     1      53.898 -31.586  -5.273  1.00  0.00     0.005 C 
ATOM     22  C   UNL     1      52.514 -32.144  -5.768  1.00  0.00     0.003 C 
ATOM     23  C   UNL     1      52.540 -34.740  -5.441  1.00  0.00     0.010 C 
ATOM     24  C   UNL     1      50.447 -33.489  -4.914  1.00  0.00     0.012 C 
ATOM     25  C   UNL     1      52.407 -32.365  -7.345  1.00  0.00    -0.006 C 
ATOM     26  C   UNL     1      52.412 -34.917  -6.958  1.00  0.00     0.033 C 
ATOM     27  C   UNL     1      53.039 -33.737  -7.721  1.00  0.00     0.120 C 
ATOM     28  C   UNL     1      50.920 -32.281  -7.814  1.00  0.00     0.014 C 
ATOM     29  C   UNL     1      53.144 -31.244  -8.143  1.00  0.00     0.014 C 
ENDROOT
BRANCH   1  30
ATOM     30  C   UNL     1      52.045 -30.565   0.806  1.00  0.00     0.048 C 
ATOM     31  O   UNL     1      51.617 -31.560   1.460  1.00  0.00    -0.550 OA
ATOM     32  O   UNL     1      51.118 -29.628   0.348  1.00  0.00    -0.550 OA
ENDBRANCH   1  30
BRANCH  27  33
ATOM     33  O   UNL     1      53.006 -33.961  -9.110  1.00  0.00    -0.393 OA
ATOM     34  H   UNL     1      53.817 -34.479  -9.357  1.00  0.00     0.210 HD
ENDBRANCH  27  33
TORSDOF 2
ENDMDL
MODEL 8
REMARK VINA RESULT:    -7.864      5.842     11.088
REMARK INTER + INTRA:          -8.359
REMARK INTER:                  -8.619
REMARK INTRA:                   0.260
REMARK UNBOUND:                 0.195
REMARK SMILES C[C@@H]1[C@@H](C)CC[C@]2(C(=O)[O-])CC[C@]3(C)C(=CC[C@H]4[C@]5(C)CC[C@@H](O)C(C)(C)[C@@H]5CC[C@]43C)[C@@H]12
REMARK SMILES IDX 7 1 6 2 11 3 33 4 5 5 12 6 15 7 2 8 3 9 13 10 16 11 1 12
REMARK SMILES IDX 4 13 14 14 31 15 17 16 18 17 30 18 32 19 19 20 29 21 28 22
REMARK SMILES IDX 21 23 20 24 25 25 22 26 23 27 26 28 27 29 8 30 9 31 10 32
REMARK SMILES IDX 24 33
REMARK H PARENT 24 34
REMARK Flexibility Score: inf
ROOT
ATOM      1  C   UNL     1      50.403 -24.791   4.749  1.00  0.00     0.017 C 
ATOM      2  C   UNL     1      50.373 -23.411   5.454  1.00  0.00     0.014 C 
ATOM      3  C   UNL     1      49.973 -25.888   5.781  1.00  0.00     0.014 C 
ATOM      4  C   UNL     1      51.887 -25.070   4.308  1.00  0.00     0.030 C 
ATOM      5  C   UNL     1      50.922 -22.299   4.550  1.00  0.00     0.004 C 
ATOM      6  C   UNL     1      50.253 -27.353   5.327  1.00  0.00     0.013 C 
ATOM      7  C   UNL     1      51.986 -26.513   3.799  1.00  0.00    -0.063 C 
ATOM      8  C   UNL     1      52.529 -23.950   3.426  1.00  0.00    -0.003 C 
ATOM      9  C   UNL     1      52.388 -22.568   4.139  1.00  0.00    -0.011 C 
ATOM     10  C   UNL     1      51.721 -27.614   4.826  1.00  0.00    -0.006 C 
ATOM     11  C   UNL     1      51.767 -26.760   2.498  1.00  0.00    -0.027 C 
ATOM     12  C   UNL     1      54.010 -24.284   3.153  1.00  0.00     0.008 C 
ATOM     13  C   UNL     1      52.879 -21.403   3.259  1.00  0.00     0.008 C 
ATOM     14  C   UNL     1      52.707 -27.416   6.037  1.00  0.00     0.017 C 
ATOM     15  C   UNL     1      51.916 -29.102   4.186  1.00  0.00    -0.020 C 
ATOM     16  C   UNL     1      50.890 -27.888   2.078  1.00  0.00     0.032 C 
ATOM     17  C   UNL     1      51.209 -29.263   2.751  1.00  0.00     0.006 C 
ATOM     18  C   UNL     1      53.444 -29.471   4.023  1.00  0.00     0.008 C 
ATOM     19  C   UNL     1      51.278 -30.134   5.197  1.00  0.00     0.012 C 
ATOM     20  C   UNL     1      51.912 -30.271   1.722  1.00  0.00    -0.025 C 
ATOM     21  C   UNL     1      54.053 -29.091   2.675  1.00  0.00     0.005 C 
ATOM     22  C   UNL     1      53.390 -29.770   1.421  1.00  0.00     0.003 C 
ATOM     23  C   UNL     1      51.892 -31.737   2.279  1.00  0.00     0.010 C 
ATOM     24  C   UNL     1      51.046 -30.315   0.411  1.00  0.00     0.012 C 
ATOM     25  C   UNL     1      54.315 -30.831   0.668  1.00  0.00    -0.006 C 
ATOM     26  C   UNL     1      52.785 -32.727   1.523  1.00  0.00     0.033 C 
ATOM     27  C   UNL     1      54.227 -32.205   1.396  1.00  0.00     0.120 C 
ATOM     28  C   UNL     1      53.899 -30.960  -0.831  1.00  0.00     0.014 C 
ATOM     29  C   UNL     1      55.809 -30.382   0.633  1.00  0.00     0.014 C 
ENDROOT
BRANCH   1  30
ATOM     30  C   UNL     1      49.381 -24.764   3.609  1.00  0.00     0.048 C 
ATOM     31  O   UNL     1      48.290 -25.393   3.732  1.00  0.00    -0.550 OA
ATOM     32  O   UNL     1      49.579 -24.006   2.454  1.00  0.00    -0.550 OA
ENDBRANCH   1  30
BRANCH  27  33
ATOM     33  O   UNL     1      55.059 -33.166   0.793  1.00  0.00    -0.393 OA
ATOM     34  H   UNL     1      55.989 -32.814   0.799  1.00  0.00     0.210 HD
ENDBRANCH  27  33
TORSDOF 2
ENDMDL
MODEL 9
REMARK VINA RESULT:    -7.809      5.167     10.107
REMARK INTER + INTRA:          -8.299
REMARK INTER:                  -8.477
REMARK INTRA:                   0.178
REMARK UNBOUND:                 0.195
REMARK SMILES C[C@@H]1[C@@H](C)CC[C@]2(C(=O)[O-])CC[C@]3(C)C(=CC[C@H]4[C@]5(C)CC[C@@H](O)C(C)(C)[C@@H]5CC[C@]43C)[C@@H]12
REMARK SMILES IDX 7 1 6 2 11 3 33 4 5 5 12 6 15 7 2 8 3 9 13 10 16 11 1 12
REMARK SMILES IDX 4 13 14 14 31 15 17 16 18 17 30 18 32 19 19 20 29 21 28 22
REMARK SMILES IDX 21 23 20 24 25 25 22 26 23 27 26 28 27 29 8 30 9 31 10 32
REMARK SMILES IDX 24 33
REMARK H PARENT 24 34
REMARK Flexibility Score: inf
ROOT
ATOM      1  C   UNL     1      50.898 -25.596   3.710  1.00  0.00     0.017 C 
ATOM      2  C   UNL     1      49.905 -24.686   4.478  1.00  0.00     0.014 C 
ATOM      3  C   UNL     1      50.801 -25.262   2.182  1.00  0.00     0.014 C 
ATOM      4  C   UNL     1      50.448 -27.087   3.929  1.00  0.00     0.030 C 
ATOM      5  C   UNL     1      49.834 -25.052   5.967  1.00  0.00     0.004 C 
ATOM      6  C   UNL     1      51.495 -26.297   1.245  1.00  0.00     0.013 C 
ATOM      7  C   UNL     1      51.281 -27.992   3.014  1.00  0.00    -0.063 C 
ATOM      8  C   UNL     1      50.304 -27.513   5.426  1.00  0.00    -0.003 C 
ATOM      9  C   UNL     1      49.370 -26.511   6.176  1.00  0.00    -0.011 C 
ATOM     10  C   UNL     1      51.091 -27.794   1.509  1.00  0.00    -0.006 C 
ATOM     11  C   UNL     1      52.441 -28.488   3.472  1.00  0.00    -0.027 C 
ATOM     12  C   UNL     1      49.754 -28.952   5.510  1.00  0.00     0.008 C 
ATOM     13  C   UNL     1      49.297 -26.799   7.688  1.00  0.00     0.008 C 
ATOM     14  C   UNL     1      49.564 -27.969   1.171  1.00  0.00     0.017 C 
ATOM     15  C   UNL     1      51.979 -28.852   0.640  1.00  0.00    -0.020 C 
ATOM     16  C   UNL     1      53.668 -28.445   2.629  1.00  0.00     0.032 C 
ATOM     17  C   UNL     1      53.492 -28.982   1.171  1.00  0.00     0.006 C 
ATOM     18  C   UNL     1      51.334 -30.294   0.643  1.00  0.00     0.008 C 
ATOM     19  C   UNL     1      51.996 -28.335  -0.851  1.00  0.00     0.012 C 
ATOM     20  C   UNL     1      54.189 -30.413   0.983  1.00  0.00    -0.025 C 
ATOM     21  C   UNL     1      51.816 -31.208   1.768  1.00  0.00     0.005 C 
ATOM     22  C   UNL     1      53.359 -31.511   1.776  1.00  0.00     0.003 C 
ATOM     23  C   UNL     1      54.329 -30.767  -0.538  1.00  0.00     0.010 C 
ATOM     24  C   UNL     1      55.663 -30.313   1.521  1.00  0.00     0.012 C 
ATOM     25  C   UNL     1      53.746 -33.020   1.430  1.00  0.00    -0.006 C 
ATOM     26  C   UNL     1      54.710 -32.223  -0.829  1.00  0.00     0.033 C 
ATOM     27  C   UNL     1      53.767 -33.209  -0.116  1.00  0.00     0.120 C 
ATOM     28  C   UNL     1      55.122 -33.396   2.063  1.00  0.00     0.014 C 
ATOM     29  C   UNL     1      52.732 -34.038   2.039  1.00  0.00     0.014 C 
ENDROOT
BRANCH   1  30
ATOM     30  C   UNL     1      52.314 -25.267   4.193  1.00  0.00     0.048 C 
ATOM     31  O   UNL     1      52.996 -24.392   3.584  1.00  0.00    -0.550 OA
ATOM     32  O   UNL     1      52.861 -25.853   5.335  1.00  0.00    -0.550 OA
ENDBRANCH   1  30
BRANCH  27  33
ATOM     33  O   UNL     1      54.064 -34.537  -0.473  1.00  0.00    -0.393 OA
ATOM     34  H   UNL     1      54.431 -34.532  -1.397  1.00  0.00     0.210 HD
ENDBRANCH  27  33
TORSDOF 2
ENDMDL
