MODEL 1
REMARK VINA RESULT:    -5.322      0.000      0.000
REMARK INTER + INTRA:         -11.247
REMARK INTER:                  -9.677
REMARK INTRA:                  -1.569
REMARK UNBOUND:                -1.569
REMARK SMILES CCCCCCCCCCCCCCCC(=O)[O-]
REMARK SMILES IDX 9 1 10 2 11 3 12 4 13 5 14 6 15 7 16 8 17 9 18 10 8 11 7 12
REMARK SMILES IDX 6 13 5 14 4 15 3 16 2 17 1 18
REMARK H PARENT
REMARK Flexibility Score: inf
ROOT
ATOM      1  C   UNL     1      14.214 -29.462   5.472  1.00  0.00     0.000 C 
ENDROOT
BRANCH   1   2
ATOM      2  C   UNL     1      13.879 -28.278   4.553  1.00  0.00     0.000 C 
BRANCH   2   3
ATOM      3  C   UNL     1      13.293 -27.079   5.317  1.00  0.00     0.000 C 
BRANCH   3   4
ATOM      4  C   UNL     1      11.794 -26.877   5.038  1.00  0.00     0.000 C 
BRANCH   4   5
ATOM      5  C   UNL     1      11.088 -26.044   6.124  1.00  0.00     0.000 C 
BRANCH   5   6
ATOM      6  C   UNL     1      11.350 -26.501   7.571  1.00  0.00     0.006 C 
BRANCH   6   7
ATOM      7  C   UNL     1      10.064 -26.842   8.334  1.00  0.00     0.053 C 
BRANCH   7   8
ATOM      8  C   UNL     1       9.093 -25.708   8.255  1.00  0.00     0.041 C 
ATOM      9  O   UNL     1       9.361 -24.604   8.799  1.00  0.00    -0.550 OA
ATOM     10  O   UNL     1       7.867 -25.884   7.624  1.00  0.00    -0.550 OA
ENDBRANCH   7   8
ENDBRANCH   6   7
ENDBRANCH   5   6
ENDBRANCH   4   5
ENDBRANCH   3   4
ENDBRANCH   2   3
ENDBRANCH   1   2
BRANCH   1  11
ATOM     11  C   UNL     1      14.116 -29.057   6.947  1.00  0.00     0.000 C 
BRANCH  11  12
ATOM     12  C   UNL     1      15.505 -29.031   7.604  1.00  0.00    -0.000 C 
BRANCH  12  13
ATOM     13  C   UNL     1      15.474 -28.454   9.028  1.00  0.00    -0.000 C 
BRANCH  13  14
ATOM     14  C   UNL     1      14.590 -27.198   9.138  1.00  0.00    -0.000 C 
BRANCH  14  15
ATOM     15  C   UNL     1      15.169 -25.997   8.373  1.00  0.00    -0.000 C 
BRANCH  15  16
ATOM     16  C   UNL     1      15.992 -25.062   9.276  1.00  0.00    -0.000 C 
BRANCH  16  17
ATOM     17  C   UNL     1      17.186 -24.435   8.541  1.00  0.00    -0.003 C 
ATOM     18  C   UNL     1      17.087 -24.574   7.022  1.00  0.00     0.004 C 
ENDBRANCH  16  17
ENDBRANCH  15  16
ENDBRANCH  14  15
ENDBRANCH  13  14
ENDBRANCH  12  13
ENDBRANCH  11  12
ENDBRANCH   1  11
TORSDOF 14
ENDMDL
MODEL 2
REMARK VINA RESULT:    -5.237      2.734      4.513
REMARK INTER + INTRA:         -11.092
REMARK INTER:                  -9.132
REMARK INTRA:                  -1.960
REMARK UNBOUND:                -1.569
REMARK SMILES CCCCCCCCCCCCCCCC(=O)[O-]
REMARK SMILES IDX 9 1 10 2 11 3 12 4 13 5 14 6 15 7 16 8 17 9 18 10 8 11 7 12
REMARK SMILES IDX 6 13 5 14 4 15 3 16 2 17 1 18
REMARK H PARENT
REMARK Flexibility Score: inf
ROOT
ATOM      1  C   UNL     1      13.405 -28.665   4.137  1.00  0.00     0.000 C 
ENDROOT
BRANCH   1   2
ATOM      2  C   UNL     1      13.230 -27.300   4.821  1.00  0.00     0.000 C 
BRANCH   2   3
ATOM      3  C   UNL     1      11.756 -26.956   5.090  1.00  0.00     0.000 C 
BRANCH   3   4
ATOM      4  C   UNL     1      11.576 -26.055   6.323  1.00  0.00     0.000 C 
BRANCH   4   5
ATOM      5  C   UNL     1      12.007 -26.740   7.634  1.00  0.00     0.000 C 
BRANCH   5   6
ATOM      6  C   UNL     1      12.797 -25.847   8.608  1.00  0.00     0.006 C 
BRANCH   6   7
ATOM      7  C   UNL     1      14.314 -25.920   8.394  1.00  0.00     0.053 C 
BRANCH   7   8
ATOM      8  C   UNL     1      15.030 -25.162   9.466  1.00  0.00     0.041 C 
ATOM      9  O   UNL     1      16.282 -25.028   9.419  1.00  0.00    -0.550 OA
ATOM     10  O   UNL     1      14.323 -24.646  10.544  1.00  0.00    -0.550 OA
ENDBRANCH   7   8
ENDBRANCH   6   7
ENDBRANCH   5   6
ENDBRANCH   4   5
ENDBRANCH   3   4
ENDBRANCH   2   3
ENDBRANCH   1   2
BRANCH   1  11
ATOM     11  C   UNL     1      13.908 -29.717   5.132  1.00  0.00     0.000 C 
BRANCH  11  12
ATOM     12  C   UNL     1      14.527 -29.051   6.371  1.00  0.00    -0.000 C 
BRANCH  12  13
ATOM     13  C   UNL     1      14.086 -29.718   7.683  1.00  0.00    -0.000 C 
BRANCH  13  14
ATOM     14  C   UNL     1      15.086 -29.485   8.830  1.00  0.00    -0.000 C 
BRANCH  14  15
ATOM     15  C   UNL     1      14.400 -29.047  10.134  1.00  0.00    -0.000 C 
BRANCH  15  16
ATOM     16  C   UNL     1      12.901 -29.388  10.157  1.00  0.00    -0.000 C 
BRANCH  16  17
ATOM     17  C   UNL     1      12.477 -30.097  11.452  1.00  0.00    -0.003 C 
ATOM     18  C   UNL     1      13.263 -29.620  12.673  1.00  0.00     0.004 C 
ENDBRANCH  16  17
ENDBRANCH  15  16
ENDBRANCH  14  15
ENDBRANCH  13  14
ENDBRANCH  12  13
ENDBRANCH  11  12
ENDBRANCH   1  11
TORSDOF 14
ENDMDL
MODEL 3
REMARK VINA RESULT:    -5.211      0.807      1.481
REMARK INTER + INTRA:         -11.046
REMARK INTER:                  -9.483
REMARK INTRA:                  -1.563
REMARK UNBOUND:                -1.569
REMARK SMILES CCCCCCCCCCCCCCCC(=O)[O-]
REMARK SMILES IDX 9 1 10 2 11 3 12 4 13 5 14 6 15 7 16 8 17 9 18 10 8 11 7 12
REMARK SMILES IDX 6 13 5 14 4 15 3 16 2 17 1 18
REMARK H PARENT
REMARK Flexibility Score: inf
ROOT
ATOM      1  C   UNL     1      13.657 -28.625   4.816  1.00  0.00     0.000 C 
ENDROOT
BRANCH   1   2
ATOM      2  C   UNL     1      13.118 -27.372   5.525  1.00  0.00     0.000 C 
BRANCH   2   3
ATOM      3  C   UNL     1      11.789 -26.878   4.930  1.00  0.00     0.000 C 
BRANCH   3   4
ATOM      4  C   UNL     1      10.945 -26.090   5.946  1.00  0.00     0.000 C 
BRANCH   4   5
ATOM      5  C   UNL     1      11.449 -26.245   7.393  1.00  0.00     0.000 C 
BRANCH   5   6
ATOM      6  C   UNL     1      10.387 -26.701   8.410  1.00  0.00     0.006 C 
BRANCH   6   7
ATOM      7  C   UNL     1       8.958 -26.325   7.994  1.00  0.00     0.053 C 
BRANCH   7   8
ATOM      8  C   UNL     1       8.589 -24.984   8.544  1.00  0.00     0.041 C 
ATOM      9  O   UNL     1       9.160 -24.543   9.577  1.00  0.00    -0.550 OA
ATOM     10  O   UNL     1       7.580 -24.241   7.946  1.00  0.00    -0.550 OA
ENDBRANCH   7   8
ENDBRANCH   6   7
ENDBRANCH   5   6
ENDBRANCH   4   5
ENDBRANCH   3   4
ENDBRANCH   2   3
ENDBRANCH   1   2
BRANCH   1  11
ATOM     11  C   UNL     1      14.428 -29.519   5.794  1.00  0.00     0.000 C 
BRANCH  11  12
ATOM     12  C   UNL     1      14.214 -29.061   7.245  1.00  0.00    -0.000 C 
BRANCH  12  13
ATOM     13  C   UNL     1      15.516 -29.054   8.061  1.00  0.00    -0.000 C 
BRANCH  13  14
ATOM     14  C   UNL     1      15.484 -28.037   9.216  1.00  0.00    -0.000 C 
BRANCH  14  15
ATOM     15  C   UNL     1      14.745 -26.741   8.845  1.00  0.00    -0.000 C 
BRANCH  15  16
ATOM     16  C   UNL     1      15.639 -25.750   8.082  1.00  0.00    -0.000 C 
BRANCH  16  17
ATOM     17  C   UNL     1      16.540 -24.928   9.017  1.00  0.00    -0.003 C 
ATOM     18  C   UNL     1      15.757 -24.213  10.118  1.00  0.00     0.004 C 
ENDBRANCH  16  17
ENDBRANCH  15  16
ENDBRANCH  14  15
ENDBRANCH  13  14
ENDBRANCH  12  13
ENDBRANCH  11  12
ENDBRANCH   1  11
TORSDOF 14
ENDMDL
MODEL 4
REMARK VINA RESULT:    -5.185      2.073      3.413
REMARK INTER + INTRA:         -10.998
REMARK INTER:                  -9.614
REMARK INTRA:                  -1.384
REMARK UNBOUND:                -1.569
REMARK SMILES CCCCCCCCCCCCCCCC(=O)[O-]
REMARK SMILES IDX 9 1 10 2 11 3 12 4 13 5 14 6 15 7 16 8 17 9 18 10 8 11 7 12
REMARK SMILES IDX 6 13 5 14 4 15 3 16 2 17 1 18
REMARK H PARENT
REMARK Flexibility Score: inf
ROOT
ATOM      1  C   UNL     1      13.165 -28.694   4.818  1.00  0.00     0.000 C 
ENDROOT
BRANCH   1   2
ATOM      2  C   UNL     1      13.413 -27.191   5.027  1.00  0.00     0.000 C 
BRANCH   2   3
ATOM      3  C   UNL     1      12.147 -26.435   5.461  1.00  0.00     0.000 C 
BRANCH   3   4
ATOM      4  C   UNL     1      11.701 -26.801   6.886  1.00  0.00     0.000 C 
BRANCH   4   5
ATOM      5  C   UNL     1      12.455 -26.011   7.972  1.00  0.00     0.000 C 
BRANCH   5   6
ATOM      6  C   UNL     1      11.632 -24.917   8.675  1.00  0.00     0.006 C 
BRANCH   6   7
ATOM      7  C   UNL     1      10.404 -24.477   7.867  1.00  0.00     0.053 C 
BRANCH   7   8
ATOM      8  C   UNL     1       9.153 -24.700   8.654  1.00  0.00     0.041 C 
ATOM      9  O   UNL     1       9.214 -24.935   9.890  1.00  0.00    -0.550 OA
ATOM     10  O   UNL     1       7.919 -24.700   8.015  1.00  0.00    -0.550 OA
ENDBRANCH   7   8
ENDBRANCH   6   7
ENDBRANCH   5   6
ENDBRANCH   4   5
ENDBRANCH   3   4
ENDBRANCH   2   3
ENDBRANCH   1   2
BRANCH   1  11
ATOM     11  C   UNL     1      14.282 -29.527   5.456  1.00  0.00     0.000 C 
BRANCH  11  12
ATOM     12  C   UNL     1      14.196 -29.483   6.989  1.00  0.00    -0.000 C 
BRANCH  12  13
ATOM     13  C   UNL     1      15.378 -28.736   7.627  1.00  0.00    -0.000 C 
BRANCH  13  14
ATOM     14  C   UNL     1      15.225 -28.579   9.151  1.00  0.00    -0.000 C 
BRANCH  14  15
ATOM     15  C   UNL     1      14.307 -29.647   9.768  1.00  0.00    -0.000 C 
BRANCH  15  16
ATOM     16  C   UNL     1      13.302 -29.054  10.770  1.00  0.00    -0.000 C 
BRANCH  16  17
ATOM     17  C   UNL     1      13.155 -29.913  12.035  1.00  0.00    -0.003 C 
ATOM     18  C   UNL     1      13.642 -29.199  13.296  1.00  0.00     0.004 C 
ENDBRANCH  16  17
ENDBRANCH  15  16
ENDBRANCH  14  15
ENDBRANCH  13  14
ENDBRANCH  12  13
ENDBRANCH  11  12
ENDBRANCH   1  11
TORSDOF 14
ENDMDL
MODEL 5
REMARK VINA RESULT:    -5.184      2.931      5.695
REMARK INTER + INTRA:         -10.995
REMARK INTER:                  -9.114
REMARK INTRA:                  -1.882
REMARK UNBOUND:                -1.569
REMARK SMILES CCCCCCCCCCCCCCCC(=O)[O-]
REMARK SMILES IDX 9 1 10 2 11 3 12 4 13 5 14 6 15 7 16 8 17 9 18 10 8 11 7 12
REMARK SMILES IDX 6 13 5 14 4 15 3 16 2 17 1 18
REMARK H PARENT
REMARK Flexibility Score: inf
ROOT
ATOM      1  C   UNL     1      13.509 -29.326   4.722  1.00  0.00     0.000 C 
ENDROOT
BRANCH   1   2
ATOM      2  C   UNL     1      14.314 -29.018   5.995  1.00  0.00     0.000 C 
BRANCH   2   3
ATOM      3  C   UNL     1      13.875 -29.871   7.196  1.00  0.00     0.000 C 
BRANCH   3   4
ATOM      4  C   UNL     1      14.108 -29.160   8.540  1.00  0.00     0.000 C 
BRANCH   4   5
ATOM      5  C   UNL     1      15.387 -28.303   8.551  1.00  0.00     0.000 C 
BRANCH   5   6
ATOM      6  C   UNL     1      15.170 -26.810   8.860  1.00  0.00     0.006 C 
BRANCH   6   7
ATOM      7  C   UNL     1      15.375 -25.908   7.637  1.00  0.00     0.053 C 
BRANCH   7   8
ATOM      8  C   UNL     1      16.538 -24.993   7.851  1.00  0.00     0.041 C 
ATOM      9  O   UNL     1      17.243 -24.625   6.874  1.00  0.00    -0.550 OA
ATOM     10  O   UNL     1      16.875 -24.585   9.135  1.00  0.00    -0.550 OA
ENDBRANCH   7   8
ENDBRANCH   6   7
ENDBRANCH   5   6
ENDBRANCH   4   5
ENDBRANCH   3   4
ENDBRANCH   2   3
ENDBRANCH   1   2
BRANCH   1  11
ATOM     11  C   UNL     1      12.942 -28.041   4.107  1.00  0.00     0.000 C 
BRANCH  11  12
ATOM     12  C   UNL     1      12.935 -26.897   5.133  1.00  0.00    -0.000 C 
BRANCH  12  13
ATOM     13  C   UNL     1      11.573 -26.731   5.824  1.00  0.00    -0.000 C 
BRANCH  13  14
ATOM     14  C   UNL     1      11.688 -26.054   7.202  1.00  0.00    -0.000 C 
BRANCH  14  15
ATOM     15  C   UNL     1      11.196 -26.953   8.348  1.00  0.00    -0.000 C 
BRANCH  15  16
ATOM     16  C   UNL     1       9.743 -26.653   8.751  1.00  0.00    -0.000 C 
BRANCH  16  17
ATOM     17  C   UNL     1       9.386 -25.166   8.606  1.00  0.00    -0.003 C 
ATOM     18  C   UNL     1       9.029 -24.509   9.939  1.00  0.00     0.004 C 
ENDBRANCH  16  17
ENDBRANCH  15  16
ENDBRANCH  14  15
ENDBRANCH  13  14
ENDBRANCH  12  13
ENDBRANCH  11  12
ENDBRANCH   1  11
TORSDOF 14
ENDMDL
MODEL 6
REMARK VINA RESULT:    -5.150      2.887      4.348
REMARK INTER + INTRA:         -10.935
REMARK INTER:                  -9.079
REMARK INTRA:                  -1.856
REMARK UNBOUND:                -1.569
REMARK SMILES CCCCCCCCCCCCCCCC(=O)[O-]
REMARK SMILES IDX 9 1 10 2 11 3 12 4 13 5 14 6 15 7 16 8 17 9 18 10 8 11 7 12
REMARK SMILES IDX 6 13 5 14 4 15 3 16 2 17 1 18
REMARK H PARENT
REMARK Flexibility Score: inf
ROOT
ATOM      1  C   UNL     1      13.103 -28.332   4.969  1.00  0.00     0.000 C 
ENDROOT
BRANCH   1   2
ATOM      2  C   UNL     1      14.268 -29.211   5.450  1.00  0.00     0.000 C 
BRANCH   2   3
ATOM      3  C   UNL     1      14.255 -29.436   6.971  1.00  0.00     0.000 C 
BRANCH   3   4
ATOM      4  C   UNL     1      15.496 -28.848   7.664  1.00  0.00     0.000 C 
BRANCH   4   5
ATOM      5  C   UNL     1      15.336 -28.742   9.192  1.00  0.00     0.000 C 
BRANCH   5   6
ATOM      6  C   UNL     1      14.279 -29.679   9.805  1.00  0.00     0.006 C 
BRANCH   6   7
ATOM      7  C   UNL     1      13.248 -28.939  10.666  1.00  0.00     0.053 C 
BRANCH   7   8
ATOM      8  C   UNL     1      12.746 -29.827  11.759  1.00  0.00     0.041 C 
ATOM      9  O   UNL     1      13.466 -30.063  12.766  1.00  0.00    -0.550 OA
ATOM     10  O   UNL     1      11.503 -30.436  11.646  1.00  0.00    -0.550 OA
ENDBRANCH   7   8
ENDBRANCH   6   7
ENDBRANCH   5   6
ENDBRANCH   4   5
ENDBRANCH   3   4
ENDBRANCH   2   3
ENDBRANCH   1   2
BRANCH   1  11
ATOM     11  C   UNL     1      13.255 -26.894   5.478  1.00  0.00     0.000 C 
BRANCH  11  12
ATOM     12  C   UNL     1      11.988 -26.433   6.215  1.00  0.00    -0.000 C 
BRANCH  12  13
ATOM     13  C   UNL     1      11.968 -26.873   7.687  1.00  0.00    -0.000 C 
BRANCH  13  14
ATOM     14  C   UNL     1      12.321 -25.726   8.652  1.00  0.00    -0.000 C 
BRANCH  14  15
ATOM     15  C   UNL     1      13.834 -25.598   8.893  1.00  0.00    -0.000 C 
BRANCH  15  16
ATOM     16  C   UNL     1      14.168 -24.644  10.052  1.00  0.00    -0.000 C 
BRANCH  16  17
ATOM     17  C   UNL     1      15.679 -24.402  10.198  1.00  0.00    -0.003 C 
ATOM     18  C   UNL     1      16.482 -24.935   9.012  1.00  0.00     0.004 C 
ENDBRANCH  16  17
ENDBRANCH  15  16
ENDBRANCH  14  15
ENDBRANCH  13  14
ENDBRANCH  12  13
ENDBRANCH  11  12
ENDBRANCH   1  11
TORSDOF 14
ENDMDL
MODEL 7
REMARK VINA RESULT:    -5.114      2.934      5.717
REMARK INTER + INTRA:         -10.869
REMARK INTER:                  -8.966
REMARK INTRA:                  -1.903
REMARK UNBOUND:                -1.569
REMARK SMILES CCCCCCCCCCCCCCCC(=O)[O-]
REMARK SMILES IDX 9 1 10 2 11 3 12 4 13 5 14 6 15 7 16 8 17 9 18 10 8 11 7 12
REMARK SMILES IDX 6 13 5 14 4 15 3 16 2 17 1 18
REMARK H PARENT
REMARK Flexibility Score: inf
ROOT
ATOM      1  C   UNL     1      13.593 -25.718   9.288  1.00  0.00     0.000 C 
ENDROOT
BRANCH   1   2
ATOM      2  C   UNL     1      14.877 -25.905   8.465  1.00  0.00     0.000 C 
BRANCH   2   3
ATOM      3  C   UNL     1      15.711 -27.110   8.930  1.00  0.00     0.000 C 
BRANCH   3   4
ATOM      4  C   UNL     1      15.454 -28.367   8.082  1.00  0.00     0.000 C 
BRANCH   4   5
ATOM      5  C   UNL     1      14.940 -29.557   8.915  1.00  0.00     0.000 C 
BRANCH   5   6
ATOM      6  C   UNL     1      14.136 -29.176  10.172  1.00  0.00     0.006 C 
BRANCH   6   7
ATOM      7  C   UNL     1      12.655 -29.563  10.076  1.00  0.00     0.053 C 
BRANCH   7   8
ATOM      8  C   UNL     1      12.185 -30.157  11.365  1.00  0.00     0.041 C 
ATOM      9  O   UNL     1      11.104 -30.802  11.409  1.00  0.00    -0.550 OA
ATOM     10  O   UNL     1      12.915 -29.957  12.530  1.00  0.00    -0.550 OA
ENDBRANCH   7   8
ENDBRANCH   6   7
ENDBRANCH   5   6
ENDBRANCH   4   5
ENDBRANCH   3   4
ENDBRANCH   2   3
ENDBRANCH   1   2
BRANCH   1  11
ATOM     11  C   UNL     1      12.401 -25.398   8.379  1.00  0.00     0.000 C 
BRANCH  11  12
ATOM     12  C   UNL     1      11.669 -26.682   7.958  1.00  0.00    -0.000 C 
BRANCH  12  13
ATOM     13  C   UNL     1      11.542 -26.816   6.432  1.00  0.00    -0.000 C 
BRANCH  13  14
ATOM     14  C   UNL     1      12.856 -27.265   5.767  1.00  0.00    -0.000 C 
BRANCH  14  15
ATOM     15  C   UNL     1      12.659 -27.710   4.308  1.00  0.00    -0.000 C 
BRANCH  15  16
ATOM     16  C   UNL     1      13.470 -28.969   3.961  1.00  0.00    -0.000 C 
BRANCH  16  17
ATOM     17  C   UNL     1      13.851 -29.787   5.205  1.00  0.00    -0.003 C 
ATOM     18  C   UNL     1      13.379 -31.239   5.128  1.00  0.00     0.004 C 
ENDBRANCH  16  17
ENDBRANCH  15  16
ENDBRANCH  14  15
ENDBRANCH  13  14
ENDBRANCH  12  13
ENDBRANCH  11  12
ENDBRANCH   1  11
TORSDOF 14
ENDMDL
MODEL 8
REMARK VINA RESULT:    -5.074      3.213      5.907
REMARK INTER + INTRA:         -10.796
REMARK INTER:                  -9.038
REMARK INTRA:                  -1.758
REMARK UNBOUND:                -1.569
REMARK SMILES CCCCCCCCCCCCCCCC(=O)[O-]
REMARK SMILES IDX 9 1 10 2 11 3 12 4 13 5 14 6 15 7 16 8 17 9 18 10 8 11 7 12
REMARK SMILES IDX 6 13 5 14 4 15 3 16 2 17 1 18
REMARK H PARENT
REMARK Flexibility Score: inf
ROOT
ATOM      1  C   UNL     1      12.298 -25.750   8.472  1.00  0.00     0.000 C 
ENDROOT
BRANCH   1   2
ATOM      2  C   UNL     1      13.824 -25.931   8.503  1.00  0.00     0.000 C 
BRANCH   2   3
ATOM      3  C   UNL     1      14.259 -27.178   9.290  1.00  0.00     0.000 C 
BRANCH   3   4
ATOM      4  C   UNL     1      15.366 -27.970   8.574  1.00  0.00     0.000 C 
BRANCH   4   5
ATOM      5  C   UNL     1      14.938 -29.404   8.210  1.00  0.00     0.000 C 
BRANCH   5   6
ATOM      6  C   UNL     1      13.853 -29.506   7.124  1.00  0.00     0.006 C 
BRANCH   6   7
ATOM      7  C   UNL     1      14.418 -29.416   5.700  1.00  0.00     0.053 C 
BRANCH   7   8
ATOM      8  C   UNL     1      13.568 -28.521   4.856  1.00  0.00     0.041 C 
ATOM      9  O   UNL     1      12.746 -27.734   5.395  1.00  0.00    -0.550 OA
ATOM     10  O   UNL     1      13.646 -28.592   3.471  1.00  0.00    -0.550 OA
ENDBRANCH   7   8
ENDBRANCH   6   7
ENDBRANCH   5   6
ENDBRANCH   4   5
ENDBRANCH   3   4
ENDBRANCH   2   3
ENDBRANCH   1   2
BRANCH   1  11
ATOM     11  C   UNL     1      11.585 -27.107   8.458  1.00  0.00     0.000 C 
BRANCH  11  12
ATOM     12  C   UNL     1      10.091 -26.948   8.777  1.00  0.00    -0.000 C 
BRANCH  12  13
ATOM     13  C   UNL     1       9.552 -28.081   9.664  1.00  0.00    -0.000 C 
BRANCH  13  14
ATOM     14  C   UNL     1      10.572 -29.218   9.856  1.00  0.00    -0.000 C 
BRANCH  14  15
ATOM     15  C   UNL     1      10.492 -29.857  11.252  1.00  0.00    -0.000 C 
BRANCH  15  16
ATOM     16  C   UNL     1      11.728 -30.710  11.582  1.00  0.00    -0.000 C 
BRANCH  16  17
ATOM     17  C   UNL     1      13.039 -29.917  11.468  1.00  0.00    -0.003 C 
ATOM     18  C   UNL     1      13.447 -29.252  12.782  1.00  0.00     0.004 C 
ENDBRANCH  16  17
ENDBRANCH  15  16
ENDBRANCH  14  15
ENDBRANCH  13  14
ENDBRANCH  12  13
ENDBRANCH  11  12
ENDBRANCH   1  11
TORSDOF 14
ENDMDL
MODEL 9
REMARK VINA RESULT:    -5.003      2.169      4.265
REMARK INTER + INTRA:         -10.668
REMARK INTER:                  -8.872
REMARK INTRA:                  -1.796
REMARK UNBOUND:                -1.569
REMARK SMILES CCCCCCCCCCCCCCCC(=O)[O-]
REMARK SMILES IDX 9 1 10 2 11 3 12 4 13 5 14 6 15 7 16 8 17 9 18 10 8 11 7 12
REMARK SMILES IDX 6 13 5 14 4 15 3 16 2 17 1 18
REMARK H PARENT
REMARK Flexibility Score: inf
ROOT
ATOM      1  C   UNL     1      15.051 -26.279   8.178  1.00  0.00     0.000 C 
ENDROOT
BRANCH   1   2
ATOM      2  C   UNL     1      14.135 -25.747   9.291  1.00  0.00     0.000 C 
BRANCH   2   3
ATOM      3  C   UNL     1      12.725 -25.402   8.785  1.00  0.00     0.000 C 
BRANCH   3   4
ATOM      4  C   UNL     1      11.959 -26.638   8.284  1.00  0.00     0.000 C 
BRANCH   4   5
ATOM      5  C   UNL     1      11.536 -26.523   6.807  1.00  0.00     0.000 C 
BRANCH   5   6
ATOM      6  C   UNL     1      10.073 -26.100   6.579  1.00  0.00     0.006 C 
BRANCH   6   7
ATOM      7  C   UNL     1       9.793 -24.653   7.007  1.00  0.00     0.053 C 
BRANCH   7   8
ATOM      8  C   UNL     1       8.790 -24.621   8.116  1.00  0.00     0.041 C 
ATOM      9  O   UNL     1       9.170 -24.671   9.316  1.00  0.00    -0.550 OA
ATOM     10  O   UNL     1       7.432 -24.586   7.825  1.00  0.00    -0.550 OA
ENDBRANCH   7   8
ENDBRANCH   6   7
ENDBRANCH   5   6
ENDBRANCH   4   5
ENDBRANCH   3   4
ENDBRANCH   2   3
ENDBRANCH   1   2
BRANCH   1  11
ATOM     11  C   UNL     1      15.801 -27.534   8.638  1.00  0.00     0.000 C 
BRANCH  11  12
ATOM     12  C   UNL     1      15.365 -28.765   7.828  1.00  0.00    -0.000 C 
BRANCH  12  13
ATOM     13  C   UNL     1      14.119 -29.447   8.414  1.00  0.00    -0.000 C 
BRANCH  13  14
ATOM     14  C   UNL     1      14.274 -29.777   9.909  1.00  0.00    -0.000 C 
BRANCH  14  15
ATOM     15  C   UNL     1      13.199 -29.105  10.779  1.00  0.00    -0.000 C 
BRANCH  15  16
ATOM     16  C   UNL     1      12.515 -30.092  11.740  1.00  0.00    -0.000 C 
BRANCH  16  17
ATOM     17  C   UNL     1      11.106 -30.489  11.274  1.00  0.00    -0.003 C 
ATOM     18  C   UNL     1      10.505 -29.488  10.287  1.00  0.00     0.004 C 
ENDBRANCH  16  17
ENDBRANCH  15  16
ENDBRANCH  14  15
ENDBRANCH  13  14
ENDBRANCH  12  13
ENDBRANCH  11  12
ENDBRANCH   1  11
TORSDOF 14
ENDMDL
