MODEL 1
REMARK VINA RESULT:    -6.640      0.000      0.000
REMARK INTER + INTRA:          -8.290
REMARK INTER:                  -7.999
REMARK INTRA:                  -0.291
REMARK UNBOUND:                -0.291
REMARK SMILES O=c1c(O)c(-c2ccc(O)c(O)c2)oc2cc(O)cc(O)c12
REMARK SMILES IDX 5 1 3 2 2 3 1 4 22 5 20 6 19 7 17 8 16 9 15 10 14 11 6 12
REMARK SMILES IDX 7 13 8 14 9 15 13 16 11 17 10 18 12 20 4 22 21 24 18 26
REMARK H PARENT 10 19 12 21 4 23 21 25 18 27
REMARK Flexibility Score: inf
ROOT
ATOM      1  C   UNL     1      24.436  45.978   9.315  1.00  0.00     0.180 A 
ATOM      2  C   UNL     1      23.922  45.062  10.248  1.00  0.00     0.208 A 
ATOM      3  C   UNL     1      22.539  44.818  10.271  1.00  0.00     0.238 A 
ATOM      4  O   UNL     1      22.095  43.941  11.058  1.00  0.00    -0.285 OA
ATOM      5  C   UNL     1      21.682  45.533   9.401  1.00  0.00     0.111 A 
ATOM      6  C   UNL     1      20.260  45.399   9.369  1.00  0.00     0.134 A 
ATOM      7  C   UNL     1      19.524  46.080   8.392  1.00  0.00     0.093 A 
ATOM      8  C   UNL     1      20.148  46.939   7.488  1.00  0.00     0.123 A 
ATOM      9  C   UNL     1      21.530  47.120   7.545  1.00  0.00     0.094 A 
ATOM     10  C   UNL     1      22.297  46.425   8.484  1.00  0.00     0.146 A 
ATOM     11  O   UNL     1      23.611  46.610   8.489  1.00  0.00    -0.452 OA
ENDROOT
BRANCH   1  12
ATOM     12  C   UNL     1      25.884  46.278   9.220  1.00  0.00     0.025 A 
ATOM     13  C   UNL     1      26.679  45.729   8.201  1.00  0.00     0.016 A 
ATOM     14  C   UNL     1      28.037  46.046   8.116  1.00  0.00     0.051 A 
ATOM     15  C   UNL     1      28.617  46.925   9.040  1.00  0.00     0.157 A 
ATOM     16  C   UNL     1      26.464  47.175  10.132  1.00  0.00     0.062 A 
ATOM     17  C   UNL     1      27.824  47.494  10.051  1.00  0.00     0.158 A 
BRANCH  15  18
ATOM     18  O   UNL     1      29.973  47.238   8.956  1.00  0.00    -0.504 OA
ATOM     19  H   UNL     1      30.387  47.572   8.093  1.00  0.00     0.293 HD
ENDBRANCH  15  18
BRANCH  17  20
ATOM     20  O   UNL     1      28.368  48.378  10.982  1.00  0.00    -0.504 OA
ATOM     21  H   UNL     1      29.368  48.504  11.085  1.00  0.00     0.293 HD
ENDBRANCH  17  20
ENDBRANCH   1  12
BRANCH   2  22
ATOM     22  O   UNL     1      24.776  44.422  11.151  1.00  0.00    -0.502 OA
ATOM     23  H   UNL     1      25.483  43.761  10.855  1.00  0.00     0.293 HD
ENDBRANCH   2  22
BRANCH   6  24
ATOM     24  O   UNL     1      19.525  44.636  10.281  1.00  0.00    -0.507 OA
ATOM     25  H   UNL     1      19.601  44.703  11.284  1.00  0.00     0.293 HD
ENDBRANCH   6  24
BRANCH   8  26
ATOM     26  O   UNL     1      19.382  47.615   6.541  1.00  0.00    -0.508 OA
ATOM     27  H   UNL     1      19.705  48.474   6.111  1.00  0.00     0.293 HD
ENDBRANCH   8  26
TORSDOF 6
ENDMDL
MODEL 2
REMARK VINA RESULT:    -6.618      9.430     11.253
REMARK INTER + INTRA:          -8.263
REMARK INTER:                  -8.010
REMARK INTRA:                  -0.253
REMARK UNBOUND:                -0.291
REMARK SMILES O=c1c(O)c(-c2ccc(O)c(O)c2)oc2cc(O)cc(O)c12
REMARK SMILES IDX 5 1 3 2 2 3 1 4 22 5 20 6 19 7 17 8 16 9 15 10 14 11 6 12
REMARK SMILES IDX 7 13 8 14 9 15 13 16 11 17 10 18 12 20 4 22 21 24 18 26
REMARK H PARENT 10 19 12 21 4 23 21 25 18 27
REMARK Flexibility Score: inf
ROOT
ATOM      1  C   UNL     1      26.126  39.015   3.027  1.00  0.00     0.180 A 
ATOM      2  C   UNL     1      25.285  39.905   3.716  1.00  0.00     0.208 A 
ATOM      3  C   UNL     1      25.335  41.273   3.401  1.00  0.00     0.238 A 
ATOM      4  O   UNL     1      24.527  42.053   3.968  1.00  0.00    -0.285 OA
ATOM      5  C   UNL     1      26.265  41.741   2.442  1.00  0.00     0.111 A 
ATOM      6  C   UNL     1      26.435  43.112   2.076  1.00  0.00     0.134 A 
ATOM      7  C   UNL     1      27.314  43.445   1.037  1.00  0.00     0.093 A 
ATOM      8  C   UNL     1      28.074  42.469   0.395  1.00  0.00     0.123 A 
ATOM      9  C   UNL     1      27.957  41.134   0.781  1.00  0.00     0.094 A 
ATOM     10  C   UNL     1      27.061  40.764   1.788  1.00  0.00     0.146 A 
ATOM     11  O   UNL     1      26.965  39.480   2.110  1.00  0.00    -0.452 OA
ENDROOT
BRANCH   1  12
ATOM     12  C   UNL     1      26.120  37.558   3.294  1.00  0.00     0.025 A 
ATOM     13  C   UNL     1      26.686  37.026   4.463  1.00  0.00     0.016 A 
ATOM     14  C   UNL     1      26.647  35.650   4.705  1.00  0.00     0.051 A 
ATOM     15  C   UNL     1      26.029  34.788   3.788  1.00  0.00     0.157 A 
ATOM     16  C   UNL     1      25.483  36.694   2.388  1.00  0.00     0.062 A 
ATOM     17  C   UNL     1      25.442  35.316   2.625  1.00  0.00     0.158 A 
BRANCH  15  18
ATOM     18  O   UNL     1      25.993  33.417   4.030  1.00  0.00    -0.504 OA
ATOM     19  H   UNL     1      26.102  33.040   4.964  1.00  0.00     0.293 HD
ENDBRANCH  15  18
BRANCH  17  20
ATOM     20  O   UNL     1      24.814  34.487   1.697  1.00  0.00    -0.504 OA
ATOM     21  H   UNL     1      23.847  34.619   1.424  1.00  0.00     0.293 HD
ENDBRANCH  17  20
ENDBRANCH   1  12
BRANCH   2  22
ATOM     22  O   UNL     1      24.427  39.433   4.714  1.00  0.00    -0.502 OA
ATOM     23  H   UNL     1      24.585  38.558   5.199  1.00  0.00     0.293 HD
ENDBRANCH   2  22
BRANCH   6  24
ATOM     24  O   UNL     1      25.792  44.177   2.712  1.00  0.00    -0.507 OA
ATOM     25  H   UNL     1      25.047  44.725   2.311  1.00  0.00     0.293 HD
ENDBRANCH   6  24
BRANCH   8  26
ATOM     26  O   UNL     1      28.950  42.840  -0.622  1.00  0.00    -0.508 OA
ATOM     27  H   UNL     1      28.614  43.190  -1.512  1.00  0.00     0.293 HD
ENDBRANCH   8  26
TORSDOF 6
ENDMDL
MODEL 3
REMARK VINA RESULT:    -6.611      2.899      3.105
REMARK INTER + INTRA:          -8.255
REMARK INTER:                  -8.079
REMARK INTRA:                  -0.176
REMARK UNBOUND:                -0.291
REMARK SMILES O=c1c(O)c(-c2ccc(O)c(O)c2)oc2cc(O)cc(O)c12
REMARK SMILES IDX 5 1 3 2 2 3 1 4 22 5 20 6 19 7 17 8 16 9 15 10 14 11 6 12
REMARK SMILES IDX 7 13 8 14 9 15 13 16 11 17 10 18 12 20 4 22 21 24 18 26
REMARK H PARENT 10 19 12 21 4 23 21 25 18 27
REMARK Flexibility Score: inf
ROOT
ATOM      1  C   UNL     1      22.922  44.946  10.680  1.00  0.00     0.180 A 
ATOM      2  C   UNL     1      21.801  44.952  11.527  1.00  0.00     0.208 A 
ATOM      3  C   UNL     1      20.602  45.519  11.066  1.00  0.00     0.238 A 
ATOM      4  O   UNL     1      19.583  45.453  11.801  1.00  0.00    -0.285 OA
ATOM      5  C   UNL     1      20.554  46.123   9.787  1.00  0.00     0.111 A 
ATOM      6  C   UNL     1      19.405  46.768   9.235  1.00  0.00     0.134 A 
ATOM      7  C   UNL     1      19.443  47.238   7.917  1.00  0.00     0.093 A 
ATOM      8  C   UNL     1      20.604  47.145   7.152  1.00  0.00     0.123 A 
ATOM      9  C   UNL     1      21.750  46.566   7.698  1.00  0.00     0.094 A 
ATOM     10  C   UNL     1      21.733  46.053   8.999  1.00  0.00     0.146 A 
ATOM     11  O   UNL     1      22.837  45.492   9.472  1.00  0.00    -0.452 OA
ENDROOT
BRANCH   1  12
ATOM     12  C   UNL     1      24.217  44.354  11.089  1.00  0.00     0.025 A 
ATOM     13  C   UNL     1      24.747  43.231  10.433  1.00  0.00     0.016 A 
ATOM     14  C   UNL     1      25.982  42.704  10.821  1.00  0.00     0.051 A 
ATOM     15  C   UNL     1      26.711  43.300  11.858  1.00  0.00     0.157 A 
ATOM     16  C   UNL     1      24.960  44.961  12.115  1.00  0.00     0.062 A 
ATOM     17  C   UNL     1      26.197  44.436  12.506  1.00  0.00     0.158 A 
BRANCH  15  18
ATOM     18  O   UNL     1      27.942  42.772  12.244  1.00  0.00    -0.504 OA
ATOM     19  H   UNL     1      28.019  41.844  12.643  1.00  0.00     0.293 HD
ENDBRANCH  15  18
BRANCH  17  20
ATOM     20  O   UNL     1      26.900  45.058  13.537  1.00  0.00    -0.504 OA
ATOM     21  H   UNL     1      26.624  45.958  13.912  1.00  0.00     0.293 HD
ENDBRANCH  17  20
ENDBRANCH   1  12
BRANCH   2  22
ATOM     22  O   UNL     1      21.890  44.417  12.816  1.00  0.00    -0.502 OA
ATOM     23  H   UNL     1      21.325  43.635  13.120  1.00  0.00     0.293 HD
ENDBRANCH   2  22
BRANCH   6  24
ATOM     24  O   UNL     1      18.220  46.994   9.941  1.00  0.00    -0.507 OA
ATOM     25  H   UNL     1      17.961  46.533  10.799  1.00  0.00     0.293 HD
ENDBRANCH   6  24
BRANCH   8  26
ATOM     26  O   UNL     1      20.612  47.639   5.849  1.00  0.00    -0.508 OA
ATOM     27  H   UNL     1      20.315  47.070   5.064  1.00  0.00     0.293 HD
ENDBRANCH   8  26
TORSDOF 6
ENDMDL
MODEL 4
REMARK VINA RESULT:    -6.559      9.688     11.809
REMARK INTER + INTRA:          -8.192
REMARK INTER:                  -7.872
REMARK INTRA:                  -0.320
REMARK UNBOUND:                -0.291
REMARK SMILES O=c1c(O)c(-c2ccc(O)c(O)c2)oc2cc(O)cc(O)c12
REMARK SMILES IDX 5 1 3 2 2 3 1 4 22 5 20 6 19 7 17 8 16 9 15 10 14 11 6 12
REMARK SMILES IDX 7 13 8 14 9 15 13 16 11 17 10 18 12 20 4 22 21 24 18 26
REMARK H PARENT 10 19 12 21 4 23 21 25 18 27
REMARK Flexibility Score: inf
ROOT
ATOM      1  C   UNL     1      27.317  39.076   2.234  1.00  0.00     0.180 A 
ATOM      2  C   UNL     1      28.462  39.154   1.423  1.00  0.00     0.208 A 
ATOM      3  C   UNL     1      28.866  40.407   0.934  1.00  0.00     0.238 A 
ATOM      4  O   UNL     1      29.934  40.480   0.272  1.00  0.00    -0.285 OA
ATOM      5  C   UNL     1      28.090  41.557   1.215  1.00  0.00     0.111 A 
ATOM      6  C   UNL     1      28.380  42.871   0.734  1.00  0.00     0.134 A 
ATOM      7  C   UNL     1      27.600  43.951   1.164  1.00  0.00     0.093 A 
ATOM      8  C   UNL     1      26.505  43.760   2.004  1.00  0.00     0.123 A 
ATOM      9  C   UNL     1      26.178  42.474   2.437  1.00  0.00     0.094 A 
ATOM     10  C   UNL     1      26.960  41.380   2.056  1.00  0.00     0.146 A 
ATOM     11  O   UNL     1      26.628  40.177   2.507  1.00  0.00    -0.452 OA
ENDROOT
BRANCH   1  12
ATOM     12  C   UNL     1      26.837  37.794   2.799  1.00  0.00     0.025 A 
ATOM     13  C   UNL     1      27.182  37.392   4.100  1.00  0.00     0.016 A 
ATOM     14  C   UNL     1      26.697  36.189   4.620  1.00  0.00     0.051 A 
ATOM     15  C   UNL     1      25.849  35.378   3.854  1.00  0.00     0.157 A 
ATOM     16  C   UNL     1      25.969  36.988   2.042  1.00  0.00     0.062 A 
ATOM     17  C   UNL     1      25.482  35.783   2.560  1.00  0.00     0.158 A 
BRANCH  15  18
ATOM     18  O   UNL     1      25.368  34.178   4.375  1.00  0.00    -0.504 OA
ATOM     19  H   UNL     1      24.635  34.159   5.074  1.00  0.00     0.293 HD
ENDBRANCH  15  18
BRANCH  17  20
ATOM     20  O   UNL     1      24.634  35.003   1.774  1.00  0.00    -0.504 OA
ATOM     21  H   UNL     1      24.434  34.034   1.995  1.00  0.00     0.293 HD
ENDBRANCH  17  20
ENDBRANCH   1  12
BRANCH   2  22
ATOM     22  O   UNL     1      29.172  37.995   1.094  1.00  0.00    -0.502 OA
ATOM     23  H   UNL     1      29.110  37.560   0.182  1.00  0.00     0.293 HD
ENDBRANCH   2  22
BRANCH   6  24
ATOM     24  O   UNL     1      29.397  43.163  -0.179  1.00  0.00    -0.507 OA
ATOM     25  H   UNL     1      30.234  43.682   0.034  1.00  0.00     0.293 HD
ENDBRANCH   6  24
BRANCH   8  26
ATOM     26  O   UNL     1      25.740  44.856   2.398  1.00  0.00    -0.508 OA
ATOM     27  H   UNL     1      24.800  45.001   2.048  1.00  0.00     0.293 HD
ENDBRANCH   8  26
TORSDOF 6
ENDMDL
MODEL 5
REMARK VINA RESULT:    -6.457      7.275      8.982
REMARK INTER + INTRA:          -8.069
REMARK INTER:                  -7.760
REMARK INTRA:                  -0.309
REMARK UNBOUND:                -0.291
REMARK SMILES O=c1c(O)c(-c2ccc(O)c(O)c2)oc2cc(O)cc(O)c12
REMARK SMILES IDX 5 1 3 2 2 3 1 4 22 5 20 6 19 7 17 8 16 9 15 10 14 11 6 12
REMARK SMILES IDX 7 13 8 14 9 15 13 16 11 17 10 18 12 20 4 22 21 24 18 26
REMARK H PARENT 10 19 12 21 4 23 21 25 18 27
REMARK Flexibility Score: inf
ROOT
ATOM      1  C   UNL     1      27.099  43.830   2.213  1.00  0.00     0.180 A 
ATOM      2  C   UNL     1      26.801  42.871   1.230  1.00  0.00     0.208 A 
ATOM      3  C   UNL     1      26.377  41.594   1.631  1.00  0.00     0.238 A 
ATOM      4  O   UNL     1      26.041  40.765   0.745  1.00  0.00    -0.285 OA
ATOM      5  C   UNL     1      26.310  41.273   3.008  1.00  0.00     0.111 A 
ATOM      6  C   UNL     1      25.937  39.995   3.527  1.00  0.00     0.134 A 
ATOM      7  C   UNL     1      25.804  39.825   4.911  1.00  0.00     0.093 A 
ATOM      8  C   UNL     1      26.091  40.863   5.795  1.00  0.00     0.123 A 
ATOM      9  C   UNL     1      26.509  42.099   5.302  1.00  0.00     0.094 A 
ATOM     10  C   UNL     1      26.615  42.312   3.925  1.00  0.00     0.146 A 
ATOM     11  O   UNL     1      26.995  43.509   3.497  1.00  0.00    -0.452 OA
ENDROOT
BRANCH   1  12
ATOM     12  C   UNL     1      27.537  45.202   1.870  1.00  0.00     0.025 A 
ATOM     13  C   UNL     1      28.877  45.486   1.557  1.00  0.00     0.016 A 
ATOM     14  C   UNL     1      29.263  46.783   1.212  1.00  0.00     0.051 A 
ATOM     15  C   UNL     1      28.315  47.813   1.160  1.00  0.00     0.157 A 
ATOM     16  C   UNL     1      26.586  46.233   1.797  1.00  0.00     0.062 A 
ATOM     17  C   UNL     1      26.969  47.534   1.453  1.00  0.00     0.158 A 
BRANCH  15  18
ATOM     18  O   UNL     1      28.702  49.107   0.818  1.00  0.00    -0.504 OA
ATOM     19  H   UNL     1      28.660  49.868   1.486  1.00  0.00     0.293 HD
ENDBRANCH  15  18
BRANCH  17  20
ATOM     20  O   UNL     1      25.999  48.535   1.404  1.00  0.00    -0.504 OA
ATOM     21  H   UNL     1      25.182  48.523   2.003  1.00  0.00     0.293 HD
ENDBRANCH  17  20
ENDBRANCH   1  12
BRANCH   2  22
ATOM     22  O   UNL     1      26.946  43.184  -0.125  1.00  0.00    -0.502 OA
ATOM     23  H   UNL     1      27.395  42.559  -0.783  1.00  0.00     0.293 HD
ENDBRANCH   2  22
BRANCH   6  24
ATOM     24  O   UNL     1      25.714  38.864   2.737  1.00  0.00    -0.507 OA
ATOM     25  H   UNL     1      24.908  38.263   2.803  1.00  0.00     0.293 HD
ENDBRANCH   6  24
BRANCH   8  26
ATOM     26  O   UNL     1      25.964  40.652   7.167  1.00  0.00    -0.508 OA
ATOM     27  H   UNL     1      25.715  39.745   7.544  1.00  0.00     0.293 HD
ENDBRANCH   8  26
TORSDOF 6
ENDMDL
MODEL 6
REMARK VINA RESULT:    -6.328      9.664     11.449
REMARK INTER + INTRA:          -7.914
REMARK INTER:                  -7.593
REMARK INTRA:                  -0.321
REMARK UNBOUND:                -0.291
REMARK SMILES O=c1c(O)c(-c2ccc(O)c(O)c2)oc2cc(O)cc(O)c12
REMARK SMILES IDX 5 1 3 2 2 3 1 4 22 5 20 6 19 7 17 8 16 9 15 10 14 11 6 12
REMARK SMILES IDX 7 13 8 14 9 15 13 16 11 17 10 18 12 20 4 22 21 24 18 26
REMARK H PARENT 10 19 12 21 4 23 21 25 18 27
REMARK Flexibility Score: inf
ROOT
ATOM      1  C   UNL     1      25.862  37.760   3.655  1.00  0.00     0.180 A 
ATOM      2  C   UNL     1      26.159  38.139   2.335  1.00  0.00     0.208 A 
ATOM      3  C   UNL     1      26.432  39.488   2.059  1.00  0.00     0.238 A 
ATOM      4  O   UNL     1      26.771  39.808   0.890  1.00  0.00    -0.285 OA
ATOM      5  C   UNL     1      26.350  40.451   3.094  1.00  0.00     0.111 A 
ATOM      6  C   UNL     1      26.562  41.852   2.919  1.00  0.00     0.134 A 
ATOM      7  C   UNL     1      26.557  42.696   4.037  1.00  0.00     0.093 A 
ATOM      8  C   UNL     1      26.286  42.201   5.312  1.00  0.00     0.123 A 
ATOM      9  C   UNL     1      26.023  40.842   5.487  1.00  0.00     0.094 A 
ATOM     10  C   UNL     1      26.058  39.969   4.397  1.00  0.00     0.146 A 
ATOM     11  O   UNL     1      25.823  38.680   4.611  1.00  0.00    -0.452 OA
ENDROOT
BRANCH   1  12
ATOM     12  C   UNL     1      25.577  36.355   4.027  1.00  0.00     0.025 A 
ATOM     13  C   UNL     1      24.284  35.818   3.922  1.00  0.00     0.016 A 
ATOM     14  C   UNL     1      24.044  34.482   4.256  1.00  0.00     0.051 A 
ATOM     15  C   UNL     1      25.095  33.660   4.685  1.00  0.00     0.157 A 
ATOM     16  C   UNL     1      26.632  35.522   4.438  1.00  0.00     0.062 A 
ATOM     17  C   UNL     1      26.395  34.185   4.774  1.00  0.00     0.158 A 
BRANCH  15  18
ATOM     18  O   UNL     1      24.853  32.329   5.019  1.00  0.00    -0.504 OA
ATOM     19  H   UNL     1      25.610  31.684   5.210  1.00  0.00     0.293 HD
ENDBRANCH  15  18
BRANCH  17  20
ATOM     20  O   UNL     1      27.465  33.393   5.191  1.00  0.00    -0.504 OA
ATOM     21  H   UNL     1      28.403  33.761   5.286  1.00  0.00     0.293 HD
ENDBRANCH  17  20
ENDBRANCH   1  12
BRANCH   2  22
ATOM     22  O   UNL     1      26.162  37.185   1.312  1.00  0.00    -0.502 OA
ATOM     23  H   UNL     1      25.360  37.026   0.716  1.00  0.00     0.293 HD
ENDBRANCH   2  22
BRANCH   6  24
ATOM     24  O   UNL     1      26.754  42.466   1.679  1.00  0.00    -0.507 OA
ATOM     25  H   UNL     1      26.338  42.162   0.812  1.00  0.00     0.293 HD
ENDBRANCH   6  24
BRANCH   8  26
ATOM     26  O   UNL     1      26.273  43.073   6.399  1.00  0.00    -0.508 OA
ATOM     27  H   UNL     1      27.118  43.291   6.915  1.00  0.00     0.293 HD
ENDBRANCH   8  26
TORSDOF 6
ENDMDL
MODEL 7
REMARK VINA RESULT:    -6.165      8.104     10.393
REMARK INTER + INTRA:          -7.717
REMARK INTER:                  -7.823
REMARK INTRA:                   0.105
REMARK UNBOUND:                -0.291
REMARK SMILES O=c1c(O)c(-c2ccc(O)c(O)c2)oc2cc(O)cc(O)c12
REMARK SMILES IDX 5 1 3 2 2 3 1 4 22 5 20 6 19 7 17 8 16 9 15 10 14 11 6 12
REMARK SMILES IDX 7 13 8 14 9 15 13 16 11 17 10 18 12 20 4 22 21 24 18 26
REMARK H PARENT 10 19 12 21 4 23 21 25 18 27
REMARK Flexibility Score: inf
ROOT
ATOM      1  C   UNL     1      27.156  42.265   1.800  1.00  0.00     0.180 A 
ATOM      2  C   UNL     1      28.259  42.215   0.931  1.00  0.00     0.208 A 
ATOM      3  C   UNL     1      28.717  43.405   0.342  1.00  0.00     0.238 A 
ATOM      4  O   UNL     1      29.750  43.364  -0.375  1.00  0.00    -0.285 OA
ATOM      5  C   UNL     1      28.032  44.620   0.584  1.00  0.00     0.111 A 
ATOM      6  C   UNL     1      28.380  45.879   0.005  1.00  0.00     0.134 A 
ATOM      7  C   UNL     1      27.695  47.034   0.401  1.00  0.00     0.093 A 
ATOM      8  C   UNL     1      26.636  46.970   1.304  1.00  0.00     0.123 A 
ATOM      9  C   UNL     1      26.250  45.738   1.835  1.00  0.00     0.094 A 
ATOM     10  C   UNL     1      26.939  44.572   1.489  1.00  0.00     0.146 A 
ATOM     11  O   UNL     1      26.554  43.425   2.033  1.00  0.00    -0.452 OA
ENDROOT
BRANCH   1  12
ATOM     12  C   UNL     1      26.625  41.056   2.470  1.00  0.00     0.025 A 
ATOM     13  C   UNL     1      26.483  39.840   1.780  1.00  0.00     0.016 A 
ATOM     14  C   UNL     1      26.002  38.706   2.440  1.00  0.00     0.051 A 
ATOM     15  C   UNL     1      25.670  38.766   3.800  1.00  0.00     0.157 A 
ATOM     16  C   UNL     1      26.310  41.106   3.838  1.00  0.00     0.062 A 
ATOM     17  C   UNL     1      25.828  39.973   4.501  1.00  0.00     0.158 A 
BRANCH  15  18
ATOM     18  O   UNL     1      25.189  37.634   4.455  1.00  0.00    -0.504 OA
ATOM     19  H   UNL     1      24.291  37.634   4.924  1.00  0.00     0.293 HD
ENDBRANCH  15  18
BRANCH  17  20
ATOM     20  O   UNL     1      25.513  40.065   5.857  1.00  0.00    -0.504 OA
ATOM     21  H   UNL     1      24.640  39.714   6.232  1.00  0.00     0.293 HD
ENDBRANCH  17  20
ENDBRANCH   1  12
BRANCH   2  22
ATOM     22  O   UNL     1      28.875  40.993   0.644  1.00  0.00    -0.502 OA
ATOM     23  H   UNL     1      29.862  40.832   0.801  1.00  0.00     0.293 HD
ENDBRANCH   2  22
BRANCH   6  24
ATOM     24  O   UNL     1      29.364  46.044  -0.974  1.00  0.00    -0.507 OA
ATOM     25  H   UNL     1      29.769  45.299  -1.519  1.00  0.00     0.293 HD
ENDBRANCH   6  24
BRANCH   8  26
ATOM     26  O   UNL     1      25.965  48.138   1.662  1.00  0.00    -0.508 OA
ATOM     27  H   UNL     1      26.355  49.054   1.471  1.00  0.00     0.293 HD
ENDBRANCH   8  26
TORSDOF 6
ENDMDL
MODEL 8
REMARK VINA RESULT:    -6.164     10.478     12.931
REMARK INTER + INTRA:          -7.716
REMARK INTER:                  -7.402
REMARK INTRA:                  -0.314
REMARK UNBOUND:                -0.291
REMARK SMILES O=c1c(O)c(-c2ccc(O)c(O)c2)oc2cc(O)cc(O)c12
REMARK SMILES IDX 5 1 3 2 2 3 1 4 22 5 20 6 19 7 17 8 16 9 15 10 14 11 6 12
REMARK SMILES IDX 7 13 8 14 9 15 13 16 11 17 10 18 12 20 4 22 21 24 18 26
REMARK H PARENT 10 19 12 21 4 23 21 25 18 27
REMARK Flexibility Score: inf
ROOT
ATOM      1  C   UNL     1      27.209  38.450   2.143  1.00  0.00     0.180 A 
ATOM      2  C   UNL     1      26.642  39.729   2.274  1.00  0.00     0.208 A 
ATOM      3  C   UNL     1      27.278  40.822   1.663  1.00  0.00     0.238 A 
ATOM      4  O   UNL     1      26.724  41.951   1.721  1.00  0.00    -0.285 OA
ATOM      5  C   UNL     1      28.502  40.633   0.977  1.00  0.00     0.111 A 
ATOM      6  C   UNL     1      29.257  41.676   0.360  1.00  0.00     0.134 A 
ATOM      7  C   UNL     1      30.401  41.354  -0.382  1.00  0.00     0.093 A 
ATOM      8  C   UNL     1      30.853  40.039  -0.475  1.00  0.00     0.123 A 
ATOM      9  C   UNL     1      30.154  39.018   0.170  1.00  0.00     0.094 A 
ATOM     10  C   UNL     1      28.987  39.302   0.886  1.00  0.00     0.146 A 
ATOM     11  O   UNL     1      28.342  38.299   1.466  1.00  0.00    -0.452 OA
ENDROOT
BRANCH   1  12
ATOM     12  C   UNL     1      26.590  37.247   2.746  1.00  0.00     0.025 A 
ATOM     13  C   UNL     1      26.819  36.901   4.088  1.00  0.00     0.016 A 
ATOM     14  C   UNL     1      26.204  35.774   4.641  1.00  0.00     0.051 A 
ATOM     15  C   UNL     1      25.342  34.987   3.867  1.00  0.00     0.157 A 
ATOM     16  C   UNL     1      25.709  36.467   1.979  1.00  0.00     0.062 A 
ATOM     17  C   UNL     1      25.092  35.338   2.530  1.00  0.00     0.158 A 
BRANCH  15  18
ATOM     18  O   UNL     1      24.732  33.863   4.421  1.00  0.00    -0.504 OA
ATOM     19  H   UNL     1      25.190  32.960   4.427  1.00  0.00     0.293 HD
ENDBRANCH  15  18
BRANCH  17  20
ATOM     20  O   UNL     1      24.234  34.580   1.734  1.00  0.00    -0.504 OA
ATOM     21  H   UNL     1      23.244  34.501   1.933  1.00  0.00     0.293 HD
ENDBRANCH  17  20
ENDBRANCH   1  12
BRANCH   2  22
ATOM     22  O   UNL     1      25.472  39.907   3.019  1.00  0.00    -0.502 OA
ATOM     23  H   UNL     1      25.285  39.390   3.869  1.00  0.00     0.293 HD
ENDBRANCH   2  22
BRANCH   6  24
ATOM     24  O   UNL     1      28.945  43.034   0.463  1.00  0.00    -0.507 OA
ATOM     25  H   UNL     1      28.091  43.404   0.850  1.00  0.00     0.293 HD
ENDBRANCH   6  24
BRANCH   8  26
ATOM     26  O   UNL     1      32.005  39.758  -1.207  1.00  0.00    -0.508 OA
ATOM     27  H   UNL     1      32.433  40.451  -1.810  1.00  0.00     0.293 HD
ENDBRANCH   8  26
TORSDOF 6
ENDMDL
MODEL 9
REMARK VINA RESULT:    -6.144      1.332      1.910
REMARK INTER + INTRA:          -7.692
REMARK INTER:                  -7.368
REMARK INTRA:                  -0.324
REMARK UNBOUND:                -0.291
REMARK SMILES O=c1c(O)c(-c2ccc(O)c(O)c2)oc2cc(O)cc(O)c12
REMARK SMILES IDX 5 1 3 2 2 3 1 4 22 5 20 6 19 7 17 8 16 9 15 10 14 11 6 12
REMARK SMILES IDX 7 13 8 14 9 15 13 16 11 17 10 18 12 20 4 22 21 24 18 26
REMARK H PARENT 10 19 12 21 4 23 21 25 18 27
REMARK Flexibility Score: inf
ROOT
ATOM      1  C   UNL     1      24.211  45.511   9.416  1.00  0.00     0.180 A 
ATOM      2  C   UNL     1      23.645  44.898  10.547  1.00  0.00     0.208 A 
ATOM      3  C   UNL     1      22.255  44.962  10.732  1.00  0.00     0.238 A 
ATOM      4  O   UNL     1      21.747  44.347  11.706  1.00  0.00    -0.285 OA
ATOM      5  C   UNL     1      21.454  45.685   9.815  1.00  0.00     0.111 A 
ATOM      6  C   UNL     1      20.040  45.854   9.928  1.00  0.00     0.134 A 
ATOM      7  C   UNL     1      19.338  46.501   8.904  1.00  0.00     0.093 A 
ATOM      8  C   UNL     1      20.002  47.040   7.804  1.00  0.00     0.123 A 
ATOM      9  C   UNL     1      21.390  46.929   7.709  1.00  0.00     0.094 A 
ATOM     10  C   UNL     1      22.115  46.256   8.696  1.00  0.00     0.146 A 
ATOM     11  O   UNL     1      23.431  46.154   8.556  1.00  0.00    -0.452 OA
ENDROOT
BRANCH   1  12
ATOM     12  C   UNL     1      25.667  45.474   9.144  1.00  0.00     0.025 A 
ATOM     13  C   UNL     1      26.529  46.465   9.642  1.00  0.00     0.016 A 
ATOM     14  C   UNL     1      27.903  46.396   9.393  1.00  0.00     0.051 A 
ATOM     15  C   UNL     1      28.436  45.329   8.657  1.00  0.00     0.157 A 
ATOM     16  C   UNL     1      26.208  44.395   8.424  1.00  0.00     0.062 A 
ATOM     17  C   UNL     1      27.582  44.323   8.173  1.00  0.00     0.158 A 
BRANCH  15  18
ATOM     18  O   UNL     1      29.805  45.264   8.409  1.00  0.00    -0.504 OA
ATOM     19  H   UNL     1      30.397  44.585   8.874  1.00  0.00     0.293 HD
ENDBRANCH  15  18
BRANCH  17  20
ATOM     20  O   UNL     1      28.081  43.245   7.443  1.00  0.00    -0.504 OA
ATOM     21  H   UNL     1      29.053  42.965   7.491  1.00  0.00     0.293 HD
ENDBRANCH  17  20
ENDBRANCH   1  12
BRANCH   2  22
ATOM     22  O   UNL     1      24.462  44.253  11.481  1.00  0.00    -0.502 OA
ATOM     23  H   UNL     1      24.117  43.525  12.094  1.00  0.00     0.293 HD
ENDBRANCH   2  22
BRANCH   6  24
ATOM     24  O   UNL     1      19.287  45.433  11.028  1.00  0.00    -0.507 OA
ATOM     25  H   UNL     1      18.396  44.965  10.974  1.00  0.00     0.293 HD
ENDBRANCH   6  24
BRANCH   8  26
ATOM     26  O   UNL     1      19.273  47.692   6.812  1.00  0.00    -0.508 OA
ATOM     27  H   UNL     1      18.402  48.168   7.019  1.00  0.00     0.293 HD
ENDBRANCH   8  26
TORSDOF 6
ENDMDL
