MODEL 1
REMARK VINA RESULT:    -7.706      0.000      0.000
REMARK INTER + INTRA:          -9.562
REMARK INTER:                  -9.283
REMARK INTRA:                  -0.280
REMARK UNBOUND:                -0.280
REMARK SMILES Oc1cc(O)c2cc(O)c(-c3ccc(O)c(O)c3)[o+]c2c1
REMARK SMILES IDX 10 1 19 2 20 3 21 4 2 5 3 6 4 7 6 8 7 9 8 10 11 11 12 12
REMARK SMILES IDX 13 13 14 14 18 15 16 16 15 17 17 19 9 21 1 23 5 25
REMARK H PARENT 15 18 17 20 9 22 1 24 5 26
REMARK Flexibility Score: inf
ROOT
ATOM      1  C   UNL     1       8.396  -4.975  19.539  1.00  0.00     0.402 A 
ATOM      2  O   UNL     1       8.973  -4.588  18.405  1.00  0.00    -0.202 OA
ATOM      3  C   UNL     1      10.177  -4.999  18.021  1.00  0.00     0.368 A 
ATOM      4  C   UNL     1      10.702  -4.534  16.812  1.00  0.00     0.162 A 
ATOM      5  C   UNL     1      11.967  -4.949  16.386  1.00  0.00     0.128 A 
ATOM      6  C   UNL     1      12.710  -5.833  17.172  1.00  0.00     0.093 A 
ATOM      7  C   UNL     1      12.206  -6.315  18.387  1.00  0.00     0.136 A 
ATOM      8  C   UNL     1      10.921  -5.898  18.823  1.00  0.00     0.125 A 
ATOM      9  C   UNL     1      10.332  -6.339  20.018  1.00  0.00     0.078 A 
ATOM     10  C   UNL     1       9.059  -5.887  20.380  1.00  0.00     0.223 A 
ENDROOT
BRANCH   1  11
ATOM     11  C   UNL     1       7.054  -4.438  19.861  1.00  0.00     0.087 A 
ATOM     12  C   UNL     1       6.918  -3.494  20.892  1.00  0.00     0.022 A 
ATOM     13  C   UNL     1       5.659  -2.987  21.227  1.00  0.00     0.051 A 
ATOM     14  C   UNL     1       4.517  -3.431  20.547  1.00  0.00     0.157 A 
ATOM     15  C   UNL     1       5.902  -4.895  19.197  1.00  0.00     0.068 A 
ATOM     16  C   UNL     1       4.638  -4.388  19.534  1.00  0.00     0.158 A 
BRANCH  14  17
ATOM     17  O   UNL     1       3.260  -2.927  20.877  1.00  0.00    -0.504 OA
ATOM     18  H   UNL     1       2.482  -2.978  20.230  1.00  0.00     0.293 HD
ENDBRANCH  14  17
BRANCH  16  19
ATOM     19  O   UNL     1       3.498  -4.838  18.869  1.00  0.00    -0.504 OA
ATOM     20  H   UNL     1       2.808  -4.191  18.503  1.00  0.00     0.293 HD
ENDBRANCH  16  19
ENDBRANCH   1  11
BRANCH  10  21
ATOM     21  O   UNL     1       8.452  -6.364  21.543  1.00  0.00    -0.500 OA
ATOM     22  H   UNL     1       8.575  -5.902  22.436  1.00  0.00     0.294 HD
ENDBRANCH  10  21
BRANCH   5  23
ATOM     23  O   UNL     1      12.497  -4.489  15.183  1.00  0.00    -0.507 OA
ATOM     24  H   UNL     1      12.610  -3.498  14.998  1.00  0.00     0.293 HD
ENDBRANCH   5  23
BRANCH   7  25
ATOM     25  O   UNL     1      13.013  -7.193  19.116  1.00  0.00    -0.507 OA
ATOM     26  H   UNL     1      12.758  -8.140  19.352  1.00  0.00     0.293 HD
ENDBRANCH   7  25
TORSDOF 6
ENDMDL
MODEL 2
REMARK VINA RESULT:    -7.512      3.780      6.657
REMARK INTER + INTRA:          -9.328
REMARK INTER:                  -8.989
REMARK INTRA:                  -0.340
REMARK UNBOUND:                -0.280
REMARK SMILES Oc1cc(O)c2cc(O)c(-c3ccc(O)c(O)c3)[o+]c2c1
REMARK SMILES IDX 10 1 19 2 20 3 21 4 2 5 3 6 4 7 6 8 7 9 8 10 11 11 12 12
REMARK SMILES IDX 13 13 14 14 18 15 16 16 15 17 17 19 9 21 1 23 5 25
REMARK H PARENT 15 18 17 20 9 22 1 24 5 26
REMARK Flexibility Score: inf
ROOT
ATOM      1  C   UNL     1      13.876  -4.403  16.866  1.00  0.00     0.402 A 
ATOM      2  O   UNL     1      14.461  -5.126  15.915  1.00  0.00    -0.202 OA
ATOM      3  C   UNL     1      15.616  -4.792  15.350  1.00  0.00     0.368 A 
ATOM      4  C   UNL     1      16.151  -5.615  14.356  1.00  0.00     0.162 A 
ATOM      5  C   UNL     1      17.363  -5.285  13.743  1.00  0.00     0.128 A 
ATOM      6  C   UNL     1      18.044  -4.128  14.127  1.00  0.00     0.093 A 
ATOM      7  C   UNL     1      17.530  -3.287  15.122  1.00  0.00     0.136 A 
ATOM      8  C   UNL     1      16.301  -3.618  15.748  1.00  0.00     0.125 A 
ATOM      9  C   UNL     1      15.718  -2.842  16.763  1.00  0.00     0.078 A 
ATOM     10  C   UNL     1      14.504  -3.235  17.336  1.00  0.00     0.223 A 
ENDROOT
BRANCH   1  11
ATOM     11  C   UNL     1      12.582  -4.875  17.410  1.00  0.00     0.087 A 
ATOM     12  C   UNL     1      11.386  -4.329  16.917  1.00  0.00     0.022 A 
ATOM     13  C   UNL     1      10.154  -4.745  17.429  1.00  0.00     0.051 A 
ATOM     14  C   UNL     1      10.102  -5.700  18.453  1.00  0.00     0.157 A 
ATOM     15  C   UNL     1      12.526  -5.818  18.452  1.00  0.00     0.068 A 
ATOM     16  C   UNL     1      11.289  -6.235  18.968  1.00  0.00     0.158 A 
BRANCH  14  17
ATOM     17  O   UNL     1       8.875  -6.120  18.965  1.00  0.00    -0.504 OA
ATOM     18  H   UNL     1       8.377  -6.908  18.569  1.00  0.00     0.293 HD
ENDBRANCH  14  17
BRANCH  16  19
ATOM     19  O   UNL     1      11.234  -7.175  19.995  1.00  0.00    -0.504 OA
ATOM     20  H   UNL     1      10.829  -8.093  19.853  1.00  0.00     0.293 HD
ENDBRANCH  16  19
ENDBRANCH   1  11
BRANCH  10  21
ATOM     21  O   UNL     1      13.950  -2.491  18.379  1.00  0.00    -0.500 OA
ATOM     22  H   UNL     1      13.582  -2.934  19.213  1.00  0.00     0.294 HD
ENDBRANCH  10  21
BRANCH   5  23
ATOM     23  O   UNL     1      17.902  -6.101  12.751  1.00  0.00    -0.507 OA
ATOM     24  H   UNL     1      17.395  -6.900  12.389  1.00  0.00     0.293 HD
ENDBRANCH   5  23
BRANCH   7  25
ATOM     25  O   UNL     1      18.270  -2.146  15.446  1.00  0.00    -0.507 OA
ATOM     26  H   UNL     1      19.279  -2.105  15.465  1.00  0.00     0.293 HD
ENDBRANCH   7  25
TORSDOF 6
ENDMDL
MODEL 3
REMARK VINA RESULT:    -7.292      3.820      9.036
REMARK INTER + INTRA:          -9.063
REMARK INTER:                  -8.733
REMARK INTRA:                  -0.330
REMARK UNBOUND:                -0.280
REMARK SMILES Oc1cc(O)c2cc(O)c(-c3ccc(O)c(O)c3)[o+]c2c1
REMARK SMILES IDX 10 1 19 2 20 3 21 4 2 5 3 6 4 7 6 8 7 9 8 10 11 11 12 12
REMARK SMILES IDX 13 13 14 14 18 15 16 16 15 17 17 19 9 21 1 23 5 25
REMARK H PARENT 15 18 17 20 9 22 1 24 5 26
REMARK Flexibility Score: inf
ROOT
ATOM      1  C   UNL     1      13.821  -3.528  16.718  1.00  0.00     0.402 A 
ATOM      2  O   UNL     1      13.631  -3.215  17.997  1.00  0.00    -0.202 OA
ATOM      3  C   UNL     1      12.452  -3.302  18.602  1.00  0.00     0.368 A 
ATOM      4  C   UNL     1      12.351  -2.947  19.950  1.00  0.00     0.162 A 
ATOM      5  C   UNL     1      11.121  -3.026  20.610  1.00  0.00     0.128 A 
ATOM      6  C   UNL     1       9.988  -3.463  19.920  1.00  0.00     0.093 A 
ATOM      7  C   UNL     1      10.063  -3.825  18.569  1.00  0.00     0.136 A 
ATOM      8  C   UNL     1      11.309  -3.748  17.895  1.00  0.00     0.125 A 
ATOM      9  C   UNL     1      11.480  -4.103  16.547  1.00  0.00     0.078 A 
ATOM     10  C   UNL     1      12.742  -4.005  15.951  1.00  0.00     0.223 A 
ENDROOT
BRANCH   1  11
ATOM     11  C   UNL     1      15.183  -3.379  16.154  1.00  0.00     0.087 A 
ATOM     12  C   UNL     1      15.591  -2.131  15.658  1.00  0.00     0.022 A 
ATOM     13  C   UNL     1      16.864  -1.971  15.104  1.00  0.00     0.051 A 
ATOM     14  C   UNL     1      17.740  -3.061  15.023  1.00  0.00     0.157 A 
ATOM     15  C   UNL     1      16.058  -4.475  16.052  1.00  0.00     0.068 A 
ATOM     16  C   UNL     1      17.335  -4.316  15.494  1.00  0.00     0.158 A 
BRANCH  14  17
ATOM     17  O   UNL     1      19.011  -2.906  14.473  1.00  0.00    -0.504 OA
ATOM     18  H   UNL     1      19.145  -2.500  13.554  1.00  0.00     0.293 HD
ENDBRANCH  14  17
BRANCH  16  19
ATOM     19  O   UNL     1      18.204  -5.402  15.400  1.00  0.00    -0.504 OA
ATOM     20  H   UNL     1      19.146  -5.297  15.041  1.00  0.00     0.293 HD
ENDBRANCH  16  19
ENDBRANCH   1  11
BRANCH  10  21
ATOM     21  O   UNL     1      12.923  -4.405  14.627  1.00  0.00    -0.500 OA
ATOM     22  H   UNL     1      13.013  -5.382  14.373  1.00  0.00     0.294 HD
ENDBRANCH  10  21
BRANCH   5  23
ATOM     23  O   UNL     1      11.013  -2.674  21.954  1.00  0.00    -0.507 OA
ATOM     24  H   UNL     1      10.118  -2.669  22.430  1.00  0.00     0.293 HD
ENDBRANCH   5  23
BRANCH   7  25
ATOM     25  O   UNL     1       8.883  -4.248  17.950  1.00  0.00    -0.507 OA
ATOM     26  H   UNL     1       8.003  -4.378  18.426  1.00  0.00     0.293 HD
ENDBRANCH   7  25
TORSDOF 6
ENDMDL
MODEL 4
REMARK VINA RESULT:    -7.067      1.954      6.938
REMARK INTER + INTRA:          -8.793
REMARK INTER:                  -8.463
REMARK INTRA:                  -0.330
REMARK UNBOUND:                -0.280
REMARK SMILES Oc1cc(O)c2cc(O)c(-c3ccc(O)c(O)c3)[o+]c2c1
REMARK SMILES IDX 10 1 19 2 20 3 21 4 2 5 3 6 4 7 6 8 7 9 8 10 11 11 12 12
REMARK SMILES IDX 13 13 14 14 18 15 16 16 15 17 17 19 9 21 1 23 5 25
REMARK H PARENT 15 18 17 20 9 22 1 24 5 26
REMARK Flexibility Score: inf
ROOT
ATOM      1  C   UNL     1      10.803  -4.466  19.046  1.00  0.00     0.402 A 
ATOM      2  O   UNL     1       9.917  -3.516  19.332  1.00  0.00    -0.202 OA
ATOM      3  C   UNL     1       8.859  -3.715  20.111  1.00  0.00     0.368 A 
ATOM      4  C   UNL     1       7.981  -2.655  20.351  1.00  0.00     0.162 A 
ATOM      5  C   UNL     1       6.859  -2.838  21.165  1.00  0.00     0.128 A 
ATOM      6  C   UNL     1       6.614  -4.087  21.740  1.00  0.00     0.093 A 
ATOM      7  C   UNL     1       7.479  -5.166  21.516  1.00  0.00     0.136 A 
ATOM      8  C   UNL     1       8.620  -4.984  20.692  1.00  0.00     0.125 A 
ATOM      9  C   UNL     1       9.547  -6.004  20.423  1.00  0.00     0.078 A 
ATOM     10  C   UNL     1      10.653  -5.748  19.604  1.00  0.00     0.223 A 
ENDROOT
BRANCH   1  11
ATOM     11  C   UNL     1      11.936  -4.122  18.156  1.00  0.00     0.087 A 
ATOM     12  C   UNL     1      13.008  -3.371  18.662  1.00  0.00     0.022 A 
ATOM     13  C   UNL     1      14.078  -3.017  17.835  1.00  0.00     0.051 A 
ATOM     14  C   UNL     1      14.082  -3.397  16.487  1.00  0.00     0.157 A 
ATOM     15  C   UNL     1      11.935  -4.483  16.796  1.00  0.00     0.068 A 
ATOM     16  C   UNL     1      13.008  -4.127  15.965  1.00  0.00     0.158 A 
BRANCH  14  17
ATOM     17  O   UNL     1      15.149  -3.049  15.659  1.00  0.00    -0.504 OA
ATOM     18  H   UNL     1      15.903  -2.457  15.987  1.00  0.00     0.293 HD
ENDBRANCH  14  17
BRANCH  16  19
ATOM     19  O   UNL     1      13.009  -4.491  14.620  1.00  0.00    -0.504 OA
ATOM     20  H   UNL     1      13.866  -4.732  14.136  1.00  0.00     0.293 HD
ENDBRANCH  16  19
ENDBRANCH   1  11
BRANCH  10  21
ATOM     21  O   UNL     1      11.601  -6.747  19.377  1.00  0.00    -0.500 OA
ATOM     22  H   UNL     1      12.129  -7.163  20.136  1.00  0.00     0.294 HD
ENDBRANCH  10  21
BRANCH   5  23
ATOM     23  O   UNL     1       5.980  -1.786  21.408  1.00  0.00    -0.507 OA
ATOM     24  H   UNL     1       5.413  -1.387  20.669  1.00  0.00     0.293 HD
ENDBRANCH   5  23
BRANCH   7  25
ATOM     25  O   UNL     1       7.161  -6.384  22.125  1.00  0.00    -0.507 OA
ATOM     26  H   UNL     1       7.102  -7.266  21.639  1.00  0.00     0.293 HD
ENDBRANCH   7  25
TORSDOF 6
ENDMDL
MODEL 5
REMARK VINA RESULT:    -7.016      1.584      6.845
REMARK INTER + INTRA:          -8.731
REMARK INTER:                  -8.470
REMARK INTRA:                  -0.261
REMARK UNBOUND:                -0.280
REMARK SMILES Oc1cc(O)c2cc(O)c(-c3ccc(O)c(O)c3)[o+]c2c1
REMARK SMILES IDX 10 1 19 2 20 3 21 4 2 5 3 6 4 7 6 8 7 9 8 10 11 11 12 12
REMARK SMILES IDX 13 13 14 14 18 15 16 16 15 17 17 19 9 21 1 23 5 25
REMARK H PARENT 15 18 17 20 9 22 1 24 5 26
REMARK Flexibility Score: inf
ROOT
ATOM      1  C   UNL     1       9.101  -4.825  18.881  1.00  0.00     0.402 A 
ATOM      2  O   UNL     1       7.989  -4.510  18.222  1.00  0.00    -0.202 OA
ATOM      3  C   UNL     1       6.795  -4.435  18.799  1.00  0.00     0.368 A 
ATOM      4  C   UNL     1       5.683  -4.099  18.022  1.00  0.00     0.162 A 
ATOM      5  C   UNL     1       4.414  -4.016  18.604  1.00  0.00     0.128 A 
ATOM      6  C   UNL     1       4.257  -4.269  19.968  1.00  0.00     0.093 A 
ATOM      7  C   UNL     1       5.355  -4.606  20.769  1.00  0.00     0.136 A 
ATOM      8  C   UNL     1       6.645  -4.690  20.184  1.00  0.00     0.125 A 
ATOM      9  C   UNL     1       7.803  -5.008  20.912  1.00  0.00     0.078 A 
ATOM     10  C   UNL     1       9.043  -5.068  20.266  1.00  0.00     0.223 A 
ENDROOT
BRANCH   1  11
ATOM     11  C   UNL     1      10.371  -4.887  18.123  1.00  0.00     0.087 A 
ATOM     12  C   UNL     1      10.987  -6.130  17.909  1.00  0.00     0.022 A 
ATOM     13  C   UNL     1      12.197  -6.211  17.213  1.00  0.00     0.051 A 
ATOM     14  C   UNL     1      12.815  -5.048  16.737  1.00  0.00     0.157 A 
ATOM     15  C   UNL     1      11.006  -3.720  17.661  1.00  0.00     0.068 A 
ATOM     16  C   UNL     1      12.222  -3.800  16.964  1.00  0.00     0.158 A 
BRANCH  14  17
ATOM     17  O   UNL     1      14.021  -5.124  16.041  1.00  0.00    -0.504 OA
ATOM     18  H   UNL     1      14.561  -4.294  15.824  1.00  0.00     0.293 HD
ENDBRANCH  14  17
BRANCH  16  19
ATOM     19  O   UNL     1      12.847  -2.644  16.501  1.00  0.00    -0.504 OA
ATOM     20  H   UNL     1      12.798  -2.369  15.527  1.00  0.00     0.293 HD
ENDBRANCH  16  19
ENDBRANCH   1  11
BRANCH  10  21
ATOM     21  O   UNL     1      10.201  -5.335  20.997  1.00  0.00    -0.500 OA
ATOM     22  H   UNL     1      10.455  -4.786  21.811  1.00  0.00     0.294 HD
ENDBRANCH  10  21
BRANCH   5  23
ATOM     23  O   UNL     1       3.302  -3.682  17.835  1.00  0.00    -0.507 OA
ATOM     24  H   UNL     1       2.796  -2.816  17.983  1.00  0.00     0.293 HD
ENDBRANCH   5  23
BRANCH   7  25
ATOM     25  O   UNL     1       5.114  -4.848  22.125  1.00  0.00    -0.507 OA
ATOM     26  H   UNL     1       4.707  -4.178  22.761  1.00  0.00     0.293 HD
ENDBRANCH   7  25
TORSDOF 6
ENDMDL
MODEL 6
REMARK VINA RESULT:    -6.841      2.054      2.199
REMARK INTER + INTRA:          -8.521
REMARK INTER:                  -8.630
REMARK INTRA:                   0.110
REMARK UNBOUND:                -0.280
REMARK SMILES Oc1cc(O)c2cc(O)c(-c3ccc(O)c(O)c3)[o+]c2c1
REMARK SMILES IDX 10 1 19 2 20 3 21 4 2 5 3 6 4 7 6 8 7 9 8 10 11 11 12 12
REMARK SMILES IDX 13 13 14 14 18 15 16 16 15 17 17 19 9 21 1 23 5 25
REMARK H PARENT 15 18 17 20 9 22 1 24 5 26
REMARK Flexibility Score: inf
ROOT
ATOM      1  C   UNL     1       9.235  -4.000  19.560  1.00  0.00     0.402 A 
ATOM      2  O   UNL     1       9.668  -4.287  18.335  1.00  0.00    -0.202 OA
ATOM      3  C   UNL     1      10.909  -4.049  17.925  1.00  0.00     0.368 A 
ATOM      4  C   UNL     1      11.270  -4.383  16.617  1.00  0.00     0.162 A 
ATOM      5  C   UNL     1      12.568  -4.141  16.160  1.00  0.00     0.128 A 
ATOM      6  C   UNL     1      13.510  -3.562  17.014  1.00  0.00     0.093 A 
ATOM      7  C   UNL     1      13.174  -3.219  18.329  1.00  0.00     0.136 A 
ATOM      8  C   UNL     1      11.857  -3.465  18.799  1.00  0.00     0.125 A 
ATOM      9  C   UNL     1      11.436  -3.166  20.105  1.00  0.00     0.078 A 
ATOM     10  C   UNL     1      10.122  -3.441  20.498  1.00  0.00     0.223 A 
ENDROOT
BRANCH   1  11
ATOM     11  C   UNL     1       7.824  -4.304  19.894  1.00  0.00     0.087 A 
ATOM     12  C   UNL     1       7.521  -4.910  21.123  1.00  0.00     0.022 A 
ATOM     13  C   UNL     1       6.199  -5.225  21.451  1.00  0.00     0.051 A 
ATOM     14  C   UNL     1       5.165  -4.952  20.546  1.00  0.00     0.157 A 
ATOM     15  C   UNL     1       6.785  -4.051  18.981  1.00  0.00     0.068 A 
ATOM     16  C   UNL     1       5.457  -4.368  19.308  1.00  0.00     0.158 A 
BRANCH  14  17
ATOM     17  O   UNL     1       3.844  -5.262  20.870  1.00  0.00    -0.504 OA
ATOM     18  H   UNL     1       3.259  -5.806  20.247  1.00  0.00     0.293 HD
ENDBRANCH  14  17
BRANCH  16  19
ATOM     19  O   UNL     1       4.427  -4.110  18.405  1.00  0.00    -0.504 OA
ATOM     20  H   UNL     1       3.587  -4.676  18.385  1.00  0.00     0.293 HD
ENDBRANCH  16  19
ENDBRANCH   1  11
BRANCH  10  21
ATOM     21  O   UNL     1       9.717  -3.190  21.809  1.00  0.00    -0.500 OA
ATOM     22  H   UNL     1      10.154  -2.471  22.374  1.00  0.00     0.294 HD
ENDBRANCH  10  21
BRANCH   5  23
ATOM     23  O   UNL     1      12.935  -4.471  14.857  1.00  0.00    -0.507 OA
ATOM     24  H   UNL     1      12.386  -4.170  14.060  1.00  0.00     0.293 HD
ENDBRANCH   5  23
BRANCH   7  25
ATOM     25  O   UNL     1      14.172  -2.640  19.119  1.00  0.00    -0.507 OA
ATOM     26  H   UNL     1      15.153  -2.628  18.882  1.00  0.00     0.293 HD
ENDBRANCH   7  25
TORSDOF 6
ENDMDL
MODEL 7
REMARK VINA RESULT:    -6.804      4.829      8.022
REMARK INTER + INTRA:          -8.475
REMARK INTER:                  -8.218
REMARK INTRA:                  -0.257
REMARK UNBOUND:                -0.280
REMARK SMILES Oc1cc(O)c2cc(O)c(-c3ccc(O)c(O)c3)[o+]c2c1
REMARK SMILES IDX 10 1 19 2 20 3 21 4 2 5 3 6 4 7 6 8 7 9 8 10 11 11 12 12
REMARK SMILES IDX 13 13 14 14 18 15 16 16 15 17 17 19 9 21 1 23 5 25
REMARK H PARENT 15 18 17 20 9 22 1 24 5 26
REMARK Flexibility Score: inf
ROOT
ATOM      1  C   UNL     1      15.166  -3.682  15.834  1.00  0.00     0.402 A 
ATOM      2  O   UNL     1      15.788  -4.826  15.562  1.00  0.00    -0.202 OA
ATOM      3  C   UNL     1      16.917  -4.895  14.865  1.00  0.00     0.368 A 
ATOM      4  C   UNL     1      17.495  -6.145  14.628  1.00  0.00     0.162 A 
ATOM      5  C   UNL     1      18.681  -6.246  13.895  1.00  0.00     0.128 A 
ATOM      6  C   UNL     1      19.292  -5.093  13.397  1.00  0.00     0.093 A 
ATOM      7  C   UNL     1      18.733  -3.828  13.622  1.00  0.00     0.136 A 
ATOM      8  C   UNL     1      17.530  -3.720  14.367  1.00  0.00     0.125 A 
ATOM      9  C   UNL     1      16.907  -2.495  14.652  1.00  0.00     0.078 A 
ATOM     10  C   UNL     1      15.723  -2.466  15.397  1.00  0.00     0.223 A 
ENDROOT
BRANCH   1  11
ATOM     11  C   UNL     1      13.907  -3.737  16.612  1.00  0.00     0.087 A 
ATOM     12  C   UNL     1      13.906  -3.323  17.953  1.00  0.00     0.022 A 
ATOM     13  C   UNL     1      12.734  -3.384  18.713  1.00  0.00     0.051 A 
ATOM     14  C   UNL     1      11.551  -3.877  18.145  1.00  0.00     0.157 A 
ATOM     15  C   UNL     1      12.722  -4.249  16.053  1.00  0.00     0.068 A 
ATOM     16  C   UNL     1      11.546  -4.313  16.815  1.00  0.00     0.158 A 
BRANCH  14  17
ATOM     17  O   UNL     1      10.380  -3.938  18.899  1.00  0.00    -0.504 OA
ATOM     18  H   UNL     1       9.764  -4.741  18.857  1.00  0.00     0.293 HD
ENDBRANCH  14  17
BRANCH  16  19
ATOM     19  O   UNL     1      10.371  -4.815  16.258  1.00  0.00    -0.504 OA
ATOM     20  H   UNL     1       9.629  -4.200  15.943  1.00  0.00     0.293 HD
ENDBRANCH  16  19
ENDBRANCH   1  11
BRANCH  10  21
ATOM     21  O   UNL     1      15.131  -1.246  15.723  1.00  0.00    -0.500 OA
ATOM     22  H   UNL     1      14.994  -0.518  15.031  1.00  0.00     0.294 HD
ENDBRANCH  10  21
BRANCH   5  23
ATOM     23  O   UNL     1      19.262  -7.489  13.654  1.00  0.00    -0.507 OA
ATOM     24  H   UNL     1      20.261  -7.634  13.747  1.00  0.00     0.293 HD
ENDBRANCH   5  23
BRANCH   7  25
ATOM     25  O   UNL     1      19.404  -2.724  13.088  1.00  0.00    -0.507 OA
ATOM     26  H   UNL     1      20.390  -2.704  12.873  1.00  0.00     0.293 HD
ENDBRANCH   7  25
TORSDOF 6
ENDMDL
MODEL 8
REMARK VINA RESULT:    -6.798      3.710      6.130
REMARK INTER + INTRA:          -8.468
REMARK INTER:                  -8.199
REMARK INTRA:                  -0.270
REMARK UNBOUND:                -0.280
REMARK SMILES Oc1cc(O)c2cc(O)c(-c3ccc(O)c(O)c3)[o+]c2c1
REMARK SMILES IDX 10 1 19 2 20 3 21 4 2 5 3 6 4 7 6 8 7 9 8 10 11 11 12 12
REMARK SMILES IDX 13 13 14 14 18 15 16 16 15 17 17 19 9 21 1 23 5 25
REMARK H PARENT 15 18 17 20 9 22 1 24 5 26
REMARK Flexibility Score: inf
ROOT
ATOM      1  C   UNL     1      13.134  -4.010  17.264  1.00  0.00     0.402 A 
ATOM      2  O   UNL     1      13.992  -3.336  18.025  1.00  0.00    -0.202 OA
ATOM      3  C   UNL     1      15.178  -2.919  17.595  1.00  0.00     0.368 A 
ATOM      4  C   UNL     1      16.012  -2.220  18.471  1.00  0.00     0.162 A 
ATOM      5  C   UNL     1      17.266  -1.773  18.044  1.00  0.00     0.128 A 
ATOM      6  C   UNL     1      17.687  -2.025  16.737  1.00  0.00     0.093 A 
ATOM      7  C   UNL     1      16.869  -2.723  15.839  1.00  0.00     0.136 A 
ATOM      8  C   UNL     1      15.594  -3.177  16.267  1.00  0.00     0.125 A 
ATOM      9  C   UNL     1      14.704  -3.872  15.433  1.00  0.00     0.078 A 
ATOM     10  C   UNL     1      13.461  -4.285  15.924  1.00  0.00     0.223 A 
ENDROOT
BRANCH   1  11
ATOM     11  C   UNL     1      11.846  -4.429  17.863  1.00  0.00     0.087 A 
ATOM     12  C   UNL     1      11.619  -5.789  18.128  1.00  0.00     0.022 A 
ATOM     13  C   UNL     1      10.403  -6.211  18.675  1.00  0.00     0.051 A 
ATOM     14  C   UNL     1       9.392  -5.280  18.948  1.00  0.00     0.157 A 
ATOM     15  C   UNL     1      10.820  -3.502  18.119  1.00  0.00     0.068 A 
ATOM     16  C   UNL     1       9.599  -3.925  18.666  1.00  0.00     0.158 A 
BRANCH  14  17
ATOM     17  O   UNL     1       8.179  -5.696  19.495  1.00  0.00    -0.504 OA
ATOM     18  H   UNL     1       7.518  -5.034  19.884  1.00  0.00     0.293 HD
ENDBRANCH  14  17
BRANCH  16  19
ATOM     19  O   UNL     1       8.586  -3.003  18.926  1.00  0.00    -0.504 OA
ATOM     20  H   UNL     1       7.662  -3.299  19.220  1.00  0.00     0.293 HD
ENDBRANCH  16  19
ENDBRANCH   1  11
BRANCH  10  21
ATOM     21  O   UNL     1      12.555  -4.931  15.081  1.00  0.00    -0.500 OA
ATOM     22  H   UNL     1      12.288  -5.898  15.227  1.00  0.00     0.294 HD
ENDBRANCH  10  21
BRANCH   5  23
ATOM     23  O   UNL     1      18.104  -1.075  18.912  1.00  0.00    -0.507 OA
ATOM     24  H   UNL     1      19.031  -1.416  19.142  1.00  0.00     0.293 HD
ENDBRANCH   5  23
BRANCH   7  25
ATOM     25  O   UNL     1      17.365  -2.938  14.550  1.00  0.00    -0.507 OA
ATOM     26  H   UNL     1      16.938  -2.581  13.707  1.00  0.00     0.293 HD
ENDBRANCH   7  25
TORSDOF 6
ENDMDL
MODEL 9
REMARK VINA RESULT:    -6.722      4.245      9.040
REMARK INTER + INTRA:          -8.377
REMARK INTER:                  -8.034
REMARK INTRA:                  -0.343
REMARK UNBOUND:                -0.280
REMARK SMILES Oc1cc(O)c2cc(O)c(-c3ccc(O)c(O)c3)[o+]c2c1
REMARK SMILES IDX 10 1 19 2 20 3 21 4 2 5 3 6 4 7 6 8 7 9 8 10 11 11 12 12
REMARK SMILES IDX 13 13 14 14 18 15 16 16 15 17 17 19 9 21 1 23 5 25
REMARK H PARENT 15 18 17 20 9 22 1 24 5 26
REMARK Flexibility Score: inf
ROOT
ATOM      1  C   UNL     1      14.472  -2.941  17.421  1.00  0.00     0.402 A 
ATOM      2  O   UNL     1      13.255  -3.340  17.064  1.00  0.00    -0.202 OA
ATOM      3  C   UNL     1      12.236  -3.427  17.912  1.00  0.00     0.368 A 
ATOM      4  C   UNL     1      10.994  -3.860  17.442  1.00  0.00     0.162 A 
ATOM      5  C   UNL     1       9.906  -3.964  18.315  1.00  0.00     0.128 A 
ATOM      6  C   UNL     1      10.062  -3.632  19.662  1.00  0.00     0.093 A 
ATOM      7  C   UNL     1      11.296  -3.194  20.158  1.00  0.00     0.136 A 
ATOM      8  C   UNL     1      12.403  -3.086  19.276  1.00  0.00     0.125 A 
ATOM      9  C   UNL     1      13.672  -2.644  19.682  1.00  0.00     0.078 A 
ATOM     10  C   UNL     1      14.715  -2.559  18.753  1.00  0.00     0.223 A 
ENDROOT
BRANCH   1  11
ATOM     11  C   UNL     1      15.528  -2.896  16.384  1.00  0.00     0.087 A 
ATOM     12  C   UNL     1      16.412  -3.979  16.252  1.00  0.00     0.022 A 
ATOM     13  C   UNL     1      17.429  -3.951  15.294  1.00  0.00     0.051 A 
ATOM     14  C   UNL     1      17.586  -2.832  14.465  1.00  0.00     0.157 A 
ATOM     15  C   UNL     1      15.703  -1.767  15.564  1.00  0.00     0.068 A 
ATOM     16  C   UNL     1      16.724  -1.737  14.603  1.00  0.00     0.158 A 
BRANCH  14  17
ATOM     17  O   UNL     1      18.597  -2.800  13.506  1.00  0.00    -0.504 OA
ATOM     18  H   UNL     1      19.240  -2.020  13.439  1.00  0.00     0.293 HD
ENDBRANCH  14  17
BRANCH  16  19
ATOM     19  O   UNL     1      16.892  -0.620  13.786  1.00  0.00    -0.504 OA
ATOM     20  H   UNL     1      16.723   0.318  14.130  1.00  0.00     0.293 HD
ENDBRANCH  16  19
ENDBRANCH   1  11
BRANCH  10  21
ATOM     21  O   UNL     1      15.963  -2.072  19.145  1.00  0.00    -0.500 OA
ATOM     22  H   UNL     1      16.598  -2.626  19.709  1.00  0.00     0.294 HD
ENDBRANCH  10  21
BRANCH   5  23
ATOM     23  O   UNL     1       8.664  -4.395  17.853  1.00  0.00    -0.507 OA
ATOM     24  H   UNL     1       8.103  -5.054  18.381  1.00  0.00     0.293 HD
ENDBRANCH   5  23
BRANCH   7  25
ATOM     25  O   UNL     1      11.370  -2.885  21.520  1.00  0.00    -0.507 OA
ATOM     26  H   UNL     1      12.226  -2.673  22.011  1.00  0.00     0.293 HD
ENDBRANCH   7  25
TORSDOF 6
ENDMDL
