MODEL 1
REMARK VINA RESULT:    -3.119      0.000      0.000
REMARK INTER + INTRA:          -8.109
REMARK INTER:                  -5.672
REMARK INTRA:                  -2.437
REMARK UNBOUND:                -2.437
REMARK SMILES CCCCCCCCCCCCCCCC(=O)[O-]
REMARK SMILES IDX 9 1 10 2 11 3 12 4 13 5 14 6 15 7 16 8 17 9 18 10 8 11 7 12
REMARK SMILES IDX 6 13 5 14 4 15 3 16 2 17 1 18
REMARK H PARENT
REMARK Flexibility Score: inf
ROOT
ATOM      1  C   UNL     1      62.450  32.972  57.961  1.00  0.00     0.000 C 
ENDROOT
BRANCH   1   2
ATOM      2  C   UNL     1      63.427  32.055  58.716  1.00  0.00     0.000 C 
BRANCH   2   3
ATOM      3  C   UNL     1      64.310  32.821  59.711  1.00  0.00     0.000 C 
BRANCH   3   4
ATOM      4  C   UNL     1      63.452  33.572  60.740  1.00  0.00     0.000 C 
BRANCH   4   5
ATOM      5  C   UNL     1      63.988  34.981  61.045  1.00  0.00     0.000 C 
BRANCH   5   6
ATOM      6  C   UNL     1      62.891  36.054  60.996  1.00  0.00     0.006 C 
BRANCH   6   7
ATOM      7  C   UNL     1      61.530  35.432  60.668  1.00  0.00     0.053 C 
BRANCH   7   8
ATOM      8  C   UNL     1      60.911  36.114  59.489  1.00  0.00     0.041 C 
ATOM      9  O   UNL     1      59.665  36.288  59.440  1.00  0.00    -0.550 OA
ATOM     10  O   UNL     1      61.704  36.511  58.420  1.00  0.00    -0.550 OA
ENDBRANCH   7   8
ENDBRANCH   6   7
ENDBRANCH   5   6
ENDBRANCH   4   5
ENDBRANCH   3   4
ENDBRANCH   2   3
ENDBRANCH   1   2
BRANCH   1  11
ATOM     11  C   UNL     1      61.038  32.376  57.859  1.00  0.00     0.000 C 
BRANCH  11  12
ATOM     12  C   UNL     1      60.424  32.180  59.251  1.00  0.00    -0.000 C 
BRANCH  12  13
ATOM     13  C   UNL     1      59.738  30.809  59.360  1.00  0.00    -0.000 C 
BRANCH  13  14
ATOM     14  C   UNL     1      60.094  30.069  60.659  1.00  0.00    -0.000 C 
BRANCH  14  15
ATOM     15  C   UNL     1      61.059  30.871  61.550  1.00  0.00    -0.000 C 
BRANCH  15  16
ATOM     16  C   UNL     1      62.401  30.151  61.764  1.00  0.00    -0.000 C 
BRANCH  16  17
ATOM     17  C   UNL     1      62.439  28.761  61.112  1.00  0.00    -0.003 C 
ATOM     18  C   UNL     1      63.620  28.638  60.153  1.00  0.00     0.004 C 
ENDBRANCH  16  17
ENDBRANCH  15  16
ENDBRANCH  14  15
ENDBRANCH  13  14
ENDBRANCH  12  13
ENDBRANCH  11  12
ENDBRANCH   1  11
TORSDOF 14
ENDMDL
MODEL 2
REMARK VINA RESULT:    -3.098      3.203      6.272
REMARK INTER + INTRA:          -8.069
REMARK INTER:                  -5.663
REMARK INTRA:                  -2.406
REMARK UNBOUND:                -2.437
REMARK SMILES CCCCCCCCCCCCCCCC(=O)[O-]
REMARK SMILES IDX 9 1 10 2 11 3 12 4 13 5 14 6 15 7 16 8 17 9 18 10 8 11 7 12
REMARK SMILES IDX 6 13 5 14 4 15 3 16 2 17 1 18
REMARK H PARENT
REMARK Flexibility Score: inf
ROOT
ATOM      1  C   UNL     1      61.532  32.956  60.188  1.00  0.00     0.000 C 
ENDROOT
BRANCH   1   2
ATOM      2  C   UNL     1      60.546  31.843  59.797  1.00  0.00     0.000 C 
BRANCH   2   3
ATOM      3  C   UNL     1      60.371  30.791  60.902  1.00  0.00     0.000 C 
BRANCH   3   4
ATOM      4  C   UNL     1      61.558  30.816  61.876  1.00  0.00     0.000 C 
BRANCH   4   5
ATOM      5  C   UNL     1      62.520  29.634  61.670  1.00  0.00     0.000 C 
BRANCH   5   6
ATOM      6  C   UNL     1      63.756  30.013  60.842  1.00  0.00     0.006 C 
BRANCH   6   7
ATOM      7  C   UNL     1      63.546  29.685  59.361  1.00  0.00     0.053 C 
BRANCH   7   8
ATOM      8  C   UNL     1      63.031  28.290  59.200  1.00  0.00     0.041 C 
ATOM      9  O   UNL     1      61.852  28.091  58.805  1.00  0.00    -0.550 OA
ATOM     10  O   UNL     1      63.835  27.208  59.536  1.00  0.00    -0.550 OA
ENDBRANCH   7   8
ENDBRANCH   6   7
ENDBRANCH   5   6
ENDBRANCH   4   5
ENDBRANCH   3   4
ENDBRANCH   2   3
ENDBRANCH   1   2
BRANCH   1  11
ATOM     11  C   UNL     1      62.367  33.452  58.998  1.00  0.00     0.000 C 
BRANCH  11  12
ATOM     12  C   UNL     1      63.859  33.487  59.352  1.00  0.00    -0.000 C 
BRANCH  12  13
ATOM     13  C   UNL     1      64.061  33.646  60.866  1.00  0.00    -0.000 C 
BRANCH  13  14
ATOM     14  C   UNL     1      64.868  34.904  61.228  1.00  0.00    -0.000 C 
BRANCH  14  15
ATOM     15  C   UNL     1      63.969  36.114  61.533  1.00  0.00    -0.000 C 
BRANCH  15  16
ATOM     16  C   UNL     1      63.846  37.074  60.338  1.00  0.00    -0.000 C 
BRANCH  16  17
ATOM     17  C   UNL     1      62.424  37.123  59.761  1.00  0.00    -0.003 C 
ATOM     18  C   UNL     1      61.405  36.596  60.768  1.00  0.00     0.004 C 
ENDBRANCH  16  17
ENDBRANCH  15  16
ENDBRANCH  14  15
ENDBRANCH  13  14
ENDBRANCH  12  13
ENDBRANCH  11  12
ENDBRANCH   1  11
TORSDOF 14
ENDMDL
MODEL 3
REMARK VINA RESULT:    -3.068     10.746     12.288
REMARK INTER + INTRA:          -8.015
REMARK INTER:                  -5.801
REMARK INTRA:                  -2.214
REMARK UNBOUND:                -2.437
REMARK SMILES CCCCCCCCCCCCCCCC(=O)[O-]
REMARK SMILES IDX 9 1 10 2 11 3 12 4 13 5 14 6 15 7 16 8 17 9 18 10 8 11 7 12
REMARK SMILES IDX 6 13 5 14 4 15 3 16 2 17 1 18
REMARK H PARENT
REMARK Flexibility Score: inf
ROOT
ATOM      1  C   UNL     1      56.363  28.879  52.686  1.00  0.00     0.000 C 
ENDROOT
BRANCH   1   2
ATOM      2  C   UNL     1      56.996  29.667  51.527  1.00  0.00     0.000 C 
BRANCH   2   3
ATOM      3  C   UNL     1      58.398  29.159  51.161  1.00  0.00     0.000 C 
BRANCH   3   4
ATOM      4  C   UNL     1      58.522  28.938  49.646  1.00  0.00     0.000 C 
BRANCH   4   5
ATOM      5  C   UNL     1      59.614  27.918  49.283  1.00  0.00     0.000 C 
BRANCH   5   6
ATOM      6  C   UNL     1      60.854  28.033  50.182  1.00  0.00     0.006 C 
BRANCH   6   7
ATOM      7  C   UNL     1      61.655  26.727  50.181  1.00  0.00     0.053 C 
BRANCH   7   8
ATOM      8  C   UNL     1      63.061  26.974  49.735  1.00  0.00     0.041 C 
ATOM      9  O   UNL     1      63.308  27.867  48.883  1.00  0.00    -0.550 OA
ATOM     10  O   UNL     1      64.093  26.182  50.222  1.00  0.00    -0.550 OA
ENDBRANCH   7   8
ENDBRANCH   6   7
ENDBRANCH   5   6
ENDBRANCH   4   5
ENDBRANCH   3   4
ENDBRANCH   2   3
ENDBRANCH   1   2
BRANCH   1  11
ATOM     11  C   UNL     1      54.926  28.429  52.380  1.00  0.00     0.000 C 
BRANCH  11  12
ATOM     12  C   UNL     1      54.431  29.035  51.060  1.00  0.00    -0.000 C 
BRANCH  12  13
ATOM     13  C   UNL     1      54.041  27.934  50.062  1.00  0.00    -0.000 C 
BRANCH  13  14
ATOM     14  C   UNL     1      54.038  26.533  50.696  1.00  0.00    -0.000 C 
BRANCH  14  15
ATOM     15  C   UNL     1      54.979  25.556  49.971  1.00  0.00    -0.000 C 
BRANCH  15  16
ATOM     16  C   UNL     1      56.461  25.933  50.133  1.00  0.00    -0.000 C 
BRANCH  16  17
ATOM     17  C   UNL     1      57.065  25.413  51.446  1.00  0.00    -0.003 C 
ATOM     18  C   UNL     1      58.538  25.058  51.269  1.00  0.00     0.004 C 
ENDBRANCH  16  17
ENDBRANCH  15  16
ENDBRANCH  14  15
ENDBRANCH  13  14
ENDBRANCH  12  13
ENDBRANCH  11  12
ENDBRANCH   1  11
TORSDOF 14
ENDMDL
MODEL 4
REMARK VINA RESULT:    -3.065      2.757      5.897
REMARK INTER + INTRA:          -8.010
REMARK INTER:                  -5.620
REMARK INTRA:                  -2.391
REMARK UNBOUND:                -2.437
REMARK SMILES CCCCCCCCCCCCCCCC(=O)[O-]
REMARK SMILES IDX 9 1 10 2 11 3 12 4 13 5 14 6 15 7 16 8 17 9 18 10 8 11 7 12
REMARK SMILES IDX 6 13 5 14 4 15 3 16 2 17 1 18
REMARK H PARENT
REMARK Flexibility Score: inf
ROOT
ATOM      1  C   UNL     1      62.043  32.712  58.761  1.00  0.00     0.000 C 
ENDROOT
BRANCH   1   2
ATOM      2  C   UNL     1      60.954  32.539  59.834  1.00  0.00     0.000 C 
BRANCH   2   3
ATOM      3  C   UNL     1      60.101  31.281  59.616  1.00  0.00     0.000 C 
BRANCH   3   4
ATOM      4  C   UNL     1      60.120  30.384  60.863  1.00  0.00     0.000 C 
BRANCH   4   5
ATOM      5  C   UNL     1      61.278  30.721  61.818  1.00  0.00     0.000 C 
BRANCH   5   6
ATOM      6  C   UNL     1      62.493  29.803  61.621  1.00  0.00     0.006 C 
BRANCH   6   7
ATOM      7  C   UNL     1      63.766  30.622  61.388  1.00  0.00     0.053 C 
BRANCH   7   8
ATOM      8  C   UNL     1      64.444  30.192  60.126  1.00  0.00     0.041 C 
ATOM      9  O   UNL     1      65.178  30.997  59.494  1.00  0.00    -0.550 OA
ATOM     10  O   UNL     1      64.224  28.918  59.618  1.00  0.00    -0.550 OA
ENDBRANCH   7   8
ENDBRANCH   6   7
ENDBRANCH   5   6
ENDBRANCH   4   5
ENDBRANCH   3   4
ENDBRANCH   2   3
ENDBRANCH   1   2
BRANCH   1  11
ATOM     11  C   UNL     1      63.063  33.802  59.124  1.00  0.00     0.000 C 
BRANCH  11  12
ATOM     12  C   UNL     1      62.938  34.200  60.600  1.00  0.00    -0.000 C 
BRANCH  12  13
ATOM     13  C   UNL     1      62.861  35.727  60.753  1.00  0.00    -0.000 C 
BRANCH  13  14
ATOM     14  C   UNL     1      61.423  36.229  60.964  1.00  0.00    -0.000 C 
BRANCH  14  15
ATOM     15  C   UNL     1      60.811  36.821  59.682  1.00  0.00    -0.000 C 
BRANCH  15  16
ATOM     16  C   UNL     1      59.642  35.981  59.143  1.00  0.00    -0.000 C 
BRANCH  16  17
ATOM     17  C   UNL     1      59.885  35.473  57.715  1.00  0.00    -0.003 C 
ATOM     18  C   UNL     1      58.872  34.397  57.335  1.00  0.00     0.004 C 
ENDBRANCH  16  17
ENDBRANCH  15  16
ENDBRANCH  14  15
ENDBRANCH  13  14
ENDBRANCH  12  13
ENDBRANCH  11  12
ENDBRANCH   1  11
TORSDOF 14
ENDMDL
MODEL 5
REMARK VINA RESULT:    -3.060      9.444     11.552
REMARK INTER + INTRA:          -8.002
REMARK INTER:                  -5.752
REMARK INTRA:                  -2.250
REMARK UNBOUND:                -2.437
REMARK SMILES CCCCCCCCCCCCCCCC(=O)[O-]
REMARK SMILES IDX 9 1 10 2 11 3 12 4 13 5 14 6 15 7 16 8 17 9 18 10 8 11 7 12
REMARK SMILES IDX 6 13 5 14 4 15 3 16 2 17 1 18
REMARK H PARENT
REMARK Flexibility Score: inf
ROOT
ATOM      1  C   UNL     1      59.319  26.119  49.817  1.00  0.00     0.000 C 
ENDROOT
BRANCH   1   2
ATOM      2  C   UNL     1      60.528  27.068  49.860  1.00  0.00     0.000 C 
BRANCH   2   3
ATOM      3  C   UNL     1      60.126  28.530  50.108  1.00  0.00     0.000 C 
BRANCH   3   4
ATOM      4  C   UNL     1      58.771  28.843  49.457  1.00  0.00     0.000 C 
BRANCH   4   5
ATOM      5  C   UNL     1      57.753  29.423  50.454  1.00  0.00     0.000 C 
BRANCH   5   6
ATOM      6  C   UNL     1      58.235  29.336  51.909  1.00  0.00     0.006 C 
BRANCH   6   7
ATOM      7  C   UNL     1      57.066  29.501  52.884  1.00  0.00     0.053 C 
BRANCH   7   8
ATOM      8  C   UNL     1      56.659  30.937  52.978  1.00  0.00     0.041 C 
ATOM      9  O   UNL     1      57.512  31.820  53.257  1.00  0.00    -0.550 OA
ATOM     10  O   UNL     1      55.327  31.295  52.809  1.00  0.00    -0.550 OA
ENDBRANCH   7   8
ENDBRANCH   6   7
ENDBRANCH   5   6
ENDBRANCH   4   5
ENDBRANCH   3   4
ENDBRANCH   2   3
ENDBRANCH   1   2
BRANCH   1  11
ATOM     11  C   UNL     1      59.582  24.793  50.548  1.00  0.00     0.000 C 
BRANCH  11  12
ATOM     12  C   UNL     1      58.591  24.597  51.702  1.00  0.00    -0.000 C 
BRANCH  12  13
ATOM     13  C   UNL     1      57.701  25.837  51.878  1.00  0.00    -0.000 C 
BRANCH  13  14
ATOM     14  C   UNL     1      56.239  25.478  52.193  1.00  0.00    -0.000 C 
BRANCH  14  15
ATOM     15  C   UNL     1      55.363  25.411  50.931  1.00  0.00    -0.000 C 
BRANCH  15  16
ATOM     16  C   UNL     1      55.358  26.733  50.145  1.00  0.00    -0.000 C 
BRANCH  16  17
ATOM     17  C   UNL     1      53.990  27.431  50.166  1.00  0.00    -0.003 C 
ATOM     18  C   UNL     1      54.137  28.914  50.496  1.00  0.00     0.004 C 
ENDBRANCH  16  17
ENDBRANCH  15  16
ENDBRANCH  14  15
ENDBRANCH  13  14
ENDBRANCH  12  13
ENDBRANCH  11  12
ENDBRANCH   1  11
TORSDOF 14
ENDMDL
MODEL 6
REMARK VINA RESULT:    -3.043      3.133      5.488
REMARK INTER + INTRA:          -7.971
REMARK INTER:                  -5.611
REMARK INTRA:                  -2.360
REMARK UNBOUND:                -2.437
REMARK SMILES CCCCCCCCCCCCCCCC(=O)[O-]
REMARK SMILES IDX 9 1 10 2 11 3 12 4 13 5 14 6 15 7 16 8 17 9 18 10 8 11 7 12
REMARK SMILES IDX 6 13 5 14 4 15 3 16 2 17 1 18
REMARK H PARENT
REMARK Flexibility Score: inf
ROOT
ATOM      1  C   UNL     1      63.465  29.822  59.025  1.00  0.00     0.000 C 
ENDROOT
BRANCH   1   2
ATOM      2  C   UNL     1      63.955  30.895  60.011  1.00  0.00     0.000 C 
BRANCH   2   3
ATOM      3  C   UNL     1      63.751  30.490  61.478  1.00  0.00     0.000 C 
BRANCH   3   4
ATOM      4  C   UNL     1      62.414  29.758  61.663  1.00  0.00     0.000 C 
BRANCH   4   5
ATOM      5  C   UNL     1      61.222  30.722  61.790  1.00  0.00     0.000 C 
BRANCH   5   6
ATOM      6  C   UNL     1      60.037  30.317  60.901  1.00  0.00     0.006 C 
BRANCH   6   7
ATOM      7  C   UNL     1      60.143  28.847  60.483  1.00  0.00     0.053 C 
BRANCH   7   8
ATOM      8  C   UNL     1      58.794  28.201  60.488  1.00  0.00     0.041 C 
ATOM      9  O   UNL     1      58.579  27.187  61.203  1.00  0.00    -0.550 OA
ATOM     10  O   UNL     1      57.787  28.687  59.664  1.00  0.00    -0.550 OA
ENDBRANCH   7   8
ENDBRANCH   6   7
ENDBRANCH   5   6
ENDBRANCH   4   5
ENDBRANCH   3   4
ENDBRANCH   2   3
ENDBRANCH   1   2
BRANCH   1  11
ATOM     11  C   UNL     1      62.450  30.370  58.010  1.00  0.00     0.000 C 
BRANCH  11  12
ATOM     12  C   UNL     1      62.513  31.901  57.945  1.00  0.00    -0.000 C 
BRANCH  12  13
ATOM     13  C   UNL     1      61.110  32.514  58.072  1.00  0.00    -0.000 C 
BRANCH  13  14
ATOM     14  C   UNL     1      61.125  33.897  58.744  1.00  0.00    -0.000 C 
BRANCH  14  15
ATOM     15  C   UNL     1      61.572  33.834  60.214  1.00  0.00    -0.000 C 
BRANCH  15  16
ATOM     16  C   UNL     1      62.112  35.180  60.726  1.00  0.00    -0.000 C 
BRANCH  16  17
ATOM     17  C   UNL     1      63.604  35.376  60.420  1.00  0.00    -0.003 C 
ATOM     18  C   UNL     1      64.455  34.352  61.166  1.00  0.00     0.004 C 
ENDBRANCH  16  17
ENDBRANCH  15  16
ENDBRANCH  14  15
ENDBRANCH  13  14
ENDBRANCH  12  13
ENDBRANCH  11  12
ENDBRANCH   1  11
TORSDOF 14
ENDMDL
MODEL 7
REMARK VINA RESULT:    -3.010     10.784     12.909
REMARK INTER + INTRA:          -7.910
REMARK INTER:                  -5.768
REMARK INTRA:                  -2.142
REMARK UNBOUND:                -2.437
REMARK SMILES CCCCCCCCCCCCCCCC(=O)[O-]
REMARK SMILES IDX 9 1 10 2 11 3 12 4 13 5 14 6 15 7 16 8 17 9 18 10 8 11 7 12
REMARK SMILES IDX 6 13 5 14 4 15 3 16 2 17 1 18
REMARK H PARENT
REMARK Flexibility Score: inf
ROOT
ATOM      1  C   UNL     1      59.097  29.045  51.440  1.00  0.00     0.000 C 
ENDROOT
BRANCH   1   2
ATOM      2  C   UNL     1      57.634  29.194  51.888  1.00  0.00     0.000 C 
BRANCH   2   3
ATOM      3  C   UNL     1      56.665  29.352  50.706  1.00  0.00     0.000 C 
BRANCH   3   4
ATOM      4  C   UNL     1      55.662  28.189  50.661  1.00  0.00     0.000 C 
BRANCH   4   5
ATOM      5  C   UNL     1      54.206  28.667  50.533  1.00  0.00     0.000 C 
BRANCH   5   6
ATOM      6  C   UNL     1      53.286  27.601  49.920  1.00  0.00     0.006 C 
BRANCH   6   7
ATOM      7  C   UNL     1      53.053  26.449  50.902  1.00  0.00     0.053 C 
BRANCH   7   8
ATOM      8  C   UNL     1      53.619  25.174  50.360  1.00  0.00     0.041 C 
ATOM      9  O   UNL     1      53.425  24.087  50.965  1.00  0.00    -0.550 OA
ATOM     10  O   UNL     1      54.405  25.194  49.215  1.00  0.00    -0.550 OA
ENDBRANCH   7   8
ENDBRANCH   6   7
ENDBRANCH   5   6
ENDBRANCH   4   5
ENDBRANCH   3   4
ENDBRANCH   2   3
ENDBRANCH   1   2
BRANCH   1  11
ATOM     11  C   UNL     1      59.252  29.051  49.912  1.00  0.00     0.000 C 
BRANCH  11  12
ATOM     12  C   UNL     1      60.008  27.806  49.432  1.00  0.00    -0.000 C 
BRANCH  12  13
ATOM     13  C   UNL     1      59.167  26.537  49.646  1.00  0.00    -0.000 C 
BRANCH  13  14
ATOM     14  C   UNL     1      59.871  25.502  50.538  1.00  0.00    -0.000 C 
BRANCH  14  15
ATOM     15  C   UNL     1      58.879  24.639  51.336  1.00  0.00    -0.000 C 
BRANCH  15  16
ATOM     16  C   UNL     1      57.439  25.175  51.263  1.00  0.00    -0.000 C 
BRANCH  16  17
ATOM     17  C   UNL     1      56.778  25.287  52.645  1.00  0.00    -0.003 C 
ATOM     18  C   UNL     1      57.719  25.945  53.651  1.00  0.00     0.004 C 
ENDBRANCH  16  17
ENDBRANCH  15  16
ENDBRANCH  14  15
ENDBRANCH  13  14
ENDBRANCH  12  13
ENDBRANCH  11  12
ENDBRANCH   1  11
TORSDOF 14
ENDMDL
MODEL 8
REMARK VINA RESULT:    -2.994      2.083      3.439
REMARK INTER + INTRA:          -7.882
REMARK INTER:                  -5.516
REMARK INTRA:                  -2.365
REMARK UNBOUND:                -2.437
REMARK SMILES CCCCCCCCCCCCCCCC(=O)[O-]
REMARK SMILES IDX 9 1 10 2 11 3 12 4 13 5 14 6 15 7 16 8 17 9 18 10 8 11 7 12
REMARK SMILES IDX 6 13 5 14 4 15 3 16 2 17 1 18
REMARK H PARENT
REMARK Flexibility Score: inf
ROOT
ATOM      1  C   UNL     1      64.233  31.665  58.637  1.00  0.00     0.000 C 
ENDROOT
BRANCH   1   2
ATOM      2  C   UNL     1      62.778  31.960  58.236  1.00  0.00     0.000 C 
BRANCH   2   3
ATOM      3  C   UNL     1      62.471  33.464  58.184  1.00  0.00     0.000 C 
BRANCH   3   4
ATOM      4  C   UNL     1      61.293  33.815  59.104  1.00  0.00     0.000 C 
BRANCH   4   5
ATOM      5  C   UNL     1      61.733  34.096  60.551  1.00  0.00     0.000 C 
BRANCH   5   6
ATOM      6  C   UNL     1      62.763  35.231  60.645  1.00  0.00     0.006 C 
BRANCH   6   7
ATOM      7  C   UNL     1      64.086  34.723  61.227  1.00  0.00     0.053 C 
BRANCH   7   8
ATOM      8  C   UNL     1      65.246  35.323  60.498  1.00  0.00     0.041 C 
ATOM      9  O   UNL     1      65.312  35.249  59.242  1.00  0.00    -0.550 OA
ATOM     10  O   UNL     1      66.281  35.919  61.207  1.00  0.00    -0.550 OA
ENDBRANCH   7   8
ENDBRANCH   6   7
ENDBRANCH   5   6
ENDBRANCH   4   5
ENDBRANCH   3   4
ENDBRANCH   2   3
ENDBRANCH   1   2
BRANCH   1  11
ATOM     11  C   UNL     1      64.342  30.544  59.682  1.00  0.00     0.000 C 
BRANCH  11  12
ATOM     12  C   UNL     1      63.797  31.004  61.040  1.00  0.00    -0.000 C 
BRANCH  12  13
ATOM     13  C   UNL     1      62.770  30.002  61.587  1.00  0.00    -0.000 C 
BRANCH  13  14
ATOM     14  C   UNL     1      61.420  30.658  61.921  1.00  0.00    -0.000 C 
BRANCH  14  15
ATOM     15  C   UNL     1      60.418  30.570  60.757  1.00  0.00    -0.000 C 
BRANCH  15  16
ATOM     16  C   UNL     1      60.668  29.351  59.853  1.00  0.00    -0.000 C 
BRANCH  16  17
ATOM     17  C   UNL     1      59.699  28.194  60.136  1.00  0.00    -0.003 C 
ATOM     18  C   UNL     1      58.438  28.694  60.835  1.00  0.00     0.004 C 
ENDBRANCH  16  17
ENDBRANCH  15  16
ENDBRANCH  14  15
ENDBRANCH  13  14
ENDBRANCH  12  13
ENDBRANCH  11  12
ENDBRANCH   1  11
TORSDOF 14
ENDMDL
MODEL 9
REMARK VINA RESULT:    -2.927      9.625     11.713
REMARK INTER + INTRA:          -7.760
REMARK INTER:                  -5.205
REMARK INTRA:                  -2.555
REMARK UNBOUND:                -2.437
REMARK SMILES CCCCCCCCCCCCCCCC(=O)[O-]
REMARK SMILES IDX 9 1 10 2 11 3 12 4 13 5 14 6 15 7 16 8 17 9 18 10 8 11 7 12
REMARK SMILES IDX 6 13 5 14 4 15 3 16 2 17 1 18
REMARK H PARENT
REMARK Flexibility Score: inf
ROOT
ATOM      1  C   UNL     1      54.863  28.126  51.211  1.00  0.00     0.000 C 
ENDROOT
BRANCH   1   2
ATOM      2  C   UNL     1      55.778  29.277  50.761  1.00  0.00     0.000 C 
BRANCH   2   3
ATOM      3  C   UNL     1      56.921  29.547  51.750  1.00  0.00     0.000 C 
BRANCH   3   4
ATOM      4  C   UNL     1      58.262  29.683  51.013  1.00  0.00     0.000 C 
BRANCH   4   5
ATOM      5  C   UNL     1      58.283  28.925  49.675  1.00  0.00     0.000 C 
BRANCH   5   6
ATOM      6  C   UNL     1      59.628  28.235  49.407  1.00  0.00     0.006 C 
BRANCH   6   7
ATOM      7  C   UNL     1      60.667  28.631  50.461  1.00  0.00     0.053 C 
BRANCH   7   8
ATOM      8  C   UNL     1      61.501  27.451  50.847  1.00  0.00     0.041 C 
ATOM      9  O   UNL     1      61.568  26.448  50.089  1.00  0.00    -0.550 OA
ATOM     10  O   UNL     1      62.164  27.438  52.067  1.00  0.00    -0.550 OA
ENDBRANCH   7   8
ENDBRANCH   6   7
ENDBRANCH   5   6
ENDBRANCH   4   5
ENDBRANCH   3   4
ENDBRANCH   2   3
ENDBRANCH   1   2
BRANCH   1  11
ATOM     11  C   UNL     1      54.259  27.354  50.028  1.00  0.00     0.000 C 
BRANCH  11  12
ATOM     12  C   UNL     1      54.849  25.941  49.937  1.00  0.00    -0.000 C 
BRANCH  12  13
ATOM     13  C   UNL     1      55.955  25.739  50.983  1.00  0.00    -0.000 C 
BRANCH  13  14
ATOM     14  C   UNL     1      57.343  25.545  50.350  1.00  0.00    -0.000 C 
BRANCH  14  15
ATOM     15  C   UNL     1      58.444  25.317  51.400  1.00  0.00    -0.000 C 
BRANCH  15  16
ATOM     16  C   UNL     1      58.002  25.723  52.816  1.00  0.00    -0.000 C 
BRANCH  16  17
ATOM     17  C   UNL     1      58.876  26.835  53.413  1.00  0.00    -0.003 C 
ATOM     18  C   UNL     1      58.162  27.533  54.568  1.00  0.00     0.004 C 
ENDBRANCH  16  17
ENDBRANCH  15  16
ENDBRANCH  14  15
ENDBRANCH  13  14
ENDBRANCH  12  13
ENDBRANCH  11  12
ENDBRANCH   1  11
TORSDOF 14
ENDMDL
