MODEL 1
REMARK VINA RESULT:    24.776      0.000      0.000
REMARK INTER + INTRA:          29.425
REMARK INTER:                  29.845
REMARK INTRA:                  -0.420
REMARK UNBOUND:                -0.420
REMARK SMILES O=c1c(O)c(-c2ccc(O)cc2O)oc2cc(O)cc(O)c12
REMARK SMILES IDX 5 1 3 2 2 3 1 4 22 5 20 6 19 7 17 8 16 9 15 10 14 11 6 12
REMARK SMILES IDX 8 13 7 14 9 15 11 16 12 17 10 18 13 20 4 22 21 24 18 26
REMARK H PARENT 10 19 13 21 4 23 21 25 18 27
REMARK Flexibility Score: inf
ROOT
ATOM      1  C   UNL     1      -5.978  -7.284  16.385  1.00  0.00     0.184 A 
ATOM      2  C   UNL     1      -5.612  -8.184  17.397  1.00  0.00     0.208 A 
ATOM      3  C   UNL     1      -5.986  -9.532  17.277  1.00  0.00     0.238 A 
ATOM      4  O   UNL     1      -5.702 -10.324  18.213  1.00  0.00    -0.285 OA
ATOM      5  C   UNL     1      -6.708  -9.963  16.137  1.00  0.00     0.111 A 
ATOM      6  C   UNL     1      -7.104 -11.312  15.892  1.00  0.00     0.134 A 
ATOM      7  C   UNL     1      -7.926 -11.602  14.795  1.00  0.00     0.093 A 
ATOM      8  C   UNL     1      -8.312 -10.604  13.901  1.00  0.00     0.123 A 
ATOM      9  C   UNL     1      -7.881  -9.292  14.099  1.00  0.00     0.094 A 
ATOM     10  C   UNL     1      -7.090  -8.965  15.203  1.00  0.00     0.146 A 
ATOM     11  O   UNL     1      -6.711  -7.703  15.361  1.00  0.00    -0.451 OA
ENDROOT
BRANCH   1  12
ATOM     12  C   UNL     1      -5.602  -5.856  16.442  1.00  0.00     0.063 A 
ATOM     13  C   UNL     1      -3.910  -4.138  16.124  1.00  0.00     0.047 A 
ATOM     14  C   UNL     1      -4.300  -5.479  16.075  1.00  0.00     0.020 A 
ATOM     15  C   UNL     1      -4.810  -3.160  16.552  1.00  0.00     0.119 A 
ATOM     16  C   UNL     1      -6.105  -3.527  16.941  1.00  0.00     0.093 A 
ATOM     17  C   UNL     1      -6.502  -4.872  16.902  1.00  0.00     0.130 A 
BRANCH  15  18
ATOM     18  O   UNL     1      -4.409  -1.827  16.590  1.00  0.00    -0.508 OA
ATOM     19  H   UNL     1      -3.757  -1.450  15.911  1.00  0.00     0.293 HD
ENDBRANCH  15  18
BRANCH  17  20
ATOM     20  O   UNL     1      -7.777  -5.233  17.339  1.00  0.00    -0.507 OA
ATOM     21  H   UNL     1      -8.464  -5.627  16.707  1.00  0.00     0.293 HD
ENDBRANCH  17  20
ENDBRANCH   1  12
BRANCH   2  22
ATOM     22  O   UNL     1      -4.917  -7.728  18.520  1.00  0.00    -0.502 OA
ATOM     23  H   UNL     1      -4.003  -7.296  18.455  1.00  0.00     0.293 HD
ENDBRANCH   2  22
BRANCH   6  24
ATOM     24  O   UNL     1      -6.699 -12.399  16.672  1.00  0.00    -0.507 OA
ATOM     25  H   UNL     1      -6.398 -12.336  17.633  1.00  0.00     0.293 HD
ENDBRANCH   6  24
BRANCH   8  26
ATOM     26  O   UNL     1      -9.118 -10.931  12.812  1.00  0.00    -0.508 OA
ATOM     27  H   UNL     1      -9.463 -11.873  12.672  1.00  0.00     0.293 HD
ENDBRANCH   8  26
TORSDOF 6
ENDMDL
MODEL 2
REMARK VINA RESULT:    27.072      1.201      2.807
REMARK INTER + INTRA:          32.191
REMARK INTER:                  32.497
REMARK INTRA:                  -0.307
REMARK UNBOUND:                -0.420
REMARK SMILES O=c1c(O)c(-c2ccc(O)cc2O)oc2cc(O)cc(O)c12
REMARK SMILES IDX 5 1 3 2 2 3 1 4 22 5 20 6 19 7 17 8 16 9 15 10 14 11 6 12
REMARK SMILES IDX 8 13 7 14 9 15 11 16 12 17 10 18 13 20 4 22 21 24 18 26
REMARK H PARENT 10 19 13 21 4 23 21 25 18 27
REMARK Flexibility Score: inf
ROOT
ATOM      1  C   UNL     1      -6.285  -7.341  15.826  1.00  0.00     0.184 A 
ATOM      2  C   UNL     1      -7.216  -7.530  14.793  1.00  0.00     0.208 A 
ATOM      3  C   UNL     1      -7.696  -8.825  14.540  1.00  0.00     0.238 A 
ATOM      4  O   UNL     1      -8.489  -8.997  13.578  1.00  0.00    -0.285 OA
ATOM      5  C   UNL     1      -7.250  -9.909  15.334  1.00  0.00     0.111 A 
ATOM      6  C   UNL     1      -7.701 -11.256  15.192  1.00  0.00     0.134 A 
ATOM      7  C   UNL     1      -7.096 -12.270  15.946  1.00  0.00     0.093 A 
ATOM      8  C   UNL     1      -6.104 -11.977  16.881  1.00  0.00     0.123 A 
ATOM      9  C   UNL     1      -5.698 -10.655  17.070  1.00  0.00     0.094 A 
ATOM     10  C   UNL     1      -6.257  -9.627  16.308  1.00  0.00     0.146 A 
ATOM     11  O   UNL     1      -5.835  -8.385  16.511  1.00  0.00    -0.451 OA
ENDROOT
BRANCH   1  12
ATOM     12  C   UNL     1      -5.752  -6.002  16.155  1.00  0.00     0.063 A 
ATOM     13  C   UNL     1      -3.863  -4.471  16.201  1.00  0.00     0.047 A 
ATOM     14  C   UNL     1      -4.400  -5.725  15.895  1.00  0.00     0.020 A 
ATOM     15  C   UNL     1      -4.664  -3.485  16.781  1.00  0.00     0.119 A 
ATOM     16  C   UNL     1      -6.009  -3.759  17.065  1.00  0.00     0.093 A 
ATOM     17  C   UNL     1      -6.554  -5.017  16.768  1.00  0.00     0.130 A 
BRANCH  15  18
ATOM     18  O   UNL     1      -4.116  -2.239  17.074  1.00  0.00    -0.508 OA
ATOM     19  H   UNL     1      -4.348  -1.746  17.929  1.00  0.00     0.293 HD
ENDBRANCH  15  18
BRANCH  17  20
ATOM     20  O   UNL     1      -7.880  -5.295  17.100  1.00  0.00    -0.507 OA
ATOM     21  H   UNL     1      -8.118  -5.903  17.876  1.00  0.00     0.293 HD
ENDBRANCH  17  20
ENDBRANCH   1  12
BRANCH   2  22
ATOM     22  O   UNL     1      -7.624  -6.446  14.012  1.00  0.00    -0.502 OA
ATOM     23  H   UNL     1      -7.011  -5.667  13.802  1.00  0.00     0.293 HD
ENDBRANCH   2  22
BRANCH   6  24
ATOM     24  O   UNL     1      -8.748 -11.644  14.352  1.00  0.00    -0.507 OA
ATOM     25  H   UNL     1      -9.657 -11.946  14.669  1.00  0.00     0.293 HD
ENDBRANCH   6  24
BRANCH   8  26
ATOM     26  O   UNL     1      -5.534 -13.008  17.625  1.00  0.00    -0.508 OA
ATOM     27  H   UNL     1      -4.563 -12.981  17.911  1.00  0.00     0.293 HD
ENDBRANCH   8  26
TORSDOF 6
ENDMDL
