MODEL 1
REMARK VINA RESULT:    -5.977      0.000      0.000
REMARK INTER + INTRA:          -6.151
REMARK INTER:                  -6.151
REMARK INTRA:                   0.000
REMARK UNBOUND:                 0.000
REMARK SMILES O=c1ccc2ccc(O)cc2o1
REMARK SMILES IDX 6 1 7 2 8 3 10 4 11 5 5 6 4 7 3 8 2 9 1 10 12 11 9 12
REMARK H PARENT 9 13
REMARK Flexibility Score: inf
ROOT
ATOM      1  C   UNL     1       3.891  10.149   6.877  1.00  0.00     0.016 A 
ATOM      2  C   UNL     1       3.654  10.037   8.251  1.00  0.00     0.047 A 
ATOM      3  C   UNL     1       4.504  10.665   9.170  1.00  0.00     0.119 A 
ATOM      4  C   UNL     1       5.600  11.411   8.712  1.00  0.00     0.094 A 
ATOM      5  C   UNL     1       5.845  11.528   7.339  1.00  0.00     0.142 A 
ATOM      6  C   UNL     1       4.985  10.894   6.416  1.00  0.00     0.018 A 
ATOM      7  C   UNL     1       5.256  11.030   5.051  1.00  0.00     0.019 A 
ATOM      8  C   UNL     1       6.357  11.782   4.643  1.00  0.00     0.094 A 
ATOM      9  C   UNL     1       7.165  12.383   5.614  1.00  0.00     0.336 A 
ATOM     10  O   UNL     1       8.163  13.065   5.266  1.00  0.00    -0.246 OA
ATOM     11  O   UNL     1       6.886  12.237   6.907  1.00  0.00    -0.423 OA
ENDROOT
BRANCH   3  12
ATOM     12  O   UNL     1       4.252  10.541  10.534  1.00  0.00    -0.508 OA
ATOM     13  H   UNL     1       3.779  11.271  11.054  1.00  0.00     0.293 HD
ENDBRANCH   3  12
TORSDOF 1
ENDMDL
MODEL 2
REMARK VINA RESULT:    -5.614      1.897      2.657
REMARK INTER + INTRA:          -5.778
REMARK INTER:                  -5.778
REMARK INTRA:                   0.000
REMARK UNBOUND:                 0.000
REMARK SMILES O=c1ccc2ccc(O)cc2o1
REMARK SMILES IDX 6 1 7 2 8 3 10 4 11 5 5 6 4 7 3 8 2 9 1 10 12 11 9 12
REMARK H PARENT 9 13
REMARK Flexibility Score: inf
ROOT
ATOM      1  C   UNL     1       5.109  11.733   9.183  1.00  0.00     0.016 A 
ATOM      2  C   UNL     1       3.810  11.294   8.908  1.00  0.00     0.047 A 
ATOM      3  C   UNL     1       3.538  10.577   7.736  1.00  0.00     0.119 A 
ATOM      4  C   UNL     1       4.572  10.299   6.831  1.00  0.00     0.094 A 
ATOM      5  C   UNL     1       5.875  10.735   7.097  1.00  0.00     0.142 A 
ATOM      6  C   UNL     1       6.145  11.457   8.280  1.00  0.00     0.018 A 
ATOM      7  C   UNL     1       7.456  11.880   8.519  1.00  0.00     0.019 A 
ATOM      8  C   UNL     1       8.452  11.579   7.590  1.00  0.00     0.094 A 
ATOM      9  C   UNL     1       8.111  10.860   6.439  1.00  0.00     0.336 A 
ATOM     10  O   UNL     1       8.995  10.579   5.590  1.00  0.00    -0.246 OA
ATOM     11  O   UNL     1       6.855  10.470   6.237  1.00  0.00    -0.423 OA
ENDROOT
BRANCH   3  12
ATOM     12  O   UNL     1       2.238  10.147   7.481  1.00  0.00    -0.508 OA
ATOM     13  H   UNL     1       1.606  10.688   6.902  1.00  0.00     0.293 HD
ENDBRANCH   3  12
TORSDOF 1
ENDMDL
MODEL 3
REMARK VINA RESULT:    -5.507      1.562      4.474
REMARK INTER + INTRA:          -5.668
REMARK INTER:                  -5.668
REMARK INTRA:                   0.000
REMARK UNBOUND:                 0.000
REMARK SMILES O=c1ccc2ccc(O)cc2o1
REMARK SMILES IDX 6 1 7 2 8 3 10 4 11 5 5 6 4 7 3 8 2 9 1 10 12 11 9 12
REMARK H PARENT 9 13
REMARK Flexibility Score: inf
ROOT
ATOM      1  C   UNL     1       6.369  11.787   4.301  1.00  0.00     0.016 A 
ATOM      2  C   UNL     1       7.735  12.062   4.174  1.00  0.00     0.047 A 
ATOM      3  C   UNL     1       8.628  11.699   5.189  1.00  0.00     0.119 A 
ATOM      4  C   UNL     1       8.152  11.056   6.342  1.00  0.00     0.094 A 
ATOM      5  C   UNL     1       6.787  10.778   6.478  1.00  0.00     0.142 A 
ATOM      6  C   UNL     1       5.890  11.145   5.451  1.00  0.00     0.018 A 
ATOM      7  C   UNL     1       4.533  10.854   5.615  1.00  0.00     0.019 A 
ATOM      8  C   UNL     1       4.106  10.214   6.778  1.00  0.00     0.094 A 
ATOM      9  C   UNL     1       5.051   9.879   7.754  1.00  0.00     0.336 A 
ATOM     10  O   UNL     1       4.686   9.301   8.810  1.00  0.00    -0.246 OA
ATOM     11  O   UNL     1       6.337  10.168   7.572  1.00  0.00    -0.423 OA
ENDROOT
BRANCH   3  12
ATOM     12  O   UNL     1       9.984  11.981   5.045  1.00  0.00    -0.508 OA
ATOM     13  H   UNL     1      10.373  12.870   5.333  1.00  0.00     0.293 HD
ENDBRANCH   3  12
TORSDOF 1
ENDMDL
MODEL 4
REMARK VINA RESULT:    -5.504      1.504      1.895
REMARK INTER + INTRA:          -5.665
REMARK INTER:                  -5.665
REMARK INTRA:                   0.000
REMARK UNBOUND:                 0.000
REMARK SMILES O=c1ccc2ccc(O)cc2o1
REMARK SMILES IDX 6 1 7 2 8 3 10 4 11 5 5 6 4 7 3 8 2 9 1 10 12 11 9 12
REMARK H PARENT 9 13
REMARK Flexibility Score: inf
ROOT
ATOM      1  C   UNL     1       4.995  10.911   5.588  1.00  0.00     0.016 A 
ATOM      2  C   UNL     1       4.672  10.245   6.776  1.00  0.00     0.047 A 
ATOM      3  C   UNL     1       5.643  10.055   7.767  1.00  0.00     0.119 A 
ATOM      4  C   UNL     1       6.947  10.533   7.569  1.00  0.00     0.094 A 
ATOM      5  C   UNL     1       7.278  11.200   6.384  1.00  0.00     0.142 A 
ATOM      6  C   UNL     1       6.297  11.390   5.388  1.00  0.00     0.018 A 
ATOM      7  C   UNL     1       6.658  12.060   4.215  1.00  0.00     0.019 A 
ATOM      8  C   UNL     1       7.966  12.517   4.063  1.00  0.00     0.094 A 
ATOM      9  C   UNL     1       8.887  12.293   5.092  1.00  0.00     0.336 A 
ATOM     10  O   UNL     1      10.071  12.698   4.975  1.00  0.00    -0.246 OA
ATOM     11  O   UNL     1       8.517  11.653   6.199  1.00  0.00    -0.423 OA
ENDROOT
BRANCH   3  12
ATOM     12  O   UNL     1       5.303   9.390   8.942  1.00  0.00    -0.508 OA
ATOM     13  H   UNL     1       5.520   8.410   9.078  1.00  0.00     0.293 HD
ENDBRANCH   3  12
TORSDOF 1
ENDMDL
MODEL 5
REMARK VINA RESULT:    -5.297      0.899      4.223
REMARK INTER + INTRA:          -5.451
REMARK INTER:                  -5.451
REMARK INTRA:                   0.000
REMARK UNBOUND:                 0.000
REMARK SMILES O=c1ccc2ccc(O)cc2o1
REMARK SMILES IDX 6 1 7 2 8 3 10 4 11 5 5 6 4 7 3 8 2 9 1 10 12 11 9 12
REMARK H PARENT 9 13
REMARK Flexibility Score: inf
ROOT
ATOM      1  C   UNL     1       5.633  11.234   4.847  1.00  0.00     0.016 A 
ATOM      2  C   UNL     1       6.858  11.866   4.614  1.00  0.00     0.047 A 
ATOM      3  C   UNL     1       7.652  12.291   5.687  1.00  0.00     0.119 A 
ATOM      4  C   UNL     1       7.215  12.083   7.004  1.00  0.00     0.094 A 
ATOM      5  C   UNL     1       5.990  11.453   7.246  1.00  0.00     0.142 A 
ATOM      6  C   UNL     1       5.193  11.025   6.162  1.00  0.00     0.018 A 
ATOM      7  C   UNL     1       3.974  10.398   6.435  1.00  0.00     0.019 A 
ATOM      8  C   UNL     1       3.582  10.214   7.761  1.00  0.00     0.094 A 
ATOM      9  C   UNL     1       4.422  10.663   8.785  1.00  0.00     0.336 A 
ATOM     10  O   UNL     1       4.086  10.505   9.987  1.00  0.00    -0.246 OA
ATOM     11  O   UNL     1       5.577  11.257   8.497  1.00  0.00    -0.423 OA
ENDROOT
BRANCH   3  12
ATOM     12  O   UNL     1       8.869  12.918   5.435  1.00  0.00    -0.508 OA
ATOM     13  H   UNL     1       9.522  13.127   6.181  1.00  0.00     0.293 HD
ENDBRANCH   3  12
TORSDOF 1
ENDMDL
MODEL 6
REMARK VINA RESULT:    -5.230      2.203      3.509
REMARK INTER + INTRA:          -5.382
REMARK INTER:                  -5.382
REMARK INTRA:                   0.000
REMARK UNBOUND:                 0.000
REMARK SMILES O=c1ccc2ccc(O)cc2o1
REMARK SMILES IDX 6 1 7 2 8 3 10 4 11 5 5 6 4 7 3 8 2 9 1 10 12 11 9 12
REMARK H PARENT 9 13
REMARK Flexibility Score: inf
ROOT
ATOM      1  C   UNL     1       8.064  10.889   7.235  1.00  0.00     0.016 A 
ATOM      2  C   UNL     1       6.724  10.562   7.469  1.00  0.00     0.047 A 
ATOM      3  C   UNL     1       5.756  10.792   6.483  1.00  0.00     0.119 A 
ATOM      4  C   UNL     1       6.131  11.355   5.254  1.00  0.00     0.094 A 
ATOM      5  C   UNL     1       7.469  11.686   5.011  1.00  0.00     0.142 A 
ATOM      6  C   UNL     1       8.441  11.451   6.008  1.00  0.00     0.018 A 
ATOM      7  C   UNL     1       9.770  11.792   5.736  1.00  0.00     0.019 A 
ATOM      8  C   UNL     1      10.095  12.349   4.500  1.00  0.00     0.094 A 
ATOM      9  C   UNL     1       9.079  12.553   3.560  1.00  0.00     0.336 A 
ATOM     10  O   UNL     1       9.351  13.054   2.439  1.00  0.00    -0.246 OA
ATOM     11  O   UNL     1       7.822  12.220   3.844  1.00  0.00    -0.423 OA
ENDROOT
BRANCH   3  12
ATOM     12  O   UNL     1       4.428  10.460   6.734  1.00  0.00    -0.508 OA
ATOM     13  H   UNL     1       4.023  10.557   7.658  1.00  0.00     0.293 HD
ENDBRANCH   3  12
TORSDOF 1
ENDMDL
MODEL 7
REMARK VINA RESULT:    -5.197      2.065      4.527
REMARK INTER + INTRA:          -5.349
REMARK INTER:                  -5.349
REMARK INTRA:                   0.000
REMARK UNBOUND:                 0.000
REMARK SMILES O=c1ccc2ccc(O)cc2o1
REMARK SMILES IDX 6 1 7 2 8 3 10 4 11 5 5 6 4 7 3 8 2 9 1 10 12 11 9 12
REMARK H PARENT 9 13
REMARK Flexibility Score: inf
ROOT
ATOM      1  C   UNL     1       7.560  11.878   8.531  1.00  0.00     0.016 A 
ATOM      2  C   UNL     1       8.590  11.602   7.625  1.00  0.00     0.047 A 
ATOM      3  C   UNL     1       8.320  10.919   6.433  1.00  0.00     0.119 A 
ATOM      4  C   UNL     1       7.011  10.507   6.144  1.00  0.00     0.094 A 
ATOM      5  C   UNL     1       5.975  10.779   7.044  1.00  0.00     0.142 A 
ATOM      6  C   UNL     1       6.251  11.469   8.245  1.00  0.00     0.018 A 
ATOM      7  C   UNL     1       5.194  11.725   9.124  1.00  0.00     0.019 A 
ATOM      8  C   UNL     1       3.909  11.297   8.794  1.00  0.00     0.094 A 
ATOM      9  C   UNL     1       3.710  10.619   7.587  1.00  0.00     0.336 A 
ATOM     10  O   UNL     1       2.558  10.225   7.271  1.00  0.00    -0.246 OA
ATOM     11  O   UNL     1       4.733  10.387   6.768  1.00  0.00    -0.423 OA
ENDROOT
BRANCH   3  12
ATOM     12  O   UNL     1       9.359  10.654   5.544  1.00  0.00    -0.508 OA
ATOM     13  H   UNL     1       9.183  10.271   4.623  1.00  0.00     0.293 HD
ENDBRANCH   3  12
TORSDOF 1
ENDMDL
MODEL 8
REMARK VINA RESULT:    -5.151      2.116      4.234
REMARK INTER + INTRA:          -5.301
REMARK INTER:                  -5.301
REMARK INTRA:                   0.000
REMARK UNBOUND:                 0.000
REMARK SMILES O=c1ccc2ccc(O)cc2o1
REMARK SMILES IDX 6 1 7 2 8 3 10 4 11 5 5 6 4 7 3 8 2 9 1 10 12 11 9 12
REMARK H PARENT 9 13
REMARK Flexibility Score: inf
ROOT
ATOM      1  C   UNL     1       5.874  10.317   7.300  1.00  0.00     0.016 A 
ATOM      2  C   UNL     1       7.115  10.863   7.641  1.00  0.00     0.047 A 
ATOM      3  C   UNL     1       7.201  11.888   8.592  1.00  0.00     0.119 A 
ATOM      4  C   UNL     1       6.035  12.370   9.206  1.00  0.00     0.094 A 
ATOM      5  C   UNL     1       4.789  11.829   8.871  1.00  0.00     0.142 A 
ATOM      6  C   UNL     1       4.708  10.796   7.912  1.00  0.00     0.018 A 
ATOM      7  C   UNL     1       3.448  10.276   7.597  1.00  0.00     0.019 A 
ATOM      8  C   UNL     1       2.318  10.787   8.234  1.00  0.00     0.094 A 
ATOM      9  C   UNL     1       2.475  11.811   9.174  1.00  0.00     0.336 A 
ATOM     10  O   UNL     1       1.467  12.285   9.760  1.00  0.00    -0.246 OA
ATOM     11  O   UNL     1       3.685  12.289   9.455  1.00  0.00    -0.423 OA
ENDROOT
BRANCH   3  12
ATOM     12  O   UNL     1       8.445  12.419   8.918  1.00  0.00    -0.508 OA
ATOM     13  H   UNL     1       8.586  12.957   9.765  1.00  0.00     0.293 HD
ENDBRANCH   3  12
TORSDOF 1
ENDMDL
MODEL 9
REMARK VINA RESULT:    -5.137      1.868      4.848
REMARK INTER + INTRA:          -5.287
REMARK INTER:                  -5.287
REMARK INTRA:                   0.000
REMARK UNBOUND:                 0.000
REMARK SMILES O=c1ccc2ccc(O)cc2o1
REMARK SMILES IDX 6 1 7 2 8 3 10 4 11 5 5 6 4 7 3 8 2 9 1 10 12 11 9 12
REMARK H PARENT 9 13
REMARK Flexibility Score: inf
ROOT
ATOM      1  C   UNL     1       8.460  11.261   6.787  1.00  0.00     0.016 A 
ATOM      2  C   UNL     1       8.955  11.703   5.556  1.00  0.00     0.047 A 
ATOM      3  C   UNL     1       8.091  11.879   4.467  1.00  0.00     0.119 A 
ATOM      4  C   UNL     1       6.722  11.610   4.611  1.00  0.00     0.094 A 
ATOM      5  C   UNL     1       6.218  11.166   5.839  1.00  0.00     0.142 A 
ATOM      6  C   UNL     1       7.092  10.991   6.934  1.00  0.00     0.018 A 
ATOM      7  C   UNL     1       6.560  10.547   8.148  1.00  0.00     0.019 A 
ATOM      8  C   UNL     1       5.192  10.292   8.243  1.00  0.00     0.094 A 
ATOM      9  C   UNL     1       4.386  10.488   7.117  1.00  0.00     0.336 A 
ATOM     10  O   UNL     1       3.150  10.264   7.182  1.00  0.00    -0.246 OA
ATOM     11  O   UNL     1       4.918  10.911   5.973  1.00  0.00    -0.423 OA
ENDROOT
BRANCH   3  12
ATOM     12  O   UNL     1       8.602  12.320   3.250  1.00  0.00    -0.508 OA
ATOM     13  H   UNL     1       9.600  12.398   3.092  1.00  0.00     0.293 HD
ENDBRANCH   3  12
TORSDOF 1
ENDMDL
