MODEL 1
REMARK VINA RESULT:    -4.785      0.000      0.000
REMARK INTER + INTRA:          -4.622
REMARK INTER:                  -6.883
REMARK INTRA:                   2.261
REMARK UNBOUND:                 2.261
REMARK SMILES O=c1c(O[C@@H]2O[C@H](CO)[C@@H](O)[C@H](O)[C@@H]2O)c(-c2ccc(O)cc2)oc2cc(O)cc(O)c12
REMARK SMILES IDX 4 1 3 2 16 3 24 4 2 5 25 6 1 7 32 8 26 9 30 10 27 11 29 12
REMARK SMILES IDX 17 13 18 14 19 15 20 16 23 17 22 18 21 19 31 21 28 23 5 25
REMARK SMILES IDX 14 26 6 27 12 28 7 29 10 30 15 31 13 33 8 35 9 36 11 38
REMARK H PARENT 21 20 31 22 28 24 15 32 13 34 9 37 11 39
REMARK Flexibility Score: inf
ROOT
ATOM      1  O   UNL     1      -4.530 -16.902  -5.619  1.00  0.00    -0.454 OA
ENDROOT
BRANCH   1   2
ATOM      2  C   UNL     1      -5.336 -17.227  -6.727  1.00  0.00     0.214 A 
ATOM      3  C   UNL     1      -6.655 -16.749  -6.817  1.00  0.00     0.180 A 
ATOM      4  O   UNL     1      -7.426 -17.100  -7.842  1.00  0.00    -0.452 OA
ATOM      5  C   UNL     1      -4.866 -18.067  -7.744  1.00  0.00     0.239 A 
ATOM      6  C   UNL     1      -7.037 -17.942  -8.791  1.00  0.00     0.146 A 
ATOM      7  O   UNL     1      -3.648 -18.387  -7.762  1.00  0.00    -0.285 OA
ATOM      8  C   UNL     1      -5.737 -18.494  -8.768  1.00  0.00     0.111 A 
ATOM      9  C   UNL     1      -7.943 -18.300  -9.791  1.00  0.00     0.094 A 
ATOM     10  C   UNL     1      -5.376 -19.445  -9.752  1.00  0.00     0.134 A 
ATOM     11  C   UNL     1      -7.587 -19.244 -10.753  1.00  0.00     0.123 A 
ATOM     12  C   UNL     1      -6.309 -19.820 -10.728  1.00  0.00     0.093 A 
BRANCH   3  13
ATOM     13  C   UNL     1      -7.244 -15.880  -5.783  1.00  0.00     0.021 A 
ATOM     14  C   UNL     1      -8.588 -15.480  -5.859  1.00  0.00     0.016 A 
ATOM     15  C   UNL     1      -9.125 -14.631  -4.884  1.00  0.00     0.047 A 
ATOM     16  C   UNL     1      -8.314 -14.149  -3.849  1.00  0.00     0.115 A 
ATOM     17  C   UNL     1      -6.427 -15.373  -4.758  1.00  0.00     0.016 A 
ATOM     18  C   UNL     1      -6.961 -14.507  -3.795  1.00  0.00     0.047 A 
BRANCH  16  19
ATOM     19  O   UNL     1      -8.864 -13.316  -2.875  1.00  0.00    -0.508 OA
ATOM     20  H   UNL     1      -9.545 -13.668  -2.215  1.00  0.00     0.293 HD
ENDBRANCH  16  19
ENDBRANCH   3  13
BRANCH  10  21
ATOM     21  O   UNL     1      -4.117 -20.045  -9.743  1.00  0.00    -0.507 OA
ATOM     22  H   UNL     1      -3.877 -20.792 -10.382  1.00  0.00     0.293 HD
ENDBRANCH  10  21
BRANCH  11  23
ATOM     23  O   UNL     1      -8.518 -19.616 -11.721  1.00  0.00    -0.508 OA
ATOM     24  H   UNL     1      -8.396 -19.379 -12.699  1.00  0.00     0.293 HD
ENDBRANCH  11  23
ENDBRANCH   1   2
BRANCH   1  25
ATOM     25  C   UNL     1      -4.794 -17.364  -4.291  1.00  0.00     0.339 C 
ATOM     26  C   UNL     1      -4.186 -18.783  -4.063  1.00  0.00     0.214 C 
ATOM     27  O   UNL     1      -4.392 -16.377  -3.342  1.00  0.00    -0.332 OA
ATOM     28  C   UNL     1      -2.694 -18.764  -3.616  1.00  0.00     0.180 C 
ATOM     29  C   UNL     1      -3.019 -16.410  -2.934  1.00  0.00     0.179 C 
ATOM     30  C   UNL     1      -2.114 -17.363  -3.750  1.00  0.00     0.177 C 
BRANCH  26  31
ATOM     31  O   UNL     1      -4.325 -19.543  -5.241  1.00  0.00    -0.384 OA
ATOM     32  H   UNL     1      -5.292 -19.744  -5.368  1.00  0.00     0.211 HD
ENDBRANCH  26  31
BRANCH  28  33
ATOM     33  O   UNL     1      -1.900 -19.660  -4.363  1.00  0.00    -0.387 OA
ATOM     34  H   UNL     1      -2.165 -20.578  -4.089  1.00  0.00     0.211 HD
ENDBRANCH  28  33
BRANCH  29  35
ATOM     35  C   UNL     1      -2.442 -14.976  -2.879  1.00  0.00     0.191 C 
BRANCH  35  36
ATOM     36  O   UNL     1      -3.096 -14.072  -3.745  1.00  0.00    -0.394 OA
ATOM     37  H   UNL     1      -2.459 -13.354  -3.980  1.00  0.00     0.210 HD
ENDBRANCH  35  36
ENDBRANCH  29  35
BRANCH  30  38
ATOM     38  O   UNL     1      -0.807 -17.329  -3.235  1.00  0.00    -0.387 OA
ATOM     39  H   UNL     1      -0.230 -17.832  -3.869  1.00  0.00     0.211 HD
ENDBRANCH  30  38
ENDBRANCH   1  25
TORSDOF 11
ENDMDL
