MODEL 1
REMARK VINA RESULT:    -1.273      0.000      0.000
REMARK INTER + INTRA:          -3.541
REMARK INTER:                  -2.762
REMARK INTRA:                  -0.779
REMARK UNBOUND:                -0.779
REMARK SMILES CCCCCCCCCCCCCCCCCCCCCC(=O)[O-]
REMARK SMILES IDX 12 1 11 2 10 3 9 4 8 5 7 6 6 7 5 8 4 9 3 10 2 11 1 12 13 13
REMARK SMILES IDX 14 14 15 15 16 16 17 17 18 18 19 19 20 20 21 21 22 22 23 23
REMARK SMILES IDX 24 24
REMARK H PARENT
REMARK Flexibility Score: inf
ROOT
ATOM      1  C   UNL     1      49.291  84.170  33.494  1.00  0.00     0.000 C 
ENDROOT
BRANCH   1   2
ATOM      2  C   UNL     1      48.935  85.112  34.657  1.00  0.00     0.000 C 
BRANCH   2   3
ATOM      3  C   UNL     1      47.911  84.499  35.630  1.00  0.00     0.000 C 
BRANCH   3   4
ATOM      4  C   UNL     1      47.893  85.122  37.041  1.00  0.00    -0.000 C 
BRANCH   4   5
ATOM      5  C   UNL     1      47.875  84.110  38.206  1.00  0.00    -0.000 C 
BRANCH   5   6
ATOM      6  C   UNL     1      48.194  84.708  39.589  1.00  0.00    -0.000 C 
BRANCH   6   7
ATOM      7  C   UNL     1      48.953  83.765  40.543  1.00  0.00    -0.000 C 
BRANCH   7   8
ATOM      8  C   UNL     1      48.042  83.048  41.562  1.00  0.00    -0.000 C 
BRANCH   8   9
ATOM      9  C   UNL     1      48.205  83.599  42.985  1.00  0.00    -0.000 C 
BRANCH   9  10
ATOM     10  C   UNL     1      48.125  82.470  44.025  1.00  0.00    -0.000 C 
BRANCH  10  11
ATOM     11  C   UNL     1      48.219  82.989  45.468  1.00  0.00    -0.003 C 
ATOM     12  C   UNL     1      48.749  81.936  46.441  1.00  0.00     0.004 C 
ENDBRANCH  10  11
ENDBRANCH   9  10
ENDBRANCH   8   9
ENDBRANCH   7   8
ENDBRANCH   6   7
ENDBRANCH   5   6
ENDBRANCH   4   5
ENDBRANCH   3   4
ENDBRANCH   2   3
ENDBRANCH   1   2
BRANCH   1  13
ATOM     13  C   UNL     1      49.443  84.911  32.155  1.00  0.00     0.000 C 
BRANCH  13  14
ATOM     14  C   UNL     1      50.465  84.240  31.219  1.00  0.00     0.000 C 
BRANCH  14  15
ATOM     15  C   UNL     1      50.057  84.340  29.739  1.00  0.00     0.000 C 
BRANCH  15  16
ATOM     16  C   UNL     1      51.139  85.014  28.875  1.00  0.00     0.000 C 
BRANCH  16  17
ATOM     17  C   UNL     1      52.524  84.997  29.542  1.00  0.00     0.000 C 
BRANCH  17  18
ATOM     18  C   UNL     1      53.475  83.969  28.906  1.00  0.00     0.000 C 
BRANCH  18  19
ATOM     19  C   UNL     1      53.900  82.860  29.884  1.00  0.00     0.000 C 
BRANCH  19  20
ATOM     20  C   UNL     1      55.406  82.806  30.211  1.00  0.00     0.006 C 
BRANCH  20  21
ATOM     21  C   UNL     1      55.719  82.410  31.665  1.00  0.00     0.053 C 
BRANCH  21  22
ATOM     22  C   UNL     1      55.950  83.601  32.546  1.00  0.00     0.041 C 
ATOM     23  O   UNL     1      55.560  84.742  32.183  1.00  0.00    -0.550 OA
ATOM     24  O   UNL     1      56.632  83.460  33.747  1.00  0.00    -0.550 OA
ENDBRANCH  21  22
ENDBRANCH  20  21
ENDBRANCH  19  20
ENDBRANCH  18  19
ENDBRANCH  17  18
ENDBRANCH  16  17
ENDBRANCH  15  16
ENDBRANCH  14  15
ENDBRANCH  13  14
ENDBRANCH   1  13
TORSDOF 20
ENDMDL
MODEL 2
REMARK VINA RESULT:    -0.207      8.266     12.481
REMARK INTER + INTRA:          -1.227
REMARK INTER:                  -1.608
REMARK INTRA:                   0.381
REMARK UNBOUND:                -0.779
REMARK SMILES CCCCCCCCCCCCCCCCCCCCCC(=O)[O-]
REMARK SMILES IDX 12 1 11 2 10 3 9 4 8 5 7 6 6 7 5 8 4 9 3 10 2 11 1 12 13 13
REMARK SMILES IDX 14 14 15 15 16 16 17 17 18 18 19 19 20 20 21 21 22 22 23 23
REMARK SMILES IDX 24 24
REMARK H PARENT
REMARK Flexibility Score: inf
ROOT
ATOM      1  C   UNL     1      50.111  80.956  48.673  1.00  0.00     0.000 C 
ENDROOT
BRANCH   1   2
ATOM      2  C   UNL     1      49.103  79.869  49.084  1.00  0.00     0.000 C 
BRANCH   2   3
ATOM      3  C   UNL     1      48.163  79.460  47.935  1.00  0.00     0.000 C 
BRANCH   3   4
ATOM      4  C   UNL     1      48.829  79.359  46.547  1.00  0.00    -0.000 C 
BRANCH   4   5
ATOM      5  C   UNL     1      47.986  79.898  45.373  1.00  0.00    -0.000 C 
BRANCH   5   6
ATOM      6  C   UNL     1      48.091  81.417  45.141  1.00  0.00    -0.000 C 
BRANCH   6   7
ATOM      7  C   UNL     1      48.109  81.847  43.662  1.00  0.00    -0.000 C 
BRANCH   7   8
ATOM      8  C   UNL     1      48.401  80.690  42.683  1.00  0.00    -0.000 C 
BRANCH   8   9
ATOM      9  C   UNL     1      47.875  80.969  41.268  1.00  0.00    -0.000 C 
BRANCH   9  10
ATOM     10  C   UNL     1      49.022  80.978  40.246  1.00  0.00    -0.000 C 
BRANCH  10  11
ATOM     11  C   UNL     1      48.956  79.789  39.275  1.00  0.00    -0.003 C 
ATOM     12  C   UNL     1      47.996  78.695  39.744  1.00  0.00     0.004 C 
ENDBRANCH  10  11
ENDBRANCH   9  10
ENDBRANCH   8   9
ENDBRANCH   7   8
ENDBRANCH   6   7
ENDBRANCH   5   6
ENDBRANCH   4   5
ENDBRANCH   3   4
ENDBRANCH   2   3
ENDBRANCH   1   2
BRANCH   1  13
ATOM     13  C   UNL     1      49.567  82.379  48.883  1.00  0.00     0.000 C 
BRANCH  13  14
ATOM     14  C   UNL     1      49.070  83.023  47.575  1.00  0.00     0.000 C 
BRANCH  14  15
ATOM     15  C   UNL     1      48.766  84.523  47.739  1.00  0.00     0.000 C 
BRANCH  15  16
ATOM     16  C   UNL     1      47.982  85.097  46.545  1.00  0.00     0.000 C 
BRANCH  16  17
ATOM     17  C   UNL     1      48.779  85.041  45.231  1.00  0.00     0.000 C 
BRANCH  17  18
ATOM     18  C   UNL     1      47.882  84.800  44.005  1.00  0.00     0.000 C 
BRANCH  18  19
ATOM     19  C   UNL     1      48.668  84.781  42.681  1.00  0.00     0.000 C 
BRANCH  19  20
ATOM     20  C   UNL     1      49.812  83.751  42.605  1.00  0.00     0.006 C 
BRANCH  20  21
ATOM     21  C   UNL     1      51.221  84.372  42.635  1.00  0.00     0.053 C 
BRANCH  21  22
ATOM     22  C   UNL     1      51.915  84.154  43.946  1.00  0.00     0.041 C 
ATOM     23  O   UNL     1      51.339  84.451  45.025  1.00  0.00    -0.550 OA
ATOM     24  O   UNL     1      53.213  83.661  43.975  1.00  0.00    -0.550 OA
ENDBRANCH  21  22
ENDBRANCH  20  21
ENDBRANCH  19  20
ENDBRANCH  18  19
ENDBRANCH  17  18
ENDBRANCH  16  17
ENDBRANCH  15  16
ENDBRANCH  14  15
ENDBRANCH  13  14
ENDBRANCH   1  13
TORSDOF 20
ENDMDL
MODEL 3
REMARK VINA RESULT:     0.178      5.246      7.112
REMARK INTER + INTRA:          -0.393
REMARK INTER:                   1.417
REMARK INTRA:                  -1.810
REMARK UNBOUND:                -0.779
REMARK SMILES CCCCCCCCCCCCCCCCCCCCCC(=O)[O-]
REMARK SMILES IDX 12 1 11 2 10 3 9 4 8 5 7 6 6 7 5 8 4 9 3 10 2 11 1 12 13 13
REMARK SMILES IDX 14 14 15 15 16 16 17 17 18 18 19 19 20 20 21 21 22 22 23 23
REMARK SMILES IDX 24 24
REMARK H PARENT
REMARK Flexibility Score: inf
ROOT
ATOM      1  C   UNL     1      55.778  82.127  32.424  1.00  0.00     0.000 C 
ENDROOT
BRANCH   1   2
ATOM      2  C   UNL     1      54.520  81.634  31.689  1.00  0.00     0.000 C 
BRANCH   2   3
ATOM      3  C   UNL     1      53.339  81.365  32.640  1.00  0.00     0.000 C 
BRANCH   3   4
ATOM      4  C   UNL     1      53.722  80.774  34.012  1.00  0.00    -0.000 C 
BRANCH   4   5
ATOM      5  C   UNL     1      53.085  79.409  34.341  1.00  0.00    -0.000 C 
BRANCH   5   6
ATOM      6  C   UNL     1      53.571  78.765  35.654  1.00  0.00    -0.000 C 
BRANCH   6   7
ATOM      7  C   UNL     1      52.963  79.369  36.935  1.00  0.00    -0.000 C 
BRANCH   7   8
ATOM      8  C   UNL     1      53.741  80.588  37.475  1.00  0.00    -0.000 C 
BRANCH   8   9
ATOM      9  C   UNL     1      54.274  80.362  38.897  1.00  0.00    -0.000 C 
BRANCH   9  10
ATOM     10  C   UNL     1      55.550  79.507  38.876  1.00  0.00    -0.000 C 
BRANCH  10  11
ATOM     11  C   UNL     1      55.353  78.137  39.544  1.00  0.00    -0.003 C 
ATOM     12  C   UNL     1      55.938  78.078  40.955  1.00  0.00     0.004 C 
ENDBRANCH  10  11
ENDBRANCH   9  10
ENDBRANCH   8   9
ENDBRANCH   7   8
ENDBRANCH   6   7
ENDBRANCH   5   6
ENDBRANCH   4   5
ENDBRANCH   3   4
ENDBRANCH   2   3
ENDBRANCH   1   2
BRANCH   1  13
ATOM     13  C   UNL     1      55.876  83.661  32.467  1.00  0.00     0.000 C 
BRANCH  13  14
ATOM     14  C   UNL     1      56.951  84.213  31.513  1.00  0.00     0.000 C 
BRANCH  14  15
ATOM     15  C   UNL     1      56.520  84.139  30.038  1.00  0.00     0.000 C 
BRANCH  15  16
ATOM     16  C   UNL     1      55.345  85.082  29.722  1.00  0.00     0.000 C 
BRANCH  16  17
ATOM     17  C   UNL     1      54.078  84.326  29.289  1.00  0.00     0.000 C 
BRANCH  17  18
ATOM     18  C   UNL     1      52.816  84.821  30.016  1.00  0.00     0.000 C 
BRANCH  18  19
ATOM     19  C   UNL     1      51.746  83.726  30.171  1.00  0.00     0.000 C 
BRANCH  19  20
ATOM     20  C   UNL     1      50.407  84.190  30.778  1.00  0.00     0.006 C 
BRANCH  20  21
ATOM     21  C   UNL     1      50.242  83.852  32.271  1.00  0.00     0.053 C 
BRANCH  21  22
ATOM     22  C   UNL     1      48.803  83.780  32.686  1.00  0.00     0.041 C 
ATOM     23  O   UNL     1      47.946  83.271  31.916  1.00  0.00    -0.550 OA
ATOM     24  O   UNL     1      48.400  84.310  33.904  1.00  0.00    -0.550 OA
ENDBRANCH  21  22
ENDBRANCH  20  21
ENDBRANCH  19  20
ENDBRANCH  18  19
ENDBRANCH  17  18
ENDBRANCH  16  17
ENDBRANCH  15  16
ENDBRANCH  14  15
ENDBRANCH  13  14
ENDBRANCH   1  13
TORSDOF 20
ENDMDL
MODEL 4
REMARK VINA RESULT:     0.182      5.951      9.313
REMARK INTER + INTRA:          -0.385
REMARK INTER:                   1.568
REMARK INTRA:                  -1.952
REMARK UNBOUND:                -0.779
REMARK SMILES CCCCCCCCCCCCCCCCCCCCCC(=O)[O-]
REMARK SMILES IDX 12 1 11 2 10 3 9 4 8 5 7 6 6 7 5 8 4 9 3 10 2 11 1 12 13 13
REMARK SMILES IDX 14 14 15 15 16 16 17 17 18 18 19 19 20 20 21 21 22 22 23 23
REMARK SMILES IDX 24 24
REMARK H PARENT
REMARK Flexibility Score: inf
ROOT
ATOM      1  C   UNL     1      54.527  85.123  29.795  1.00  0.00     0.000 C 
ENDROOT
BRANCH   1   2
ATOM      2  C   UNL     1      54.138  83.953  28.875  1.00  0.00     0.000 C 
BRANCH   2   3
ATOM      3  C   UNL     1      55.168  82.808  28.897  1.00  0.00     0.000 C 
BRANCH   3   4
ATOM      4  C   UNL     1      54.647  81.467  29.453  1.00  0.00    -0.000 C 
BRANCH   4   5
ATOM      5  C   UNL     1      53.255  81.040  28.944  1.00  0.00    -0.000 C 
BRANCH   5   6
ATOM      6  C   UNL     1      52.128  81.122  29.990  1.00  0.00    -0.000 C 
BRANCH   6   7
ATOM      7  C   UNL     1      51.647  82.550  30.314  1.00  0.00    -0.000 C 
BRANCH   7   8
ATOM      8  C   UNL     1      50.472  83.024  29.432  1.00  0.00    -0.000 C 
BRANCH   8   9
ATOM      9  C   UNL     1      49.995  84.436  29.798  1.00  0.00    -0.000 C 
BRANCH   9  10
ATOM     10  C   UNL     1      50.536  84.861  31.172  1.00  0.00    -0.000 C 
BRANCH  10  11
ATOM     11  C   UNL     1      49.501  84.683  32.295  1.00  0.00    -0.003 C 
ATOM     12  C   UNL     1      50.030  85.124  33.660  1.00  0.00     0.004 C 
ENDBRANCH  10  11
ENDBRANCH   9  10
ENDBRANCH   8   9
ENDBRANCH   7   8
ENDBRANCH   6   7
ENDBRANCH   5   6
ENDBRANCH   4   5
ENDBRANCH   3   4
ENDBRANCH   2   3
ENDBRANCH   1   2
BRANCH   1  13
ATOM     13  C   UNL     1      54.508  84.738  31.284  1.00  0.00     0.000 C 
BRANCH  13  14
ATOM     14  C   UNL     1      55.862  84.189  31.771  1.00  0.00     0.000 C 
BRANCH  14  15
ATOM     15  C   UNL     1      55.716  83.279  33.003  1.00  0.00     0.000 C 
BRANCH  15  16
ATOM     16  C   UNL     1      55.482  81.806  32.621  1.00  0.00     0.000 C 
BRANCH  16  17
ATOM     17  C   UNL     1      54.081  81.308  33.012  1.00  0.00     0.000 C 
BRANCH  17  18
ATOM     18  C   UNL     1      54.097  80.427  34.273  1.00  0.00     0.000 C 
BRANCH  18  19
ATOM     19  C   UNL     1      52.907  79.453  34.340  1.00  0.00     0.000 C 
BRANCH  19  20
ATOM     20  C   UNL     1      53.146  78.170  35.160  1.00  0.00     0.006 C 
BRANCH  20  21
ATOM     21  C   UNL     1      54.037  78.373  36.399  1.00  0.00     0.053 C 
BRANCH  21  22
ATOM     22  C   UNL     1      54.973  77.224  36.624  1.00  0.00     0.041 C 
ATOM     23  O   UNL     1      55.730  77.211  37.631  1.00  0.00    -0.550 OA
ATOM     24  O   UNL     1      55.042  76.188  35.703  1.00  0.00    -0.550 OA
ENDBRANCH  21  22
ENDBRANCH  20  21
ENDBRANCH  19  20
ENDBRANCH  18  19
ENDBRANCH  17  18
ENDBRANCH  16  17
ENDBRANCH  15  16
ENDBRANCH  14  15
ENDBRANCH  13  14
ENDBRANCH   1  13
TORSDOF 20
ENDMDL
MODEL 5
REMARK VINA RESULT:     0.459      5.395      9.907
REMARK INTER + INTRA:           0.217
REMARK INTER:                   2.192
REMARK INTRA:                  -1.975
REMARK UNBOUND:                -0.779
REMARK SMILES CCCCCCCCCCCCCCCCCCCCCC(=O)[O-]
REMARK SMILES IDX 12 1 11 2 10 3 9 4 8 5 7 6 6 7 5 8 4 9 3 10 2 11 1 12 13 13
REMARK SMILES IDX 14 14 15 15 16 16 17 17 18 18 19 19 20 20 21 21 22 22 23 23
REMARK SMILES IDX 24 24
REMARK H PARENT
REMARK Flexibility Score: inf
ROOT
ATOM      1  C   UNL     1      55.378  81.820  31.871  1.00  0.00     0.000 C 
ENDROOT
BRANCH   1   2
ATOM      2  C   UNL     1      55.568  83.298  32.253  1.00  0.00     0.000 C 
BRANCH   2   3
ATOM      3  C   UNL     1      56.250  84.119  31.142  1.00  0.00     0.000 C 
BRANCH   3   4
ATOM      4  C   UNL     1      55.289  84.867  30.195  1.00  0.00    -0.000 C 
BRANCH   4   5
ATOM      5  C   UNL     1      54.739  84.031  29.021  1.00  0.00    -0.000 C 
BRANCH   5   6
ATOM      6  C   UNL     1      53.208  83.869  29.001  1.00  0.00    -0.000 C 
BRANCH   6   7
ATOM      7  C   UNL     1      52.448  84.771  29.993  1.00  0.00    -0.000 C 
BRANCH   7   8
ATOM      8  C   UNL     1      51.398  84.018  30.838  1.00  0.00    -0.000 C 
BRANCH   8   9
ATOM      9  C   UNL     1      50.155  83.631  30.024  1.00  0.00    -0.000 C 
BRANCH   9  10
ATOM     10  C   UNL     1      48.907  83.578  30.918  1.00  0.00    -0.000 C 
BRANCH  10  11
ATOM     11  C   UNL     1      49.121  84.271  32.273  1.00  0.00    -0.003 C 
ATOM     12  C   UNL     1      48.258  83.673  33.384  1.00  0.00     0.004 C 
ENDBRANCH  10  11
ENDBRANCH   9  10
ENDBRANCH   8   9
ENDBRANCH   7   8
ENDBRANCH   6   7
ENDBRANCH   5   6
ENDBRANCH   4   5
ENDBRANCH   3   4
ENDBRANCH   2   3
ENDBRANCH   1   2
BRANCH   1  13
ATOM     13  C   UNL     1      53.902  81.450  31.649  1.00  0.00     0.000 C 
BRANCH  13  14
ATOM     14  C   UNL     1      53.097  81.411  32.961  1.00  0.00     0.000 C 
BRANCH  14  15
ATOM     15  C   UNL     1      53.864  80.714  34.099  1.00  0.00     0.000 C 
BRANCH  15  16
ATOM     16  C   UNL     1      53.250  79.352  34.473  1.00  0.00     0.000 C 
BRANCH  16  17
ATOM     17  C   UNL     1      53.439  79.005  35.958  1.00  0.00     0.000 C 
BRANCH  17  18
ATOM     18  C   UNL     1      52.870  80.085  36.896  1.00  0.00     0.000 C 
BRANCH  18  19
ATOM     19  C   UNL     1      53.847  80.480  38.017  1.00  0.00     0.000 C 
BRANCH  19  20
ATOM     20  C   UNL     1      54.898  79.415  38.386  1.00  0.00     0.006 C 
BRANCH  20  21
ATOM     21  C   UNL     1      55.086  79.215  39.901  1.00  0.00     0.053 C 
BRANCH  21  22
ATOM     22  C   UNL     1      55.784  77.928  40.226  1.00  0.00     0.041 C 
ATOM     23  O   UNL     1      56.117  77.670  41.413  1.00  0.00    -0.550 OA
ATOM     24  O   UNL     1      56.105  77.033  39.214  1.00  0.00    -0.550 OA
ENDBRANCH  21  22
ENDBRANCH  20  21
ENDBRANCH  19  20
ENDBRANCH  18  19
ENDBRANCH  17  18
ENDBRANCH  16  17
ENDBRANCH  15  16
ENDBRANCH  14  15
ENDBRANCH  13  14
ENDBRANCH   1  13
TORSDOF 20
ENDMDL
MODEL 6
REMARK VINA RESULT:     0.793      6.232      8.608
REMARK INTER + INTRA:           0.940
REMARK INTER:                   2.269
REMARK INTRA:                  -1.328
REMARK UNBOUND:                -0.779
REMARK SMILES CCCCCCCCCCCCCCCCCCCCCC(=O)[O-]
REMARK SMILES IDX 12 1 11 2 10 3 9 4 8 5 7 6 6 7 5 8 4 9 3 10 2 11 1 12 13 13
REMARK SMILES IDX 14 14 15 15 16 16 17 17 18 18 19 19 20 20 21 21 22 22 23 23
REMARK SMILES IDX 24 24
REMARK H PARENT
REMARK Flexibility Score: inf
ROOT
ATOM      1  C   UNL     1      54.926  82.069  31.589  1.00  0.00     0.000 C 
ENDROOT
BRANCH   1   2
ATOM      2  C   UNL     1      53.413  82.199  31.832  1.00  0.00     0.000 C 
BRANCH   2   3
ATOM      3  C   UNL     1      52.829  81.007  32.613  1.00  0.00     0.000 C 
BRANCH   3   4
ATOM      4  C   UNL     1      53.648  80.563  33.842  1.00  0.00    -0.000 C 
BRANCH   4   5
ATOM      5  C   UNL     1      53.152  79.276  34.533  1.00  0.00    -0.000 C 
BRANCH   5   6
ATOM      6  C   UNL     1      53.188  79.311  36.073  1.00  0.00    -0.000 C 
BRANCH   6   7
ATOM      7  C   UNL     1      54.275  78.427  36.715  1.00  0.00    -0.000 C 
BRANCH   7   8
ATOM      8  C   UNL     1      54.534  77.110  35.952  1.00  0.00    -0.000 C 
BRANCH   8   9
ATOM      9  C   UNL     1      55.870  76.460  36.340  1.00  0.00    -0.000 C 
BRANCH   9  10
ATOM     10  C   UNL     1      56.406  75.582  35.199  1.00  0.00    -0.000 C 
BRANCH  10  11
ATOM     11  C   UNL     1      57.311  74.446  35.703  1.00  0.00    -0.003 C 
ATOM     12  C   UNL     1      57.191  73.177  34.859  1.00  0.00     0.004 C 
ENDBRANCH  10  11
ENDBRANCH   9  10
ENDBRANCH   8   9
ENDBRANCH   7   8
ENDBRANCH   6   7
ENDBRANCH   5   6
ENDBRANCH   4   5
ENDBRANCH   3   4
ENDBRANCH   2   3
ENDBRANCH   1   2
BRANCH   1  13
ATOM     13  C   UNL     1      55.757  82.948  32.540  1.00  0.00     0.000 C 
BRANCH  13  14
ATOM     14  C   UNL     1      56.126  84.308  31.919  1.00  0.00     0.000 C 
BRANCH  14  15
ATOM     15  C   UNL     1      57.020  84.160  30.675  1.00  0.00     0.000 C 
BRANCH  15  16
ATOM     16  C   UNL     1      56.533  85.022  29.496  1.00  0.00     0.000 C 
BRANCH  16  17
ATOM     17  C   UNL     1      55.229  84.495  28.876  1.00  0.00     0.000 C 
BRANCH  17  18
ATOM     18  C   UNL     1      53.975  85.062  29.563  1.00  0.00     0.000 C 
BRANCH  18  19
ATOM     19  C   UNL     1      52.667  84.463  29.014  1.00  0.00     0.000 C 
BRANCH  19  20
ATOM     20  C   UNL     1      51.389  84.846  29.785  1.00  0.00     0.006 C 
BRANCH  20  21
ATOM     21  C   UNL     1      50.090  84.314  29.151  1.00  0.00     0.053 C 
BRANCH  21  22
ATOM     22  C   UNL     1      49.227  83.588  30.139  1.00  0.00     0.041 C 
ATOM     23  O   UNL     1      47.977  83.739  30.121  1.00  0.00    -0.550 OA
ATOM     24  O   UNL     1      49.805  82.776  31.107  1.00  0.00    -0.550 OA
ENDBRANCH  21  22
ENDBRANCH  20  21
ENDBRANCH  19  20
ENDBRANCH  18  19
ENDBRANCH  17  18
ENDBRANCH  16  17
ENDBRANCH  15  16
ENDBRANCH  14  15
ENDBRANCH  13  14
ENDBRANCH   1  13
TORSDOF 20
ENDMDL
MODEL 7
REMARK VINA RESULT:     0.795      5.239      6.657
REMARK INTER + INTRA:           0.946
REMARK INTER:                   2.698
REMARK INTRA:                  -1.752
REMARK UNBOUND:                -0.779
REMARK SMILES CCCCCCCCCCCCCCCCCCCCCC(=O)[O-]
REMARK SMILES IDX 12 1 11 2 10 3 9 4 8 5 7 6 6 7 5 8 4 9 3 10 2 11 1 12 13 13
REMARK SMILES IDX 14 14 15 15 16 16 17 17 18 18 19 19 20 20 21 21 22 22 23 23
REMARK SMILES IDX 24 24
REMARK H PARENT
REMARK Flexibility Score: inf
ROOT
ATOM      1  C   UNL     1      55.763  82.538  32.827  1.00  0.00     0.000 C 
ENDROOT
BRANCH   1   2
ATOM      2  C   UNL     1      54.665  81.470  32.692  1.00  0.00     0.000 C 
BRANCH   2   3
ATOM      3  C   UNL     1      53.849  81.285  33.985  1.00  0.00     0.000 C 
BRANCH   3   4
ATOM      4  C   UNL     1      53.565  79.821  34.379  1.00  0.00    -0.000 C 
BRANCH   4   5
ATOM      5  C   UNL     1      53.905  79.455  35.838  1.00  0.00    -0.000 C 
BRANCH   5   6
ATOM      6  C   UNL     1      52.911  79.985  36.888  1.00  0.00    -0.000 C 
BRANCH   6   7
ATOM      7  C   UNL     1      53.529  80.903  37.960  1.00  0.00    -0.000 C 
BRANCH   7   8
ATOM      8  C   UNL     1      54.764  80.296  38.659  1.00  0.00    -0.000 C 
BRANCH   8   9
ATOM      9  C   UNL     1      54.625  78.785  38.891  1.00  0.00    -0.000 C 
BRANCH   9  10
ATOM     10  C   UNL     1      55.887  78.210  39.551  1.00  0.00    -0.000 C 
BRANCH  10  11
ATOM     11  C   UNL     1      55.639  77.741  40.993  1.00  0.00    -0.003 C 
ATOM     12  C   UNL     1      56.773  78.126  41.943  1.00  0.00     0.004 C 
ENDBRANCH  10  11
ENDBRANCH   9  10
ENDBRANCH   8   9
ENDBRANCH   7   8
ENDBRANCH   6   7
ENDBRANCH   5   6
ENDBRANCH   4   5
ENDBRANCH   3   4
ENDBRANCH   2   3
ENDBRANCH   1   2
BRANCH   1  13
ATOM     13  C   UNL     1      55.576  83.709  31.846  1.00  0.00     0.000 C 
BRANCH  13  14
ATOM     14  C   UNL     1      56.627  83.713  30.721  1.00  0.00     0.000 C 
BRANCH  14  15
ATOM     15  C   UNL     1      56.000  83.936  29.334  1.00  0.00     0.000 C 
BRANCH  15  16
ATOM     16  C   UNL     1      54.706  83.125  29.138  1.00  0.00     0.000 C 
BRANCH  16  17
ATOM     17  C   UNL     1      54.961  81.611  29.063  1.00  0.00     0.000 C 
BRANCH  17  18
ATOM     18  C   UNL     1      53.661  80.789  29.105  1.00  0.00     0.000 C 
BRANCH  18  19
ATOM     19  C   UNL     1      52.425  81.639  29.446  1.00  0.00     0.000 C 
BRANCH  19  20
ATOM     20  C   UNL     1      51.786  81.358  30.820  1.00  0.00     0.006 C 
BRANCH  20  21
ATOM     21  C   UNL     1      50.863  82.482  31.326  1.00  0.00     0.053 C 
BRANCH  21  22
ATOM     22  C   UNL     1      51.594  83.776  31.524  1.00  0.00     0.041 C 
ATOM     23  O   UNL     1      51.717  84.587  30.569  1.00  0.00    -0.550 OA
ATOM     24  O   UNL     1      52.175  84.069  32.751  1.00  0.00    -0.550 OA
ENDBRANCH  21  22
ENDBRANCH  20  21
ENDBRANCH  19  20
ENDBRANCH  18  19
ENDBRANCH  17  18
ENDBRANCH  16  17
ENDBRANCH  15  16
ENDBRANCH  14  15
ENDBRANCH  13  14
ENDBRANCH   1  13
TORSDOF 20
ENDMDL
MODEL 8
REMARK VINA RESULT:     0.890      3.389      4.753
REMARK INTER + INTRA:           1.152
REMARK INTER:                   2.309
REMARK INTRA:                  -1.157
REMARK UNBOUND:                -0.779
REMARK SMILES CCCCCCCCCCCCCCCCCCCCCC(=O)[O-]
REMARK SMILES IDX 12 1 11 2 10 3 9 4 8 5 7 6 6 7 5 8 4 9 3 10 2 11 1 12 13 13
REMARK SMILES IDX 14 14 15 15 16 16 17 17 18 18 19 19 20 20 21 21 22 22 23 23
REMARK SMILES IDX 24 24
REMARK H PARENT
REMARK Flexibility Score: inf
ROOT
ATOM      1  C   UNL     1      53.838  80.187  37.258  1.00  0.00     0.000 C 
ENDROOT
BRANCH   1   2
ATOM      2  C   UNL     1      52.847  80.851  38.228  1.00  0.00     0.000 C 
BRANCH   2   3
ATOM      3  C   UNL     1      51.466  80.168  38.233  1.00  0.00     0.000 C 
BRANCH   3   4
ATOM      4  C   UNL     1      50.492  80.663  39.321  1.00  0.00    -0.000 C 
BRANCH   4   5
ATOM      5  C   UNL     1      49.227  79.801  39.513  1.00  0.00    -0.000 C 
BRANCH   5   6
ATOM      6  C   UNL     1      48.015  80.550  40.098  1.00  0.00    -0.000 C 
BRANCH   6   7
ATOM      7  C   UNL     1      48.147  80.934  41.585  1.00  0.00    -0.000 C 
BRANCH   7   8
ATOM      8  C   UNL     1      48.181  82.457  41.831  1.00  0.00    -0.000 C 
BRANCH   8   9
ATOM      9  C   UNL     1      48.252  82.810  43.324  1.00  0.00    -0.000 C 
BRANCH   9  10
ATOM     10  C   UNL     1      49.037  84.111  43.545  1.00  0.00    -0.000 C 
BRANCH  10  11
ATOM     11  C   UNL     1      49.743  84.150  44.910  1.00  0.00    -0.003 C 
ATOM     12  C   UNL     1      51.266  84.113  44.788  1.00  0.00     0.004 C 
ENDBRANCH  10  11
ENDBRANCH   9  10
ENDBRANCH   8   9
ENDBRANCH   7   8
ENDBRANCH   6   7
ENDBRANCH   5   6
ENDBRANCH   4   5
ENDBRANCH   3   4
ENDBRANCH   2   3
ENDBRANCH   1   2
BRANCH   1  13
ATOM     13  C   UNL     1      53.171  79.132  36.359  1.00  0.00     0.000 C 
BRANCH  13  14
ATOM     14  C   UNL     1      53.469  79.353  34.864  1.00  0.00     0.000 C 
BRANCH  14  15
ATOM     15  C   UNL     1      53.862  80.808  34.554  1.00  0.00     0.000 C 
BRANCH  15  16
ATOM     16  C   UNL     1      53.806  81.122  33.048  1.00  0.00     0.000 C 
BRANCH  16  17
ATOM     17  C   UNL     1      55.135  81.679  32.509  1.00  0.00     0.000 C 
BRANCH  17  18
ATOM     18  C   UNL     1      55.088  81.961  30.998  1.00  0.00     0.000 C 
BRANCH  18  19
ATOM     19  C   UNL     1      55.807  83.266  30.609  1.00  0.00     0.000 C 
BRANCH  19  20
ATOM     20  C   UNL     1      55.312  84.534  31.332  1.00  0.00     0.006 C 
BRANCH  20  21
ATOM     21  C   UNL     1      53.938  85.036  30.851  1.00  0.00     0.053 C 
BRANCH  21  22
ATOM     22  C   UNL     1      52.818  84.562  31.727  1.00  0.00     0.041 C 
ATOM     23  O   UNL     1      52.021  83.678  31.314  1.00  0.00    -0.550 OA
ATOM     24  O   UNL     1      52.626  85.124  32.982  1.00  0.00    -0.550 OA
ENDBRANCH  21  22
ENDBRANCH  20  21
ENDBRANCH  19  20
ENDBRANCH  18  19
ENDBRANCH  17  18
ENDBRANCH  16  17
ENDBRANCH  15  16
ENDBRANCH  14  15
ENDBRANCH  13  14
ENDBRANCH   1  13
TORSDOF 20
ENDMDL
MODEL 9
REMARK VINA RESULT:     1.002      4.553     10.778
REMARK INTER + INTRA:           1.395
REMARK INTER:                   3.180
REMARK INTRA:                  -1.786
REMARK UNBOUND:                -0.779
REMARK SMILES CCCCCCCCCCCCCCCCCCCCCC(=O)[O-]
REMARK SMILES IDX 12 1 11 2 10 3 9 4 8 5 7 6 6 7 5 8 4 9 3 10 2 11 1 12 13 13
REMARK SMILES IDX 14 14 15 15 16 16 17 17 18 18 19 19 20 20 21 21 22 22 23 23
REMARK SMILES IDX 24 24
REMARK H PARENT
REMARK Flexibility Score: inf
ROOT
ATOM      1  C   UNL     1      53.870  80.726  34.461  1.00  0.00     0.000 C 
ENDROOT
BRANCH   1   2
ATOM      2  C   UNL     1      53.601  81.064  32.984  1.00  0.00     0.000 C 
BRANCH   2   3
ATOM      3  C   UNL     1      54.673  81.990  32.378  1.00  0.00     0.000 C 
BRANCH   3   4
ATOM      4  C   UNL     1      54.888  81.837  30.858  1.00  0.00    -0.000 C 
BRANCH   4   5
ATOM      5  C   UNL     1      53.731  81.161  30.095  1.00  0.00    -0.000 C 
BRANCH   5   6
ATOM      6  C   UNL     1      52.748  82.131  29.414  1.00  0.00    -0.000 C 
BRANCH   6   7
ATOM      7  C   UNL     1      51.328  82.141  30.014  1.00  0.00    -0.000 C 
BRANCH   7   8
ATOM      8  C   UNL     1      50.501  83.386  29.629  1.00  0.00    -0.000 C 
BRANCH   8   9
ATOM      9  C   UNL     1      49.786  84.012  30.835  1.00  0.00    -0.000 C 
BRANCH   9  10
ATOM     10  C   UNL     1      50.478  83.620  32.149  1.00  0.00    -0.000 C 
BRANCH  10  11
ATOM     11  C   UNL     1      51.059  84.832  32.896  1.00  0.00    -0.003 C 
ATOM     12  C   UNL     1      52.556  85.016  32.648  1.00  0.00     0.004 C 
ENDBRANCH  10  11
ENDBRANCH   9  10
ENDBRANCH   8   9
ENDBRANCH   7   8
ENDBRANCH   6   7
ENDBRANCH   5   6
ENDBRANCH   4   5
ENDBRANCH   3   4
ENDBRANCH   2   3
ENDBRANCH   1   2
BRANCH   1  13
ATOM     13  C   UNL     1      53.424  79.303  34.834  1.00  0.00     0.000 C 
BRANCH  13  14
ATOM     14  C   UNL     1      53.178  79.135  36.345  1.00  0.00     0.000 C 
BRANCH  14  15
ATOM     15  C   UNL     1      53.771  80.293  37.167  1.00  0.00     0.000 C 
BRANCH  15  16
ATOM     16  C   UNL     1      52.793  80.819  38.232  1.00  0.00     0.000 C 
BRANCH  16  17
ATOM     17  C   UNL     1      51.444  80.082  38.212  1.00  0.00     0.000 C 
BRANCH  17  18
ATOM     18  C   UNL     1      50.610  80.338  39.480  1.00  0.00     0.000 C 
BRANCH  18  19
ATOM     19  C   UNL     1      49.195  79.738  39.399  1.00  0.00     0.000 C 
BRANCH  19  20
ATOM     20  C   UNL     1      48.059  80.650  39.903  1.00  0.00     0.006 C 
BRANCH  20  21
ATOM     21  C   UNL     1      48.281  81.203  41.323  1.00  0.00     0.053 C 
BRANCH  21  22
ATOM     22  C   UNL     1      48.491  82.688  41.332  1.00  0.00     0.041 C 
ATOM     23  O   UNL     1      48.958  83.256  42.354  1.00  0.00    -0.550 OA
ATOM     24  O   UNL     1      48.133  83.450  40.228  1.00  0.00    -0.550 OA
ENDBRANCH  21  22
ENDBRANCH  20  21
ENDBRANCH  19  20
ENDBRANCH  18  19
ENDBRANCH  17  18
ENDBRANCH  16  17
ENDBRANCH  15  16
ENDBRANCH  14  15
ENDBRANCH  13  14
ENDBRANCH   1  13
TORSDOF 20
ENDMDL
