MODEL 1
REMARK VINA RESULT:    41.420      0.000      0.000
REMARK INTER + INTRA:          45.117
REMARK INTER:                  45.052
REMARK INTRA:                   0.065
REMARK UNBOUND:                 0.065
REMARK SMILES C[C@H]1[C@H](C)CC[C@]2(C(=O)[O-])CC[C@]3(C)C(=CC[C@H]4[C@]5(C)CC[C@@H](O)C(C)(C)[C@@H]5CC[C@@]43C)[C@H]12
REMARK SMILES IDX 7 1 6 2 11 3 33 4 5 5 12 6 15 7 2 8 3 9 13 10 16 11 1 12
REMARK SMILES IDX 4 13 14 14 31 15 17 16 18 17 30 18 32 19 19 20 29 21 28 22
REMARK SMILES IDX 21 23 20 24 25 25 22 26 23 27 26 28 27 29 8 30 9 31 10 32
REMARK SMILES IDX 24 33
REMARK H PARENT 24 34
REMARK Flexibility Score: inf
ROOT
ATOM      1  C   UNL     1      31.938  39.479  26.963  1.00  0.00     0.017 C 
ATOM      2  C   UNL     1      33.114  40.492  26.973  1.00  0.00     0.014 C 
ATOM      3  C   UNL     1      30.738  40.043  26.157  1.00  0.00     0.014 C 
ATOM      4  C   UNL     1      31.477  39.154  28.422  1.00  0.00     0.030 C 
ATOM      5  C   UNL     1      32.866  41.716  27.857  1.00  0.00     0.004 C 
ATOM      6  C   UNL     1      29.523  39.083  26.105  1.00  0.00     0.013 C 
ATOM      7  C   UNL     1      30.256  38.215  28.357  1.00  0.00    -0.063 C 
ATOM      8  C   UNL     1      31.292  40.397  29.347  1.00  0.00    -0.003 C 
ATOM      9  C   UNL     1      32.554  41.306  29.306  1.00  0.00    -0.011 C 
ATOM     10  C   UNL     1      28.999  38.606  27.512  1.00  0.00    -0.006 C 
ATOM     11  C   UNL     1      30.483  36.945  28.781  1.00  0.00    -0.027 C 
ATOM     12  C   UNL     1      30.973  39.942  30.786  1.00  0.00     0.008 C 
ATOM     13  C   UNL     1      32.384  42.576  30.158  1.00  0.00     0.008 C 
ATOM     14  C   UNL     1      28.252  39.814  28.160  1.00  0.00     0.017 C 
ATOM     15  C   UNL     1      27.957  37.364  27.400  1.00  0.00    -0.020 C 
ATOM     16  C   UNL     1      29.654  35.753  28.406  1.00  0.00     0.032 C 
ATOM     17  C   UNL     1      28.781  36.039  27.166  1.00  0.00     0.006 C 
ATOM     18  C   UNL     1      26.910  37.589  26.250  1.00  0.00     0.008 C 
ATOM     19  C   UNL     1      27.139  37.235  28.733  1.00  0.00     0.012 C 
ATOM     20  C   UNL     1      28.047  34.746  26.542  1.00  0.00    -0.025 C 
ATOM     21  C   UNL     1      27.025  36.598  25.092  1.00  0.00     0.005 C 
ATOM     22  C   UNL     1      26.810  35.154  25.621  1.00  0.00     0.003 C 
ATOM     23  C   UNL     1      29.131  33.991  25.696  1.00  0.00     0.010 C 
ATOM     24  C   UNL     1      27.568  33.785  27.672  1.00  0.00     0.012 C 
ATOM     25  C   UNL     1      26.361  34.101  24.495  1.00  0.00    -0.006 C 
ATOM     26  C   UNL     1      28.595  32.889  24.793  1.00  0.00     0.033 C 
ATOM     27  C   UNL     1      27.592  33.463  23.791  1.00  0.00     0.120 C 
ATOM     28  C   UNL     1      25.445  32.994  25.104  1.00  0.00     0.014 C 
ATOM     29  C   UNL     1      25.495  34.770  23.388  1.00  0.00     0.014 C 
ENDROOT
BRANCH   1  30
ATOM     30  C   UNL     1      32.469  38.216  26.281  1.00  0.00     0.048 C 
ATOM     31  O   UNL     1      32.120  37.933  25.100  1.00  0.00    -0.550 OA
ATOM     32  O   UNL     1      33.261  37.306  26.978  1.00  0.00    -0.550 OA
ENDBRANCH   1  30
BRANCH  27  33
ATOM     33  O   UNL     1      27.180  32.448  22.908  1.00  0.00    -0.393 OA
ATOM     34  H   UNL     1      26.316  32.097  23.249  1.00  0.00     0.210 HD
ENDBRANCH  27  33
TORSDOF 2
ENDMDL
MODEL 2
REMARK VINA RESULT:    42.999      2.105      3.749
REMARK INTER + INTRA:          46.835
REMARK INTER:                  46.225
REMARK INTRA:                   0.610
REMARK UNBOUND:                 0.065
REMARK SMILES C[C@H]1[C@H](C)CC[C@]2(C(=O)[O-])CC[C@]3(C)C(=CC[C@H]4[C@]5(C)CC[C@@H](O)C(C)(C)[C@@H]5CC[C@@]43C)[C@H]12
REMARK SMILES IDX 7 1 6 2 11 3 33 4 5 5 12 6 15 7 2 8 3 9 13 10 16 11 1 12
REMARK SMILES IDX 4 13 14 14 31 15 17 16 18 17 30 18 32 19 19 20 29 21 28 22
REMARK SMILES IDX 21 23 20 24 25 25 22 26 23 27 26 28 27 29 8 30 9 31 10 32
REMARK SMILES IDX 24 33
REMARK H PARENT 24 34
REMARK Flexibility Score: inf
ROOT
ATOM      1  C   UNL     1      30.448  39.495  30.265  1.00  0.00     0.017 C 
ATOM      2  C   UNL     1      30.788  40.293  31.552  1.00  0.00     0.014 C 
ATOM      3  C   UNL     1      31.252  38.168  30.216  1.00  0.00     0.014 C 
ATOM      4  C   UNL     1      30.766  40.343  28.990  1.00  0.00     0.030 C 
ATOM      5  C   UNL     1      32.180  40.930  31.533  1.00  0.00     0.004 C 
ATOM      6  C   UNL     1      30.963  37.317  28.955  1.00  0.00     0.013 C 
ATOM      7  C   UNL     1      30.494  39.479  27.741  1.00  0.00    -0.063 C 
ATOM      8  C   UNL     1      32.157  41.051  28.999  1.00  0.00    -0.003 C 
ATOM      9  C   UNL     1      32.356  41.854  30.316  1.00  0.00    -0.011 C 
ATOM     10  C   UNL     1      31.166  38.074  27.588  1.00  0.00    -0.006 C 
ATOM     11  C   UNL     1      29.422  39.859  27.001  1.00  0.00    -0.027 C 
ATOM     12  C   UNL     1      32.294  41.959  27.760  1.00  0.00     0.008 C 
ATOM     13  C   UNL     1      33.743  42.516  30.390  1.00  0.00     0.008 C 
ATOM     14  C   UNL     1      32.703  38.219  27.365  1.00  0.00     0.017 C 
ATOM     15  C   UNL     1      30.542  37.261  26.326  1.00  0.00    -0.020 C 
ATOM     16  C   UNL     1      28.675  38.971  26.050  1.00  0.00     0.032 C 
ATOM     17  C   UNL     1      28.981  37.481  26.312  1.00  0.00     0.006 C 
ATOM     18  C   UNL     1      30.896  35.731  26.393  1.00  0.00     0.008 C 
ATOM     19  C   UNL     1      31.154  37.806  24.989  1.00  0.00     0.012 C 
ATOM     20  C   UNL     1      28.039  36.447  25.509  1.00  0.00    -0.025 C 
ATOM     21  C   UNL     1      29.691  34.814  26.597  1.00  0.00     0.005 C 
ATOM     22  C   UNL     1      28.696  34.995  25.419  1.00  0.00     0.003 C 
ATOM     23  C   UNL     1      26.684  36.384  26.296  1.00  0.00     0.010 C 
ATOM     24  C   UNL     1      27.735  36.977  24.075  1.00  0.00     0.012 C 
ATOM     25  C   UNL     1      27.698  33.756  25.204  1.00  0.00    -0.006 C 
ATOM     26  C   UNL     1      25.743  35.263  25.875  1.00  0.00     0.033 C 
ATOM     27  C   UNL     1      26.415  33.903  26.069  1.00  0.00     0.120 C 
ATOM     28  C   UNL     1      27.326  33.598  23.696  1.00  0.00     0.014 C 
ATOM     29  C   UNL     1      28.362  32.403  25.593  1.00  0.00     0.014 C 
ENDROOT
BRANCH   1  30
ATOM     30  C   UNL     1      28.950  39.188  30.338  1.00  0.00     0.048 C 
ATOM     31  O   UNL     1      28.510  38.357  31.182  1.00  0.00    -0.550 OA
ATOM     32  O   UNL     1      28.063  39.736  29.415  1.00  0.00    -0.550 OA
ENDBRANCH   1  30
BRANCH  27  33
ATOM     33  O   UNL     1      25.498  32.880  25.764  1.00  0.00    -0.393 OA
ATOM     34  H   UNL     1      25.842  32.411  24.959  1.00  0.00     0.210 HD
ENDBRANCH  27  33
TORSDOF 2
ENDMDL
MODEL 3
REMARK VINA RESULT:    43.623      2.857      5.939
REMARK INTER + INTRA:          47.514
REMARK INTER:                  47.445
REMARK INTRA:                   0.069
REMARK UNBOUND:                 0.065
REMARK SMILES C[C@H]1[C@H](C)CC[C@]2(C(=O)[O-])CC[C@]3(C)C(=CC[C@H]4[C@]5(C)CC[C@@H](O)C(C)(C)[C@@H]5CC[C@@]43C)[C@H]12
REMARK SMILES IDX 7 1 6 2 11 3 33 4 5 5 12 6 15 7 2 8 3 9 13 10 16 11 1 12
REMARK SMILES IDX 4 13 14 14 31 15 17 16 18 17 30 18 32 19 19 20 29 21 28 22
REMARK SMILES IDX 21 23 20 24 25 25 22 26 23 27 26 28 27 29 8 30 9 31 10 32
REMARK SMILES IDX 24 33
REMARK H PARENT 24 34
REMARK Flexibility Score: inf
ROOT
ATOM      1  C   UNL     1      31.896  36.665  25.178  1.00  0.00     0.017 C 
ATOM      2  C   UNL     1      33.034  36.143  24.261  1.00  0.00     0.014 C 
ATOM      3  C   UNL     1      30.704  35.670  25.189  1.00  0.00     0.014 C 
ATOM      4  C   UNL     1      31.398  38.067  24.697  1.00  0.00     0.030 C 
ATOM      5  C   UNL     1      32.713  36.235  22.767  1.00  0.00     0.004 C 
ATOM      6  C   UNL     1      29.527  36.127  26.086  1.00  0.00     0.013 C 
ATOM      7  C   UNL     1      30.213  38.502  25.584  1.00  0.00    -0.063 C 
ATOM      8  C   UNL     1      31.137  38.184  23.163  1.00  0.00    -0.003 C 
ATOM      9  C   UNL     1      32.367  37.677  22.357  1.00  0.00    -0.011 C 
ATOM     10  C   UNL     1      28.973  37.567  25.764  1.00  0.00    -0.006 C 
ATOM     11  C   UNL     1      30.471  39.540  26.420  1.00  0.00    -0.027 C 
ATOM     12  C   UNL     1      30.786  39.641  22.797  1.00  0.00     0.008 C 
ATOM     13  C   UNL     1      32.123  37.717  20.838  1.00  0.00     0.008 C 
ATOM     14  C   UNL     1      28.162  37.462  24.435  1.00  0.00     0.017 C 
ATOM     15  C   UNL     1      27.979  38.126  26.924  1.00  0.00    -0.020 C 
ATOM     16  C   UNL     1      29.698  39.852  27.667  1.00  0.00     0.032 C 
ATOM     17  C   UNL     1      28.857  38.642  28.128  1.00  0.00     0.006 C 
ATOM     18  C   UNL     1      26.965  37.022  27.397  1.00  0.00     0.008 C 
ATOM     19  C   UNL     1      27.123  39.313  26.361  1.00  0.00     0.012 C 
ATOM     20  C   UNL     1      28.192  38.798  29.589  1.00  0.00    -0.025 C 
ATOM     21  C   UNL     1      27.154  36.573  28.845  1.00  0.00     0.005 C 
ATOM     22  C   UNL     1      26.973  37.789  29.794  1.00  0.00     0.003 C 
ATOM     23  C   UNL     1      29.329  38.496  30.625  1.00  0.00     0.010 C 
ATOM     24  C   UNL     1      27.709  40.261  29.821  1.00  0.00     0.012 C 
ATOM     25  C   UNL     1      26.600  37.395  31.305  1.00  0.00    -0.006 C 
ATOM     26  C   UNL     1      28.863  38.315  32.063  1.00  0.00     0.033 C 
ATOM     27  C   UNL     1      27.875  37.152  32.160  1.00  0.00     0.120 C 
ATOM     28  C   UNL     1      25.703  38.492  31.960  1.00  0.00     0.014 C 
ATOM     29  C   UNL     1      25.748  36.094  31.371  1.00  0.00     0.014 C 
ENDROOT
BRANCH   1  30
ATOM     30  C   UNL     1      32.494  36.767  26.583  1.00  0.00     0.048 C 
ATOM     31  O   UNL     1      32.210  35.905  27.462  1.00  0.00    -0.550 OA
ATOM     32  O   UNL     1      33.276  37.860  26.949  1.00  0.00    -0.550 OA
ENDBRANCH   1  30
BRANCH  27  33
ATOM     33  O   UNL     1      27.529  36.943  33.508  1.00  0.00    -0.393 OA
ATOM     34  H   UNL     1      27.446  37.838  33.930  1.00  0.00     0.210 HD
ENDBRANCH  27  33
TORSDOF 2
ENDMDL
MODEL 4
REMARK VINA RESULT:    44.117      2.907      5.855
REMARK INTER + INTRA:          48.051
REMARK INTER:                  48.085
REMARK INTRA:                  -0.034
REMARK UNBOUND:                 0.065
REMARK SMILES C[C@H]1[C@H](C)CC[C@]2(C(=O)[O-])CC[C@]3(C)C(=CC[C@H]4[C@]5(C)CC[C@@H](O)C(C)(C)[C@@H]5CC[C@@]43C)[C@H]12
REMARK SMILES IDX 7 1 6 2 11 3 33 4 5 5 12 6 15 7 2 8 3 9 13 10 16 11 1 12
REMARK SMILES IDX 4 13 14 14 31 15 17 16 18 17 30 18 32 19 19 20 29 21 28 22
REMARK SMILES IDX 21 23 20 24 25 25 22 26 23 27 26 28 27 29 8 30 9 31 10 32
REMARK SMILES IDX 24 33
REMARK H PARENT 24 34
REMARK Flexibility Score: inf
ROOT
ATOM      1  C   UNL     1      31.861  36.768  28.404  1.00  0.00     0.017 C 
ATOM      2  C   UNL     1      33.023  36.240  29.288  1.00  0.00     0.014 C 
ATOM      3  C   UNL     1      30.669  37.227  29.286  1.00  0.00     0.014 C 
ATOM      4  C   UNL     1      31.377  35.663  27.410  1.00  0.00     0.030 C 
ATOM      5  C   UNL     1      32.742  34.878  29.926  1.00  0.00     0.004 C 
ATOM      6  C   UNL     1      29.469  37.767  28.470  1.00  0.00     0.013 C 
ATOM      7  C   UNL     1      30.169  36.204  26.618  1.00  0.00    -0.063 C 
ATOM      8  C   UNL     1      31.157  34.254  28.046  1.00  0.00    -0.003 C 
ATOM      9  C   UNL     1      32.407  33.819  28.862  1.00  0.00    -0.011 C 
ATOM     10  C   UNL     1      28.924  36.782  27.368  1.00  0.00    -0.006 C 
ATOM     11  C   UNL     1      30.406  36.447  25.303  1.00  0.00    -0.027 C 
ATOM     12  C   UNL     1      30.816  33.227  26.947  1.00  0.00     0.008 C 
ATOM     13  C   UNL     1      32.203  32.461  29.558  1.00  0.00     0.008 C 
ATOM     14  C   UNL     1      28.149  35.647  28.106  1.00  0.00     0.017 C 
ATOM     15  C   UNL     1      27.901  37.508  26.334  1.00  0.00    -0.020 C 
ATOM     16  C   UNL     1      29.600  37.373  24.441  1.00  0.00     0.032 C 
ATOM     17  C   UNL     1      28.747  38.337  25.293  1.00  0.00     0.006 C 
ATOM     18  C   UNL     1      26.874  38.429  27.088  1.00  0.00     0.008 C 
ATOM     19  C   UNL     1      27.060  36.426  25.572  1.00  0.00     0.012 C 
ATOM     20  C   UNL     1      28.044  39.529  24.464  1.00  0.00    -0.025 C 
ATOM     21  C   UNL     1      27.024  39.919  26.786  1.00  0.00     0.005 C 
ATOM     22  C   UNL     1      26.819  40.164  25.266  1.00  0.00     0.003 C 
ATOM     23  C   UNL     1      29.153  40.609  24.219  1.00  0.00     0.010 C 
ATOM     24  C   UNL     1      27.555  39.020  23.075  1.00  0.00     0.012 C 
ATOM     25  C   UNL     1      26.406  41.670  24.893  1.00  0.00    -0.006 C 
ATOM     26  C   UNL     1      28.649  41.947  23.694  1.00  0.00     0.033 C 
ATOM     27  C   UNL     1      27.659  42.566  24.680  1.00  0.00     0.120 C 
ATOM     28  C   UNL     1      25.493  41.698  23.627  1.00  0.00     0.014 C 
ATOM     29  C   UNL     1      25.552  42.332  26.013  1.00  0.00     0.014 C 
ENDROOT
BRANCH   1  30
ATOM     30  C   UNL     1      32.422  37.966  27.634  1.00  0.00     0.048 C 
ATOM     31  O   UNL     1      33.176  37.786  26.635  1.00  0.00    -0.550 OA
ATOM     32  O   UNL     1      32.199  39.268  28.075  1.00  0.00    -0.550 OA
ENDBRANCH   1  30
BRANCH  27  33
ATOM     33  O   UNL     1      27.277  43.841  24.222  1.00  0.00    -0.393 OA
ATOM     34  H   UNL     1      26.454  43.721  23.679  1.00  0.00     0.210 HD
ENDBRANCH  27  33
TORSDOF 2
ENDMDL
