MODEL 1
REMARK VINA RESULT:    -2.062      0.000      0.000
REMARK INTER + INTRA:          -5.725
REMARK INTER:                  -3.991
REMARK INTRA:                  -1.734
REMARK UNBOUND:                -1.734
REMARK SMILES CCCCCCCCCCCCCCCCCC(=O)[O-]
REMARK SMILES IDX 10 1 11 2 12 3 13 4 14 5 15 6 16 7 17 8 18 9 19 10 20 11
REMARK SMILES IDX 9 12 8 13 7 14 6 15 5 16 4 17 3 18 2 19 1 20
REMARK H PARENT
REMARK Flexibility Score: inf
ROOT
ATOM      1  C   UNL     1      16.520 -34.947  -0.034  1.00  0.00     0.000 C 
ENDROOT
BRANCH   1   2
ATOM      2  C   UNL     1      17.094 -34.231   1.203  1.00  0.00     0.000 C 
BRANCH   2   3
ATOM      3  C   UNL     1      18.618 -34.356   1.385  1.00  0.00     0.000 C 
BRANCH   3   4
ATOM      4  C   UNL     1      19.346 -33.007   1.302  1.00  0.00     0.000 C 
BRANCH   4   5
ATOM      5  C   UNL     1      19.010 -32.125   2.514  1.00  0.00     0.000 C 
BRANCH   5   6
ATOM      6  C   UNL     1      18.914 -30.635   2.154  1.00  0.00     0.000 C 
BRANCH   6   7
ATOM      7  C   UNL     1      20.184 -30.112   1.457  1.00  0.00     0.006 C 
BRANCH   7   8
ATOM      8  C   UNL     1      19.865 -29.392   0.140  1.00  0.00     0.053 C 
BRANCH   8   9
ATOM      9  C   UNL     1      20.408 -27.996   0.125  1.00  0.00     0.041 C 
ATOM     10  O   UNL     1      20.539 -27.355   1.201  1.00  0.00    -0.550 OA
ATOM     11  O   UNL     1      20.803 -27.415  -1.073  1.00  0.00    -0.550 OA
ENDBRANCH   8   9
ENDBRANCH   7   8
ENDBRANCH   6   7
ENDBRANCH   5   6
ENDBRANCH   4   5
ENDBRANCH   3   4
ENDBRANCH   2   3
ENDBRANCH   1   2
BRANCH   1  12
ATOM     12  C   UNL     1      14.985 -34.881  -0.106  1.00  0.00     0.000 C 
BRANCH  12  13
ATOM     13  C   UNL     1      14.473 -34.198  -1.388  1.00  0.00    -0.000 C 
BRANCH  13  14
ATOM     14  C   UNL     1      13.145 -33.433  -1.239  1.00  0.00    -0.000 C 
BRANCH  14  15
ATOM     15  C   UNL     1      12.712 -33.257   0.224  1.00  0.00    -0.000 C 
BRANCH  15  16
ATOM     16  C   UNL     1      12.243 -31.821   0.489  1.00  0.00    -0.000 C 
BRANCH  16  17
ATOM     17  C   UNL     1      12.992 -31.209   1.682  1.00  0.00    -0.000 C 
BRANCH  17  18
ATOM     18  C   UNL     1      13.984 -32.191   2.326  1.00  0.00    -0.000 C 
BRANCH  18  19
ATOM     19  C   UNL     1      15.299 -31.514   2.741  1.00  0.00    -0.003 C 
ATOM     20  C   UNL     1      15.144 -29.996   2.790  1.00  0.00     0.004 C 
ENDBRANCH  18  19
ENDBRANCH  17  18
ENDBRANCH  16  17
ENDBRANCH  15  16
ENDBRANCH  14  15
ENDBRANCH  13  14
ENDBRANCH  12  13
ENDBRANCH   1  12
TORSDOF 16
ENDMDL
MODEL 2
REMARK VINA RESULT:    -2.006      5.539      8.386
REMARK INTER + INTRA:          -5.616
REMARK INTER:                  -2.429
REMARK INTRA:                  -3.187
REMARK UNBOUND:                -1.734
REMARK SMILES CCCCCCCCCCCCCCCCCC(=O)[O-]
REMARK SMILES IDX 10 1 11 2 12 3 13 4 14 5 15 6 16 7 17 8 18 9 19 10 20 11
REMARK SMILES IDX 9 12 8 13 7 14 6 15 5 16 4 17 3 18 2 19 1 20
REMARK H PARENT
REMARK Flexibility Score: inf
ROOT
ATOM      1  C   UNL     1      20.623 -29.027  -1.634  1.00  0.00     0.000 C 
ENDROOT
BRANCH   1   2
ATOM      2  C   UNL     1      21.111 -27.627  -2.047  1.00  0.00     0.000 C 
BRANCH   2   3
ATOM      3  C   UNL     1      21.806 -26.819  -0.935  1.00  0.00     0.000 C 
BRANCH   3   4
ATOM      4  C   UNL     1      21.124 -25.473  -0.653  1.00  0.00     0.000 C 
BRANCH   4   5
ATOM      5  C   UNL     1      20.588 -25.420   0.787  1.00  0.00     0.000 C 
BRANCH   5   6
ATOM      6  C   UNL     1      21.266 -26.445   1.709  1.00  0.00     0.000 C 
BRANCH   6   7
ATOM      7  C   UNL     1      20.338 -26.930   2.837  1.00  0.00     0.006 C 
BRANCH   7   8
ATOM      8  C   UNL     1      21.020 -27.965   3.742  1.00  0.00     0.053 C 
BRANCH   8   9
ATOM      9  C   UNL     1      20.096 -29.091   4.093  1.00  0.00     0.041 C 
ATOM     10  O   UNL     1      18.851 -28.954   3.960  1.00  0.00    -0.550 OA
ATOM     11  O   UNL     1      20.611 -30.303   4.533  1.00  0.00    -0.550 OA
ENDBRANCH   8   9
ENDBRANCH   7   8
ENDBRANCH   6   7
ENDBRANCH   5   6
ENDBRANCH   4   5
ENDBRANCH   3   4
ENDBRANCH   2   3
ENDBRANCH   1   2
BRANCH   1  12
ATOM     12  C   UNL     1      19.769 -29.011  -0.354  1.00  0.00     0.000 C 
BRANCH  12  13
ATOM     13  C   UNL     1      20.194 -30.085   0.664  1.00  0.00    -0.000 C 
BRANCH  13  14
ATOM     14  C   UNL     1      21.558 -30.746   0.393  1.00  0.00    -0.000 C 
BRANCH  14  15
ATOM     15  C   UNL     1      22.634 -30.348   1.415  1.00  0.00    -0.000 C 
BRANCH  15  16
ATOM     16  C   UNL     1      23.622 -29.343   0.810  1.00  0.00    -0.000 C 
BRANCH  16  17
ATOM     17  C   UNL     1      24.290 -28.501   1.907  1.00  0.00    -0.000 C 
BRANCH  17  18
ATOM     18  C   UNL     1      25.336 -27.523   1.349  1.00  0.00    -0.000 C 
BRANCH  18  19
ATOM     19  C   UNL     1      24.812 -26.082   1.264  1.00  0.00    -0.003 C 
ATOM     20  C   UNL     1      25.137 -25.460  -0.092  1.00  0.00     0.004 C 
ENDBRANCH  18  19
ENDBRANCH  17  18
ENDBRANCH  16  17
ENDBRANCH  15  16
ENDBRANCH  14  15
ENDBRANCH  13  14
ENDBRANCH  12  13
ENDBRANCH   1  12
TORSDOF 16
ENDMDL
MODEL 3
REMARK VINA RESULT:    -1.993      3.186      4.535
REMARK INTER + INTRA:          -5.591
REMARK INTER:                  -2.246
REMARK INTRA:                  -3.345
REMARK UNBOUND:                -1.734
REMARK SMILES CCCCCCCCCCCCCCCCCC(=O)[O-]
REMARK SMILES IDX 10 1 11 2 12 3 13 4 14 5 15 6 16 7 17 8 18 9 19 10 20 11
REMARK SMILES IDX 9 12 8 13 7 14 6 15 5 16 4 17 3 18 2 19 1 20
REMARK H PARENT
REMARK Flexibility Score: inf
ROOT
ATOM      1  C   UNL     1      15.264 -35.854  -0.444  1.00  0.00     0.000 C 
ENDROOT
BRANCH   1   2
ATOM      2  C   UNL     1      16.620 -36.095   0.246  1.00  0.00     0.000 C 
BRANCH   2   3
ATOM      3  C   UNL     1      17.479 -34.836   0.464  1.00  0.00     0.000 C 
BRANCH   3   4
ATOM      4  C   UNL     1      17.677 -34.491   1.947  1.00  0.00     0.000 C 
BRANCH   4   5
ATOM      5  C   UNL     1      17.285 -33.032   2.229  1.00  0.00     0.000 C 
BRANCH   5   6
ATOM      6  C   UNL     1      17.145 -32.736   3.729  1.00  0.00     0.000 C 
BRANCH   6   7
ATOM      7  C   UNL     1      16.959 -31.236   4.022  1.00  0.00     0.006 C 
BRANCH   7   8
ATOM      8  C   UNL     1      16.370 -30.481   2.822  1.00  0.00     0.053 C 
BRANCH   8   9
ATOM      9  C   UNL     1      15.079 -29.806   3.169  1.00  0.00     0.041 C 
ATOM     10  O   UNL     1      14.696 -29.748   4.367  1.00  0.00    -0.550 OA
ATOM     11  O   UNL     1      14.316 -29.209   2.175  1.00  0.00    -0.550 OA
ENDBRANCH   8   9
ENDBRANCH   7   8
ENDBRANCH   6   7
ENDBRANCH   5   6
ENDBRANCH   4   5
ENDBRANCH   3   4
ENDBRANCH   2   3
ENDBRANCH   1   2
BRANCH   1  12
ATOM     12  C   UNL     1      14.848 -34.374  -0.445  1.00  0.00     0.000 C 
BRANCH  12  13
ATOM     13  C   UNL     1      13.624 -34.094   0.448  1.00  0.00    -0.000 C 
BRANCH  13  14
ATOM     14  C   UNL     1      13.749 -32.867   1.369  1.00  0.00    -0.000 C 
BRANCH  14  15
ATOM     15  C   UNL     1      13.563 -33.208   2.856  1.00  0.00    -0.000 C 
BRANCH  15  16
ATOM     16  C   UNL     1      13.425 -34.722   3.058  1.00  0.00    -0.000 C 
BRANCH  16  17
ATOM     17  C   UNL     1      14.572 -35.268   3.922  1.00  0.00    -0.000 C 
BRANCH  17  18
ATOM     18  C   UNL     1      15.006 -36.682   3.507  1.00  0.00    -0.000 C 
BRANCH  18  19
ATOM     19  C   UNL     1      13.966 -37.382   2.619  1.00  0.00    -0.003 C 
ATOM     20  C   UNL     1      14.423 -38.791   2.246  1.00  0.00     0.004 C 
ENDBRANCH  18  19
ENDBRANCH  17  18
ENDBRANCH  16  17
ENDBRANCH  15  16
ENDBRANCH  14  15
ENDBRANCH  13  14
ENDBRANCH  12  13
ENDBRANCH   1  12
TORSDOF 16
ENDMDL
MODEL 4
REMARK VINA RESULT:    -1.987      2.868      4.933
REMARK INTER + INTRA:          -5.580
REMARK INTER:                  -3.040
REMARK INTRA:                  -2.540
REMARK UNBOUND:                -1.734
REMARK SMILES CCCCCCCCCCCCCCCCCC(=O)[O-]
REMARK SMILES IDX 10 1 11 2 12 3 13 4 14 5 15 6 16 7 17 8 18 9 19 10 20 11
REMARK SMILES IDX 9 12 8 13 7 14 6 15 5 16 4 17 3 18 2 19 1 20
REMARK H PARENT
REMARK Flexibility Score: inf
ROOT
ATOM      1  C   UNL     1      17.210 -34.526   0.905  1.00  0.00     0.000 C 
ENDROOT
BRANCH   1   2
ATOM      2  C   UNL     1      18.451 -33.727   1.346  1.00  0.00     0.000 C 
BRANCH   2   3
ATOM      3  C   UNL     1      18.272 -32.890   2.626  1.00  0.00     0.000 C 
BRANCH   3   4
ATOM      4  C   UNL     1      18.434 -31.382   2.387  1.00  0.00     0.000 C 
BRANCH   4   5
ATOM      5  C   UNL     1      17.253 -30.601   2.984  1.00  0.00     0.000 C 
BRANCH   5   6
ATOM      6  C   UNL     1      16.192 -31.519   3.608  1.00  0.00     0.000 C 
BRANCH   6   7
ATOM      7  C   UNL     1      14.835 -30.815   3.793  1.00  0.00     0.006 C 
BRANCH   7   8
ATOM      8  C   UNL     1      14.337 -30.169   2.493  1.00  0.00     0.053 C 
BRANCH   8   9
ATOM      9  C   UNL     1      14.107 -28.698   2.656  1.00  0.00     0.041 C 
ATOM     10  O   UNL     1      14.651 -28.073   3.604  1.00  0.00    -0.550 OA
ATOM     11  O   UNL     1      13.323 -28.010   1.740  1.00  0.00    -0.550 OA
ENDBRANCH   8   9
ENDBRANCH   7   8
ENDBRANCH   6   7
ENDBRANCH   5   6
ENDBRANCH   4   5
ENDBRANCH   3   4
ENDBRANCH   2   3
ENDBRANCH   1   2
BRANCH   1  12
ATOM     12  C   UNL     1      16.274 -34.871   2.074  1.00  0.00     0.000 C 
BRANCH  12  13
ATOM     13  C   UNL     1      14.784 -34.804   1.690  1.00  0.00    -0.000 C 
BRANCH  13  14
ATOM     14  C   UNL     1      14.353 -33.526   0.946  1.00  0.00    -0.000 C 
BRANCH  14  15
ATOM     15  C   UNL     1      13.525 -33.814  -0.316  1.00  0.00    -0.000 C 
BRANCH  15  16
ATOM     16  C   UNL     1      14.432 -34.194  -1.493  1.00  0.00    -0.000 C 
BRANCH  16  17
ATOM     17  C   UNL     1      14.145 -35.625  -1.968  1.00  0.00    -0.000 C 
BRANCH  17  18
ATOM     18  C   UNL     1      15.352 -36.561  -1.799  1.00  0.00    -0.000 C 
BRANCH  18  19
ATOM     19  C   UNL     1      15.028 -37.795  -0.944  1.00  0.00    -0.003 C 
ATOM     20  C   UNL     1      16.082 -38.005   0.140  1.00  0.00     0.004 C 
ENDBRANCH  18  19
ENDBRANCH  17  18
ENDBRANCH  16  17
ENDBRANCH  15  16
ENDBRANCH  14  15
ENDBRANCH  13  14
ENDBRANCH  12  13
ENDBRANCH   1  12
TORSDOF 16
ENDMDL
MODEL 5
REMARK VINA RESULT:    -1.951      4.494      7.094
REMARK INTER + INTRA:          -5.509
REMARK INTER:                  -2.625
REMARK INTRA:                  -2.884
REMARK UNBOUND:                -1.734
REMARK SMILES CCCCCCCCCCCCCCCCCC(=O)[O-]
REMARK SMILES IDX 10 1 11 2 12 3 13 4 14 5 15 6 16 7 17 8 18 9 19 10 20 11
REMARK SMILES IDX 9 12 8 13 7 14 6 15 5 16 4 17 3 18 2 19 1 20
REMARK H PARENT
REMARK Flexibility Score: inf
ROOT
ATOM      1  C   UNL     1      15.084 -33.796   1.039  1.00  0.00     0.000 C 
ENDROOT
BRANCH   1   2
ATOM      2  C   UNL     1      13.963 -34.282   0.101  1.00  0.00     0.000 C 
BRANCH   2   3
ATOM      3  C   UNL     1      14.242 -34.103  -1.403  1.00  0.00     0.000 C 
BRANCH   3   4
ATOM      4  C   UNL     1      14.669 -35.405  -2.095  1.00  0.00     0.000 C 
BRANCH   4   5
ATOM      5  C   UNL     1      16.199 -35.555  -2.088  1.00  0.00     0.000 C 
BRANCH   5   6
ATOM      6  C   UNL     1      16.662 -36.871  -1.446  1.00  0.00     0.000 C 
BRANCH   6   7
ATOM      7  C   UNL     1      15.511 -37.637  -0.769  1.00  0.00     0.006 C 
BRANCH   7   8
ATOM      8  C   UNL     1      16.014 -38.596   0.318  1.00  0.00     0.053 C 
BRANCH   8   9
ATOM      9  C   UNL     1      15.245 -38.442   1.594  1.00  0.00     0.041 C 
ATOM     10  O   UNL     1      14.003 -38.239   1.565  1.00  0.00    -0.550 OA
ATOM     11  O   UNL     1      15.894 -38.561   2.816  1.00  0.00    -0.550 OA
ENDBRANCH   8   9
ENDBRANCH   7   8
ENDBRANCH   6   7
ENDBRANCH   5   6
ENDBRANCH   4   5
ENDBRANCH   3   4
ENDBRANCH   2   3
ENDBRANCH   1   2
BRANCH   1  12
ATOM     12  C   UNL     1      15.539 -34.873   2.037  1.00  0.00     0.000 C 
BRANCH  12  13
ATOM     13  C   UNL     1      17.062 -35.099   2.022  1.00  0.00    -0.000 C 
BRANCH  13  14
ATOM     14  C   UNL     1      17.831 -34.328   0.933  1.00  0.00    -0.000 C 
BRANCH  14  15
ATOM     15  C   UNL     1      18.829 -33.311   1.507  1.00  0.00    -0.000 C 
BRANCH  15  16
ATOM     16  C   UNL     1      18.628 -33.135   3.017  1.00  0.00    -0.000 C 
BRANCH  16  17
ATOM     17  C   UNL     1      18.176 -31.706   3.349  1.00  0.00    -0.000 C 
BRANCH  17  18
ATOM     18  C   UNL     1      16.680 -31.621   3.688  1.00  0.00    -0.000 C 
BRANCH  18  19
ATOM     19  C   UNL     1      15.937 -30.586   2.830  1.00  0.00    -0.003 C 
ATOM     20  C   UNL     1      14.425 -30.761   2.945  1.00  0.00     0.004 C 
ENDBRANCH  18  19
ENDBRANCH  17  18
ENDBRANCH  16  17
ENDBRANCH  15  16
ENDBRANCH  14  15
ENDBRANCH  13  14
ENDBRANCH  12  13
ENDBRANCH   1  12
TORSDOF 16
ENDMDL
MODEL 6
REMARK VINA RESULT:    -1.945      4.571      7.398
REMARK INTER + INTRA:          -5.498
REMARK INTER:                  -2.422
REMARK INTRA:                  -3.076
REMARK UNBOUND:                -1.734
REMARK SMILES CCCCCCCCCCCCCCCCCC(=O)[O-]
REMARK SMILES IDX 10 1 11 2 12 3 13 4 14 5 15 6 16 7 17 8 18 9 19 10 20 11
REMARK SMILES IDX 9 12 8 13 7 14 6 15 5 16 4 17 3 18 2 19 1 20
REMARK H PARENT
REMARK Flexibility Score: inf
ROOT
ATOM      1  C   UNL     1      20.157 -30.383   0.937  1.00  0.00     0.000 C 
ENDROOT
BRANCH   1   2
ATOM      2  C   UNL     1      21.291 -30.535   1.967  1.00  0.00     0.000 C 
BRANCH   2   3
ATOM      3  C   UNL     1      22.271 -29.350   2.044  1.00  0.00     0.000 C 
BRANCH   3   4
ATOM      4  C   UNL     1      22.195 -28.591   3.376  1.00  0.00     0.000 C 
BRANCH   4   5
ATOM      5  C   UNL     1      21.320 -29.346   4.389  1.00  0.00     0.000 C 
BRANCH   5   6
ATOM      6  C   UNL     1      20.156 -28.495   4.917  1.00  0.00     0.000 C 
BRANCH   6   7
ATOM      7  C   UNL     1      18.819 -28.831   4.233  1.00  0.00     0.006 C 
BRANCH   7   8
ATOM      8  C   UNL     1      18.248 -30.174   4.707  1.00  0.00     0.053 C 
BRANCH   8   9
ATOM      9  C   UNL     1      17.766 -31.009   3.561  1.00  0.00     0.041 C 
ATOM     10  O   UNL     1      18.184 -32.188   3.417  1.00  0.00    -0.550 OA
ATOM     11  O   UNL     1      16.827 -30.499   2.674  1.00  0.00    -0.550 OA
ENDBRANCH   8   9
ENDBRANCH   7   8
ENDBRANCH   6   7
ENDBRANCH   5   6
ENDBRANCH   4   5
ENDBRANCH   3   4
ENDBRANCH   2   3
ENDBRANCH   1   2
BRANCH   1  12
ATOM     12  C   UNL     1      20.056 -28.960   0.362  1.00  0.00     0.000 C 
BRANCH  12  13
ATOM     13  C   UNL     1      20.088 -28.932  -1.178  1.00  0.00    -0.000 C 
BRANCH  13  14
ATOM     14  C   UNL     1      20.870 -27.760  -1.798  1.00  0.00    -0.000 C 
BRANCH  14  15
ATOM     15  C   UNL     1      22.202 -27.480  -1.084  1.00  0.00    -0.000 C 
BRANCH  15  16
ATOM     16  C   UNL     1      22.317 -26.001  -0.696  1.00  0.00    -0.000 C 
BRANCH  16  17
ATOM     17  C   UNL     1      22.004 -25.798   0.794  1.00  0.00    -0.000 C 
BRANCH  17  18
ATOM     18  C   UNL     1      20.567 -25.313   1.037  1.00  0.00    -0.000 C 
BRANCH  18  19
ATOM     19  C   UNL     1      20.022 -25.742   2.408  1.00  0.00    -0.003 C 
ATOM     20  C   UNL     1      20.832 -25.116   3.540  1.00  0.00     0.004 C 
ENDBRANCH  18  19
ENDBRANCH  17  18
ENDBRANCH  16  17
ENDBRANCH  15  16
ENDBRANCH  14  15
ENDBRANCH  13  14
ENDBRANCH  12  13
ENDBRANCH   1  12
TORSDOF 16
ENDMDL
MODEL 7
REMARK VINA RESULT:    -1.939      4.155      7.199
REMARK INTER + INTRA:          -5.486
REMARK INTER:                  -2.789
REMARK INTRA:                  -2.697
REMARK UNBOUND:                -1.734
REMARK SMILES CCCCCCCCCCCCCCCCCC(=O)[O-]
REMARK SMILES IDX 10 1 11 2 12 3 13 4 14 5 15 6 16 7 17 8 18 9 19 10 20 11
REMARK SMILES IDX 9 12 8 13 7 14 6 15 5 16 4 17 3 18 2 19 1 20
REMARK H PARENT
REMARK Flexibility Score: inf
ROOT
ATOM      1  C   UNL     1      14.122 -34.293   4.597  1.00  0.00     0.000 C 
ENDROOT
BRANCH   1   2
ATOM      2  C   UNL     1      14.069 -34.696   3.111  1.00  0.00     0.000 C 
BRANCH   2   3
ATOM      3  C   UNL     1      13.026 -33.943   2.264  1.00  0.00     0.000 C 
BRANCH   3   4
ATOM      4  C   UNL     1      13.651 -33.140   1.114  1.00  0.00     0.000 C 
BRANCH   4   5
ATOM      5  C   UNL     1      12.592 -32.769   0.064  1.00  0.00     0.000 C 
BRANCH   5   6
ATOM      6  C   UNL     1      12.912 -33.338  -1.326  1.00  0.00     0.000 C 
BRANCH   6   7
ATOM      7  C   UNL     1      14.246 -34.108  -1.358  1.00  0.00     0.006 C 
BRANCH   7   8
ATOM      8  C   UNL     1      14.090 -35.508  -1.965  1.00  0.00     0.053 C 
BRANCH   8   9
ATOM      9  C   UNL     1      13.442 -36.460  -1.007  1.00  0.00     0.041 C 
ATOM     10  O   UNL     1      12.389 -37.068  -1.334  1.00  0.00    -0.550 OA
ATOM     11  O   UNL     1      14.020 -36.705   0.231  1.00  0.00    -0.550 OA
ENDBRANCH   8   9
ENDBRANCH   7   8
ENDBRANCH   6   7
ENDBRANCH   5   6
ENDBRANCH   4   5
ENDBRANCH   3   4
ENDBRANCH   2   3
ENDBRANCH   1   2
BRANCH   1  12
ATOM     12  C   UNL     1      13.753 -32.819   4.832  1.00  0.00     0.000 C 
BRANCH  12  13
ATOM     13  C   UNL     1      14.982 -31.891   4.866  1.00  0.00    -0.000 C 
BRANCH  13  14
ATOM     14  C   UNL     1      15.040 -30.835   3.746  1.00  0.00    -0.000 C 
BRANCH  14  15
ATOM     15  C   UNL     1      16.218 -31.046   2.782  1.00  0.00    -0.000 C 
BRANCH  15  16
ATOM     16  C   UNL     1      16.983 -32.331   3.121  1.00  0.00    -0.000 C 
BRANCH  16  17
ATOM     17  C   UNL     1      18.351 -32.355   2.425  1.00  0.00    -0.000 C 
BRANCH  17  18
ATOM     18  C   UNL     1      18.500 -33.533   1.449  1.00  0.00    -0.000 C 
BRANCH  18  19
ATOM     19  C   UNL     1      17.167 -34.249   1.180  1.00  0.00    -0.003 C 
ATOM     20  C   UNL     1      17.349 -35.390   0.183  1.00  0.00     0.004 C 
ENDBRANCH  18  19
ENDBRANCH  17  18
ENDBRANCH  16  17
ENDBRANCH  15  16
ENDBRANCH  14  15
ENDBRANCH  13  14
ENDBRANCH  12  13
ENDBRANCH   1  12
TORSDOF 16
ENDMDL
MODEL 8
REMARK VINA RESULT:    -1.933      3.415      6.647
REMARK INTER + INTRA:          -5.475
REMARK INTER:                  -2.504
REMARK INTRA:                  -2.971
REMARK UNBOUND:                -1.734
REMARK SMILES CCCCCCCCCCCCCCCCCC(=O)[O-]
REMARK SMILES IDX 10 1 11 2 12 3 13 4 14 5 15 6 16 7 17 8 18 9 19 10 20 11
REMARK SMILES IDX 9 12 8 13 7 14 6 15 5 16 4 17 3 18 2 19 1 20
REMARK H PARENT
REMARK Flexibility Score: inf
ROOT
ATOM      1  C   UNL     1      18.581 -32.364   5.422  1.00  0.00     0.000 C 
ENDROOT
BRANCH   1   2
ATOM      2  C   UNL     1      17.229 -32.534   4.704  1.00  0.00     0.000 C 
BRANCH   2   3
ATOM      3  C   UNL     1      16.695 -31.272   4.002  1.00  0.00     0.000 C 
BRANCH   3   4
ATOM      4  C   UNL     1      15.957 -31.578   2.692  1.00  0.00     0.000 C 
BRANCH   4   5
ATOM      5  C   UNL     1      15.741 -33.090   2.523  1.00  0.00     0.000 C 
BRANCH   5   6
ATOM      6  C   UNL     1      14.717 -33.424   1.428  1.00  0.00     0.000 C 
BRANCH   6   7
ATOM      7  C   UNL     1      15.295 -34.345   0.338  1.00  0.00     0.006 C 
BRANCH   7   8
ATOM      8  C   UNL     1      16.725 -34.798   0.661  1.00  0.00     0.053 C 
BRANCH   8   9
ATOM      9  C   UNL     1      17.342 -35.549  -0.478  1.00  0.00     0.041 C 
ATOM     10  O   UNL     1      18.401 -36.207  -0.303  1.00  0.00    -0.550 OA
ATOM     11  O   UNL     1      16.727 -35.554  -1.723  1.00  0.00    -0.550 OA
ENDBRANCH   8   9
ENDBRANCH   7   8
ENDBRANCH   6   7
ENDBRANCH   5   6
ENDBRANCH   4   5
ENDBRANCH   3   4
ENDBRANCH   2   3
ENDBRANCH   1   2
BRANCH   1  12
ATOM     12  C   UNL     1      19.690 -33.250   4.829  1.00  0.00     0.000 C 
BRANCH  12  13
ATOM     13  C   UNL     1      19.214 -34.081   3.623  1.00  0.00    -0.000 C 
BRANCH  13  14
ATOM     14  C   UNL     1      19.958 -33.809   2.303  1.00  0.00    -0.000 C 
BRANCH  14  15
ATOM     15  C   UNL     1      19.340 -32.662   1.488  1.00  0.00    -0.000 C 
BRANCH  15  16
ATOM     16  C   UNL     1      20.229 -31.414   1.532  1.00  0.00    -0.000 C 
BRANCH  16  17
ATOM     17  C   UNL     1      19.393 -30.152   1.789  1.00  0.00    -0.000 C 
BRANCH  17  18
ATOM     18  C   UNL     1      19.781 -29.439   3.094  1.00  0.00    -0.000 C 
BRANCH  18  19
ATOM     19  C   UNL     1      21.027 -30.049   3.753  1.00  0.00    -0.003 C 
ATOM     20  C   UNL     1      22.047 -28.969   4.105  1.00  0.00     0.004 C 
ENDBRANCH  18  19
ENDBRANCH  17  18
ENDBRANCH  16  17
ENDBRANCH  15  16
ENDBRANCH  14  15
ENDBRANCH  13  14
ENDBRANCH  12  13
ENDBRANCH   1  12
TORSDOF 16
ENDMDL
MODEL 9
REMARK VINA RESULT:    -1.926      3.841      5.684
REMARK INTER + INTRA:          -5.461
REMARK INTER:                  -2.526
REMARK INTRA:                  -2.935
REMARK UNBOUND:                -1.734
REMARK SMILES CCCCCCCCCCCCCCCCCC(=O)[O-]
REMARK SMILES IDX 10 1 11 2 12 3 13 4 14 5 15 6 16 7 17 8 18 9 19 10 20 11
REMARK SMILES IDX 9 12 8 13 7 14 6 15 5 16 4 17 3 18 2 19 1 20
REMARK H PARENT
REMARK Flexibility Score: inf
ROOT
ATOM      1  C   UNL     1      17.088 -34.557   0.883  1.00  0.00     0.000 C 
ENDROOT
BRANCH   1   2
ATOM      2  C   UNL     1      18.402 -33.809   1.180  1.00  0.00     0.000 C 
BRANCH   2   3
ATOM      3  C   UNL     1      18.477 -33.137   2.563  1.00  0.00     0.000 C 
BRANCH   3   4
ATOM      4  C   UNL     1      18.659 -31.615   2.484  1.00  0.00     0.000 C 
BRANCH   4   5
ATOM      5  C   UNL     1      17.635 -30.892   3.373  1.00  0.00     0.000 C 
BRANCH   5   6
ATOM      6  C   UNL     1      16.219 -30.909   2.779  1.00  0.00     0.000 C 
BRANCH   6   7
ATOM      7  C   UNL     1      15.150 -31.316   3.809  1.00  0.00     0.006 C 
BRANCH   7   8
ATOM      8  C   UNL     1      15.720 -32.226   4.905  1.00  0.00     0.053 C 
BRANCH   8   9
ATOM      9  C   UNL     1      14.648 -33.032   5.573  1.00  0.00     0.041 C 
ATOM     10  O   UNL     1      14.522 -34.257   5.312  1.00  0.00    -0.550 OA
ATOM     11  O   UNL     1      13.813 -32.438   6.510  1.00  0.00    -0.550 OA
ENDBRANCH   8   9
ENDBRANCH   7   8
ENDBRANCH   6   7
ENDBRANCH   5   6
ENDBRANCH   4   5
ENDBRANCH   3   4
ENDBRANCH   2   3
ENDBRANCH   1   2
BRANCH   1  12
ATOM     12  C   UNL     1      16.182 -34.689   2.119  1.00  0.00     0.000 C 
BRANCH  12  13
ATOM     13  C   UNL     1      14.683 -34.684   1.767  1.00  0.00    -0.000 C 
BRANCH  13  14
ATOM     14  C   UNL     1      14.196 -33.451   0.982  1.00  0.00    -0.000 C 
BRANCH  14  15
ATOM     15  C   UNL     1      13.346 -33.816  -0.245  1.00  0.00    -0.000 C 
BRANCH  15  16
ATOM     16  C   UNL     1      14.234 -34.099  -1.463  1.00  0.00    -0.000 C 
BRANCH  16  17
ATOM     17  C   UNL     1      14.078 -35.554  -1.930  1.00  0.00    -0.000 C 
BRANCH  17  18
ATOM     18  C   UNL     1      15.391 -36.348  -1.847  1.00  0.00    -0.000 C 
BRANCH  18  19
ATOM     19  C   UNL     1      15.358 -37.432  -0.759  1.00  0.00    -0.003 C 
ATOM     20  C   UNL     1      13.930 -37.684  -0.280  1.00  0.00     0.004 C 
ENDBRANCH  18  19
ENDBRANCH  17  18
ENDBRANCH  16  17
ENDBRANCH  15  16
ENDBRANCH  14  15
ENDBRANCH  13  14
ENDBRANCH  12  13
ENDBRANCH   1  12
TORSDOF 16
ENDMDL
