MODEL 1
REMARK VINA RESULT:    -5.595      0.000      0.000
REMARK INTER + INTRA:          -7.573
REMARK INTER:                  -7.230
REMARK INTRA:                  -0.343
REMARK UNBOUND:                -0.343
REMARK SMILES CCOC(=O)C=Cc1ccc(O)c(O)c1
REMARK SMILES IDX 6 1 7 2 4 3 5 4 3 5 2 6 1 7 8 8 15 9 9 10 13 11 10 12 11 13
REMARK SMILES IDX 14 14 12 16
REMARK H PARENT 14 15 12 17
REMARK Flexibility Score: inf
ROOT
ATOM      1  C   UNL     1      12.377   9.906  10.249  1.00  0.00     0.094 C 
ATOM      2  C   UNL     1      11.594   9.302  11.154  1.00  0.00     0.016 C 
ENDROOT
BRANCH   1   3
ATOM      3  C   UNL     1      12.421  11.369  10.111  1.00  0.00     0.330 C 
ATOM      4  O   UNL     1      12.414  11.877   8.956  1.00  0.00    -0.247 OA
BRANCH   3   5
ATOM      5  O   UNL     1      12.463  12.189  11.246  1.00  0.00    -0.463 OA
BRANCH   5   6
ATOM      6  C   UNL     1      11.331  12.896  11.750  1.00  0.00     0.230 C 
ATOM      7  C   UNL     1      10.966  12.402  13.145  1.00  0.00     0.049 C 
ENDBRANCH   5   6
ENDBRANCH   3   5
ENDBRANCH   1   3
BRANCH   2   8
ATOM      8  C   UNL     1      11.511   7.830  11.321  1.00  0.00    -0.021 A 
ATOM      9  C   UNL     1      12.093   7.008  10.342  1.00  0.00     0.058 A 
ATOM     10  C   UNL     1      10.840   7.227  12.404  1.00  0.00     0.012 A 
ATOM     11  C   UNL     1      12.032   5.611  10.451  1.00  0.00     0.157 A 
ATOM     12  C   UNL     1      10.779   5.835  12.512  1.00  0.00     0.051 A 
ATOM     13  C   UNL     1      11.376   5.024  11.539  1.00  0.00     0.157 A 
BRANCH  11  14
ATOM     14  O   UNL     1      12.621   4.802   9.481  1.00  0.00    -0.504 OA
ATOM     15  H   UNL     1      13.305   4.095   9.724  1.00  0.00     0.293 HD
ENDBRANCH  11  14
BRANCH  13  16
ATOM     16  O   UNL     1      11.318   3.635  11.644  1.00  0.00    -0.504 OA
ATOM     17  H   UNL     1      12.129   3.090  11.912  1.00  0.00     0.293 HD
ENDBRANCH  13  16
ENDBRANCH   2   8
TORSDOF 6
ENDMDL
MODEL 2
REMARK VINA RESULT:    -5.524      1.352      1.977
REMARK INTER + INTRA:          -7.482
REMARK INTER:                  -7.293
REMARK INTRA:                  -0.189
REMARK UNBOUND:                -0.343
REMARK SMILES CCOC(=O)C=Cc1ccc(O)c(O)c1
REMARK SMILES IDX 6 1 7 2 4 3 5 4 3 5 2 6 1 7 8 8 15 9 9 10 13 11 10 12 11 13
REMARK SMILES IDX 14 14 12 16
REMARK H PARENT 14 15 12 17
REMARK Flexibility Score: inf
ROOT
ATOM      1  C   UNL     1      12.016   9.211  10.433  1.00  0.00     0.094 C 
ATOM      2  C   UNL     1      11.568   8.490  11.470  1.00  0.00     0.016 C 
ENDROOT
BRANCH   1   3
ATOM      3  C   UNL     1      12.211  10.666  10.522  1.00  0.00     0.330 C 
ATOM      4  O   UNL     1      12.122  11.228  11.648  1.00  0.00    -0.247 OA
BRANCH   3   5
ATOM      5  O   UNL     1      12.498  11.416   9.374  1.00  0.00    -0.463 OA
BRANCH   5   6
ATOM      6  C   UNL     1      12.423  12.840   9.325  1.00  0.00     0.230 C 
ATOM      7  C   UNL     1      12.810  13.352   7.943  1.00  0.00     0.049 C 
ENDBRANCH   5   6
ENDBRANCH   3   5
ENDBRANCH   1   3
BRANCH   2   8
ATOM      8  C   UNL     1      11.347   7.024  11.423  1.00  0.00    -0.021 A 
ATOM      9  C   UNL     1      11.936   6.289  10.381  1.00  0.00     0.058 A 
ATOM     10  C   UNL     1      10.540   6.348  12.359  1.00  0.00     0.012 A 
ATOM     11  C   UNL     1      11.748   4.902  10.287  1.00  0.00     0.157 A 
ATOM     12  C   UNL     1      10.353   4.967  12.265  1.00  0.00     0.051 A 
ATOM     13  C   UNL     1      10.957   4.240  11.233  1.00  0.00     0.157 A 
BRANCH  11  14
ATOM     14  O   UNL     1      12.345   4.177   9.257  1.00  0.00    -0.504 OA
ATOM     15  H   UNL     1      12.639   3.217   9.385  1.00  0.00     0.293 HD
ENDBRANCH  11  14
BRANCH  13  16
ATOM     16  O   UNL     1      10.773   2.861  11.137  1.00  0.00    -0.504 OA
ATOM     17  H   UNL     1      10.620   2.408  10.245  1.00  0.00     0.293 HD
ENDBRANCH  13  16
ENDBRANCH   2   8
TORSDOF 6
ENDMDL
MODEL 3
REMARK VINA RESULT:    -5.392      1.489      6.381
REMARK INTER + INTRA:          -7.312
REMARK INTER:                  -7.021
REMARK INTRA:                  -0.290
REMARK UNBOUND:                -0.343
REMARK SMILES CCOC(=O)C=Cc1ccc(O)c(O)c1
REMARK SMILES IDX 6 1 7 2 4 3 5 4 3 5 2 6 1 7 8 8 15 9 9 10 13 11 10 12 11 13
REMARK SMILES IDX 14 14 12 16
REMARK H PARENT 14 15 12 17
REMARK Flexibility Score: inf
ROOT
ATOM      1  C   UNL     1      11.649   7.078  10.750  1.00  0.00     0.094 C 
ATOM      2  C   UNL     1      11.246   8.069  11.558  1.00  0.00     0.016 C 
ENDROOT
BRANCH   1   3
ATOM      3  C   UNL     1      11.289   5.675  11.001  1.00  0.00     0.330 C 
ATOM      4  O   UNL     1      12.205   4.839  11.231  1.00  0.00    -0.247 OA
BRANCH   3   5
ATOM      5  O   UNL     1       9.947   5.273  10.991  1.00  0.00    -0.463 OA
BRANCH   5   6
ATOM      6  C   UNL     1       9.460   4.175  10.221  1.00  0.00     0.230 C 
ATOM      7  C   UNL     1       9.790   4.365   8.745  1.00  0.00     0.049 C 
ENDBRANCH   5   6
ENDBRANCH   3   5
ENDBRANCH   1   3
BRANCH   2   8
ATOM      8  C   UNL     1      11.593   9.496  11.350  1.00  0.00    -0.021 A 
ATOM      9  C   UNL     1      12.364   9.844  10.228  1.00  0.00     0.058 A 
ATOM     10  C   UNL     1      11.210  10.509  12.251  1.00  0.00     0.012 A 
ATOM     11  C   UNL     1      12.727  11.178   9.993  1.00  0.00     0.157 A 
ATOM     12  C   UNL     1      11.571  11.839  12.017  1.00  0.00     0.051 A 
ATOM     13  C   UNL     1      12.327  12.177  10.888  1.00  0.00     0.157 A 
BRANCH  11  14
ATOM     14  O   UNL     1      13.483  11.517   8.873  1.00  0.00    -0.504 OA
ATOM     15  H   UNL     1      14.464  11.275   8.802  1.00  0.00     0.293 HD
ENDBRANCH  11  14
BRANCH  13  16
ATOM     16  O   UNL     1      12.688  13.503  10.651  1.00  0.00    -0.504 OA
ATOM     17  H   UNL     1      12.766  13.870   9.710  1.00  0.00     0.293 HD
ENDBRANCH  13  16
ENDBRANCH   2   8
TORSDOF 6
ENDMDL
MODEL 4
REMARK VINA RESULT:    -5.342      1.767      6.621
REMARK INTER + INTRA:          -7.246
REMARK INTER:                  -7.043
REMARK INTRA:                  -0.204
REMARK UNBOUND:                -0.343
REMARK SMILES CCOC(=O)C=Cc1ccc(O)c(O)c1
REMARK SMILES IDX 6 1 7 2 4 3 5 4 3 5 2 6 1 7 8 8 15 9 9 10 13 11 10 12 11 13
REMARK SMILES IDX 14 14 12 16
REMARK H PARENT 14 15 12 17
REMARK Flexibility Score: inf
ROOT
ATOM      1  C   UNL     1      11.640   7.196  10.944  1.00  0.00     0.094 C 
ATOM      2  C   UNL     1      12.044   8.225  10.186  1.00  0.00     0.016 C 
ENDROOT
BRANCH   1   3
ATOM      3  C   UNL     1      11.673   5.809  10.457  1.00  0.00     0.330 C 
ATOM      4  O   UNL     1      12.785   5.223  10.353  1.00  0.00    -0.247 OA
BRANCH   3   5
ATOM      5  O   UNL     1      10.486   5.147  10.118  1.00  0.00    -0.463 OA
BRANCH   5   6
ATOM      6  C   UNL     1      10.386   4.210   9.047  1.00  0.00     0.230 C 
ATOM      7  C   UNL     1       8.966   4.175   8.493  1.00  0.00     0.049 C 
ENDBRANCH   5   6
ENDBRANCH   3   5
ENDBRANCH   1   3
BRANCH   2   8
ATOM      8  C   UNL     1      12.019   9.639  10.632  1.00  0.00    -0.021 A 
ATOM      9  C   UNL     1      11.484   9.936  11.897  1.00  0.00     0.058 A 
ATOM     10  C   UNL     1      12.476  10.698   9.822  1.00  0.00     0.012 A 
ATOM     11  C   UNL     1      11.429  11.259  12.359  1.00  0.00     0.157 A 
ATOM     12  C   UNL     1      12.421  12.016  10.283  1.00  0.00     0.051 A 
ATOM     13  C   UNL     1      11.901  12.300  11.552  1.00  0.00     0.157 A 
BRANCH  11  14
ATOM     14  O   UNL     1      10.907  11.544  13.620  1.00  0.00    -0.504 OA
ATOM     15  H   UNL     1       9.918  11.711  13.759  1.00  0.00     0.293 HD
ENDBRANCH  11  14
BRANCH  13  16
ATOM     16  O   UNL     1      11.846  13.614  12.015  1.00  0.00    -0.504 OA
ATOM     17  H   UNL     1      11.964  13.835  12.996  1.00  0.00     0.293 HD
ENDBRANCH  13  16
ENDBRANCH   2   8
TORSDOF 6
ENDMDL
MODEL 5
REMARK VINA RESULT:    -5.288      1.439      6.714
REMARK INTER + INTRA:          -7.176
REMARK INTER:                  -6.915
REMARK INTRA:                  -0.262
REMARK UNBOUND:                -0.343
REMARK SMILES CCOC(=O)C=Cc1ccc(O)c(O)c1
REMARK SMILES IDX 6 1 7 2 4 3 5 4 3 5 2 6 1 7 8 8 15 9 9 10 13 11 10 12 11 13
REMARK SMILES IDX 14 14 12 16
REMARK H PARENT 14 15 12 17
REMARK Flexibility Score: inf
ROOT
ATOM      1  C   UNL     1      11.648   6.878  10.636  1.00  0.00     0.094 C 
ATOM      2  C   UNL     1      11.297   7.898  11.432  1.00  0.00     0.016 C 
ENDROOT
BRANCH   1   3
ATOM      3  C   UNL     1      11.241   5.493  10.922  1.00  0.00     0.330 C 
ATOM      4  O   UNL     1      10.205   5.032  10.369  1.00  0.00    -0.247 OA
BRANCH   3   5
ATOM      5  O   UNL     1      11.997   4.696  11.791  1.00  0.00    -0.463 OA
BRANCH   5   6
ATOM      6  C   UNL     1      13.153   3.965  11.384  1.00  0.00     0.230 C 
ATOM      7  C   UNL     1      12.765   2.579  10.884  1.00  0.00     0.049 C 
ENDBRANCH   5   6
ENDBRANCH   3   5
ENDBRANCH   1   3
BRANCH   2   8
ATOM      8  C   UNL     1      11.692   9.307  11.189  1.00  0.00    -0.021 A 
ATOM      9  C   UNL     1      11.384  10.270  12.164  1.00  0.00     0.058 A 
ATOM     10  C   UNL     1      12.332   9.721  10.004  1.00  0.00     0.012 A 
ATOM     11  C   UNL     1      11.728  11.616  11.977  1.00  0.00     0.157 A 
ATOM     12  C   UNL     1      12.675  11.063   9.817  1.00  0.00     0.051 A 
ATOM     13  C   UNL     1      12.377  12.013  10.802  1.00  0.00     0.157 A 
BRANCH  11  14
ATOM     14  O   UNL     1      11.429  12.564  12.954  1.00  0.00    -0.504 OA
ATOM     15  H   UNL     1      12.026  13.366  13.115  1.00  0.00     0.293 HD
ENDBRANCH  11  14
BRANCH  13  16
ATOM     16  O   UNL     1      12.720  13.351  10.619  1.00  0.00    -0.504 OA
ATOM     17  H   UNL     1      12.239  13.934   9.943  1.00  0.00     0.293 HD
ENDBRANCH  13  16
ENDBRANCH   2   8
TORSDOF 6
ENDMDL
MODEL 6
REMARK VINA RESULT:    -5.251      1.218      6.341
REMARK INTER + INTRA:          -7.129
REMARK INTER:                  -6.755
REMARK INTRA:                  -0.374
REMARK UNBOUND:                -0.343
REMARK SMILES CCOC(=O)C=Cc1ccc(O)c(O)c1
REMARK SMILES IDX 6 1 7 2 4 3 5 4 3 5 2 6 1 7 8 8 15 9 9 10 13 11 10 12 11 13
REMARK SMILES IDX 14 14 12 16
REMARK H PARENT 14 15 12 17
REMARK Flexibility Score: inf
ROOT
ATOM      1  C   UNL     1      11.714   6.942  10.630  1.00  0.00     0.094 C 
ATOM      2  C   UNL     1      11.318   7.973  11.388  1.00  0.00     0.016 C 
ENDROOT
BRANCH   1   3
ATOM      3  C   UNL     1      11.299   5.560  10.917  1.00  0.00     0.330 C 
ATOM      4  O   UNL     1      11.960   4.606  10.422  1.00  0.00    -0.247 OA
BRANCH   3   5
ATOM      5  O   UNL     1      10.189   5.307  11.733  1.00  0.00    -0.463 OA
BRANCH   5   6
ATOM      6  C   UNL     1      10.289   4.812  13.067  1.00  0.00     0.230 C 
ATOM      7  C   UNL     1       9.883   5.884  14.071  1.00  0.00     0.049 C 
ENDBRANCH   5   6
ENDBRANCH   3   5
ENDBRANCH   1   3
BRANCH   2   8
ATOM      8  C   UNL     1      11.720   9.380  11.143  1.00  0.00    -0.021 A 
ATOM      9  C   UNL     1      11.420  10.345  12.119  1.00  0.00     0.058 A 
ATOM     10  C   UNL     1      12.358   9.790   9.955  1.00  0.00     0.012 A 
ATOM     11  C   UNL     1      11.771  11.690  11.929  1.00  0.00     0.157 A 
ATOM     12  C   UNL     1      12.707  11.130   9.766  1.00  0.00     0.051 A 
ATOM     13  C   UNL     1      12.418  12.082  10.751  1.00  0.00     0.157 A 
BRANCH  11  14
ATOM     14  O   UNL     1      11.480  12.640  12.906  1.00  0.00    -0.504 OA
ATOM     15  H   UNL     1      11.822  13.591  12.839  1.00  0.00     0.293 HD
ENDBRANCH  11  14
BRANCH  13  16
ATOM     16  O   UNL     1      12.766  13.419  10.565  1.00  0.00    -0.504 OA
ATOM     17  H   UNL     1      12.800  13.834   9.642  1.00  0.00     0.293 HD
ENDBRANCH  13  16
ENDBRANCH   2   8
TORSDOF 6
ENDMDL
MODEL 7
REMARK VINA RESULT:    -5.016      1.381      1.740
REMARK INTER + INTRA:          -6.825
REMARK INTER:                  -6.599
REMARK INTRA:                  -0.226
REMARK UNBOUND:                -0.343
REMARK SMILES CCOC(=O)C=Cc1ccc(O)c(O)c1
REMARK SMILES IDX 6 1 7 2 4 3 5 4 3 5 2 6 1 7 8 8 15 9 9 10 13 11 10 12 11 13
REMARK SMILES IDX 14 14 12 16
REMARK H PARENT 14 15 12 17
REMARK Flexibility Score: inf
ROOT
ATOM      1  C   UNL     1      11.678   8.670  11.380  1.00  0.00     0.094 C 
ATOM      2  C   UNL     1      11.988   7.654  10.562  1.00  0.00     0.016 C 
ENDROOT
BRANCH   1   3
ATOM      3  C   UNL     1      11.973  10.068  11.031  1.00  0.00     0.330 C 
ATOM      4  O   UNL     1      12.452  10.328   9.894  1.00  0.00    -0.247 OA
BRANCH   3   5
ATOM      5  O   UNL     1      11.721  11.097  11.947  1.00  0.00    -0.463 OA
BRANCH   5   6
ATOM      6  C   UNL     1      12.198  12.431  11.784  1.00  0.00     0.230 C 
ATOM      7  C   UNL     1      11.069  13.358  11.348  1.00  0.00     0.049 C 
ENDBRANCH   5   6
ENDBRANCH   3   5
ENDBRANCH   1   3
BRANCH   2   8
ATOM      8  C   UNL     1      11.719   6.230  10.877  1.00  0.00    -0.021 A 
ATOM      9  C   UNL     1      12.716   5.280  10.599  1.00  0.00     0.058 A 
ATOM     10  C   UNL     1      10.491   5.790  11.410  1.00  0.00     0.012 A 
ATOM     11  C   UNL     1      12.506   3.920  10.869  1.00  0.00     0.157 A 
ATOM     12  C   UNL     1      10.281   4.435  11.679  1.00  0.00     0.051 A 
ATOM     13  C   UNL     1      11.287   3.498  11.413  1.00  0.00     0.157 A 
BRANCH  11  14
ATOM     14  O   UNL     1      13.503   2.985  10.601  1.00  0.00    -0.504 OA
ATOM     15  H   UNL     1      13.552   2.104  11.098  1.00  0.00     0.293 HD
ENDBRANCH  11  14
BRANCH  13  16
ATOM     16  O   UNL     1      11.081   2.145  11.682  1.00  0.00    -0.504 OA
ATOM     17  H   UNL     1      11.793   1.452  11.485  1.00  0.00     0.293 HD
ENDBRANCH  13  16
ENDBRANCH   2   8
TORSDOF 6
ENDMDL
MODEL 8
REMARK VINA RESULT:    -4.978      2.281      3.385
REMARK INTER + INTRA:          -6.776
REMARK INTER:                  -6.594
REMARK INTRA:                  -0.182
REMARK UNBOUND:                -0.343
REMARK SMILES CCOC(=O)C=Cc1ccc(O)c(O)c1
REMARK SMILES IDX 6 1 7 2 4 3 5 4 3 5 2 6 1 7 8 8 15 9 9 10 13 11 10 12 11 13
REMARK SMILES IDX 14 14 12 16
REMARK H PARENT 14 15 12 17
REMARK Flexibility Score: inf
ROOT
ATOM      1  C   UNL     1      11.997   7.353  10.279  1.00  0.00     0.094 C 
ATOM      2  C   UNL     1      11.229   6.386  10.799  1.00  0.00     0.016 C 
ENDROOT
BRANCH   1   3
ATOM      3  C   UNL     1      11.884   8.754  10.714  1.00  0.00     0.330 C 
ATOM      4  O   UNL     1      11.470   9.003  11.879  1.00  0.00    -0.247 OA
BRANCH   3   5
ATOM      5  O   UNL     1      12.237   9.797   9.848  1.00  0.00    -0.463 OA
BRANCH   5   6
ATOM      6  C   UNL     1      12.389  11.152  10.269  1.00  0.00     0.230 C 
ATOM      7  C   UNL     1      12.656  12.059   9.074  1.00  0.00     0.049 C 
ENDBRANCH   5   6
ENDBRANCH   3   5
ENDBRANCH   1   3
BRANCH   2   8
ATOM      8  C   UNL     1      11.301   4.963  10.384  1.00  0.00    -0.021 A 
ATOM      9  C   UNL     1      12.320   4.157  10.919  1.00  0.00     0.058 A 
ATOM     10  C   UNL     1      10.410   4.400   9.449  1.00  0.00     0.012 A 
ATOM     11  C   UNL     1      12.436   2.809  10.550  1.00  0.00     0.157 A 
ATOM     12  C   UNL     1      10.525   3.057   9.081  1.00  0.00     0.051 A 
ATOM     13  C   UNL     1      11.535   2.258   9.632  1.00  0.00     0.157 A 
BRANCH  11  14
ATOM     14  O   UNL     1      13.443   2.013  11.093  1.00  0.00    -0.504 OA
ATOM     15  H   UNL     1      13.484   1.017  10.916  1.00  0.00     0.293 HD
ENDBRANCH  11  14
BRANCH  13  16
ATOM     16  O   UNL     1      11.652   0.917   9.268  1.00  0.00    -0.504 OA
ATOM     17  H   UNL     1      12.452   0.361   9.544  1.00  0.00     0.293 HD
ENDBRANCH  13  16
ENDBRANCH   2   8
TORSDOF 6
ENDMDL
MODEL 9
REMARK VINA RESULT:    -4.897      1.354      2.117
REMARK INTER + INTRA:          -6.671
REMARK INTER:                  -6.415
REMARK INTRA:                  -0.257
REMARK UNBOUND:                -0.343
REMARK SMILES CCOC(=O)C=Cc1ccc(O)c(O)c1
REMARK SMILES IDX 6 1 7 2 4 3 5 4 3 5 2 6 1 7 8 8 15 9 9 10 13 11 10 12 11 13
REMARK SMILES IDX 14 14 12 16
REMARK H PARENT 14 15 12 17
REMARK Flexibility Score: inf
ROOT
ATOM      1  C   UNL     1      12.006  10.232  10.886  1.00  0.00     0.094 C 
ATOM      2  C   UNL     1      12.048   9.067  10.224  1.00  0.00     0.016 C 
ENDROOT
BRANCH   1   3
ATOM      3  C   UNL     1      12.311  11.512  10.229  1.00  0.00     0.330 C 
ATOM      4  O   UNL     1      13.030  11.512   9.192  1.00  0.00    -0.247 OA
BRANCH   3   5
ATOM      5  O   UNL     1      11.807  12.713  10.744  1.00  0.00    -0.463 OA
BRANCH   5   6
ATOM      6  C   UNL     1      12.039  13.156  12.080  1.00  0.00     0.230 C 
ATOM      7  C   UNL     1      13.123  14.227  12.111  1.00  0.00     0.049 C 
ENDBRANCH   5   6
ENDBRANCH   3   5
ENDBRANCH   1   3
BRANCH   2   8
ATOM      8  C   UNL     1      11.758   7.753  10.849  1.00  0.00    -0.021 A 
ATOM      9  C   UNL     1      11.102   7.728  12.091  1.00  0.00     0.058 A 
ATOM     10  C   UNL     1      12.145   6.533  10.261  1.00  0.00     0.012 A 
ATOM     11  C   UNL     1      10.814   6.511  12.726  1.00  0.00     0.157 A 
ATOM     12  C   UNL     1      11.859   5.320  10.893  1.00  0.00     0.051 A 
ATOM     13  C   UNL     1      11.192   5.305  12.124  1.00  0.00     0.157 A 
BRANCH  11  14
ATOM     14  O   UNL     1      10.154   6.494  13.953  1.00  0.00    -0.504 OA
ATOM     15  H   UNL     1      10.537   6.007  14.754  1.00  0.00     0.293 HD
ENDBRANCH  11  14
BRANCH  13  16
ATOM     16  O   UNL     1      10.903   4.097  12.757  1.00  0.00    -0.504 OA
ATOM     17  H   UNL     1      11.635   3.511  13.140  1.00  0.00     0.293 HD
ENDBRANCH  13  16
ENDBRANCH   2   8
TORSDOF 6
ENDMDL
