MODEL 1
REMARK VINA RESULT:    -4.479      0.000      0.000
REMARK INTER + INTRA:          -5.179
REMARK INTER:                  -5.396
REMARK INTRA:                   0.217
REMARK UNBOUND:                 0.217
REMARK SMILES O=c1c(O)c(-c2ccc(O)c(O)c2)oc2cc(O)cc(O)c12
REMARK SMILES IDX 5 1 3 2 2 3 1 4 22 5 20 6 19 7 17 8 16 9 15 10 14 11 6 12
REMARK SMILES IDX 7 13 8 14 9 15 13 16 11 17 10 18 12 20 4 22 21 24 18 26
REMARK H PARENT 10 19 12 21 4 23 21 25 18 27
REMARK Flexibility Score: inf
ROOT
ATOM      1  C   UNL     1      16.761  23.010   4.473  1.00  0.00     0.180 A 
ATOM      2  C   UNL     1      16.577  21.640   4.730  1.00  0.00     0.208 A 
ATOM      3  C   UNL     1      16.565  21.192   6.061  1.00  0.00     0.238 A 
ATOM      4  O   UNL     1      16.346  19.974   6.286  1.00  0.00    -0.285 OA
ATOM      5  C   UNL     1      16.753  22.116   7.117  1.00  0.00     0.111 A 
ATOM      6  C   UNL     1      16.798  21.768   8.500  1.00  0.00     0.134 A 
ATOM      7  C   UNL     1      16.858  22.781   9.466  1.00  0.00     0.093 A 
ATOM      8  C   UNL     1      16.939  24.125   9.095  1.00  0.00     0.123 A 
ATOM      9  C   UNL     1      16.955  24.471   7.746  1.00  0.00     0.094 A 
ATOM     10  C   UNL     1      16.860  23.486   6.760  1.00  0.00     0.146 A 
ATOM     11  O   UNL     1      16.868  23.860   5.487  1.00  0.00    -0.452 OA
ENDROOT
BRANCH   1  12
ATOM     12  C   UNL     1      16.810  23.554   3.096  1.00  0.00     0.025 A 
ATOM     13  C   UNL     1      17.708  24.589   2.793  1.00  0.00     0.016 A 
ATOM     14  C   UNL     1      17.785  25.103   1.497  1.00  0.00     0.051 A 
ATOM     15  C   UNL     1      16.979  24.579   0.480  1.00  0.00     0.157 A 
ATOM     16  C   UNL     1      16.015  23.015   2.068  1.00  0.00     0.062 A 
ATOM     17  C   UNL     1      16.093  23.528   0.765  1.00  0.00     0.158 A 
BRANCH  15  18
ATOM     18  O   UNL     1      17.077  25.114  -0.805  1.00  0.00    -0.504 OA
ATOM     19  H   UNL     1      17.966  25.381  -1.209  1.00  0.00     0.293 HD
ENDBRANCH  15  18
BRANCH  17  20
ATOM     20  O   UNL     1      15.297  22.992  -0.248  1.00  0.00    -0.504 OA
ATOM     21  H   UNL     1      14.782  22.130  -0.117  1.00  0.00     0.293 HD
ENDBRANCH  17  20
ENDBRANCH   1  12
BRANCH   2  22
ATOM     22  O   UNL     1      16.372  20.748   3.674  1.00  0.00    -0.502 OA
ATOM     23  H   UNL     1      16.711  20.927   2.737  1.00  0.00     0.293 HD
ENDBRANCH   2  22
BRANCH   6  24
ATOM     24  O   UNL     1      16.816  20.452   8.973  1.00  0.00    -0.507 OA
ATOM     25  H   UNL     1      16.005  19.947   9.296  1.00  0.00     0.293 HD
ENDBRANCH   6  24
BRANCH   8  26
ATOM     26  O   UNL     1      17.014  25.125  10.062  1.00  0.00    -0.508 OA
ATOM     27  H   UNL     1      16.184  25.597  10.403  1.00  0.00     0.293 HD
ENDBRANCH   8  26
TORSDOF 6
ENDMDL
MODEL 2
REMARK VINA RESULT:    -3.668      1.440      3.181
REMARK INTER + INTRA:          -4.202
REMARK INTER:                  -4.403
REMARK INTRA:                   0.201
REMARK UNBOUND:                 0.217
REMARK SMILES O=c1c(O)c(-c2ccc(O)c(O)c2)oc2cc(O)cc(O)c12
REMARK SMILES IDX 5 1 3 2 2 3 1 4 22 5 20 6 19 7 17 8 16 9 15 10 14 11 6 12
REMARK SMILES IDX 7 13 8 14 9 15 13 16 11 17 10 18 12 20 4 22 21 24 18 26
REMARK H PARENT 10 19 12 21 4 23 21 25 18 27
REMARK Flexibility Score: inf
ROOT
ATOM      1  C   UNL     1      16.676  22.844   3.982  1.00  0.00     0.180 A 
ATOM      2  C   UNL     1      16.761  23.627   5.146  1.00  0.00     0.208 A 
ATOM      3  C   UNL     1      16.639  23.001   6.397  1.00  0.00     0.238 A 
ATOM      4  O   UNL     1      16.770  23.698   7.437  1.00  0.00    -0.285 OA
ATOM      5  C   UNL     1      16.419  21.604   6.468  1.00  0.00     0.111 A 
ATOM      6  C   UNL     1      16.241  20.872   7.680  1.00  0.00     0.134 A 
ATOM      7  C   UNL     1      16.161  19.474   7.638  1.00  0.00     0.093 A 
ATOM      8  C   UNL     1      16.186  18.789   6.421  1.00  0.00     0.123 A 
ATOM      9  C   UNL     1      16.300  19.499   5.229  1.00  0.00     0.094 A 
ATOM     10  C   UNL     1      16.418  20.891   5.241  1.00  0.00     0.146 A 
ATOM     11  O   UNL     1      16.535  21.528   4.082  1.00  0.00    -0.452 OA
ENDROOT
BRANCH   1  12
ATOM     12  C   UNL     1      16.770  23.435   2.626  1.00  0.00     0.025 A 
ATOM     13  C   UNL     1      17.700  24.458   2.381  1.00  0.00     0.016 A 
ATOM     14  C   UNL     1      17.820  25.014   1.106  1.00  0.00     0.051 A 
ATOM     15  C   UNL     1      17.025  24.548   0.053  1.00  0.00     0.157 A 
ATOM     16  C   UNL     1      15.987  22.952   1.562  1.00  0.00     0.062 A 
ATOM     17  C   UNL     1      16.108  23.509   0.280  1.00  0.00     0.158 A 
BRANCH  15  18
ATOM     18  O   UNL     1      17.166  25.125  -1.209  1.00  0.00    -0.504 OA
ATOM     19  H   UNL     1      17.845  25.851  -1.395  1.00  0.00     0.293 HD
ENDBRANCH  15  18
BRANCH  17  20
ATOM     20  O   UNL     1      15.323  23.030  -0.769  1.00  0.00    -0.504 OA
ATOM     21  H   UNL     1      14.424  23.441  -0.990  1.00  0.00     0.293 HD
ENDBRANCH  17  20
ENDBRANCH   1  12
BRANCH   2  22
ATOM     22  O   UNL     1      17.000  25.000   5.054  1.00  0.00    -0.502 OA
ATOM     23  H   UNL     1      16.627  25.664   5.722  1.00  0.00     0.293 HD
ENDBRANCH   2  22
BRANCH   6  24
ATOM     24  O   UNL     1      16.111  21.468   8.939  1.00  0.00    -0.507 OA
ATOM     25  H   UNL     1      16.873  21.628   9.580  1.00  0.00     0.293 HD
ENDBRANCH   6  24
BRANCH   8  26
ATOM     26  O   UNL     1      16.089  17.399   6.387  1.00  0.00    -0.508 OA
ATOM     27  H   UNL     1      15.277  16.933   6.000  1.00  0.00     0.293 HD
ENDBRANCH   8  26
TORSDOF 6
ENDMDL
MODEL 3
REMARK VINA RESULT:    -2.537      1.663      3.484
REMARK INTER + INTRA:          -2.839
REMARK INTER:                  -2.616
REMARK INTRA:                  -0.223
REMARK UNBOUND:                 0.217
REMARK SMILES O=c1c(O)c(-c2ccc(O)c(O)c2)oc2cc(O)cc(O)c12
REMARK SMILES IDX 5 1 3 2 2 3 1 4 22 5 20 6 19 7 17 8 16 9 15 10 14 11 6 12
REMARK SMILES IDX 7 13 8 14 9 15 13 16 11 17 10 18 12 20 4 22 21 24 18 26
REMARK H PARENT 10 19 12 21 4 23 21 25 18 27
REMARK Flexibility Score: inf
ROOT
ATOM      1  C   UNL     1      16.454  22.844   3.793  1.00  0.00     0.180 A 
ATOM      2  C   UNL     1      16.540  23.643   4.947  1.00  0.00     0.208 A 
ATOM      3  C   UNL     1      16.510  23.024   6.207  1.00  0.00     0.238 A 
ATOM      4  O   UNL     1      16.642  23.740   7.234  1.00  0.00    -0.285 OA
ATOM      5  C   UNL     1      16.379  21.618   6.298  1.00  0.00     0.111 A 
ATOM      6  C   UNL     1      16.299  20.889   7.523  1.00  0.00     0.134 A 
ATOM      7  C   UNL     1      16.303  19.489   7.496  1.00  0.00     0.093 A 
ATOM      8  C   UNL     1      16.319  18.793   6.284  1.00  0.00     0.123 A 
ATOM      9  C   UNL     1      16.338  19.496   5.082  1.00  0.00     0.094 A 
ATOM     10  C   UNL     1      16.371  20.893   5.078  1.00  0.00     0.146 A 
ATOM     11  O   UNL     1      16.399  21.523   3.910  1.00  0.00    -0.452 OA
ENDROOT
BRANCH   1  12
ATOM     12  C   UNL     1      16.454  23.425   2.430  1.00  0.00     0.025 A 
ATOM     13  C   UNL     1      15.260  23.460   1.694  1.00  0.00     0.016 A 
ATOM     14  C   UNL     1      15.232  24.022   0.416  1.00  0.00     0.051 A 
ATOM     15  C   UNL     1      16.392  24.573  -0.140  1.00  0.00     0.157 A 
ATOM     16  C   UNL     1      17.615  23.998   1.879  1.00  0.00     0.062 A 
ATOM     17  C   UNL     1      17.588  24.565   0.596  1.00  0.00     0.158 A 
BRANCH  15  18
ATOM     18  O   UNL     1      16.335  25.125  -1.419  1.00  0.00    -0.504 OA
ATOM     19  H   UNL     1      17.007  25.811  -1.739  1.00  0.00     0.293 HD
ENDBRANCH  15  18
BRANCH  17  20
ATOM     20  O   UNL     1      18.745  25.125   0.054  1.00  0.00    -0.504 OA
ATOM     21  H   UNL     1      18.775  25.458  -0.902  1.00  0.00     0.293 HD
ENDBRANCH  17  20
ENDBRANCH   1  12
BRANCH   2  22
ATOM     22  O   UNL     1      16.690  25.028   4.833  1.00  0.00    -0.502 OA
ATOM     23  H   UNL     1      16.876  25.623   5.632  1.00  0.00     0.293 HD
ENDBRANCH   2  22
BRANCH   6  24
ATOM     24  O   UNL     1      16.186  21.489   8.781  1.00  0.00    -0.507 OA
ATOM     25  H   UNL     1      15.343  21.509   9.334  1.00  0.00     0.293 HD
ENDBRANCH   6  24
BRANCH   8  26
ATOM     26  O   UNL     1      16.306  17.400   6.266  1.00  0.00    -0.508 OA
ATOM     27  H   UNL     1      17.062  16.857   6.668  1.00  0.00     0.293 HD
ENDBRANCH   8  26
TORSDOF 6
ENDMDL
MODEL 4
REMARK VINA RESULT:    -2.069      1.615      7.308
REMARK INTER + INTRA:          -2.276
REMARK INTER:                  -2.204
REMARK INTRA:                  -0.072
REMARK UNBOUND:                 0.217
REMARK SMILES O=c1c(O)c(-c2ccc(O)c(O)c2)oc2cc(O)cc(O)c12
REMARK SMILES IDX 5 1 3 2 2 3 1 4 22 5 20 6 19 7 17 8 16 9 15 10 14 11 6 12
REMARK SMILES IDX 7 13 8 14 9 15 13 16 11 17 10 18 12 20 4 22 21 24 18 26
REMARK H PARENT 10 19 12 21 4 23 21 25 18 27
REMARK Flexibility Score: inf
ROOT
ATOM      1  C   UNL     1      16.828  22.888   4.036  1.00  0.00     0.180 A 
ATOM      2  C   UNL     1      17.922  23.764   3.935  1.00  0.00     0.208 A 
ATOM      3  C   UNL     1      18.252  24.299   2.679  1.00  0.00     0.238 A 
ATOM      4  O   UNL     1      19.199  25.125   2.604  1.00  0.00    -0.285 OA
ATOM      5  C   UNL     1      17.494  23.940   1.539  1.00  0.00     0.111 A 
ATOM      6  C   UNL     1      17.762  24.390   0.212  1.00  0.00     0.134 A 
ATOM      7  C   UNL     1      16.868  24.075  -0.820  1.00  0.00     0.093 A 
ATOM      8  C   UNL     1      15.751  23.272  -0.582  1.00  0.00     0.123 A 
ATOM      9  C   UNL     1      15.512  22.778   0.698  1.00  0.00     0.094 A 
ATOM     10  C   UNL     1      16.366  23.105   1.754  1.00  0.00     0.146 A 
ATOM     11  O   UNL     1      16.096  22.622   2.961  1.00  0.00    -0.452 OA
ENDROOT
BRANCH   1  12
ATOM     12  C   UNL     1      16.434  22.264   5.321  1.00  0.00     0.025 A 
ATOM     13  C   UNL     1      16.434  20.866   5.439  1.00  0.00     0.016 A 
ATOM     14  C   UNL     1      16.086  20.257   6.647  1.00  0.00     0.051 A 
ATOM     15  C   UNL     1      15.750  21.036   7.760  1.00  0.00     0.157 A 
ATOM     16  C   UNL     1      16.115  23.046   6.446  1.00  0.00     0.062 A 
ATOM     17  C   UNL     1      15.768  22.437   7.661  1.00  0.00     0.158 A 
BRANCH  15  18
ATOM     18  O   UNL     1      15.405  20.400   8.952  1.00  0.00    -0.504 OA
ATOM     19  H   UNL     1      15.729  19.468   9.178  1.00  0.00     0.293 HD
ENDBRANCH  15  18
BRANCH  17  20
ATOM     20  O   UNL     1      15.448  23.219   8.771  1.00  0.00    -0.504 OA
ATOM     21  H   UNL     1      15.983  24.045   9.009  1.00  0.00     0.293 HD
ENDBRANCH  17  20
ENDBRANCH   1  12
BRANCH   2  22
ATOM     22  O   UNL     1      18.644  24.123   5.076  1.00  0.00    -0.502 OA
ATOM     23  H   UNL     1      19.546  23.719   5.299  1.00  0.00     0.293 HD
ENDBRANCH   2  22
BRANCH   6  24
ATOM     24  O   UNL     1      18.899  25.121  -0.149  1.00  0.00    -0.507 OA
ATOM     25  H   UNL     1      19.241  25.223  -1.091  1.00  0.00     0.293 HD
ENDBRANCH   6  24
BRANCH   8  26
ATOM     26  O   UNL     1      14.875  22.950  -1.617  1.00  0.00    -0.508 OA
ATOM     27  H   UNL     1      13.996  22.477  -1.441  1.00  0.00     0.293 HD
ENDBRANCH   8  26
TORSDOF 6
ENDMDL
MODEL 5
REMARK VINA RESULT:    -2.010      1.817      7.237
REMARK INTER + INTRA:          -2.204
REMARK INTER:                  -2.205
REMARK INTRA:                   0.001
REMARK UNBOUND:                 0.217
REMARK SMILES O=c1c(O)c(-c2ccc(O)c(O)c2)oc2cc(O)cc(O)c12
REMARK SMILES IDX 5 1 3 2 2 3 1 4 22 5 20 6 19 7 17 8 16 9 15 10 14 11 6 12
REMARK SMILES IDX 7 13 8 14 9 15 13 16 11 17 10 18 12 20 4 22 21 24 18 26
REMARK H PARENT 10 19 12 21 4 23 21 25 18 27
REMARK Flexibility Score: inf
ROOT
ATOM      1  C   UNL     1      16.777  22.640   4.067  1.00  0.00     0.180 A 
ATOM      2  C   UNL     1      17.778  23.625   3.986  1.00  0.00     0.208 A 
ATOM      3  C   UNL     1      18.061  24.206   2.740  1.00  0.00     0.238 A 
ATOM      4  O   UNL     1      18.919  25.125   2.683  1.00  0.00    -0.285 OA
ATOM      5  C   UNL     1      17.353  23.786   1.588  1.00  0.00     0.111 A 
ATOM      6  C   UNL     1      17.585  24.278   0.269  1.00  0.00     0.134 A 
ATOM      7  C   UNL     1      16.736  23.887  -0.774  1.00  0.00     0.093 A 
ATOM      8  C   UNL     1      15.705  22.970  -0.557  1.00  0.00     0.123 A 
ATOM      9  C   UNL     1      15.507  22.439   0.715  1.00  0.00     0.094 A 
ATOM     10  C   UNL     1      16.315  22.838   1.783  1.00  0.00     0.146 A 
ATOM     11  O   UNL     1      16.086  22.314   2.981  1.00  0.00    -0.452 OA
ENDROOT
BRANCH   1  12
ATOM     12  C   UNL     1      16.439  21.963   5.340  1.00  0.00     0.025 A 
ATOM     13  C   UNL     1      16.109  22.734   6.466  1.00  0.00     0.016 A 
ATOM     14  C   UNL     1      15.766  22.117   7.671  1.00  0.00     0.051 A 
ATOM     15  C   UNL     1      15.732  20.721   7.766  1.00  0.00     0.157 A 
ATOM     16  C   UNL     1      16.383  20.561   5.431  1.00  0.00     0.062 A 
ATOM     17  C   UNL     1      16.037  19.939   6.640  1.00  0.00     0.158 A 
BRANCH  15  18
ATOM     18  O   UNL     1      15.388  20.133   8.983  1.00  0.00    -0.504 OA
ATOM     19  H   UNL     1      15.563  19.154   9.174  1.00  0.00     0.293 HD
ENDBRANCH  15  18
BRANCH  17  20
ATOM     20  O   UNL     1      15.991  18.548   6.724  1.00  0.00    -0.504 OA
ATOM     21  H   UNL     1      15.973  17.966   5.894  1.00  0.00     0.293 HD
ENDBRANCH  17  20
ENDBRANCH   1  12
BRANCH   2  22
ATOM     22  O   UNL     1      18.450  24.040   5.139  1.00  0.00    -0.502 OA
ATOM     23  H   UNL     1      19.459  24.015   5.220  1.00  0.00     0.293 HD
ENDBRANCH   2  22
BRANCH   6  24
ATOM     24  O   UNL     1      18.645  25.125  -0.072  1.00  0.00    -0.507 OA
ATOM     25  H   UNL     1      18.628  26.129   0.015  1.00  0.00     0.293 HD
ENDBRANCH   6  24
BRANCH   8  26
ATOM     26  O   UNL     1      14.875  22.574  -1.604  1.00  0.00    -0.508 OA
ATOM     27  H   UNL     1      14.007  23.057  -1.805  1.00  0.00     0.293 HD
ENDBRANCH   8  26
TORSDOF 6
ENDMDL
MODEL 6
REMARK VINA RESULT:    -1.944      1.220      6.640
REMARK INTER + INTRA:          -2.125
REMARK INTER:                  -2.600
REMARK INTRA:                   0.475
REMARK UNBOUND:                 0.217
REMARK SMILES O=c1c(O)c(-c2ccc(O)c(O)c2)oc2cc(O)cc(O)c12
REMARK SMILES IDX 5 1 3 2 2 3 1 4 22 5 20 6 19 7 17 8 16 9 15 10 14 11 6 12
REMARK SMILES IDX 7 13 8 14 9 15 13 16 11 17 10 18 12 20 4 22 21 24 18 26
REMARK H PARENT 10 19 12 21 4 23 21 25 18 27
REMARK Flexibility Score: inf
ROOT
ATOM      1  C   UNL     1      16.711  22.696   4.927  1.00  0.00     0.180 A 
ATOM      2  C   UNL     1      16.395  21.356   4.643  1.00  0.00     0.208 A 
ATOM      3  C   UNL     1      16.007  21.011   3.339  1.00  0.00     0.238 A 
ATOM      4  O   UNL     1      15.777  19.801   3.078  1.00  0.00    -0.285 OA
ATOM      5  C   UNL     1      15.924  22.010   2.340  1.00  0.00     0.111 A 
ATOM      6  C   UNL     1      15.505  21.780   0.996  1.00  0.00     0.134 A 
ATOM      7  C   UNL     1      15.587  22.818   0.058  1.00  0.00     0.093 A 
ATOM      8  C   UNL     1      16.012  24.094   0.434  1.00  0.00     0.123 A 
ATOM      9  C   UNL     1      16.368  24.344   1.757  1.00  0.00     0.094 A 
ATOM     10  C   UNL     1      16.331  23.320   2.706  1.00  0.00     0.146 A 
ATOM     11  O   UNL     1      16.688  23.599   3.954  1.00  0.00    -0.452 OA
ENDROOT
BRANCH   1  12
ATOM     12  C   UNL     1      17.104  23.142   6.284  1.00  0.00     0.025 A 
ATOM     13  C   UNL     1      17.302  24.510   6.533  1.00  0.00     0.016 A 
ATOM     14  C   UNL     1      17.652  24.954   7.809  1.00  0.00     0.051 A 
ATOM     15  C   UNL     1      17.795  24.042   8.861  1.00  0.00     0.157 A 
ATOM     16  C   UNL     1      17.228  22.229   7.347  1.00  0.00     0.062 A 
ATOM     17  C   UNL     1      17.579  22.674   8.631  1.00  0.00     0.158 A 
BRANCH  15  18
ATOM     18  O   UNL     1      18.149  24.515  10.125  1.00  0.00    -0.504 OA
ATOM     19  H   UNL     1      19.102  24.481  10.464  1.00  0.00     0.293 HD
ENDBRANCH  15  18
BRANCH  17  20
ATOM     20  O   UNL     1      17.706  21.762   9.678  1.00  0.00    -0.504 OA
ATOM     21  H   UNL     1      18.161  20.866   9.549  1.00  0.00     0.293 HD
ENDBRANCH  17  20
ENDBRANCH   1  12
BRANCH   2  22
ATOM     22  O   UNL     1      16.503  20.382   5.639  1.00  0.00    -0.502 OA
ATOM     23  H   UNL     1      15.737  19.767   5.885  1.00  0.00     0.293 HD
ENDBRANCH   2  22
BRANCH   6  24
ATOM     24  O   UNL     1      14.977  20.568   0.540  1.00  0.00    -0.507 OA
ATOM     25  H   UNL     1      14.055  20.224   0.760  1.00  0.00     0.293 HD
ENDBRANCH   6  24
BRANCH   8  26
ATOM     26  O   UNL     1      16.076  25.125  -0.501  1.00  0.00    -0.508 OA
ATOM     27  H   UNL     1      15.962  26.095  -0.231  1.00  0.00     0.293 HD
ENDBRANCH   8  26
TORSDOF 6
ENDMDL
