MODEL 1
REMARK VINA RESULT:     1.112      0.000      0.000
REMARK INTER + INTRA:           1.149
REMARK INTER:                   2.022
REMARK INTRA:                  -0.873
REMARK UNBOUND:                -0.873
REMARK SMILES CCCCCCCCCCCCCCCC(=O)[O-]
REMARK SMILES IDX 9 1 10 2 11 3 12 4 13 5 14 6 15 7 16 8 17 9 18 10 8 11 7 12
REMARK SMILES IDX 6 13 5 14 4 15 3 16 2 17 1 18
REMARK H PARENT
REMARK Flexibility Score: inf
ROOT
ATOM      1  C   UNL     1      17.636   1.305  25.357  1.00  0.00     0.000 C 
ENDROOT
BRANCH   1   2
ATOM      2  C   UNL     1      17.167   2.722  24.995  1.00  0.00     0.000 C 
BRANCH   2   3
ATOM      3  C   UNL     1      16.475   3.443  26.166  1.00  0.00     0.000 C 
BRANCH   3   4
ATOM      4  C   UNL     1      14.949   3.598  26.034  1.00  0.00     0.000 C 
BRANCH   4   5
ATOM      5  C   UNL     1      14.260   2.322  25.519  1.00  0.00     0.000 C 
BRANCH   5   6
ATOM      6  C   UNL     1      13.332   2.591  24.319  1.00  0.00     0.006 C 
BRANCH   6   7
ATOM      7  C   UNL     1      13.950   3.471  23.221  1.00  0.00     0.053 C 
BRANCH   7   8
ATOM      8  C   UNL     1      13.026   4.570  22.795  1.00  0.00     0.041 C 
ATOM      9  O   UNL     1      11.915   4.296  22.270  1.00  0.00    -0.550 OA
ATOM     10  O   UNL     1      13.406   5.898  22.947  1.00  0.00    -0.550 OA
ENDBRANCH   7   8
ENDBRANCH   6   7
ENDBRANCH   5   6
ENDBRANCH   4   5
ENDBRANCH   3   4
ENDBRANCH   2   3
ENDBRANCH   1   2
BRANCH   1  11
ATOM     11  C   UNL     1      18.974   0.980  24.679  1.00  0.00     0.000 C 
BRANCH  11  12
ATOM     12  C   UNL     1      20.138   1.106  25.669  1.00  0.00    -0.000 C 
BRANCH  12  13
ATOM     13  C   UNL     1      19.691   1.824  26.951  1.00  0.00    -0.000 C 
BRANCH  13  14
ATOM     14  C   UNL     1      19.601   0.878  28.161  1.00  0.00    -0.000 C 
BRANCH  14  15
ATOM     15  C   UNL     1      19.515   1.636  29.498  1.00  0.00    -0.000 C 
BRANCH  15  16
ATOM     16  C   UNL     1      19.104   3.106  29.316  1.00  0.00    -0.000 C 
BRANCH  16  17
ATOM     17  C   UNL     1      18.846   3.818  30.653  1.00  0.00    -0.003 C 
ATOM     18  C   UNL     1      17.443   4.418  30.693  1.00  0.00     0.004 C 
ENDBRANCH  16  17
ENDBRANCH  15  16
ENDBRANCH  14  15
ENDBRANCH  13  14
ENDBRANCH  12  13
ENDBRANCH  11  12
ENDBRANCH   1  11
TORSDOF 14
ENDMDL
MODEL 2
REMARK VINA RESULT:     1.442      0.768      1.611
REMARK INTER + INTRA:           1.750
REMARK INTER:                   2.757
REMARK INTRA:                  -1.007
REMARK UNBOUND:                -0.873
REMARK SMILES CCCCCCCCCCCCCCCC(=O)[O-]
REMARK SMILES IDX 9 1 10 2 11 3 12 4 13 5 14 6 15 7 16 8 17 9 18 10 8 11 7 12
REMARK SMILES IDX 6 13 5 14 4 15 3 16 2 17 1 18
REMARK H PARENT
REMARK Flexibility Score: inf
ROOT
ATOM      1  C   UNL     1      19.120   1.036  24.628  1.00  0.00     0.000 C 
ENDROOT
BRANCH   1   2
ATOM      2  C   UNL     1      17.723   1.290  25.214  1.00  0.00     0.000 C 
BRANCH   2   3
ATOM      3  C   UNL     1      17.209   2.717  24.948  1.00  0.00     0.000 C 
BRANCH   3   4
ATOM      4  C   UNL     1      16.538   3.407  26.148  1.00  0.00     0.000 C 
BRANCH   4   5
ATOM      5  C   UNL     1      15.022   3.598  25.959  1.00  0.00     0.000 C 
BRANCH   5   6
ATOM      6  C   UNL     1      14.330   2.339  25.402  1.00  0.00     0.006 C 
BRANCH   6   7
ATOM      7  C   UNL     1      13.103   2.625  24.522  1.00  0.00     0.053 C 
BRANCH   7   8
ATOM      8  C   UNL     1      13.459   3.417  23.301  1.00  0.00     0.041 C 
ATOM      9  O   UNL     1      14.157   2.898  22.390  1.00  0.00    -0.550 OA
ATOM     10  O   UNL     1      13.048   4.739  23.185  1.00  0.00    -0.550 OA
ENDBRANCH   7   8
ENDBRANCH   6   7
ENDBRANCH   5   6
ENDBRANCH   4   5
ENDBRANCH   3   4
ENDBRANCH   2   3
ENDBRANCH   1   2
BRANCH   1  11
ATOM     11  C   UNL     1      20.190   1.062  25.727  1.00  0.00     0.000 C 
BRANCH  11  12
ATOM     12  C   UNL     1      19.701   1.843  26.952  1.00  0.00    -0.000 C 
BRANCH  12  13
ATOM     13  C   UNL     1      19.532   0.912  28.163  1.00  0.00    -0.000 C 
BRANCH  13  14
ATOM     14  C   UNL     1      19.485   1.675  29.497  1.00  0.00    -0.000 C 
BRANCH  14  15
ATOM     15  C   UNL     1      19.051   3.141  29.324  1.00  0.00    -0.000 C 
BRANCH  15  16
ATOM     16  C   UNL     1      18.965   3.892  30.663  1.00  0.00    -0.000 C 
BRANCH  16  17
ATOM     17  C   UNL     1      17.541   4.373  30.982  1.00  0.00    -0.003 C 
ATOM     18  C   UNL     1      16.750   4.633  29.703  1.00  0.00     0.004 C 
ENDBRANCH  16  17
ENDBRANCH  15  16
ENDBRANCH  14  15
ENDBRANCH  13  14
ENDBRANCH  12  13
ENDBRANCH  11  12
ENDBRANCH   1  11
TORSDOF 14
ENDMDL
MODEL 3
REMARK VINA RESULT:     1.461      3.277      7.144
REMARK INTER + INTRA:           1.785
REMARK INTER:                   2.886
REMARK INTRA:                  -1.102
REMARK UNBOUND:                -0.873
REMARK SMILES CCCCCCCCCCCCCCCC(=O)[O-]
REMARK SMILES IDX 9 1 10 2 11 3 12 4 13 5 14 6 15 7 16 8 17 9 18 10 8 11 7 12
REMARK SMILES IDX 6 13 5 14 4 15 3 16 2 17 1 18
REMARK H PARENT
REMARK Flexibility Score: inf
ROOT
ATOM      1  C   UNL     1      17.813   1.338  25.377  1.00  0.00     0.000 C 
ENDROOT
BRANCH   1   2
ATOM      2  C   UNL     1      19.082   1.029  24.569  1.00  0.00     0.000 C 
BRANCH   2   3
ATOM      3  C   UNL     1      20.336   0.883  25.450  1.00  0.00     0.000 C 
BRANCH   3   4
ATOM      4  C   UNL     1      20.299   1.659  26.779  1.00  0.00     0.000 C 
BRANCH   4   5
ATOM      5  C   UNL     1      19.671   0.850  27.928  1.00  0.00     0.000 C 
BRANCH   5   6
ATOM      6  C   UNL     1      19.542   1.666  29.228  1.00  0.00     0.006 C 
BRANCH   6   7
ATOM      7  C   UNL     1      18.788   2.997  29.071  1.00  0.00     0.053 C 
BRANCH   7   8
ATOM      8  C   UNL     1      18.691   3.745  30.365  1.00  0.00     0.041 C 
ATOM      9  O   UNL     1      19.618   3.664  31.215  1.00  0.00    -0.550 OA
ATOM     10  O   UNL     1      17.563   4.506  30.648  1.00  0.00    -0.550 OA
ENDBRANCH   7   8
ENDBRANCH   6   7
ENDBRANCH   5   6
ENDBRANCH   4   5
ENDBRANCH   3   4
ENDBRANCH   2   3
ENDBRANCH   1   2
BRANCH   1  11
ATOM     11  C   UNL     1      17.226   2.698  24.980  1.00  0.00     0.000 C 
BRANCH  11  12
ATOM     12  C   UNL     1      16.549   3.376  26.176  1.00  0.00    -0.000 C 
BRANCH  12  13
ATOM     13  C   UNL     1      15.076   3.685  25.870  1.00  0.00    -0.000 C 
BRANCH  13  14
ATOM     14  C   UNL     1      14.212   2.417  25.768  1.00  0.00    -0.000 C 
BRANCH  14  15
ATOM     15  C   UNL     1      13.275   2.437  24.547  1.00  0.00    -0.000 C 
BRANCH  15  16
ATOM     16  C   UNL     1      13.844   3.263  23.381  1.00  0.00    -0.000 C 
BRANCH  16  17
ATOM     17  C   UNL     1      12.823   4.253  22.802  1.00  0.00    -0.003 C 
ATOM     18  C   UNL     1      13.252   5.696  23.057  1.00  0.00     0.004 C 
ENDBRANCH  16  17
ENDBRANCH  15  16
ENDBRANCH  14  15
ENDBRANCH  13  14
ENDBRANCH  12  13
ENDBRANCH  11  12
ENDBRANCH   1  11
TORSDOF 14
ENDMDL
MODEL 4
REMARK VINA RESULT:     2.403      0.970      1.380
REMARK INTER + INTRA:           3.497
REMARK INTER:                   4.454
REMARK INTRA:                  -0.957
REMARK UNBOUND:                -0.873
REMARK SMILES CCCCCCCCCCCCCCCC(=O)[O-]
REMARK SMILES IDX 9 1 10 2 11 3 12 4 13 5 14 6 15 7 16 8 17 9 18 10 8 11 7 12
REMARK SMILES IDX 6 13 5 14 4 15 3 16 2 17 1 18
REMARK H PARENT
REMARK Flexibility Score: inf
ROOT
ATOM      1  C   UNL     1      17.303   2.433  24.988  1.00  0.00     0.000 C 
ENDROOT
BRANCH   1   2
ATOM      2  C   UNL     1      16.548   3.171  26.104  1.00  0.00     0.000 C 
BRANCH   2   3
ATOM      3  C   UNL     1      15.094   3.509  25.724  1.00  0.00     0.000 C 
BRANCH   3   4
ATOM      4  C   UNL     1      14.170   2.295  25.519  1.00  0.00     0.000 C 
BRANCH   4   5
ATOM      5  C   UNL     1      13.140   2.509  24.396  1.00  0.00     0.000 C 
BRANCH   5   6
ATOM      6  C   UNL     1      13.707   3.321  23.216  1.00  0.00     0.006 C 
BRANCH   6   7
ATOM      7  C   UNL     1      12.765   4.413  22.685  1.00  0.00     0.053 C 
BRANCH   7   8
ATOM      8  C   UNL     1      13.218   5.786  23.077  1.00  0.00     0.041 C 
ATOM      9  O   UNL     1      13.806   6.522  22.241  1.00  0.00    -0.550 OA
ATOM     10  O   UNL     1      13.022   6.241  24.375  1.00  0.00    -0.550 OA
ENDBRANCH   7   8
ENDBRANCH   6   7
ENDBRANCH   5   6
ENDBRANCH   4   5
ENDBRANCH   3   4
ENDBRANCH   2   3
ENDBRANCH   1   2
BRANCH   1  11
ATOM     11  C   UNL     1      18.810   2.399  25.275  1.00  0.00     0.000 C 
BRANCH  11  12
ATOM     12  C   UNL     1      19.262   0.989  25.672  1.00  0.00    -0.000 C 
BRANCH  12  13
ATOM     13  C   UNL     1      20.213   1.037  26.878  1.00  0.00    -0.000 C 
BRANCH  13  14
ATOM     14  C   UNL     1      19.468   1.061  28.222  1.00  0.00    -0.000 C 
BRANCH  14  15
ATOM     15  C   UNL     1      19.119   2.489  28.678  1.00  0.00    -0.000 C 
BRANCH  15  16
ATOM     16  C   UNL     1      19.389   2.712  30.175  1.00  0.00    -0.000 C 
BRANCH  16  17
ATOM     17  C   UNL     1      18.990   4.119  30.646  1.00  0.00    -0.003 C 
ATOM     18  C   UNL     1      17.473   4.291  30.638  1.00  0.00     0.004 C 
ENDBRANCH  16  17
ENDBRANCH  15  16
ENDBRANCH  14  15
ENDBRANCH  13  14
ENDBRANCH  12  13
ENDBRANCH  11  12
ENDBRANCH   1  11
TORSDOF 14
ENDMDL
MODEL 5
REMARK VINA RESULT:     3.783      3.241      6.916
REMARK INTER + INTRA:           6.007
REMARK INTER:                   7.506
REMARK INTRA:                  -1.499
REMARK UNBOUND:                -0.873
REMARK SMILES CCCCCCCCCCCCCCCC(=O)[O-]
REMARK SMILES IDX 9 1 10 2 11 3 12 4 13 5 14 6 15 7 16 8 17 9 18 10 8 11 7 12
REMARK SMILES IDX 6 13 5 14 4 15 3 16 2 17 1 18
REMARK H PARENT
REMARK Flexibility Score: inf
ROOT
ATOM      1  C   UNL     1      16.286   4.670  29.902  1.00  0.00     0.000 C 
ENDROOT
BRANCH   1   2
ATOM      2  C   UNL     1      17.568   4.188  30.596  1.00  0.00     0.000 C 
BRANCH   2   3
ATOM      3  C   UNL     1      18.687   3.822  29.603  1.00  0.00     0.000 C 
BRANCH   3   4
ATOM      4  C   UNL     1      19.412   2.495  29.890  1.00  0.00     0.000 C 
BRANCH   4   5
ATOM      5  C   UNL     1      19.457   1.559  28.670  1.00  0.00     0.000 C 
BRANCH   5   6
ATOM      6  C   UNL     1      18.806   2.182  27.420  1.00  0.00     0.006 C 
BRANCH   6   7
ATOM      7  C   UNL     1      18.907   1.318  26.152  1.00  0.00     0.053 C 
BRANCH   7   8
ATOM      8  C   UNL     1      20.307   1.261  25.621  1.00  0.00     0.041 C 
ATOM      9  O   UNL     1      20.877   0.150  25.456  1.00  0.00    -0.550 OA
ATOM     10  O   UNL     1      20.993   2.436  25.340  1.00  0.00    -0.550 OA
ENDBRANCH   7   8
ENDBRANCH   6   7
ENDBRANCH   5   6
ENDBRANCH   4   5
ENDBRANCH   3   4
ENDBRANCH   2   3
ENDBRANCH   1   2
BRANCH   1  11
ATOM     11  C   UNL     1      16.537   4.948  28.415  1.00  0.00     0.000 C 
BRANCH  11  12
ATOM     12  C   UNL     1      15.628   4.085  27.532  1.00  0.00    -0.000 C 
BRANCH  12  13
ATOM     13  C   UNL     1      16.176   4.000  26.099  1.00  0.00    -0.000 C 
BRANCH  13  14
ATOM     14  C   UNL     1      15.662   2.766  25.339  1.00  0.00    -0.000 C 
BRANCH  14  15
ATOM     15  C   UNL     1      14.234   2.369  25.753  1.00  0.00    -0.000 C 
BRANCH  15  16
ATOM     16  C   UNL     1      13.215   2.568  24.620  1.00  0.00    -0.000 C 
BRANCH  16  17
ATOM     17  C   UNL     1      13.836   3.213  23.371  1.00  0.00    -0.003 C 
ATOM     18  C   UNL     1      13.045   4.445  22.939  1.00  0.00     0.004 C 
ENDBRANCH  16  17
ENDBRANCH  15  16
ENDBRANCH  14  15
ENDBRANCH  13  14
ENDBRANCH  12  13
ENDBRANCH  11  12
ENDBRANCH   1  11
TORSDOF 14
ENDMDL
MODEL 6
REMARK VINA RESULT:     3.906      1.244      2.589
REMARK INTER + INTRA:           6.231
REMARK INTER:                   6.486
REMARK INTRA:                  -0.256
REMARK UNBOUND:                -0.873
REMARK SMILES CCCCCCCCCCCCCCCC(=O)[O-]
REMARK SMILES IDX 9 1 10 2 11 3 12 4 13 5 14 6 15 7 16 8 17 9 18 10 8 11 7 12
REMARK SMILES IDX 6 13 5 14 4 15 3 16 2 17 1 18
REMARK H PARENT
REMARK Flexibility Score: inf
ROOT
ATOM      1  C   UNL     1      20.368   0.930  26.553  1.00  0.00     0.000 C 
ENDROOT
BRANCH   1   2
ATOM      2  C   UNL     1      19.611   1.578  25.384  1.00  0.00     0.000 C 
BRANCH   2   3
ATOM      3  C   UNL     1      18.443   2.469  25.845  1.00  0.00     0.000 C 
BRANCH   3   4
ATOM      4  C   UNL     1      17.201   2.446  24.936  1.00  0.00     0.000 C 
BRANCH   4   5
ATOM      5  C   UNL     1      15.885   2.320  25.722  1.00  0.00     0.000 C 
BRANCH   5   6
ATOM      6  C   UNL     1      14.841   3.374  25.307  1.00  0.00     0.006 C 
BRANCH   6   7
ATOM      7  C   UNL     1      13.619   2.803  24.569  1.00  0.00     0.053 C 
BRANCH   7   8
ATOM      8  C   UNL     1      13.429   3.435  23.224  1.00  0.00     0.041 C 
ATOM      9  O   UNL     1      13.607   2.759  22.176  1.00  0.00    -0.550 OA
ATOM     10  O   UNL     1      13.088   4.778  23.127  1.00  0.00    -0.550 OA
ENDBRANCH   7   8
ENDBRANCH   6   7
ENDBRANCH   5   6
ENDBRANCH   4   5
ENDBRANCH   3   4
ENDBRANCH   2   3
ENDBRANCH   1   2
BRANCH   1  11
ATOM     11  C   UNL     1      19.434   0.686  27.745  1.00  0.00     0.000 C 
BRANCH  11  12
ATOM     12  C   UNL     1      19.071   2.004  28.439  1.00  0.00    -0.000 C 
BRANCH  12  13
ATOM     13  C   UNL     1      19.781   2.122  29.796  1.00  0.00    -0.000 C 
BRANCH  13  14
ATOM     14  C   UNL     1      19.226   3.268  30.660  1.00  0.00    -0.000 C 
BRANCH  14  15
ATOM     15  C   UNL     1      18.270   4.187  29.878  1.00  0.00    -0.000 C 
BRANCH  15  16
ATOM     16  C   UNL     1      17.088   4.672  30.733  1.00  0.00    -0.000 C 
BRANCH  16  17
ATOM     17  C   UNL     1      15.767   4.708  29.951  1.00  0.00    -0.003 C 
ATOM     18  C   UNL     1      16.002   5.095  28.493  1.00  0.00     0.004 C 
ENDBRANCH  16  17
ENDBRANCH  15  16
ENDBRANCH  14  15
ENDBRANCH  13  14
ENDBRANCH  12  13
ENDBRANCH  11  12
ENDBRANCH   1  11
TORSDOF 14
ENDMDL
