MODEL 1
REMARK VINA RESULT:    -4.733      0.000      0.000
REMARK INTER + INTRA:         -11.220
REMARK INTER:                  -9.160
REMARK INTRA:                  -2.059
REMARK UNBOUND:                -2.059
REMARK SMILES CCCCCCCCCCCCCCCCCC(=O)[O-]
REMARK SMILES IDX 10 1 11 2 12 3 13 4 14 5 15 6 16 7 17 8 18 9 19 10 20 11
REMARK SMILES IDX 9 12 8 13 7 14 6 15 5 16 4 17 3 18 2 19 1 20
REMARK H PARENT
REMARK Flexibility Score: inf
ROOT
ATOM      1  C   UNL     1      57.129   0.902  29.056  1.00  0.00     0.000 C 
ENDROOT
BRANCH   1   2
ATOM      2  C   UNL     1      57.212   0.459  30.528  1.00  0.00     0.000 C 
BRANCH   2   3
ATOM      3  C   UNL     1      58.579  -0.146  30.884  1.00  0.00     0.000 C 
BRANCH   3   4
ATOM      4  C   UNL     1      59.331  -0.674  29.649  1.00  0.00     0.000 C 
BRANCH   4   5
ATOM      5  C   UNL     1      60.369  -1.749  30.007  1.00  0.00     0.000 C 
BRANCH   5   6
ATOM      6  C   UNL     1      60.525  -2.806  28.904  1.00  0.00     0.000 C 
BRANCH   6   7
ATOM      7  C   UNL     1      61.422  -2.291  27.772  1.00  0.00     0.006 C 
BRANCH   7   8
ATOM      8  C   UNL     1      62.609  -3.229  27.540  1.00  0.00     0.053 C 
BRANCH   8   9
ATOM      9  C   UNL     1      62.998  -3.234  26.095  1.00  0.00     0.041 C 
ATOM     10  O   UNL     1      63.375  -4.303  25.544  1.00  0.00    -0.550 OA
ATOM     11  O   UNL     1      62.889  -2.072  25.342  1.00  0.00    -0.550 OA
ENDBRANCH   8   9
ENDBRANCH   7   8
ENDBRANCH   6   7
ENDBRANCH   5   6
ENDBRANCH   4   5
ENDBRANCH   3   4
ENDBRANCH   2   3
ENDBRANCH   1   2
BRANCH   1  12
ATOM     12  C   UNL     1      56.075   0.116  28.260  1.00  0.00     0.000 C 
BRANCH  12  13
ATOM     13  C   UNL     1      55.703  -1.218  28.933  1.00  0.00    -0.000 C 
BRANCH  13  14
ATOM     14  C   UNL     1      54.185  -1.454  28.978  1.00  0.00    -0.000 C 
BRANCH  14  15
ATOM     15  C   UNL     1      53.603  -1.311  30.394  1.00  0.00    -0.000 C 
BRANCH  15  16
ATOM     16  C   UNL     1      54.603  -1.795  31.449  1.00  0.00    -0.000 C 
BRANCH  16  17
ATOM     17  C   UNL     1      54.216  -3.180  31.981  1.00  0.00    -0.000 C 
BRANCH  17  18
ATOM     18  C   UNL     1      55.346  -4.193  31.757  1.00  0.00    -0.000 C 
BRANCH  18  19
ATOM     19  C   UNL     1      56.701  -3.487  31.631  1.00  0.00    -0.003 C 
ATOM     20  C   UNL     1      57.572  -4.151  30.568  1.00  0.00     0.004 C 
ENDBRANCH  18  19
ENDBRANCH  17  18
ENDBRANCH  16  17
ENDBRANCH  15  16
ENDBRANCH  14  15
ENDBRANCH  13  14
ENDBRANCH  12  13
ENDBRANCH   1  12
TORSDOF 16
ENDMDL
MODEL 2
REMARK VINA RESULT:    -4.707      0.958      3.215
REMARK INTER + INTRA:         -11.168
REMARK INTER:                  -8.825
REMARK INTRA:                  -2.343
REMARK UNBOUND:                -2.059
REMARK SMILES CCCCCCCCCCCCCCCCCC(=O)[O-]
REMARK SMILES IDX 10 1 11 2 12 3 13 4 14 5 15 6 16 7 17 8 18 9 19 10 20 11
REMARK SMILES IDX 9 12 8 13 7 14 6 15 5 16 4 17 3 18 2 19 1 20
REMARK H PARENT
REMARK Flexibility Score: inf
ROOT
ATOM      1  C   UNL     1      57.374  -4.234  30.633  1.00  0.00     0.000 C 
ENDROOT
BRANCH   1   2
ATOM      2  C   UNL     1      57.963  -3.589  31.901  1.00  0.00     0.000 C 
BRANCH   2   3
ATOM      3  C   UNL     1      58.904  -2.417  31.583  1.00  0.00     0.000 C 
BRANCH   3   4
ATOM      4  C   UNL     1      59.816  -2.703  30.376  1.00  0.00     0.000 C 
BRANCH   4   5
ATOM      5  C   UNL     1      59.995  -1.477  29.469  1.00  0.00     0.000 C 
BRANCH   5   6
ATOM      6  C   UNL     1      61.029  -1.711  28.358  1.00  0.00     0.000 C 
BRANCH   6   7
ATOM      7  C   UNL     1      61.234  -3.209  28.105  1.00  0.00     0.006 C 
BRANCH   7   8
ATOM      8  C   UNL     1      62.712  -3.529  27.860  1.00  0.00     0.053 C 
BRANCH   8   9
ATOM      9  C   UNL     1      63.125  -3.078  26.494  1.00  0.00     0.041 C 
ATOM     10  O   UNL     1      62.527  -3.515  25.475  1.00  0.00    -0.550 OA
ATOM     11  O   UNL     1      64.132  -2.132  26.350  1.00  0.00    -0.550 OA
ENDBRANCH   8   9
ENDBRANCH   7   8
ENDBRANCH   6   7
ENDBRANCH   5   6
ENDBRANCH   4   5
ENDBRANCH   3   4
ENDBRANCH   2   3
ENDBRANCH   1   2
BRANCH   1  12
ATOM     12  C   UNL     1      55.902  -4.641  30.806  1.00  0.00     0.000 C 
BRANCH  12  13
ATOM     13  C   UNL     1      55.280  -4.071  32.094  1.00  0.00    -0.000 C 
BRANCH  13  14
ATOM     14  C   UNL     1      54.129  -3.091  31.811  1.00  0.00    -0.000 C 
BRANCH  14  15
ATOM     15  C   UNL     1      54.622  -1.720  31.320  1.00  0.00    -0.000 C 
BRANCH  15  16
ATOM     16  C   UNL     1      53.872  -1.290  30.053  1.00  0.00    -0.000 C 
BRANCH  16  17
ATOM     17  C   UNL     1      54.777  -1.389  28.819  1.00  0.00    -0.000 C 
BRANCH  17  18
ATOM     18  C   UNL     1      56.249  -1.185  29.196  1.00  0.00    -0.000 C 
BRANCH  18  19
ATOM     19  C   UNL     1      56.698   0.251  28.903  1.00  0.00    -0.003 C 
ATOM     20  C   UNL     1      57.135   0.963  30.180  1.00  0.00     0.004 C 
ENDBRANCH  18  19
ENDBRANCH  17  18
ENDBRANCH  16  17
ENDBRANCH  15  16
ENDBRANCH  14  15
ENDBRANCH  13  14
ENDBRANCH  12  13
ENDBRANCH   1  12
TORSDOF 16
ENDMDL
MODEL 3
REMARK VINA RESULT:    -4.513      2.837      6.720
REMARK INTER + INTRA:         -10.795
REMARK INTER:                  -8.626
REMARK INTRA:                  -2.168
REMARK UNBOUND:                -2.059
REMARK SMILES CCCCCCCCCCCCCCCCCC(=O)[O-]
REMARK SMILES IDX 10 1 11 2 12 3 13 4 14 5 15 6 16 7 17 8 18 9 19 10 20 11
REMARK SMILES IDX 9 12 8 13 7 14 6 15 5 16 4 17 3 18 2 19 1 20
REMARK H PARENT
REMARK Flexibility Score: inf
ROOT
ATOM      1  C   UNL     1      57.536  -4.245  30.809  1.00  0.00     0.000 C 
ENDROOT
BRANCH   1   2
ATOM      2  C   UNL     1      56.020  -4.494  30.710  1.00  0.00     0.000 C 
BRANCH   2   3
ATOM      3  C   UNL     1      55.285  -4.181  32.022  1.00  0.00     0.000 C 
BRANCH   3   4
ATOM      4  C   UNL     1      54.153  -3.154  31.834  1.00  0.00     0.000 C 
BRANCH   4   5
ATOM      5  C   UNL     1      54.499  -2.081  30.790  1.00  0.00     0.000 C 
BRANCH   5   6
ATOM      6  C   UNL     1      54.900  -0.744  31.430  1.00  0.00     0.000 C 
BRANCH   6   7
ATOM      7  C   UNL     1      56.326  -0.349  31.027  1.00  0.00     0.006 C 
BRANCH   7   8
ATOM      8  C   UNL     1      56.660  -0.851  29.620  1.00  0.00     0.053 C 
BRANCH   8   9
ATOM      9  C   UNL     1      56.343   0.197  28.600  1.00  0.00     0.041 C 
ATOM     10  O   UNL     1      55.428   0.003  27.755  1.00  0.00    -0.550 OA
ATOM     11  O   UNL     1      57.017   1.411  28.618  1.00  0.00    -0.550 OA
ENDBRANCH   8   9
ENDBRANCH   7   8
ENDBRANCH   6   7
ENDBRANCH   5   6
ENDBRANCH   4   5
ENDBRANCH   3   4
ENDBRANCH   2   3
ENDBRANCH   1   2
BRANCH   1  12
ATOM     12  C   UNL     1      57.925  -3.459  32.072  1.00  0.00     0.000 C 
BRANCH  12  13
ATOM     13  C   UNL     1      59.422  -3.101  32.106  1.00  0.00    -0.000 C 
BRANCH  13  14
ATOM     14  C   UNL     1      59.681  -1.616  31.808  1.00  0.00    -0.000 C 
BRANCH  14  15
ATOM     15  C   UNL     1      60.102  -1.365  30.352  1.00  0.00    -0.000 C 
BRANCH  15  16
ATOM     16  C   UNL     1      61.217  -2.328  29.930  1.00  0.00    -0.000 C 
BRANCH  16  17
ATOM     17  C   UNL     1      60.840  -3.080  28.648  1.00  0.00    -0.000 C 
BRANCH  17  18
ATOM     18  C   UNL     1      61.917  -2.907  27.570  1.00  0.00    -0.000 C 
BRANCH  18  19
ATOM     19  C   UNL     1      62.722  -4.199  27.385  1.00  0.00    -0.003 C 
ATOM     20  C   UNL     1      63.418  -4.224  26.027  1.00  0.00     0.004 C 
ENDBRANCH  18  19
ENDBRANCH  17  18
ENDBRANCH  16  17
ENDBRANCH  15  16
ENDBRANCH  14  15
ENDBRANCH  13  14
ENDBRANCH  12  13
ENDBRANCH   1  12
TORSDOF 16
ENDMDL
MODEL 4
REMARK VINA RESULT:    -4.382      2.500      6.885
REMARK INTER + INTRA:         -10.540
REMARK INTER:                  -8.501
REMARK INTRA:                  -2.039
REMARK UNBOUND:                -2.059
REMARK SMILES CCCCCCCCCCCCCCCCCC(=O)[O-]
REMARK SMILES IDX 10 1 11 2 12 3 13 4 14 5 15 6 16 7 17 8 18 9 19 10 20 11
REMARK SMILES IDX 9 12 8 13 7 14 6 15 5 16 4 17 3 18 2 19 1 20
REMARK H PARENT
REMARK Flexibility Score: inf
ROOT
ATOM      1  C   UNL     1      57.072  -4.414  30.533  1.00  0.00     0.000 C 
ENDROOT
BRANCH   1   2
ATOM      2  C   UNL     1      55.625  -4.629  31.013  1.00  0.00     0.000 C 
BRANCH   2   3
ATOM      3  C   UNL     1      55.222  -3.648  32.125  1.00  0.00     0.000 C 
BRANCH   3   4
ATOM      4  C   UNL     1      53.988  -2.807  31.752  1.00  0.00     0.000 C 
BRANCH   4   5
ATOM      5  C   UNL     1      54.364  -1.461  31.113  1.00  0.00     0.000 C 
BRANCH   5   6
ATOM      6  C   UNL     1      54.406  -1.528  29.580  1.00  0.00     0.000 C 
BRANCH   6   7
ATOM      7  C   UNL     1      55.801  -1.171  29.052  1.00  0.00     0.006 C 
BRANCH   7   8
ATOM      8  C   UNL     1      56.639  -0.482  30.133  1.00  0.00     0.053 C 
BRANCH   8   9
ATOM      9  C   UNL     1      57.603   0.480  29.515  1.00  0.00     0.041 C 
ATOM     10  O   UNL     1      58.836   0.222  29.502  1.00  0.00    -0.550 OA
ATOM     11  O   UNL     1      57.135   1.635  28.902  1.00  0.00    -0.550 OA
ENDBRANCH   8   9
ENDBRANCH   7   8
ENDBRANCH   6   7
ENDBRANCH   5   6
ENDBRANCH   4   5
ENDBRANCH   3   4
ENDBRANCH   2   3
ENDBRANCH   1   2
BRANCH   1  12
ATOM     12  C   UNL     1      57.951  -3.731  31.592  1.00  0.00     0.000 C 
BRANCH  12  13
ATOM     13  C   UNL     1      59.167  -3.015  30.976  1.00  0.00    -0.000 C 
BRANCH  13  14
ATOM     14  C   UNL     1      59.346  -3.334  29.483  1.00  0.00    -0.000 C 
BRANCH  14  15
ATOM     15  C   UNL     1      60.814  -3.575  29.097  1.00  0.00    -0.000 C 
BRANCH  15  16
ATOM     16  C   UNL     1      61.266  -2.586  28.016  1.00  0.00    -0.000 C 
BRANCH  16  17
ATOM     17  C   UNL     1      62.449  -3.148  27.217  1.00  0.00    -0.000 C 
BRANCH  17  18
ATOM     18  C   UNL     1      63.669  -3.369  28.119  1.00  0.00    -0.000 C 
BRANCH  18  19
ATOM     19  C   UNL     1      64.401  -4.663  27.747  1.00  0.00    -0.003 C 
ATOM     20  C   UNL     1      63.481  -5.621  26.996  1.00  0.00     0.004 C 
ENDBRANCH  18  19
ENDBRANCH  17  18
ENDBRANCH  16  17
ENDBRANCH  15  16
ENDBRANCH  14  15
ENDBRANCH  13  14
ENDBRANCH  12  13
ENDBRANCH   1  12
TORSDOF 16
ENDMDL
MODEL 5
REMARK VINA RESULT:    -4.291      1.395      2.869
REMARK INTER + INTRA:         -10.364
REMARK INTER:                  -7.917
REMARK INTRA:                  -2.447
REMARK UNBOUND:                -2.059
REMARK SMILES CCCCCCCCCCCCCCCCCC(=O)[O-]
REMARK SMILES IDX 10 1 11 2 12 3 13 4 14 5 15 6 16 7 17 8 18 9 19 10 20 11
REMARK SMILES IDX 9 12 8 13 7 14 6 15 5 16 4 17 3 18 2 19 1 20
REMARK H PARENT
REMARK Flexibility Score: inf
ROOT
ATOM      1  C   UNL     1      59.062  -0.834  30.411  1.00  0.00     0.000 C 
ENDROOT
BRANCH   1   2
ATOM      2  C   UNL     1      59.777  -1.829  31.344  1.00  0.00     0.000 C 
BRANCH   2   3
ATOM      3  C   UNL     1      60.363  -3.029  30.585  1.00  0.00     0.000 C 
BRANCH   3   4
ATOM      4  C   UNL     1      59.915  -3.074  29.113  1.00  0.00     0.000 C 
BRANCH   4   5
ATOM      5  C   UNL     1      61.079  -2.850  28.135  1.00  0.00     0.000 C 
BRANCH   5   6
ATOM      6  C   UNL     1      62.405  -2.559  28.854  1.00  0.00     0.000 C 
BRANCH   6   7
ATOM      7  C   UNL     1      63.519  -3.481  28.344  1.00  0.00     0.006 C 
BRANCH   7   8
ATOM      8  C   UNL     1      63.020  -4.921  28.200  1.00  0.00     0.053 C 
BRANCH   8   9
ATOM      9  C   UNL     1      63.330  -5.448  26.834  1.00  0.00     0.041 C 
ATOM     10  O   UNL     1      63.563  -4.652  25.886  1.00  0.00    -0.550 OA
ATOM     11  O   UNL     1      63.416  -6.818  26.621  1.00  0.00    -0.550 OA
ENDBRANCH   8   9
ENDBRANCH   7   8
ENDBRANCH   6   7
ENDBRANCH   5   6
ENDBRANCH   4   5
ENDBRANCH   3   4
ENDBRANCH   2   3
ENDBRANCH   1   2
BRANCH   1  12
ATOM     12  C   UNL     1      58.291   0.250  31.181  1.00  0.00     0.000 C 
BRANCH  12  13
ATOM     13  C   UNL     1      57.102   0.810  30.379  1.00  0.00    -0.000 C 
BRANCH  13  14
ATOM     14  C   UNL     1      57.268   0.616  28.864  1.00  0.00    -0.000 C 
BRANCH  14  15
ATOM     15  C   UNL     1      56.022   0.007  28.201  1.00  0.00    -0.000 C 
BRANCH  15  16
ATOM     16  C   UNL     1      55.270  -0.902  29.180  1.00  0.00    -0.000 C 
BRANCH  16  17
ATOM     17  C   UNL     1      55.278  -2.357  28.696  1.00  0.00    -0.000 C 
BRANCH  17  18
ATOM     18  C   UNL     1      56.325  -3.184  29.451  1.00  0.00    -0.000 C 
BRANCH  18  19
ATOM     19  C   UNL     1      56.178  -3.009  30.967  1.00  0.00    -0.003 C 
ATOM     20  C   UNL     1      56.845  -4.155  31.722  1.00  0.00     0.004 C 
ENDBRANCH  18  19
ENDBRANCH  17  18
ENDBRANCH  16  17
ENDBRANCH  15  16
ENDBRANCH  14  15
ENDBRANCH  13  14
ENDBRANCH  12  13
ENDBRANCH   1  12
TORSDOF 16
ENDMDL
MODEL 6
REMARK VINA RESULT:    -4.276      3.633      7.384
REMARK INTER + INTRA:         -10.335
REMARK INTER:                  -7.573
REMARK INTRA:                  -2.762
REMARK UNBOUND:                -2.059
REMARK SMILES CCCCCCCCCCCCCCCCCC(=O)[O-]
REMARK SMILES IDX 10 1 11 2 12 3 13 4 14 5 15 6 16 7 17 8 18 9 19 10 20 11
REMARK SMILES IDX 9 12 8 13 7 14 6 15 5 16 4 17 3 18 2 19 1 20
REMARK H PARENT
REMARK Flexibility Score: inf
ROOT
ATOM      1  C   UNL     1      58.626  -3.912  30.001  1.00  0.00     0.000 C 
ENDROOT
BRANCH   1   2
ATOM      2  C   UNL     1      58.423  -3.654  31.505  1.00  0.00     0.000 C 
BRANCH   2   3
ATOM      3  C   UNL     1      59.300  -2.507  32.029  1.00  0.00     0.000 C 
BRANCH   3   4
ATOM      4  C   UNL     1      58.542  -1.168  32.098  1.00  0.00     0.000 C 
BRANCH   4   5
ATOM      5  C   UNL     1      58.981  -0.186  31.000  1.00  0.00     0.000 C 
BRANCH   5   6
ATOM      6  C   UNL     1      58.043  -0.205  29.784  1.00  0.00     0.000 C 
BRANCH   6   7
ATOM      7  C   UNL     1      56.577  -0.302  30.222  1.00  0.00     0.006 C 
BRANCH   7   8
ATOM      8  C   UNL     1      55.865  -1.455  29.509  1.00  0.00     0.053 C 
BRANCH   8   9
ATOM      9  C   UNL     1      54.422  -1.501  29.901  1.00  0.00     0.041 C 
ATOM     10  O   UNL     1      54.093  -1.436  31.115  1.00  0.00    -0.550 OA
ATOM     11  O   UNL     1      53.438  -1.560  28.923  1.00  0.00    -0.550 OA
ENDBRANCH   8   9
ENDBRANCH   7   8
ENDBRANCH   6   7
ENDBRANCH   5   6
ENDBRANCH   4   5
ENDBRANCH   3   4
ENDBRANCH   2   3
ENDBRANCH   1   2
BRANCH   1  12
ATOM     12  C   UNL     1      60.107  -3.873  29.589  1.00  0.00     0.000 C 
BRANCH  12  13
ATOM     13  C   UNL     1      60.367  -2.906  28.419  1.00  0.00    -0.000 C 
BRANCH  13  14
ATOM     14  C   UNL     1      61.407  -1.829  28.763  1.00  0.00    -0.000 C 
BRANCH  14  15
ATOM     15  C   UNL     1      62.373  -2.267  29.875  1.00  0.00    -0.000 C 
BRANCH  15  16
ATOM     16  C   UNL     1      63.759  -2.586  29.302  1.00  0.00    -0.000 C 
BRANCH  16  17
ATOM     17  C   UNL     1      63.872  -4.069  28.930  1.00  0.00    -0.000 C 
BRANCH  17  18
ATOM     18  C   UNL     1      64.432  -4.241  27.513  1.00  0.00    -0.000 C 
BRANCH  18  19
ATOM     19  C   UNL     1      63.319  -4.594  26.520  1.00  0.00    -0.003 C 
ATOM     20  C   UNL     1      62.930  -3.384  25.675  1.00  0.00     0.004 C 
ENDBRANCH  18  19
ENDBRANCH  17  18
ENDBRANCH  16  17
ENDBRANCH  15  16
ENDBRANCH  14  15
ENDBRANCH  13  14
ENDBRANCH  12  13
ENDBRANCH   1  12
TORSDOF 16
ENDMDL
MODEL 7
REMARK VINA RESULT:    -4.103      2.284      4.305
REMARK INTER + INTRA:          -9.999
REMARK INTER:                  -8.344
REMARK INTRA:                  -1.656
REMARK UNBOUND:                -2.059
REMARK SMILES CCCCCCCCCCCCCCCCCC(=O)[O-]
REMARK SMILES IDX 10 1 11 2 12 3 13 4 14 5 15 6 16 7 17 8 18 9 19 10 20 11
REMARK SMILES IDX 9 12 8 13 7 14 6 15 5 16 4 17 3 18 2 19 1 20
REMARK H PARENT
REMARK Flexibility Score: inf
ROOT
ATOM      1  C   UNL     1      59.079  -3.901  29.889  1.00  0.00     0.000 C 
ENDROOT
BRANCH   1   2
ATOM      2  C   UNL     1      60.504  -3.823  29.314  1.00  0.00     0.000 C 
BRANCH   2   3
ATOM      3  C   UNL     1      60.762  -2.511  28.557  1.00  0.00     0.000 C 
BRANCH   3   4
ATOM      4  C   UNL     1      61.826  -2.664  27.455  1.00  0.00     0.000 C 
BRANCH   4   5
ATOM      5  C   UNL     1      62.691  -3.921  27.642  1.00  0.00     0.000 C 
BRANCH   5   6
ATOM      6  C   UNL     1      63.435  -4.320  26.359  1.00  0.00     0.000 C 
BRANCH   6   7
ATOM      7  C   UNL     1      63.919  -5.773  26.435  1.00  0.00     0.006 C 
BRANCH   7   8
ATOM      8  C   UNL     1      63.424  -6.453  27.715  1.00  0.00     0.053 C 
BRANCH   8   9
ATOM      9  C   UNL     1      63.301  -7.930  27.510  1.00  0.00     0.041 C 
ATOM     10  O   UNL     1      63.565  -8.724  28.451  1.00  0.00    -0.550 OA
ATOM     11  O   UNL     1      62.841  -8.427  26.297  1.00  0.00    -0.550 OA
ENDBRANCH   8   9
ENDBRANCH   7   8
ENDBRANCH   6   7
ENDBRANCH   5   6
ENDBRANCH   4   5
ENDBRANCH   3   4
ENDBRANCH   2   3
ENDBRANCH   1   2
BRANCH   1  12
ATOM     12  C   UNL     1      58.993  -3.376  31.332  1.00  0.00     0.000 C 
BRANCH  12  13
ATOM     13  C   UNL     1      57.748  -3.894  32.075  1.00  0.00    -0.000 C 
BRANCH  13  14
ATOM     14  C   UNL     1      56.605  -4.273  31.119  1.00  0.00    -0.000 C 
BRANCH  14  15
ATOM     15  C   UNL     1      55.267  -4.484  31.845  1.00  0.00    -0.000 C 
BRANCH  15  16
ATOM     16  C   UNL     1      54.422  -3.205  31.818  1.00  0.00    -0.000 C 
BRANCH  16  17
ATOM     17  C   UNL     1      54.923  -2.237  30.740  1.00  0.00    -0.000 C 
BRANCH  17  18
ATOM     18  C   UNL     1      55.236  -0.860  31.337  1.00  0.00    -0.000 C 
BRANCH  18  19
ATOM     19  C   UNL     1      56.594  -0.342  30.847  1.00  0.00    -0.003 C 
ATOM     20  C   UNL     1      56.913  -0.869  29.451  1.00  0.00     0.004 C 
ENDBRANCH  18  19
ENDBRANCH  17  18
ENDBRANCH  16  17
ENDBRANCH  15  16
ENDBRANCH  14  15
ENDBRANCH  13  14
ENDBRANCH  12  13
ENDBRANCH   1  12
TORSDOF 16
ENDMDL
MODEL 8
REMARK VINA RESULT:    -4.086      3.030      6.881
REMARK INTER + INTRA:          -9.968
REMARK INTER:                  -8.217
REMARK INTRA:                  -1.750
REMARK UNBOUND:                -2.059
REMARK SMILES CCCCCCCCCCCCCCCCCC(=O)[O-]
REMARK SMILES IDX 10 1 11 2 12 3 13 4 14 5 15 6 16 7 17 8 18 9 19 10 20 11
REMARK SMILES IDX 9 12 8 13 7 14 6 15 5 16 4 17 3 18 2 19 1 20
REMARK H PARENT
REMARK Flexibility Score: inf
ROOT
ATOM      1  C   UNL     1      58.317   0.245  31.194  1.00  0.00     0.000 C 
ENDROOT
BRANCH   1   2
ATOM      2  C   UNL     1      58.258   0.274  29.656  1.00  0.00     0.000 C 
BRANCH   2   3
ATOM      3  C   UNL     1      56.997   0.977  29.129  1.00  0.00     0.000 C 
BRANCH   3   4
ATOM      4  C   UNL     1      56.297   0.177  28.016  1.00  0.00     0.000 C 
BRANCH   4   5
ATOM      5  C   UNL     1      55.080  -0.607  28.532  1.00  0.00     0.000 C 
BRANCH   5   6
ATOM      6  C   UNL     1      55.447  -2.020  29.008  1.00  0.00     0.000 C 
BRANCH   6   7
ATOM      7  C   UNL     1      54.906  -2.283  30.418  1.00  0.00     0.006 C 
BRANCH   7   8
ATOM      8  C   UNL     1      56.044  -2.585  31.397  1.00  0.00     0.053 C 
BRANCH   8   9
ATOM      9  C   UNL     1      56.455  -4.020  31.295  1.00  0.00     0.041 C 
ATOM     10  O   UNL     1      57.672  -4.324  31.185  1.00  0.00    -0.550 OA
ATOM     11  O   UNL     1      55.499  -5.025  31.378  1.00  0.00    -0.550 OA
ENDBRANCH   8   9
ENDBRANCH   7   8
ENDBRANCH   6   7
ENDBRANCH   5   6
ENDBRANCH   4   5
ENDBRANCH   3   4
ENDBRANCH   2   3
ENDBRANCH   1   2
BRANCH   1  12
ATOM     12  C   UNL     1      59.293  -0.816  31.729  1.00  0.00     0.000 C 
BRANCH  12  13
ATOM     13  C   UNL     1      59.877  -1.696  30.609  1.00  0.00    -0.000 C 
BRANCH  13  14
ATOM     14  C   UNL     1      61.022  -2.596  31.102  1.00  0.00    -0.000 C 
BRANCH  14  15
ATOM     15  C   UNL     1      62.171  -2.706  30.088  1.00  0.00    -0.000 C 
BRANCH  15  16
ATOM     16  C   UNL     1      61.843  -1.940  28.801  1.00  0.00    -0.000 C 
BRANCH  16  17
ATOM     17  C   UNL     1      61.713  -2.896  27.609  1.00  0.00    -0.000 C 
BRANCH  17  18
ATOM     18  C   UNL     1      62.805  -2.628  26.567  1.00  0.00    -0.000 C 
BRANCH  18  19
ATOM     19  C   UNL     1      63.085  -3.881  25.728  1.00  0.00    -0.003 C 
ATOM     20  C   UNL     1      63.498  -5.055  26.612  1.00  0.00     0.004 C 
ENDBRANCH  18  19
ENDBRANCH  17  18
ENDBRANCH  16  17
ENDBRANCH  15  16
ENDBRANCH  14  15
ENDBRANCH  13  14
ENDBRANCH  12  13
ENDBRANCH   1  12
TORSDOF 16
ENDMDL
MODEL 9
REMARK VINA RESULT:    -4.040     16.616     19.515
REMARK INTER + INTRA:          -9.877
REMARK INTER:                  -7.070
REMARK INTRA:                  -2.807
REMARK UNBOUND:                -2.059
REMARK SMILES CCCCCCCCCCCCCCCCCC(=O)[O-]
REMARK SMILES IDX 10 1 11 2 12 3 13 4 14 5 15 6 16 7 17 8 18 9 19 10 20 11
REMARK SMILES IDX 9 12 8 13 7 14 6 15 5 16 4 17 3 18 2 19 1 20
REMARK H PARENT
REMARK Flexibility Score: inf
ROOT
ATOM      1  C   UNL     1      61.794 -11.745  15.958  1.00  0.00     0.000 C 
ENDROOT
BRANCH   1   2
ATOM      2  C   UNL     1      61.907 -13.250  16.262  1.00  0.00     0.000 C 
BRANCH   2   3
ATOM      3  C   UNL     1      60.708 -13.778  17.065  1.00  0.00     0.000 C 
BRANCH   3   4
ATOM      4  C   UNL     1      60.102 -15.053  16.451  1.00  0.00     0.000 C 
BRANCH   4   5
ATOM      5  C   UNL     1      60.275 -15.112  14.926  1.00  0.00     0.000 C 
BRANCH   5   6
ATOM      6  C   UNL     1      60.058 -16.524  14.361  1.00  0.00     0.000 C 
BRANCH   6   7
ATOM      7  C   UNL     1      61.393 -17.254  14.178  1.00  0.00     0.006 C 
BRANCH   7   8
ATOM      8  C   UNL     1      62.551 -16.260  14.049  1.00  0.00     0.053 C 
BRANCH   8   9
ATOM      9  C   UNL     1      63.609 -16.554  15.066  1.00  0.00     0.041 C 
ATOM     10  O   UNL     1      63.342 -16.486  16.295  1.00  0.00    -0.550 OA
ATOM     11  O   UNL     1      64.873 -16.957  14.656  1.00  0.00    -0.550 OA
ENDBRANCH   8   9
ENDBRANCH   7   8
ENDBRANCH   6   7
ENDBRANCH   5   6
ENDBRANCH   4   5
ENDBRANCH   3   4
ENDBRANCH   2   3
ENDBRANCH   1   2
BRANCH   1  12
ATOM     12  C   UNL     1      62.397 -11.370  14.594  1.00  0.00     0.000 C 
BRANCH  12  13
ATOM     13  C   UNL     1      62.735 -12.606  13.740  1.00  0.00    -0.000 C 
BRANCH  13  14
ATOM     14  C   UNL     1      64.214 -12.652  13.326  1.00  0.00    -0.000 C 
BRANCH  14  15
ATOM     15  C   UNL     1      65.153 -12.956  14.504  1.00  0.00    -0.000 C 
BRANCH  15  16
ATOM     16  C   UNL     1      66.114 -11.788  14.754  1.00  0.00    -0.000 C 
BRANCH  16  17
ATOM     17  C   UNL     1      65.842 -11.132  16.114  1.00  0.00    -0.000 C 
BRANCH  17  18
ATOM     18  C   UNL     1      65.425 -12.177  17.156  1.00  0.00    -0.000 C 
BRANCH  18  19
ATOM     19  C   UNL     1      64.571 -11.543  18.261  1.00  0.00    -0.003 C 
ATOM     20  C   UNL     1      64.209 -12.567  19.333  1.00  0.00     0.004 C 
ENDBRANCH  18  19
ENDBRANCH  17  18
ENDBRANCH  16  17
ENDBRANCH  15  16
ENDBRANCH  14  15
ENDBRANCH  13  14
ENDBRANCH  12  13
ENDBRANCH   1  12
TORSDOF 16
ENDMDL
