MODEL 1
REMARK VINA RESULT:    -7.231      0.000      0.000
REMARK INTER + INTRA:          -8.782
REMARK INTER:                  -8.499
REMARK INTRA:                  -0.283
REMARK UNBOUND:                -0.283
REMARK SMILES O=c1cc(-c2ccc(O)c(O)c2)oc2cc(O)cc(O)c12
REMARK SMILES IDX 4 1 3 2 2 3 1 4 21 5 19 6 18 7 16 8 15 9 14 10 13 11 5 12
REMARK SMILES IDX 6 13 7 14 8 15 12 16 10 17 9 18 11 20 20 22 17 24
REMARK H PARENT 9 19 11 21 20 23 17 25
REMARK Flexibility Score: inf
ROOT
ATOM      1  C   UNL     1      22.529  11.356  11.114  1.00  0.00     0.138 A 
ATOM      2  C   UNL     1      21.992  11.936   9.956  1.00  0.00     0.100 A 
ATOM      3  C   UNL     1      22.788  12.770   9.169  1.00  0.00     0.197 A 
ATOM      4  O   UNL     1      22.298  13.226   8.104  1.00  0.00    -0.289 OA
ATOM      5  C   UNL     1      24.119  13.049   9.564  1.00  0.00     0.107 A 
ATOM      6  C   UNL     1      25.009  13.915   8.862  1.00  0.00     0.134 A 
ATOM      7  C   UNL     1      26.340  14.023   9.282  1.00  0.00     0.093 A 
ATOM      8  C   UNL     1      26.798  13.345  10.411  1.00  0.00     0.123 A 
ATOM      9  C   UNL     1      25.921  12.536  11.136  1.00  0.00     0.094 A 
ATOM     10  C   UNL     1      24.596  12.381  10.723  1.00  0.00     0.146 A 
ATOM     11  O   UNL     1      23.797  11.590  11.432  1.00  0.00    -0.456 OA
ENDROOT
BRANCH   1  12
ATOM     12  C   UNL     1      21.725  10.462  11.987  1.00  0.00     0.021 A 
ATOM     13  C   UNL     1      22.334   9.337  12.569  1.00  0.00     0.016 A 
ATOM     14  C   UNL     1      21.602   8.485  13.401  1.00  0.00     0.051 A 
ATOM     15  C   UNL     1      20.257   8.745  13.673  1.00  0.00     0.157 A 
ATOM     16  C   UNL     1      20.372  10.729  12.274  1.00  0.00     0.062 A 
ATOM     17  C   UNL     1      19.638   9.874  13.111  1.00  0.00     0.158 A 
BRANCH  15  18
ATOM     18  O   UNL     1      19.552   7.875  14.505  1.00  0.00    -0.504 OA
ATOM     19  H   UNL     1      18.579   8.027  14.742  1.00  0.00     0.293 HD
ENDBRANCH  15  18
BRANCH  17  20
ATOM     20  O   UNL     1      18.299  10.146  13.387  1.00  0.00    -0.504 OA
ATOM     21  H   UNL     1      17.828   9.740  14.188  1.00  0.00     0.293 HD
ENDBRANCH  17  20
ENDBRANCH   1  12
BRANCH   6  22
ATOM     22  O   UNL     1      24.633  14.707   7.772  1.00  0.00    -0.507 OA
ATOM     23  H   UNL     1      25.274  15.200   7.169  1.00  0.00     0.293 HD
ENDBRANCH   6  22
BRANCH   8  24
ATOM     24  O   UNL     1      28.125  13.487  10.808  1.00  0.00    -0.508 OA
ATOM     25  H   UNL     1      28.619  12.742  11.285  1.00  0.00     0.293 HD
ENDBRANCH   8  24
TORSDOF 5
ENDMDL
MODEL 2
REMARK VINA RESULT:    -6.569      1.176      2.749
REMARK INTER + INTRA:          -8.003
REMARK INTER:                  -7.700
REMARK INTRA:                  -0.304
REMARK UNBOUND:                -0.283
REMARK SMILES O=c1cc(-c2ccc(O)c(O)c2)oc2cc(O)cc(O)c12
REMARK SMILES IDX 4 1 3 2 2 3 1 4 21 5 19 6 18 7 16 8 15 9 14 10 13 11 5 12
REMARK SMILES IDX 6 13 7 14 8 15 12 16 10 17 9 18 11 20 20 22 17 24
REMARK H PARENT 9 19 11 21 20 23 17 25
REMARK Flexibility Score: inf
ROOT
ATOM      1  C   UNL     1      23.775  11.196  11.839  1.00  0.00     0.138 A 
ATOM      2  C   UNL     1      25.042  11.187  12.441  1.00  0.00     0.100 A 
ATOM      3  C   UNL     1      26.053  12.002  11.930  1.00  0.00     0.197 A 
ATOM      4  O   UNL     1      27.161  12.018  12.528  1.00  0.00    -0.289 OA
ATOM      5  C   UNL     1      25.802  12.806  10.792  1.00  0.00     0.107 A 
ATOM      6  C   UNL     1      26.769  13.645  10.162  1.00  0.00     0.134 A 
ATOM      7  C   UNL     1      26.374  14.484   9.113  1.00  0.00     0.093 A 
ATOM      8  C   UNL     1      25.066  14.472   8.633  1.00  0.00     0.123 A 
ATOM      9  C   UNL     1      24.125  13.616   9.207  1.00  0.00     0.094 A 
ATOM     10  C   UNL     1      24.479  12.791  10.278  1.00  0.00     0.146 A 
ATOM     11  O   UNL     1      23.550  12.002  10.807  1.00  0.00    -0.456 OA
ENDROOT
BRANCH   1  12
ATOM     12  C   UNL     1      22.664  10.349  12.342  1.00  0.00     0.021 A 
ATOM     13  C   UNL     1      22.953   9.097  12.912  1.00  0.00     0.016 A 
ATOM     14  C   UNL     1      21.926   8.285  13.399  1.00  0.00     0.051 A 
ATOM     15  C   UNL     1      20.597   8.709  13.336  1.00  0.00     0.157 A 
ATOM     16  C   UNL     1      21.323  10.780  12.292  1.00  0.00     0.062 A 
ATOM     17  C   UNL     1      20.293   9.964  12.784  1.00  0.00     0.158 A 
BRANCH  15  18
ATOM     18  O   UNL     1      19.594   7.875  13.829  1.00  0.00    -0.504 OA
ATOM     19  H   UNL     1      19.430   7.760  14.822  1.00  0.00     0.293 HD
ENDBRANCH  15  18
BRANCH  17  20
ATOM     20  O   UNL     1      18.969  10.399  12.727  1.00  0.00    -0.504 OA
ATOM     21  H   UNL     1      18.728  11.380  12.812  1.00  0.00     0.293 HD
ENDBRANCH  17  20
ENDBRANCH   1  12
BRANCH   6  22
ATOM     22  O   UNL     1      28.125  13.672  10.506  1.00  0.00    -0.507 OA
ATOM     23  H   UNL     1      28.861  13.218   9.987  1.00  0.00     0.293 HD
ENDBRANCH   6  22
BRANCH   8  24
ATOM     24  O   UNL     1      24.712  15.309   7.577  1.00  0.00    -0.508 OA
ATOM     25  H   UNL     1      25.412  15.754   6.995  1.00  0.00     0.293 HD
ENDBRANCH   8  24
TORSDOF 5
ENDMDL
MODEL 3
REMARK VINA RESULT:    -6.492      5.581      9.065
REMARK INTER + INTRA:          -7.914
REMARK INTER:                  -7.598
REMARK INTRA:                  -0.316
REMARK UNBOUND:                -0.283
REMARK SMILES O=c1cc(-c2ccc(O)c(O)c2)oc2cc(O)cc(O)c12
REMARK SMILES IDX 4 1 3 2 2 3 1 4 21 5 19 6 18 7 16 8 15 9 14 10 13 11 5 12
REMARK SMILES IDX 6 13 7 14 8 15 12 16 10 17 9 18 11 20 20 22 17 24
REMARK H PARENT 9 19 11 21 20 23 17 25
REMARK Flexibility Score: inf
ROOT
ATOM      1  C   UNL     1      25.906  17.777   7.236  1.00  0.00     0.138 A 
ATOM      2  C   UNL     1      26.800  18.857   7.230  1.00  0.00     0.100 A 
ATOM      3  C   UNL     1      26.387  20.092   6.727  1.00  0.00     0.197 A 
ATOM      4  O   UNL     1      27.190  21.058   6.791  1.00  0.00    -0.289 OA
ATOM      5  C   UNL     1      25.081  20.235   6.200  1.00  0.00     0.107 A 
ATOM      6  C   UNL     1      24.565  21.435   5.624  1.00  0.00     0.134 A 
ATOM      7  C   UNL     1      23.219  21.492   5.241  1.00  0.00     0.093 A 
ATOM      8  C   UNL     1      22.388  20.378   5.356  1.00  0.00     0.123 A 
ATOM      9  C   UNL     1      22.897  19.184   5.868  1.00  0.00     0.094 A 
ATOM     10  C   UNL     1      24.227  19.105   6.291  1.00  0.00     0.146 A 
ATOM     11  O   UNL     1      24.669  17.954   6.786  1.00  0.00    -0.456 OA
ENDROOT
BRANCH   1  12
ATOM     12  C   UNL     1      26.295  16.443   7.759  1.00  0.00     0.021 A 
ATOM     13  C   UNL     1      27.648  16.174   8.028  1.00  0.00     0.016 A 
ATOM     14  C   UNL     1      28.038  14.929   8.528  1.00  0.00     0.051 A 
ATOM     15  C   UNL     1      27.088  13.936   8.777  1.00  0.00     0.157 A 
ATOM     16  C   UNL     1      25.338  15.444   8.025  1.00  0.00     0.062 A 
ATOM     17  C   UNL     1      25.730  14.195   8.529  1.00  0.00     0.158 A 
BRANCH  15  18
ATOM     18  O   UNL     1      27.508  12.703   9.275  1.00  0.00    -0.504 OA
ATOM     19  H   UNL     1      26.973  11.855   9.134  1.00  0.00     0.293 HD
ENDBRANCH  15  18
BRANCH  17  20
ATOM     20  O   UNL     1      24.774  13.212   8.786  1.00  0.00    -0.504 OA
ATOM     21  H   UNL     1      23.793  13.357   8.574  1.00  0.00     0.293 HD
ENDBRANCH  17  20
ENDBRANCH   1  12
BRANCH   6  22
ATOM     22  O   UNL     1      25.331  22.580   5.384  1.00  0.00    -0.507 OA
ATOM     23  H   UNL     1      26.333  22.589   5.265  1.00  0.00     0.293 HD
ENDBRANCH   6  22
BRANCH   8  24
ATOM     24  O   UNL     1      21.059  20.467   4.951  1.00  0.00    -0.508 OA
ATOM     25  H   UNL     1      20.722  19.983   4.128  1.00  0.00     0.293 HD
ENDBRANCH   8  24
TORSDOF 5
ENDMDL
MODEL 4
REMARK VINA RESULT:    -6.451      1.977      7.505
REMARK INTER + INTRA:          -7.865
REMARK INTER:                  -7.551
REMARK INTRA:                  -0.315
REMARK UNBOUND:                -0.283
REMARK SMILES O=c1cc(-c2ccc(O)c(O)c2)oc2cc(O)cc(O)c12
REMARK SMILES IDX 4 1 3 2 2 3 1 4 21 5 19 6 18 7 16 8 15 9 14 10 13 11 5 12
REMARK SMILES IDX 6 13 7 14 8 15 12 16 10 17 9 18 11 20 20 22 17 24
REMARK H PARENT 9 19 11 21 20 23 17 25
REMARK Flexibility Score: inf
ROOT
ATOM      1  C   UNL     1      25.534  12.499  11.002  1.00  0.00     0.138 A 
ATOM      2  C   UNL     1      26.331  11.914  11.996  1.00  0.00     0.100 A 
ATOM      3  C   UNL     1      25.756  11.025  12.905  1.00  0.00     0.197 A 
ATOM      4  O   UNL     1      26.507  10.468  13.747  1.00  0.00    -0.289 OA
ATOM      5  C   UNL     1      24.369  10.747  12.837  1.00  0.00     0.107 A 
ATOM      6  C   UNL     1      23.668   9.889  13.736  1.00  0.00     0.134 A 
ATOM      7  C   UNL     1      22.319   9.598  13.500  1.00  0.00     0.093 A 
ATOM      8  C   UNL     1      21.631  10.178  12.435  1.00  0.00     0.123 A 
ATOM      9  C   UNL     1      22.294  11.061  11.580  1.00  0.00     0.094 A 
ATOM     10  C   UNL     1      23.649  11.345  11.769  1.00  0.00     0.146 A 
ATOM     11  O   UNL     1      24.247  12.179  10.925  1.00  0.00    -0.456 OA
ENDROOT
BRANCH   1  12
ATOM     12  C   UNL     1      26.095  13.452  10.009  1.00  0.00     0.021 A 
ATOM     13  C   UNL     1      27.488  13.544   9.852  1.00  0.00     0.016 A 
ATOM     14  C   UNL     1      28.041  14.426   8.919  1.00  0.00     0.051 A 
ATOM     15  C   UNL     1      27.214  15.222   8.122  1.00  0.00     0.157 A 
ATOM     16  C   UNL     1      25.265  14.246   9.194  1.00  0.00     0.062 A 
ATOM     17  C   UNL     1      25.819  15.130   8.256  1.00  0.00     0.158 A 
BRANCH  15  18
ATOM     18  O   UNL     1      27.795  16.094   7.201  1.00  0.00    -0.504 OA
ATOM     19  H   UNL     1      27.652  17.096   7.245  1.00  0.00     0.293 HD
ENDBRANCH  15  18
BRANCH  17  20
ATOM     20  O   UNL     1      24.988  15.914   7.456  1.00  0.00    -0.504 OA
ATOM     21  H   UNL     1      24.641  15.580   6.565  1.00  0.00     0.293 HD
ENDBRANCH  17  20
ENDBRANCH   1  12
BRANCH   6  22
ATOM     22  O   UNL     1      24.237   9.324  14.882  1.00  0.00    -0.507 OA
ATOM     23  H   UNL     1      24.516   8.359  14.971  1.00  0.00     0.293 HD
ENDBRANCH   6  22
BRANCH   8  24
ATOM     24  O   UNL     1      20.286   9.877  12.239  1.00  0.00    -0.508 OA
ATOM     25  H   UNL     1      19.637  10.562  11.870  1.00  0.00     0.293 HD
ENDBRANCH   8  24
TORSDOF 5
ENDMDL
MODEL 5
REMARK VINA RESULT:    -6.400      5.538      8.706
REMARK INTER + INTRA:          -7.805
REMARK INTER:                  -7.508
REMARK INTRA:                  -0.297
REMARK UNBOUND:                -0.283
REMARK SMILES O=c1cc(-c2ccc(O)c(O)c2)oc2cc(O)cc(O)c12
REMARK SMILES IDX 4 1 3 2 2 3 1 4 21 5 19 6 18 7 16 8 15 9 14 10 13 11 5 12
REMARK SMILES IDX 6 13 7 14 8 15 12 16 10 17 9 18 11 20 20 22 17 24
REMARK H PARENT 9 19 11 21 20 23 17 25
REMARK Flexibility Score: inf
ROOT
ATOM      1  C   UNL     1      25.707  17.590   7.289  1.00  0.00     0.138 A 
ATOM      2  C   UNL     1      24.379  17.826   6.908  1.00  0.00     0.100 A 
ATOM      3  C   UNL     1      24.019  19.076   6.400  1.00  0.00     0.197 A 
ATOM      4  O   UNL     1      22.834  19.238   6.010  1.00  0.00    -0.289 OA
ATOM      5  C   UNL     1      24.989  20.102   6.305  1.00  0.00     0.107 A 
ATOM      6  C   UNL     1      24.727  21.426   5.840  1.00  0.00     0.134 A 
ATOM      7  C   UNL     1      25.790  22.322   5.678  1.00  0.00     0.093 A 
ATOM      8  C   UNL     1      27.094  21.965   6.019  1.00  0.00     0.123 A 
ATOM      9  C   UNL     1      27.353  20.689   6.525  1.00  0.00     0.094 A 
ATOM     10  C   UNL     1      26.319  19.761   6.666  1.00  0.00     0.146 A 
ATOM     11  O   UNL     1      26.610  18.553   7.137  1.00  0.00    -0.456 OA
ENDROOT
BRANCH   1  12
ATOM     12  C   UNL     1      26.144  16.279   7.835  1.00  0.00     0.021 A 
ATOM     13  C   UNL     1      27.501  16.075   8.138  1.00  0.00     0.016 A 
ATOM     14  C   UNL     1      27.936  14.854   8.661  1.00  0.00     0.051 A 
ATOM     15  C   UNL     1      27.026  13.822   8.900  1.00  0.00     0.157 A 
ATOM     16  C   UNL     1      25.227  15.241   8.090  1.00  0.00     0.062 A 
ATOM     17  C   UNL     1      25.663  14.016   8.617  1.00  0.00     0.158 A 
BRANCH  15  18
ATOM     18  O   UNL     1      27.490  12.614   9.420  1.00  0.00    -0.504 OA
ATOM     19  H   UNL     1      27.370  11.736   8.931  1.00  0.00     0.293 HD
ENDBRANCH  15  18
BRANCH  17  20
ATOM     20  O   UNL     1      24.748  12.993   8.863  1.00  0.00    -0.504 OA
ATOM     21  H   UNL     1      24.311  12.878   9.770  1.00  0.00     0.293 HD
ENDBRANCH  17  20
ENDBRANCH   1  12
BRANCH   6  22
ATOM     22  O   UNL     1      23.449  21.915   5.552  1.00  0.00    -0.507 OA
ATOM     23  H   UNL     1      22.981  21.817   4.664  1.00  0.00     0.293 HD
ENDBRANCH   6  22
BRANCH   8  24
ATOM     24  O   UNL     1      28.125  22.887   5.859  1.00  0.00    -0.508 OA
ATOM     25  H   UNL     1      29.057  22.708   6.214  1.00  0.00     0.293 HD
ENDBRANCH   8  24
TORSDOF 5
ENDMDL
MODEL 6
REMARK VINA RESULT:    -6.295      8.257     11.656
REMARK INTER + INTRA:          -7.681
REMARK INTER:                  -7.404
REMARK INTRA:                  -0.277
REMARK UNBOUND:                -0.283
REMARK SMILES O=c1cc(-c2ccc(O)c(O)c2)oc2cc(O)cc(O)c12
REMARK SMILES IDX 4 1 3 2 2 3 1 4 21 5 19 6 18 7 16 8 15 9 14 10 13 11 5 12
REMARK SMILES IDX 6 13 7 14 8 15 12 16 10 17 9 18 11 20 20 22 17 24
REMARK H PARENT 9 19 11 21 20 23 17 25
REMARK Flexibility Score: inf
ROOT
ATOM      1  C   UNL     1      26.540  20.698   6.374  1.00  0.00     0.138 A 
ATOM      2  C   UNL     1      27.386  21.067   5.319  1.00  0.00     0.100 A 
ATOM      3  C   UNL     1      27.311  22.359   4.795  1.00  0.00     0.197 A 
ATOM      4  O   UNL     1      28.125  22.681   3.891  1.00  0.00    -0.289 OA
ATOM      5  C   UNL     1      26.361  23.273   5.310  1.00  0.00     0.107 A 
ATOM      6  C   UNL     1      26.167  24.602   4.827  1.00  0.00     0.134 A 
ATOM      7  C   UNL     1      25.278  25.454   5.492  1.00  0.00     0.093 A 
ATOM      8  C   UNL     1      24.532  25.011   6.583  1.00  0.00     0.123 A 
ATOM      9  C   UNL     1      24.674  23.696   7.031  1.00  0.00     0.094 A 
ATOM     10  C   UNL     1      25.579  22.831   6.410  1.00  0.00     0.146 A 
ATOM     11  O   UNL     1      25.695  21.592   6.876  1.00  0.00    -0.456 OA
ENDROOT
BRANCH   1  12
ATOM     12  C   UNL     1      26.578  19.337   6.968  1.00  0.00     0.021 A 
ATOM     13  C   UNL     1      27.767  18.873   7.556  1.00  0.00     0.016 A 
ATOM     14  C   UNL     1      27.826  17.600   8.129  1.00  0.00     0.051 A 
ATOM     15  C   UNL     1      26.701  16.774   8.135  1.00  0.00     0.157 A 
ATOM     16  C   UNL     1      25.441  18.505   6.988  1.00  0.00     0.062 A 
ATOM     17  C   UNL     1      25.500  17.228   7.565  1.00  0.00     0.158 A 
BRANCH  15  18
ATOM     18  O   UNL     1      26.792  15.507   8.713  1.00  0.00    -0.504 OA
ATOM     19  H   UNL     1      27.598  15.220   9.255  1.00  0.00     0.293 HD
ENDBRANCH  15  18
BRANCH  17  20
ATOM     20  O   UNL     1      24.369  16.412   7.576  1.00  0.00    -0.504 OA
ATOM     21  H   UNL     1      23.436  16.798   7.657  1.00  0.00     0.293 HD
ENDBRANCH  17  20
ENDBRANCH   1  12
BRANCH   6  22
ATOM     22  O   UNL     1      26.798  25.120   3.692  1.00  0.00    -0.507 OA
ATOM     23  H   UNL     1      26.343  25.296   2.809  1.00  0.00     0.293 HD
ENDBRANCH   6  22
BRANCH   8  24
ATOM     24  O   UNL     1      23.645  25.882   7.211  1.00  0.00    -0.508 OA
ATOM     25  H   UNL     1      23.225  25.658   8.105  1.00  0.00     0.293 HD
ENDBRANCH   8  24
TORSDOF 5
ENDMDL
MODEL 7
REMARK VINA RESULT:    -6.188      3.203      4.621
REMARK INTER + INTRA:          -7.555
REMARK INTER:                  -7.261
REMARK INTRA:                  -0.294
REMARK UNBOUND:                -0.283
REMARK SMILES O=c1cc(-c2ccc(O)c(O)c2)oc2cc(O)cc(O)c12
REMARK SMILES IDX 4 1 3 2 2 3 1 4 21 5 19 6 18 7 16 8 15 9 14 10 13 11 5 12
REMARK SMILES IDX 6 13 7 14 8 15 12 16 10 17 9 18 11 20 20 22 17 24
REMARK H PARENT 9 19 11 21 20 23 17 25
REMARK Flexibility Score: inf
ROOT
ATOM      1  C   UNL     1      25.081  11.315  12.370  1.00  0.00     0.138 A 
ATOM      2  C   UNL     1      23.692  11.165  12.248  1.00  0.00     0.100 A 
ATOM      3  C   UNL     1      23.012  11.841  11.233  1.00  0.00     0.197 A 
ATOM      4  O   UNL     1      21.777  11.638  11.110  1.00  0.00    -0.289 OA
ATOM      5  C   UNL     1      23.724  12.696  10.359  1.00  0.00     0.107 A 
ATOM      6  C   UNL     1      23.130  13.467   9.314  1.00  0.00     0.134 A 
ATOM      7  C   UNL     1      23.950  14.187   8.438  1.00  0.00     0.093 A 
ATOM      8  C   UNL     1      25.334  14.214   8.601  1.00  0.00     0.123 A 
ATOM      9  C   UNL     1      25.921  13.507   9.652  1.00  0.00     0.094 A 
ATOM     10  C   UNL     1      25.134  12.751  10.524  1.00  0.00     0.146 A 
ATOM     11  O   UNL     1      25.733  12.080  11.501  1.00  0.00    -0.456 OA
ENDROOT
BRANCH   1  12
ATOM     12  C   UNL     1      25.853  10.619  13.431  1.00  0.00     0.021 A 
ATOM     13  C   UNL     1      27.159  11.045  13.727  1.00  0.00     0.016 A 
ATOM     14  C   UNL     1      27.903  10.413  14.726  1.00  0.00     0.051 A 
ATOM     15  C   UNL     1      27.356   9.353  15.453  1.00  0.00     0.157 A 
ATOM     16  C   UNL     1      25.299   9.559  14.175  1.00  0.00     0.062 A 
ATOM     17  C   UNL     1      26.046   8.925  15.180  1.00  0.00     0.158 A 
BRANCH  15  18
ATOM     18  O   UNL     1      28.124   8.740  16.443  1.00  0.00    -0.504 OA
ATOM     19  H   UNL     1      28.422   7.775  16.372  1.00  0.00     0.293 HD
ENDBRANCH  15  18
BRANCH  17  20
ATOM     20  O   UNL     1      25.489   7.875  15.909  1.00  0.00    -0.504 OA
ATOM     21  H   UNL     1      24.530   7.905  16.235  1.00  0.00     0.293 HD
ENDBRANCH  17  20
ENDBRANCH   1  12
BRANCH   6  22
ATOM     22  O   UNL     1      21.750  13.579   9.114  1.00  0.00    -0.507 OA
ATOM     23  H   UNL     1      21.085  13.852   9.821  1.00  0.00     0.293 HD
ENDBRANCH   6  22
BRANCH   8  24
ATOM     24  O   UNL     1      26.117  14.954   7.719  1.00  0.00    -0.508 OA
ATOM     25  H   UNL     1      27.023  14.624   7.408  1.00  0.00     0.293 HD
ENDBRANCH   8  24
TORSDOF 5
ENDMDL
MODEL 8
REMARK VINA RESULT:    -6.152      1.967      6.851
REMARK INTER + INTRA:          -7.514
REMARK INTER:                  -7.223
REMARK INTRA:                  -0.291
REMARK UNBOUND:                -0.283
REMARK SMILES O=c1cc(-c2ccc(O)c(O)c2)oc2cc(O)cc(O)c12
REMARK SMILES IDX 4 1 3 2 2 3 1 4 21 5 19 6 18 7 16 8 15 9 14 10 13 11 5 12
REMARK SMILES IDX 6 13 7 14 8 15 12 16 10 17 9 18 11 20 20 22 17 24
REMARK H PARENT 9 19 11 21 20 23 17 25
REMARK Flexibility Score: inf
ROOT
ATOM      1  C   UNL     1      24.038  12.572  10.428  1.00  0.00     0.138 A 
ATOM      2  C   UNL     1      22.687  12.326  10.146  1.00  0.00     0.100 A 
ATOM      3  C   UNL     1      21.974  11.415  10.928  1.00  0.00     0.197 A 
ATOM      4  O   UNL     1      20.748  11.261  10.690  1.00  0.00    -0.289 OA
ATOM      5  C   UNL     1      22.628  10.725  11.976  1.00  0.00     0.107 A 
ATOM      6  C   UNL     1      22.013   9.745  12.811  1.00  0.00     0.134 A 
ATOM      7  C   UNL     1      22.727   9.213  13.891  1.00  0.00     0.093 A 
ATOM      8  C   UNL     1      24.050   9.578  14.131  1.00  0.00     0.123 A 
ATOM      9  C   UNL     1      24.680  10.496  13.288  1.00  0.00     0.094 A 
ATOM     10  C   UNL     1      23.983  11.071  12.222  1.00  0.00     0.146 A 
ATOM     11  O   UNL     1      24.613  11.952  11.453  1.00  0.00    -0.456 OA
ENDROOT
BRANCH   1  12
ATOM     12  C   UNL     1      24.842  13.531   9.629  1.00  0.00     0.021 A 
ATOM     13  C   UNL     1      26.242  13.405   9.604  1.00  0.00     0.016 A 
ATOM     14  C   UNL     1      27.021  14.289   8.853  1.00  0.00     0.051 A 
ATOM     15  C   UNL     1      26.419  15.305   8.107  1.00  0.00     0.157 A 
ATOM     16  C   UNL     1      24.238  14.548   8.864  1.00  0.00     0.062 A 
ATOM     17  C   UNL     1      25.020  15.434   8.109  1.00  0.00     0.158 A 
BRANCH  15  18
ATOM     18  O   UNL     1      27.223  16.173   7.369  1.00  0.00    -0.504 OA
ATOM     19  H   UNL     1      27.700  15.878   6.525  1.00  0.00     0.293 HD
ENDBRANCH  15  18
BRANCH  17  20
ATOM     20  O   UNL     1      24.412  16.440   7.358  1.00  0.00    -0.504 OA
ATOM     21  H   UNL     1      24.956  17.141   6.869  1.00  0.00     0.293 HD
ENDBRANCH  17  20
ENDBRANCH   1  12
BRANCH   6  22
ATOM     22  O   UNL     1      20.722   9.244  12.608  1.00  0.00    -0.507 OA
ATOM     23  H   UNL     1      19.888   9.608  13.041  1.00  0.00     0.293 HD
ENDBRANCH   6  22
BRANCH   8  24
ATOM     24  O   UNL     1      24.735   9.017  15.206  1.00  0.00    -0.508 OA
ATOM     25  H   UNL     1      24.297   8.902  16.112  1.00  0.00     0.293 HD
ENDBRANCH   8  24
TORSDOF 5
ENDMDL
MODEL 9
REMARK VINA RESULT:    -6.059      3.131      5.053
REMARK INTER + INTRA:          -7.405
REMARK INTER:                  -7.100
REMARK INTRA:                  -0.305
REMARK UNBOUND:                -0.283
REMARK SMILES O=c1cc(-c2ccc(O)c(O)c2)oc2cc(O)cc(O)c12
REMARK SMILES IDX 4 1 3 2 2 3 1 4 21 5 19 6 18 7 16 8 15 9 14 10 13 11 5 12
REMARK SMILES IDX 6 13 7 14 8 15 12 16 10 17 9 18 11 20 20 22 17 24
REMARK H PARENT 9 19 11 21 20 23 17 25
REMARK Flexibility Score: inf
ROOT
ATOM      1  C   UNL     1      26.113  11.693  12.020  1.00  0.00     0.138 A 
ATOM      2  C   UNL     1      27.067  12.163  11.107  1.00  0.00     0.100 A 
ATOM      3  C   UNL     1      26.657  12.921  10.009  1.00  0.00     0.197 A 
ATOM      4  O   UNL     1      27.541  13.381   9.241  1.00  0.00    -0.289 OA
ATOM      5  C   UNL     1      25.280  13.182   9.810  1.00  0.00     0.107 A 
ATOM      6  C   UNL     1      24.743  13.908   8.705  1.00  0.00     0.134 A 
ATOM      7  C   UNL     1      23.375  14.204   8.675  1.00  0.00     0.093 A 
ATOM      8  C   UNL     1      22.516  13.750   9.675  1.00  0.00     0.123 A 
ATOM      9  C   UNL     1      23.022  12.993  10.732  1.00  0.00     0.094 A 
ATOM     10  C   UNL     1      24.388  12.710  10.809  1.00  0.00     0.146 A 
ATOM     11  O   UNL     1      24.833  11.999  11.840  1.00  0.00    -0.456 OA
ENDROOT
BRANCH   1  12
ATOM     12  C   UNL     1      26.495  10.882  13.204  1.00  0.00     0.021 A 
ATOM     13  C   UNL     1      27.745  11.094  13.812  1.00  0.00     0.016 A 
ATOM     14  C   UNL     1      28.125  10.350  14.932  1.00  0.00     0.051 A 
ATOM     15  C   UNL     1      27.263   9.392  15.471  1.00  0.00     0.157 A 
ATOM     16  C   UNL     1      25.624   9.924  13.759  1.00  0.00     0.062 A 
ATOM     17  C   UNL     1      26.005   9.179  14.885  1.00  0.00     0.158 A 
BRANCH  15  18
ATOM     18  O   UNL     1      27.672   8.663  16.588  1.00  0.00    -0.504 OA
ATOM     19  H   UNL     1      27.175   7.839  16.904  1.00  0.00     0.293 HD
ENDBRANCH  15  18
BRANCH  17  20
ATOM     20  O   UNL     1      25.135   8.231  15.424  1.00  0.00    -0.504 OA
ATOM     21  H   UNL     1      24.142   8.411  15.512  1.00  0.00     0.293 HD
ENDBRANCH  17  20
ENDBRANCH   1  12
BRANCH   6  22
ATOM     22  O   UNL     1      25.498  14.335   7.609  1.00  0.00    -0.507 OA
ATOM     23  H   UNL     1      25.325  15.178   7.082  1.00  0.00     0.293 HD
ENDBRANCH   6  22
BRANCH   8  24
ATOM     24  O   UNL     1      21.158  14.051   9.604  1.00  0.00    -0.508 OA
ATOM     25  H   UNL     1      20.832  14.987   9.393  1.00  0.00     0.293 HD
ENDBRANCH   8  24
TORSDOF 5
ENDMDL
