MODEL 1
REMARK VINA RESULT:    -6.434      0.000      0.000
REMARK INTER + INTRA:          -8.157
REMARK INTER:                  -7.750
REMARK INTRA:                  -0.407
REMARK UNBOUND:                -0.407
REMARK SMILES O=c1c(O)c(-c2ccc(O)cc2O)oc2cc(O)cc(O)c12
REMARK SMILES IDX 5 1 3 2 2 3 1 4 22 5 20 6 19 7 17 8 16 9 15 10 14 11 6 12
REMARK SMILES IDX 8 13 7 14 9 15 11 16 12 17 10 18 13 20 4 22 21 24 18 26
REMARK H PARENT 10 19 13 21 4 23 21 25 18 27
REMARK Flexibility Score: inf
ROOT
ATOM      1  C   UNL     1     -34.465  -8.136   2.072  1.00  0.00     0.184 A 
ATOM      2  C   UNL     1     -33.317  -8.891   1.788  1.00  0.00     0.208 A 
ATOM      3  C   UNL     1     -33.129  -9.379   0.486  1.00  0.00     0.238 A 
ATOM      4  O   UNL     1     -32.135 -10.117   0.256  1.00  0.00    -0.285 OA
ATOM      5  C   UNL     1     -34.065  -9.060  -0.528  1.00  0.00     0.111 A 
ATOM      6  C   UNL     1     -33.954  -9.465  -1.894  1.00  0.00     0.134 A 
ATOM      7  C   UNL     1     -34.995  -9.179  -2.786  1.00  0.00     0.093 A 
ATOM      8  C   UNL     1     -36.112  -8.451  -2.380  1.00  0.00     0.123 A 
ATOM      9  C   UNL     1     -36.207  -8.003  -1.062  1.00  0.00     0.094 A 
ATOM     10  C   UNL     1     -35.203  -8.305  -0.138  1.00  0.00     0.146 A 
ATOM     11  O   UNL     1     -35.343  -7.878   1.112  1.00  0.00    -0.451 OA
ENDROOT
BRANCH   1  12
ATOM     12  C   UNL     1     -34.726  -7.599   3.424  1.00  0.00     0.063 A 
ATOM     13  C   UNL     1     -35.360  -8.009   5.735  1.00  0.00     0.047 A 
ATOM     14  C   UNL     1     -35.111  -8.483   4.444  1.00  0.00     0.020 A 
ATOM     15  C   UNL     1     -35.213  -6.648   6.024  1.00  0.00     0.119 A 
ATOM     16  C   UNL     1     -34.807  -5.764   5.020  1.00  0.00     0.093 A 
ATOM     17  C   UNL     1     -34.548  -6.232   3.723  1.00  0.00     0.130 A 
BRANCH  15  18
ATOM     18  O   UNL     1     -35.463  -6.163   7.307  1.00  0.00    -0.508 OA
ATOM     19  H   UNL     1     -36.312  -6.401   7.807  1.00  0.00     0.293 HD
ENDBRANCH  15  18
BRANCH  17  20
ATOM     20  O   UNL     1     -34.098  -5.348   2.744  1.00  0.00    -0.507 OA
ATOM     21  H   UNL     1     -33.776  -5.674   1.840  1.00  0.00     0.293 HD
ENDBRANCH  17  20
ENDBRANCH   1  12
BRANCH   2  22
ATOM     22  O   UNL     1     -32.372  -9.132   2.789  1.00  0.00    -0.502 OA
ATOM     23  H   UNL     1     -32.388  -8.648   3.679  1.00  0.00     0.293 HD
ENDBRANCH   2  22
BRANCH   6  24
ATOM     24  O   UNL     1     -32.841 -10.120  -2.427  1.00  0.00    -0.507 OA
ATOM     25  H   UNL     1     -32.876 -10.961  -2.983  1.00  0.00     0.293 HD
ENDBRANCH   6  24
BRANCH   8  26
ATOM     26  O   UNL     1     -37.121  -8.170  -3.299  1.00  0.00    -0.508 OA
ATOM     27  H   UNL     1     -36.917  -7.757  -4.201  1.00  0.00     0.293 HD
ENDBRANCH   8  26
TORSDOF 6
ENDMDL
MODEL 2
REMARK VINA RESULT:    -6.292      1.548      7.025
REMARK INTER + INTRA:          -7.986
REMARK INTER:                  -7.578
REMARK INTRA:                  -0.408
REMARK UNBOUND:                -0.407
REMARK SMILES O=c1c(O)c(-c2ccc(O)cc2O)oc2cc(O)cc(O)c12
REMARK SMILES IDX 5 1 3 2 2 3 1 4 22 5 20 6 19 7 17 8 16 9 15 10 14 11 6 12
REMARK SMILES IDX 8 13 7 14 9 15 11 16 12 17 10 18 13 20 4 22 21 24 18 26
REMARK H PARENT 10 19 13 21 4 23 21 25 18 27
REMARK Flexibility Score: inf
ROOT
ATOM      1  C   UNL     1     -34.674  -8.153   2.868  1.00  0.00     0.184 A 
ATOM      2  C   UNL     1     -34.349  -6.835   3.223  1.00  0.00     0.208 A 
ATOM      3  C   UNL     1     -34.632  -6.392   4.524  1.00  0.00     0.238 A 
ATOM      4  O   UNL     1     -34.406  -5.188   4.814  1.00  0.00    -0.285 OA
ATOM      5  C   UNL     1     -35.185  -7.290   5.469  1.00  0.00     0.111 A 
ATOM      6  C   UNL     1     -35.473  -6.962   6.830  1.00  0.00     0.134 A 
ATOM      7  C   UNL     1     -36.118  -7.901   7.645  1.00  0.00     0.093 A 
ATOM      8  C   UNL     1     -36.429  -9.174   7.170  1.00  0.00     0.123 A 
ATOM      9  C   UNL     1     -36.104  -9.525   5.860  1.00  0.00     0.094 A 
ATOM     10  C   UNL     1     -35.495  -8.598   5.010  1.00  0.00     0.146 A 
ATOM     11  O   UNL     1     -35.222  -8.965   3.763  1.00  0.00    -0.451 OA
ENDROOT
BRANCH   1  12
ATOM     12  C   UNL     1     -34.410  -8.680   1.512  1.00  0.00     0.063 A 
ATOM     13  C   UNL     1     -35.176  -9.017  -0.771  1.00  0.00     0.047 A 
ATOM     14  C   UNL     1     -35.395  -8.536   0.523  1.00  0.00     0.020 A 
ATOM     15  C   UNL     1     -33.963  -9.636  -1.093  1.00  0.00     0.119 A 
ATOM     16  C   UNL     1     -32.967  -9.763  -0.121  1.00  0.00     0.093 A 
ATOM     17  C   UNL     1     -33.176  -9.277   1.179  1.00  0.00     0.130 A 
BRANCH  15  18
ATOM     18  O   UNL     1     -33.734 -10.124  -2.379  1.00  0.00    -0.508 OA
ATOM     19  H   UNL     1     -33.803 -11.113  -2.590  1.00  0.00     0.293 HD
ENDBRANCH  15  18
BRANCH  17  20
ATOM     20  O   UNL     1     -32.157  -9.367   2.126  1.00  0.00    -0.507 OA
ATOM     21  H   UNL     1     -31.234  -8.985   1.953  1.00  0.00     0.293 HD
ENDBRANCH  17  20
ENDBRANCH   1  12
BRANCH   2  22
ATOM     22  O   UNL     1     -33.738  -5.991   2.292  1.00  0.00    -0.502 OA
ATOM     23  H   UNL     1     -33.254  -5.143   2.563  1.00  0.00     0.293 HD
ENDBRANCH   2  22
BRANCH   6  24
ATOM     24  O   UNL     1     -35.126  -5.750   7.433  1.00  0.00    -0.507 OA
ATOM     25  H   UNL     1     -35.021  -4.872   6.948  1.00  0.00     0.293 HD
ENDBRANCH   6  24
BRANCH   8  26
ATOM     26  O   UNL     1     -37.055 -10.089   8.015  1.00  0.00    -0.508 OA
ATOM     27  H   UNL     1     -36.524 -10.681   8.642  1.00  0.00     0.293 HD
ENDBRANCH   8  26
TORSDOF 6
ENDMDL
MODEL 3
REMARK VINA RESULT:    -6.012      1.872      7.009
REMARK INTER + INTRA:          -7.649
REMARK INTER:                  -7.249
REMARK INTRA:                  -0.400
REMARK UNBOUND:                -0.407
REMARK SMILES O=c1c(O)c(-c2ccc(O)cc2O)oc2cc(O)cc(O)c12
REMARK SMILES IDX 5 1 3 2 2 3 1 4 22 5 20 6 19 7 17 8 16 9 15 10 14 11 6 12
REMARK SMILES IDX 8 13 7 14 9 15 11 16 12 17 10 18 13 20 4 22 21 24 18 26
REMARK H PARENT 10 19 13 21 4 23 21 25 18 27
REMARK Flexibility Score: inf
ROOT
ATOM      1  C   UNL     1     -34.418  -7.930   3.574  1.00  0.00     0.184 A 
ATOM      2  C   UNL     1     -35.052  -8.752   4.518  1.00  0.00     0.208 A 
ATOM      3  C   UNL     1     -35.579  -8.170   5.681  1.00  0.00     0.238 A 
ATOM      4  O   UNL     1     -36.080  -8.922   6.557  1.00  0.00    -0.285 OA
ATOM      5  C   UNL     1     -35.513  -6.767   5.859  1.00  0.00     0.111 A 
ATOM      6  C   UNL     1     -36.053  -6.064   6.979  1.00  0.00     0.134 A 
ATOM      7  C   UNL     1     -35.835  -4.685   7.100  1.00  0.00     0.093 A 
ATOM      8  C   UNL     1     -35.154  -3.974   6.113  1.00  0.00     0.123 A 
ATOM      9  C   UNL     1     -34.670  -4.641   4.987  1.00  0.00     0.094 A 
ATOM     10  C   UNL     1     -34.837  -6.022   4.856  1.00  0.00     0.146 A 
ATOM     11  O   UNL     1     -34.341  -6.621   3.779  1.00  0.00    -0.451 OA
ENDROOT
BRANCH   1  12
ATOM     12  C   UNL     1     -33.836  -8.479   2.331  1.00  0.00     0.063 A 
ATOM     13  C   UNL     1     -32.006  -9.646   1.234  1.00  0.00     0.047 A 
ATOM     14  C   UNL     1     -32.583  -9.110   2.389  1.00  0.00     0.020 A 
ATOM     15  C   UNL     1     -32.682  -9.570   0.011  1.00  0.00     0.119 A 
ATOM     16  C   UNL     1     -33.941  -8.965  -0.051  1.00  0.00     0.093 A 
ATOM     17  C   UNL     1     -34.530  -8.430   1.104  1.00  0.00     0.130 A 
BRANCH  15  18
ATOM     18  O   UNL     1     -32.115 -10.097  -1.148  1.00  0.00    -0.508 OA
ATOM     19  H   UNL     1     -31.683 -11.014  -1.156  1.00  0.00     0.293 HD
ENDBRANCH  15  18
BRANCH  17  20
ATOM     20  O   UNL     1     -35.806  -7.872   1.038  1.00  0.00    -0.507 OA
ATOM     21  H   UNL     1     -36.363  -7.716   1.870  1.00  0.00     0.293 HD
ENDBRANCH  17  20
ENDBRANCH   1  12
BRANCH   2  22
ATOM     22  O   UNL     1     -35.167 -10.125   4.284  1.00  0.00    -0.502 OA
ATOM     23  H   UNL     1     -35.160 -10.806   5.034  1.00  0.00     0.293 HD
ENDBRANCH   2  22
BRANCH   6  24
ATOM     24  O   UNL     1     -36.825  -6.660   7.980  1.00  0.00    -0.507 OA
ATOM     25  H   UNL     1     -36.588  -7.513   8.463  1.00  0.00     0.293 HD
ENDBRANCH   6  24
BRANCH   8  26
ATOM     26  O   UNL     1     -34.971  -2.601   6.257  1.00  0.00    -0.508 OA
ATOM     27  H   UNL     1     -35.641  -1.935   5.891  1.00  0.00     0.293 HD
ENDBRANCH   8  26
TORSDOF 6
ENDMDL
MODEL 4
REMARK VINA RESULT:    -5.717      1.580      7.010
REMARK INTER + INTRA:          -7.294
REMARK INTER:                  -6.878
REMARK INTRA:                  -0.416
REMARK UNBOUND:                -0.407
REMARK SMILES O=c1c(O)c(-c2ccc(O)cc2O)oc2cc(O)cc(O)c12
REMARK SMILES IDX 5 1 3 2 2 3 1 4 22 5 20 6 19 7 17 8 16 9 15 10 14 11 6 12
REMARK SMILES IDX 8 13 7 14 9 15 11 16 12 17 10 18 13 20 4 22 21 24 18 26
REMARK H PARENT 10 19 13 21 4 23 21 25 18 27
REMARK Flexibility Score: inf
ROOT
ATOM      1  C   UNL     1     -34.901  -7.858   3.216  1.00  0.00     0.184 A 
ATOM      2  C   UNL     1     -35.336  -8.775   4.185  1.00  0.00     0.208 A 
ATOM      3  C   UNL     1     -35.636  -8.312   5.475  1.00  0.00     0.238 A 
ATOM      4  O   UNL     1     -35.955  -9.150   6.358  1.00  0.00    -0.285 OA
ATOM      5  C   UNL     1     -35.547  -6.928   5.765  1.00  0.00     0.111 A 
ATOM      6  C   UNL     1     -35.868  -6.340   7.026  1.00  0.00     0.134 A 
ATOM      7  C   UNL     1     -35.641  -4.972   7.228  1.00  0.00     0.093 A 
ATOM      8  C   UNL     1     -35.166  -4.161   6.199  1.00  0.00     0.123 A 
ATOM      9  C   UNL     1     -34.901  -4.714   4.946  1.00  0.00     0.094 A 
ATOM     10  C   UNL     1     -35.080  -6.082   4.724  1.00  0.00     0.146 A 
ATOM     11  O   UNL     1     -34.795  -6.571   3.522  1.00  0.00    -0.451 OA
ENDROOT
BRANCH   1  12
ATOM     12  C   UNL     1     -34.562  -8.282   1.841  1.00  0.00     0.063 A 
ATOM     13  C   UNL     1     -35.275  -8.644  -0.455  1.00  0.00     0.047 A 
ATOM     14  C   UNL     1     -35.563  -8.256   0.857  1.00  0.00     0.020 A 
ATOM     15  C   UNL     1     -33.981  -9.049  -0.800  1.00  0.00     0.119 A 
ATOM     16  C   UNL     1     -32.973  -9.055   0.168  1.00  0.00     0.093 A 
ATOM     17  C   UNL     1     -33.251  -8.660   1.486  1.00  0.00     0.130 A 
BRANCH  15  18
ATOM     18  O   UNL     1     -33.684  -9.442  -2.104  1.00  0.00    -0.508 OA
ATOM     19  H   UNL     1     -32.727  -9.511  -2.431  1.00  0.00     0.293 HD
ENDBRANCH  15  18
BRANCH  17  20
ATOM     20  O   UNL     1     -32.226  -8.625   2.430  1.00  0.00    -0.507 OA
ATOM     21  H   UNL     1     -32.204  -7.928   3.166  1.00  0.00     0.293 HD
ENDBRANCH  17  20
ENDBRANCH   1  12
BRANCH   2  22
ATOM     22  O   UNL     1     -35.484 -10.125   3.853  1.00  0.00    -0.502 OA
ATOM     23  H   UNL     1     -34.708 -10.776   3.869  1.00  0.00     0.293 HD
ENDBRANCH   2  22
BRANCH   6  24
ATOM     24  O   UNL     1     -36.430  -7.041   8.096  1.00  0.00    -0.507 OA
ATOM     25  H   UNL     1     -35.909  -7.469   8.846  1.00  0.00     0.293 HD
ENDBRANCH   6  24
BRANCH   8  26
ATOM     26  O   UNL     1     -34.969  -2.801   6.431  1.00  0.00    -0.508 OA
ATOM     27  H   UNL     1     -35.747  -2.155   6.490  1.00  0.00     0.293 HD
ENDBRANCH   8  26
TORSDOF 6
ENDMDL
MODEL 5
REMARK VINA RESULT:    -5.686      2.996      5.438
REMARK INTER + INTRA:          -7.256
REMARK INTER:                  -6.952
REMARK INTRA:                  -0.304
REMARK UNBOUND:                -0.407
REMARK SMILES O=c1c(O)c(-c2ccc(O)cc2O)oc2cc(O)cc(O)c12
REMARK SMILES IDX 5 1 3 2 2 3 1 4 22 5 20 6 19 7 17 8 16 9 15 10 14 11 6 12
REMARK SMILES IDX 8 13 7 14 9 15 11 16 12 17 10 18 13 20 4 22 21 24 18 26
REMARK H PARENT 10 19 13 21 4 23 21 25 18 27
REMARK Flexibility Score: inf
ROOT
ATOM      1  C   UNL     1     -35.433  -5.606   6.174  1.00  0.00     0.184 A 
ATOM      2  C   UNL     1     -35.815  -6.896   6.571  1.00  0.00     0.208 A 
ATOM      3  C   UNL     1     -35.617  -7.967   5.686  1.00  0.00     0.238 A 
ATOM      4  O   UNL     1     -36.028  -9.109   6.018  1.00  0.00    -0.285 OA
ATOM      5  C   UNL     1     -34.989  -7.741   4.436  1.00  0.00     0.111 A 
ATOM      6  C   UNL     1     -34.698  -8.758   3.477  1.00  0.00     0.134 A 
ATOM      7  C   UNL     1     -34.170  -8.401   2.230  1.00  0.00     0.093 A 
ATOM      8  C   UNL     1     -33.864  -7.075   1.930  1.00  0.00     0.123 A 
ATOM      9  C   UNL     1     -34.093  -6.078   2.879  1.00  0.00     0.094 A 
ATOM     10  C   UNL     1     -34.655  -6.397   4.118  1.00  0.00     0.146 A 
ATOM     11  O   UNL     1     -34.876  -5.415   4.985  1.00  0.00    -0.451 OA
ENDROOT
BRANCH   1  12
ATOM     12  C   UNL     1     -35.621  -4.434   7.055  1.00  0.00     0.063 A 
ATOM     13  C   UNL     1     -37.125  -3.029   8.350  1.00  0.00     0.047 A 
ATOM     14  C   UNL     1     -36.913  -4.126   7.510  1.00  0.00     0.020 A 
ATOM     15  C   UNL     1     -36.046  -2.236   8.756  1.00  0.00     0.119 A 
ATOM     16  C   UNL     1     -34.752  -2.550   8.327  1.00  0.00     0.093 A 
ATOM     17  C   UNL     1     -34.530  -3.653   7.489  1.00  0.00     0.130 A 
BRANCH  15  18
ATOM     18  O   UNL     1     -36.246  -1.137   9.590  1.00  0.00    -0.508 OA
ATOM     19  H   UNL     1     -36.903  -1.171  10.361  1.00  0.00     0.293 HD
ENDBRANCH  15  18
BRANCH  17  20
ATOM     20  O   UNL     1     -33.230  -3.983   7.108  1.00  0.00    -0.507 OA
ATOM     21  H   UNL     1     -32.706  -4.712   7.577  1.00  0.00     0.293 HD
ENDBRANCH  17  20
ENDBRANCH   1  12
BRANCH   2  22
ATOM     22  O   UNL     1     -36.367  -7.104   7.838  1.00  0.00    -0.502 OA
ATOM     23  H   UNL     1     -37.106  -7.776   8.006  1.00  0.00     0.293 HD
ENDBRANCH   2  22
BRANCH   6  24
ATOM     24  O   UNL     1     -34.882 -10.125   3.705  1.00  0.00    -0.507 OA
ATOM     25  H   UNL     1     -34.676 -10.599   4.571  1.00  0.00     0.293 HD
ENDBRANCH   6  24
BRANCH   8  26
ATOM     26  O   UNL     1     -33.324  -6.758   0.685  1.00  0.00    -0.508 OA
ATOM     27  H   UNL     1     -33.325  -5.808   0.333  1.00  0.00     0.293 HD
ENDBRANCH   8  26
TORSDOF 6
ENDMDL
MODEL 6
REMARK VINA RESULT:    -3.995      1.665      6.713
REMARK INTER + INTRA:          -5.219
REMARK INTER:                  -4.887
REMARK INTRA:                  -0.332
REMARK UNBOUND:                -0.407
REMARK SMILES O=c1c(O)c(-c2ccc(O)cc2O)oc2cc(O)cc(O)c12
REMARK SMILES IDX 5 1 3 2 2 3 1 4 22 5 20 6 19 7 17 8 16 9 15 10 14 11 6 12
REMARK SMILES IDX 8 13 7 14 9 15 11 16 12 17 10 18 13 20 4 22 21 24 18 26
REMARK H PARENT 10 19 13 21 4 23 21 25 18 27
REMARK Flexibility Score: inf
ROOT
ATOM      1  C   UNL     1     -35.170  -8.609   0.976  1.00  0.00     0.184 A 
ATOM      2  C   UNL     1     -34.264  -7.574   1.253  1.00  0.00     0.208 A 
ATOM      3  C   UNL     1     -34.014  -7.227   2.589  1.00  0.00     0.238 A 
ATOM      4  O   UNL     1     -33.258  -6.250   2.827  1.00  0.00    -0.285 OA
ATOM      5  C   UNL     1     -34.633  -7.956   3.634  1.00  0.00     0.111 A 
ATOM      6  C   UNL     1     -34.421  -7.721   5.027  1.00  0.00     0.134 A 
ATOM      7  C   UNL     1     -35.168  -8.436   5.970  1.00  0.00     0.093 A 
ATOM      8  C   UNL     1     -36.073  -9.420   5.576  1.00  0.00     0.123 A 
ATOM      9  C   UNL     1     -36.250  -9.698   4.220  1.00  0.00     0.094 A 
ATOM     10  C   UNL     1     -35.547  -8.975   3.253  1.00  0.00     0.146 A 
ATOM     11  O   UNL     1     -35.761  -9.256   1.973  1.00  0.00    -0.451 OA
ENDROOT
BRANCH   1  12
ATOM     12  C   UNL     1     -35.483  -9.019  -0.409  1.00  0.00     0.063 A 
ATOM     13  C   UNL     1     -37.053  -9.038  -2.265  1.00  0.00     0.047 A 
ATOM     14  C   UNL     1     -36.728  -8.671  -0.956  1.00  0.00     0.020 A 
ATOM     15  C   UNL     1     -36.132  -9.744  -3.047  1.00  0.00     0.119 A 
ATOM     16  C   UNL     1     -34.880 -10.074  -2.518  1.00  0.00     0.093 A 
ATOM     17  C   UNL     1     -34.543  -9.704  -1.207  1.00  0.00     0.130 A 
BRANCH  15  18
ATOM     18  O   UNL     1     -36.447 -10.118  -4.352  1.00  0.00    -0.508 OA
ATOM     19  H   UNL     1     -37.409 -10.228  -4.653  1.00  0.00     0.293 HD
ENDBRANCH  15  18
BRANCH  17  20
ATOM     20  O   UNL     1     -33.274  -9.997  -0.709  1.00  0.00    -0.507 OA
ATOM     21  H   UNL     1     -32.928 -10.948  -0.659  1.00  0.00     0.293 HD
ENDBRANCH  17  20
ENDBRANCH   1  12
BRANCH   2  22
ATOM     22  O   UNL     1     -33.612  -6.917   0.205  1.00  0.00    -0.502 OA
ATOM     23  H   UNL     1     -33.041  -7.408  -0.472  1.00  0.00     0.293 HD
ENDBRANCH   2  22
BRANCH   6  24
ATOM     24  O   UNL     1     -33.477  -6.822   5.533  1.00  0.00    -0.507 OA
ATOM     25  H   UNL     1     -32.480  -6.976   5.546  1.00  0.00     0.293 HD
ENDBRANCH   6  24
BRANCH   8  26
ATOM     26  O   UNL     1     -36.788 -10.124   6.543  1.00  0.00    -0.508 OA
ATOM     27  H   UNL     1     -36.882  -9.777   7.491  1.00  0.00     0.293 HD
ENDBRANCH   8  26
TORSDOF 6
ENDMDL
MODEL 7
REMARK VINA RESULT:    -3.631      1.640      6.815
REMARK INTER + INTRA:          -4.781
REMARK INTER:                  -4.375
REMARK INTRA:                  -0.406
REMARK UNBOUND:                -0.407
REMARK SMILES O=c1c(O)c(-c2ccc(O)cc2O)oc2cc(O)cc(O)c12
REMARK SMILES IDX 5 1 3 2 2 3 1 4 22 5 20 6 19 7 17 8 16 9 15 10 14 11 6 12
REMARK SMILES IDX 8 13 7 14 9 15 11 16 12 17 10 18 13 20 4 22 21 24 18 26
REMARK H PARENT 10 19 13 21 4 23 21 25 18 27
REMARK Flexibility Score: inf
ROOT
ATOM      1  C   UNL     1     -35.290  -8.074   1.458  1.00  0.00     0.184 A 
ATOM      2  C   UNL     1     -35.976  -9.099   2.128  1.00  0.00     0.208 A 
ATOM      3  C   UNL     1     -36.052  -9.065   3.528  1.00  0.00     0.238 A 
ATOM      4  O   UNL     1     -36.604 -10.025   4.127  1.00  0.00    -0.285 OA
ATOM      5  C   UNL     1     -35.487  -7.976   4.238  1.00  0.00     0.111 A 
ATOM      6  C   UNL     1     -35.542  -7.814   5.656  1.00  0.00     0.134 A 
ATOM      7  C   UNL     1     -34.857  -6.751   6.257  1.00  0.00     0.093 A 
ATOM      8  C   UNL     1     -34.173  -5.809   5.489  1.00  0.00     0.123 A 
ATOM      9  C   UNL     1     -34.158  -5.925   4.099  1.00  0.00     0.094 A 
ATOM     10  C   UNL     1     -34.800  -6.997   3.472  1.00  0.00     0.146 A 
ATOM     11  O   UNL     1     -34.743  -7.082   2.148  1.00  0.00    -0.451 OA
ENDROOT
BRANCH   1  12
ATOM     12  C   UNL     1     -35.168  -8.055  -0.015  1.00  0.00     0.063 A 
ATOM     13  C   UNL     1     -35.963  -7.218  -2.155  1.00  0.00     0.047 A 
ATOM     14  C   UNL     1     -36.056  -7.264  -0.761  1.00  0.00     0.020 A 
ATOM     15  C   UNL     1     -34.973  -7.952  -2.818  1.00  0.00     0.119 A 
ATOM     16  C   UNL     1     -34.069  -8.723  -2.081  1.00  0.00     0.093 A 
ATOM     17  C   UNL     1     -34.151  -8.770  -0.681  1.00  0.00     0.130 A 
BRANCH  15  18
ATOM     18  O   UNL     1     -34.874  -7.917  -4.208  1.00  0.00    -0.508 OA
ATOM     19  H   UNL     1     -34.224  -7.296  -4.676  1.00  0.00     0.293 HD
ENDBRANCH  15  18
BRANCH  17  20
ATOM     20  O   UNL     1     -33.213  -9.505   0.044  1.00  0.00    -0.507 OA
ATOM     21  H   UNL     1     -33.451  -9.950   0.923  1.00  0.00     0.293 HD
ENDBRANCH  17  20
ENDBRANCH   1  12
BRANCH   2  22
ATOM     22  O   UNL     1     -36.585 -10.125   1.400  1.00  0.00    -0.502 OA
ATOM     23  H   UNL     1     -36.473 -10.221   0.398  1.00  0.00     0.293 HD
ENDBRANCH   2  22
BRANCH   6  24
ATOM     24  O   UNL     1     -36.269  -8.647   6.511  1.00  0.00    -0.507 OA
ATOM     25  H   UNL     1     -36.822  -8.332   7.294  1.00  0.00     0.293 HD
ENDBRANCH   6  24
BRANCH   8  26
ATOM     26  O   UNL     1     -33.517  -4.754   6.120  1.00  0.00    -0.508 OA
ATOM     27  H   UNL     1     -33.202  -3.941   5.603  1.00  0.00     0.293 HD
ENDBRANCH   8  26
TORSDOF 6
ENDMDL
