MODEL 1
REMARK VINA RESULT:    -1.854      0.000      0.000
REMARK INTER + INTRA:          -5.428
REMARK INTER:                  -4.239
REMARK INTRA:                  -1.189
REMARK UNBOUND:                -1.189
REMARK SMILES CCCCCCCCCCCCCCCCCCCCCCCC(=O)[O-]
REMARK SMILES IDX 13 1 14 2 15 3 16 4 17 5 18 6 19 7 20 8 21 9 22 10 23 11
REMARK SMILES IDX 24 12 25 13 26 14 12 15 11 16 10 17 9 18 8 19 7 20 6 21 5 22
REMARK SMILES IDX 4 23 3 24 2 25 1 26
REMARK H PARENT
REMARK Flexibility Score: inf
ROOT
ATOM      1  C   UNL     1      14.931  28.361  17.654  1.00  0.00     0.000 C 
ENDROOT
BRANCH   1   2
ATOM      2  C   UNL     1      14.729  29.856  17.360  1.00  0.00     0.000 C 
BRANCH   2   3
ATOM      3  C   UNL     1      13.489  30.129  16.488  1.00  0.00     0.000 C 
BRANCH   3   4
ATOM      4  C   UNL     1      13.727  31.089  15.306  1.00  0.00     0.000 C 
BRANCH   4   5
ATOM      5  C   UNL     1      15.125  31.007  14.661  1.00  0.00     0.000 C 
BRANCH   5   6
ATOM      6  C   UNL     1      15.119  30.478  13.211  1.00  0.00     0.000 C 
BRANCH   6   7
ATOM      7  C   UNL     1      14.009  31.113  12.357  1.00  0.00     0.000 C 
BRANCH   7   8
ATOM      8  C   UNL     1      13.480  30.121  11.311  1.00  0.00     0.000 C 
BRANCH   8   9
ATOM      9  C   UNL     1      14.598  29.556  10.419  1.00  0.00     0.000 C 
BRANCH   9  10
ATOM     10  C   UNL     1      14.050  28.853   9.164  1.00  0.00     0.006 C 
BRANCH  10  11
ATOM     11  C   UNL     1      12.899  27.893   9.494  1.00  0.00     0.053 C 
BRANCH  11  12
ATOM     12  C   UNL     1      13.249  26.464   9.206  1.00  0.00     0.041 C 
ATOM     13  O   UNL     1      13.762  25.742  10.103  1.00  0.00    -0.550 OA
ATOM     14  O   UNL     1      13.012  25.931   7.945  1.00  0.00    -0.550 OA
ENDBRANCH  11  12
ENDBRANCH  10  11
ENDBRANCH   9  10
ENDBRANCH   8   9
ENDBRANCH   7   8
ENDBRANCH   6   7
ENDBRANCH   5   6
ENDBRANCH   4   5
ENDBRANCH   3   4
ENDBRANCH   2   3
ENDBRANCH   1   2
BRANCH   1  15
ATOM     15  C   UNL     1      15.106  28.078  19.156  1.00  0.00     0.000 C 
BRANCH  15  16
ATOM     16  C   UNL     1      13.799  28.277  19.948  1.00  0.00     0.000 C 
BRANCH  16  17
ATOM     17  C   UNL     1      14.048  28.396  21.467  1.00  0.00     0.000 C 
BRANCH  17  18
ATOM     18  C   UNL     1      13.867  27.073  22.238  1.00  0.00    -0.000 C 
BRANCH  18  19
ATOM     19  C   UNL     1      13.235  27.210  23.634  1.00  0.00    -0.000 C 
BRANCH  19  20
ATOM     20  C   UNL     1      12.502  28.550  23.826  1.00  0.00    -0.000 C 
BRANCH  20  21
ATOM     21  C   UNL     1      13.431  29.674  24.315  1.00  0.00    -0.000 C 
BRANCH  21  22
ATOM     22  C   UNL     1      14.785  29.206  24.878  1.00  0.00    -0.000 C 
BRANCH  22  23
ATOM     23  C   UNL     1      14.835  29.229  26.417  1.00  0.00    -0.000 C 
BRANCH  23  24
ATOM     24  C   UNL     1      14.041  30.409  27.016  1.00  0.00    -0.000 C 
BRANCH  24  25
ATOM     25  C   UNL     1      13.050  29.996  28.118  1.00  0.00    -0.003 C 
ATOM     26  C   UNL     1      11.682  29.590  27.575  1.00  0.00     0.004 C 
ENDBRANCH  24  25
ENDBRANCH  23  24
ENDBRANCH  22  23
ENDBRANCH  21  22
ENDBRANCH  20  21
ENDBRANCH  19  20
ENDBRANCH  18  19
ENDBRANCH  17  18
ENDBRANCH  16  17
ENDBRANCH  15  16
ENDBRANCH   1  15
TORSDOF 22
ENDMDL
MODEL 2
REMARK VINA RESULT:     0.944      1.836      3.203
REMARK INTER + INTRA:           0.968
REMARK INTER:                  -0.657
REMARK INTRA:                   1.625
REMARK UNBOUND:                -1.189
REMARK SMILES CCCCCCCCCCCCCCCCCCCCCCCC(=O)[O-]
REMARK SMILES IDX 13 1 14 2 15 3 16 4 17 5 18 6 19 7 20 8 21 9 22 10 23 11
REMARK SMILES IDX 24 12 25 13 26 14 12 15 11 16 10 17 9 18 8 19 7 20 6 21 5 22
REMARK SMILES IDX 4 23 3 24 2 25 1 26
REMARK H PARENT
REMARK Flexibility Score: inf
ROOT
ATOM      1  C   UNL     1      14.869  27.665  21.328  1.00  0.00     0.000 C 
ENDROOT
BRANCH   1   2
ATOM      2  C   UNL     1      14.375  29.116  21.208  1.00  0.00     0.000 C 
BRANCH   2   3
ATOM      3  C   UNL     1      15.103  29.903  20.103  1.00  0.00     0.000 C 
BRANCH   3   4
ATOM      4  C   UNL     1      14.306  30.072  18.795  1.00  0.00     0.000 C 
BRANCH   4   5
ATOM      5  C   UNL     1      14.943  29.432  17.546  1.00  0.00     0.000 C 
BRANCH   5   6
ATOM      6  C   UNL     1      13.987  29.318  16.339  1.00  0.00     0.000 C 
BRANCH   6   7
ATOM      7  C   UNL     1      13.507  30.689  15.835  1.00  0.00     0.000 C 
BRANCH   7   8
ATOM      8  C   UNL     1      13.134  30.631  14.347  1.00  0.00     0.000 C 
BRANCH   8   9
ATOM      9  C   UNL     1      14.272  31.125  13.437  1.00  0.00     0.000 C 
BRANCH   9  10
ATOM     10  C   UNL     1      14.903  29.987  12.615  1.00  0.00     0.006 C 
BRANCH  10  11
ATOM     11  C   UNL     1      15.099  30.375  11.143  1.00  0.00     0.053 C 
BRANCH  11  12
ATOM     12  C   UNL     1      14.113  29.696  10.239  1.00  0.00     0.041 C 
ATOM     13  O   UNL     1      14.389  28.580   9.723  1.00  0.00    -0.550 OA
ATOM     14  O   UNL     1      12.891  30.298   9.965  1.00  0.00    -0.550 OA
ENDBRANCH  11  12
ENDBRANCH  10  11
ENDBRANCH   9  10
ENDBRANCH   8   9
ENDBRANCH   7   8
ENDBRANCH   6   7
ENDBRANCH   5   6
ENDBRANCH   4   5
ENDBRANCH   3   4
ENDBRANCH   2   3
ENDBRANCH   1   2
BRANCH   1  15
ATOM     15  C   UNL     1      15.054  26.994  19.957  1.00  0.00     0.000 C 
BRANCH  15  16
ATOM     16  C   UNL     1      14.880  25.464  20.022  1.00  0.00     0.000 C 
BRANCH  16  17
ATOM     17  C   UNL     1      15.106  24.909  21.445  1.00  0.00     0.000 C 
BRANCH  17  18
ATOM     18  C   UNL     1      14.949  25.961  22.561  1.00  0.00    -0.000 C 
BRANCH  18  19
ATOM     19  C   UNL     1      13.629  25.886  23.348  1.00  0.00    -0.000 C 
BRANCH  19  20
ATOM     20  C   UNL     1      13.845  25.614  24.848  1.00  0.00    -0.000 C 
BRANCH  20  21
ATOM     21  C   UNL     1      15.084  26.331  25.412  1.00  0.00    -0.000 C 
BRANCH  21  22
ATOM     22  C   UNL     1      14.861  27.797  25.825  1.00  0.00    -0.000 C 
BRANCH  22  23
ATOM     23  C   UNL     1      13.388  28.232  25.719  1.00  0.00    -0.000 C 
BRANCH  23  24
ATOM     24  C   UNL     1      13.131  29.609  26.369  1.00  0.00    -0.000 C 
BRANCH  24  25
ATOM     25  C   UNL     1      14.382  30.502  26.447  1.00  0.00    -0.003 C 
ATOM     26  C   UNL     1      14.610  31.095  27.836  1.00  0.00     0.004 C 
ENDBRANCH  24  25
ENDBRANCH  23  24
ENDBRANCH  22  23
ENDBRANCH  21  22
ENDBRANCH  20  21
ENDBRANCH  19  20
ENDBRANCH  18  19
ENDBRANCH  17  18
ENDBRANCH  16  17
ENDBRANCH  15  16
ENDBRANCH   1  15
TORSDOF 22
ENDMDL
