MODEL 1
REMARK VINA RESULT:    36.695      0.000      0.000
REMARK INTER + INTRA:          43.982
REMARK INTER:                  44.203
REMARK INTRA:                  -0.221
REMARK UNBOUND:                -0.221
REMARK SMILES O=c1c(O)c(-c2ccc(O)c(O)c2)oc2cc(O)cc(O)c12
REMARK SMILES IDX 5 1 3 2 2 3 1 4 22 5 20 6 19 7 17 8 16 9 15 10 14 11 6 12
REMARK SMILES IDX 7 13 8 14 9 15 13 16 11 17 10 18 12 20 4 22 21 24 18 26
REMARK H PARENT 10 19 12 21 4 23 21 25 18 27
REMARK Flexibility Score: inf
ROOT
ATOM      1  C   UNL     1      23.192   1.612  50.341  1.00  0.00     0.180 A 
ATOM      2  C   UNL     1      24.502   1.153  50.585  1.00  0.00     0.208 A 
ATOM      3  C   UNL     1      25.240   0.616  49.520  1.00  0.00     0.238 A 
ATOM      4  O   UNL     1      26.418   0.211  49.723  1.00  0.00    -0.285 OA
ATOM      5  C   UNL     1      24.656   0.526  48.240  1.00  0.00     0.111 A 
ATOM      6  C   UNL     1      25.330  -0.006  47.115  1.00  0.00     0.134 A 
ATOM      7  C   UNL     1      24.675  -0.069  45.876  1.00  0.00     0.093 A 
ATOM      8  C   UNL     1      23.360   0.390  45.742  1.00  0.00     0.123 A 
ATOM      9  C   UNL     1      22.691   0.916  46.848  1.00  0.00     0.094 A 
ATOM     10  C   UNL     1      23.327   0.988  48.090  1.00  0.00     0.146 A 
ATOM     11  O   UNL     1      22.668   1.498  49.125  1.00  0.00    -0.452 OA
ENDROOT
BRANCH   1  12
ATOM     12  C   UNL     1      22.356   2.209  51.409  1.00  0.00     0.025 A 
ATOM     13  C   UNL     1      22.681   3.450  51.984  1.00  0.00     0.016 A 
ATOM     14  C   UNL     1      21.864   4.005  52.972  1.00  0.00     0.051 A 
ATOM     15  C   UNL     1      20.706   3.340  53.390  1.00  0.00     0.157 A 
ATOM     16  C   UNL     1      21.182   1.554  51.815  1.00  0.00     0.062 A 
ATOM     17  C   UNL     1      20.362   2.110  52.807  1.00  0.00     0.158 A 
BRANCH  15  18
ATOM     18  O   UNL     1      19.912   3.918  54.379  1.00  0.00    -0.504 OA
ATOM     19  H   UNL     1      20.273   4.616  55.019  1.00  0.00     0.293 HD
ENDBRANCH  15  18
BRANCH  17  20
ATOM     20  O   UNL     1      19.206   1.444  53.213  1.00  0.00    -0.504 OA
ATOM     21  H   UNL     1      18.458   1.231  52.563  1.00  0.00     0.293 HD
ENDBRANCH  17  20
ENDBRANCH   1  12
BRANCH   2  22
ATOM     22  O   UNL     1      25.040   1.207  51.873  1.00  0.00    -0.502 OA
ATOM     23  H   UNL     1      26.038   1.229  52.043  1.00  0.00     0.293 HD
ENDBRANCH   2  22
BRANCH   6  24
ATOM     24  O   UNL     1      26.642  -0.472  47.219  1.00  0.00    -0.507 OA
ATOM     25  H   UNL     1      26.996  -0.877  48.077  1.00  0.00     0.293 HD
ENDBRANCH   6  24
BRANCH   8  26
ATOM     26  O   UNL     1      22.710   0.327  44.512  1.00  0.00    -0.508 OA
ATOM     27  H   UNL     1      22.885  -0.426  43.857  1.00  0.00     0.293 HD
ENDBRANCH   8  26
TORSDOF 6
ENDMDL
MODEL 2
REMARK VINA RESULT:    36.779      3.672      5.619
REMARK INTER + INTRA:          44.083
REMARK INTER:                  43.648
REMARK INTRA:                   0.435
REMARK UNBOUND:                -0.221
REMARK SMILES O=c1c(O)c(-c2ccc(O)c(O)c2)oc2cc(O)cc(O)c12
REMARK SMILES IDX 5 1 3 2 2 3 1 4 22 5 20 6 19 7 17 8 16 9 15 10 14 11 6 12
REMARK SMILES IDX 7 13 8 14 9 15 13 16 11 17 10 18 12 20 4 22 21 24 18 26
REMARK H PARENT 10 19 12 21 4 23 21 25 18 27
REMARK Flexibility Score: inf
ROOT
ATOM      1  C   UNL     1      22.304   0.046  46.881  1.00  0.00     0.180 A 
ATOM      2  C   UNL     1      22.963   0.522  45.731  1.00  0.00     0.208 A 
ATOM      3  C   UNL     1      24.320   0.868  45.823  1.00  0.00     0.238 A 
ATOM      4  O   UNL     1      24.925   1.285  44.797  1.00  0.00    -0.285 OA
ATOM      5  C   UNL     1      24.987   0.754  47.059  1.00  0.00     0.111 A 
ATOM      6  C   UNL     1      26.352   1.086  47.238  1.00  0.00     0.134 A 
ATOM      7  C   UNL     1      26.942   0.953  48.504  1.00  0.00     0.093 A 
ATOM      8  C   UNL     1      26.192   0.496  49.593  1.00  0.00     0.123 A 
ATOM      9  C   UNL     1      24.847   0.167  49.422  1.00  0.00     0.094 A 
ATOM     10  C   UNL     1      24.242   0.291  48.169  1.00  0.00     0.146 A 
ATOM     11  O   UNL     1      22.961  -0.034  48.034  1.00  0.00    -0.452 OA
ENDROOT
BRANCH   1  12
ATOM     12  C   UNL     1      20.879  -0.356  46.861  1.00  0.00     0.025 A 
ATOM     13  C   UNL     1      20.047  -0.046  45.771  1.00  0.00     0.016 A 
ATOM     14  C   UNL     1      18.712  -0.457  45.762  1.00  0.00     0.051 A 
ATOM     15  C   UNL     1      18.190  -1.195  46.830  1.00  0.00     0.157 A 
ATOM     16  C   UNL     1      20.359  -1.115  47.922  1.00  0.00     0.062 A 
ATOM     17  C   UNL     1      19.018  -1.528  47.915  1.00  0.00     0.158 A 
BRANCH  15  18
ATOM     18  O   UNL     1      16.854  -1.589  46.794  1.00  0.00    -0.504 OA
ATOM     19  H   UNL     1      16.202  -1.218  46.113  1.00  0.00     0.293 HD
ENDBRANCH  15  18
BRANCH  17  20
ATOM     20  O   UNL     1      18.509  -2.269  48.980  1.00  0.00    -0.504 OA
ATOM     21  H   UNL     1      18.247  -3.242  48.874  1.00  0.00     0.293 HD
ENDBRANCH  17  20
ENDBRANCH   1  12
BRANCH   2  22
ATOM     22  O   UNL     1      22.266   0.673  44.530  1.00  0.00    -0.502 OA
ATOM     23  H   UNL     1      22.450   0.093  43.720  1.00  0.00     0.293 HD
ENDBRANCH   2  22
BRANCH   6  24
ATOM     24  O   UNL     1      27.124   1.545  46.169  1.00  0.00    -0.507 OA
ATOM     25  H   UNL     1      28.134   1.463  46.168  1.00  0.00     0.293 HD
ENDBRANCH   6  24
BRANCH   8  26
ATOM     26  O   UNL     1      26.777   0.364  50.850  1.00  0.00    -0.508 OA
ATOM     27  H   UNL     1      27.090   1.172  51.377  1.00  0.00     0.293 HD
ENDBRANCH   8  26
TORSDOF 6
ENDMDL
MODEL 3
REMARK VINA RESULT:    37.918      1.536      6.923
REMARK INTER + INTRA:          45.456
REMARK INTER:                  45.740
REMARK INTRA:                  -0.284
REMARK UNBOUND:                -0.221
REMARK SMILES O=c1c(O)c(-c2ccc(O)c(O)c2)oc2cc(O)cc(O)c12
REMARK SMILES IDX 5 1 3 2 2 3 1 4 22 5 20 6 19 7 17 8 16 9 15 10 14 11 6 12
REMARK SMILES IDX 7 13 8 14 9 15 13 16 11 17 10 18 12 20 4 22 21 24 18 26
REMARK H PARENT 10 19 12 21 4 23 21 25 18 27
REMARK Flexibility Score: inf
ROOT
ATOM      1  C   UNL     1      23.281   2.092  50.879  1.00  0.00     0.180 A 
ATOM      2  C   UNL     1      23.448   3.401  51.374  1.00  0.00     0.208 A 
ATOM      3  C   UNL     1      22.507   3.907  52.282  1.00  0.00     0.238 A 
ATOM      4  O   UNL     1      22.651   5.073  52.741  1.00  0.00    -0.285 OA
ATOM      5  C   UNL     1      21.408   3.111  52.665  1.00  0.00     0.111 A 
ATOM      6  C   UNL     1      20.412   3.547  53.572  1.00  0.00     0.134 A 
ATOM      7  C   UNL     1      19.344   2.698  53.896  1.00  0.00     0.093 A 
ATOM      8  C   UNL     1      19.252   1.422  53.328  1.00  0.00     0.123 A 
ATOM      9  C   UNL     1      20.231   0.987  52.434  1.00  0.00     0.094 A 
ATOM     10  C   UNL     1      21.304   1.818  52.100  1.00  0.00     0.146 A 
ATOM     11  O   UNL     1      22.224   1.376  51.250  1.00  0.00    -0.452 OA
ENDROOT
BRANCH   1  12
ATOM     12  C   UNL     1      24.241   1.480  49.932  1.00  0.00     0.025 A 
ATOM     13  C   UNL     1      25.491   1.003  50.363  1.00  0.00     0.016 A 
ATOM     14  C   UNL     1      26.370   0.407  49.456  1.00  0.00     0.051 A 
ATOM     15  C   UNL     1      26.013   0.265  48.111  1.00  0.00     0.157 A 
ATOM     16  C   UNL     1      23.876   1.317  48.585  1.00  0.00     0.062 A 
ATOM     17  C   UNL     1      24.758   0.720  47.674  1.00  0.00     0.158 A 
BRANCH  15  18
ATOM     18  O   UNL     1      26.912  -0.332  47.230  1.00  0.00    -0.504 OA
ATOM     19  H   UNL     1      27.822  -0.661  47.530  1.00  0.00     0.293 HD
ENDBRANCH  15  18
BRANCH  17  20
ATOM     20  O   UNL     1      24.390   0.576  46.337  1.00  0.00    -0.504 OA
ATOM     21  H   UNL     1      24.813  -0.127  45.741  1.00  0.00     0.293 HD
ENDBRANCH  17  20
ENDBRANCH   1  12
BRANCH   2  22
ATOM     22  O   UNL     1      24.519   4.187  50.940  1.00  0.00    -0.502 OA
ATOM     23  H   UNL     1      24.702   5.109  51.318  1.00  0.00     0.293 HD
ENDBRANCH   2  22
BRANCH   6  24
ATOM     24  O   UNL     1      20.477   4.815  54.153  1.00  0.00    -0.507 OA
ATOM     25  H   UNL     1      21.362   5.245  54.395  1.00  0.00     0.293 HD
ENDBRANCH   6  24
BRANCH   8  26
ATOM     26  O   UNL     1      18.191   0.579  53.649  1.00  0.00    -0.508 OA
ATOM     27  H   UNL     1      17.361   0.528  53.070  1.00  0.00     0.293 HD
ENDBRANCH   8  26
TORSDOF 6
ENDMDL
MODEL 4
REMARK VINA RESULT:    39.120      9.691     11.209
REMARK INTER + INTRA:          46.904
REMARK INTER:                  46.979
REMARK INTRA:                  -0.075
REMARK UNBOUND:                -0.221
REMARK SMILES O=c1c(O)c(-c2ccc(O)c(O)c2)oc2cc(O)cc(O)c12
REMARK SMILES IDX 5 1 3 2 2 3 1 4 22 5 20 6 19 7 17 8 16 9 15 10 14 11 6 12
REMARK SMILES IDX 7 13 8 14 9 15 13 16 11 17 10 18 12 20 4 22 21 24 18 26
REMARK H PARENT 10 19 12 21 4 23 21 25 18 27
REMARK Flexibility Score: inf
ROOT
ATOM      1  C   UNL     1      22.030  10.628  46.564  1.00  0.00     0.180 A 
ATOM      2  C   UNL     1      21.671  11.501  45.518  1.00  0.00     0.208 A 
ATOM      3  C   UNL     1      20.393  11.389  44.951  1.00  0.00     0.238 A 
ATOM      4  O   UNL     1      20.055  12.172  44.021  1.00  0.00    -0.285 OA
ATOM      5  C   UNL     1      19.506  10.397  45.418  1.00  0.00     0.111 A 
ATOM      6  C   UNL     1      18.203  10.214  44.896  1.00  0.00     0.134 A 
ATOM      7  C   UNL     1      17.383   9.197  45.410  1.00  0.00     0.093 A 
ATOM      8  C   UNL     1      17.844   8.361  46.433  1.00  0.00     0.123 A 
ATOM      9  C   UNL     1      19.128   8.538  46.950  1.00  0.00     0.094 A 
ATOM     10  C   UNL     1      19.958   9.546  46.453  1.00  0.00     0.146 A 
ATOM     11  O   UNL     1      21.174   9.694  46.968  1.00  0.00    -0.452 OA
ENDROOT
BRANCH   1  12
ATOM     12  C   UNL     1      23.353  10.696  47.226  1.00  0.00     0.025 A 
ATOM     13  C   UNL     1      23.466  10.875  48.616  1.00  0.00     0.016 A 
ATOM     14  C   UNL     1      24.724  10.911  49.223  1.00  0.00     0.051 A 
ATOM     15  C   UNL     1      25.884  10.755  48.458  1.00  0.00     0.157 A 
ATOM     16  C   UNL     1      24.519  10.518  46.464  1.00  0.00     0.062 A 
ATOM     17  C   UNL     1      25.782  10.555  47.072  1.00  0.00     0.158 A 
BRANCH  15  18
ATOM     18  O   UNL     1      27.125  10.798  49.092  1.00  0.00    -0.504 OA
ATOM     19  H   UNL     1      27.237  10.568  50.072  1.00  0.00     0.293 HD
ENDBRANCH  15  18
BRANCH  17  20
ATOM     20  O   UNL     1      26.933  10.391  46.302  1.00  0.00    -0.504 OA
ATOM     21  H   UNL     1      27.829  10.176  46.725  1.00  0.00     0.293 HD
ENDBRANCH  17  20
ENDBRANCH   1  12
BRANCH   2  22
ATOM     22  O   UNL     1      22.586  12.443  45.040  1.00  0.00    -0.502 OA
ATOM     23  H   UNL     1      23.448  12.176  44.581  1.00  0.00     0.293 HD
ENDBRANCH   2  22
BRANCH   6  24
ATOM     24  O   UNL     1      17.717  11.033  43.875  1.00  0.00    -0.507 OA
ATOM     25  H   UNL     1      18.339  11.493  43.221  1.00  0.00     0.293 HD
ENDBRANCH   6  24
BRANCH   8  26
ATOM     26  O   UNL     1      17.031   7.351  46.942  1.00  0.00    -0.508 OA
ATOM     27  H   UNL     1      16.826   7.284  47.932  1.00  0.00     0.293 HD
ENDBRANCH   8  26
TORSDOF 6
ENDMDL
