MODEL 1
REMARK VINA RESULT:    -4.788      0.000      0.000
REMARK INTER + INTRA:          -6.070
REMARK INTER:                  -5.768
REMARK INTRA:                  -0.302
REMARK UNBOUND:                -0.302
REMARK SMILES O=c1c(O)c(-c2ccc(O)c(O)c2)oc2cc(O)cc(O)c12
REMARK SMILES IDX 5 1 3 2 2 3 1 4 22 5 20 6 19 7 17 8 16 9 15 10 14 11 6 12
REMARK SMILES IDX 7 13 8 14 9 15 13 16 11 17 10 18 12 20 4 22 21 24 18 26
REMARK H PARENT 10 19 12 21 4 23 21 25 18 27
REMARK Flexibility Score: inf
ROOT
ATOM      1  C   UNL     1       0.246  22.703  14.744  1.00  0.00     0.180 A 
ATOM      2  C   UNL     1      -0.334  22.272  13.539  1.00  0.00     0.208 A 
ATOM      3  C   UNL     1      -1.555  22.833  13.132  1.00  0.00     0.238 A 
ATOM      4  O   UNL     1      -2.096  22.405  12.080  1.00  0.00    -0.285 OA
ATOM      5  C   UNL     1      -2.173  23.829  13.927  1.00  0.00     0.111 A 
ATOM      6  C   UNL     1      -3.390  24.495  13.590  1.00  0.00     0.134 A 
ATOM      7  C   UNL     1      -3.976  25.369  14.514  1.00  0.00     0.093 A 
ATOM      8  C   UNL     1      -3.356  25.651  15.734  1.00  0.00     0.123 A 
ATOM      9  C   UNL     1      -2.138  25.051  16.045  1.00  0.00     0.094 A 
ATOM     10  C   UNL     1      -1.546  24.147  15.159  1.00  0.00     0.146 A 
ATOM     11  O   UNL     1      -0.390  23.590  15.501  1.00  0.00    -0.452 OA
ENDROOT
BRANCH   1  12
ATOM     12  C   UNL     1       1.543  22.177  15.227  1.00  0.00     0.025 A 
ATOM     13  C   UNL     1       1.577  20.965  15.934  1.00  0.00     0.016 A 
ATOM     14  C   UNL     1       2.788  20.460  16.416  1.00  0.00     0.051 A 
ATOM     15  C   UNL     1       3.978  21.164  16.214  1.00  0.00     0.157 A 
ATOM     16  C   UNL     1       2.739  22.894  15.043  1.00  0.00     0.062 A 
ATOM     17  C   UNL     1       3.954  22.390  15.528  1.00  0.00     0.158 A 
BRANCH  15  18
ATOM     18  O   UNL     1       5.171  20.635  16.705  1.00  0.00    -0.504 OA
ATOM     19  H   UNL     1       5.440  20.724  17.676  1.00  0.00     0.293 HD
ENDBRANCH  15  18
BRANCH  17  20
ATOM     20  O   UNL     1       5.136  23.104  15.336  1.00  0.00    -0.504 OA
ATOM     21  H   UNL     1       6.024  22.635  15.197  1.00  0.00     0.293 HD
ENDBRANCH  17  20
ENDBRANCH   1  12
BRANCH   2  22
ATOM     22  O   UNL     1       0.281  21.273  12.780  1.00  0.00    -0.502 OA
ATOM     23  H   UNL     1       0.357  21.324  11.771  1.00  0.00     0.293 HD
ENDBRANCH   2  22
BRANCH   6  24
ATOM     24  O   UNL     1      -4.042  24.354  12.363  1.00  0.00    -0.507 OA
ATOM     25  H   UNL     1      -3.935  24.980  11.579  1.00  0.00     0.293 HD
ENDBRANCH   6  24
BRANCH   8  26
ATOM     26  O   UNL     1      -3.939  26.534  16.640  1.00  0.00    -0.508 OA
ATOM     27  H   UNL     1      -4.521  27.304  16.330  1.00  0.00     0.293 HD
ENDBRANCH   8  26
TORSDOF 6
ENDMDL
MODEL 2
REMARK VINA RESULT:    -4.544      1.347      2.956
REMARK INTER + INTRA:          -5.776
REMARK INTER:                  -5.454
REMARK INTRA:                  -0.322
REMARK UNBOUND:                -0.302
REMARK SMILES O=c1c(O)c(-c2ccc(O)c(O)c2)oc2cc(O)cc(O)c12
REMARK SMILES IDX 5 1 3 2 2 3 1 4 22 5 20 6 19 7 17 8 16 9 15 10 14 11 6 12
REMARK SMILES IDX 7 13 8 14 9 15 13 16 11 17 10 18 12 20 4 22 21 24 18 26
REMARK H PARENT 10 19 12 21 4 23 21 25 18 27
REMARK Flexibility Score: inf
ROOT
ATOM      1  C   UNL     1      -0.202  23.497  15.702  1.00  0.00     0.180 A 
ATOM      2  C   UNL     1      -0.675  24.248  16.792  1.00  0.00     0.208 A 
ATOM      3  C   UNL     1      -1.941  24.850  16.705  1.00  0.00     0.238 A 
ATOM      4  O   UNL     1      -2.337  25.565  17.661  1.00  0.00    -0.285 OA
ATOM      5  C   UNL     1      -2.722  24.681  15.536  1.00  0.00     0.111 A 
ATOM      6  C   UNL     1      -4.035  25.213  15.357  1.00  0.00     0.134 A 
ATOM      7  C   UNL     1      -4.662  25.094  14.110  1.00  0.00     0.093 A 
ATOM      8  C   UNL     1      -4.052  24.406  13.058  1.00  0.00     0.123 A 
ATOM      9  C   UNL     1      -2.796  23.832  13.244  1.00  0.00     0.094 A 
ATOM     10  C   UNL     1      -2.130  23.965  14.464  1.00  0.00     0.146 A 
ATOM     11  O   UNL     1      -0.930  23.412  14.595  1.00  0.00    -0.452 OA
ENDROOT
BRANCH   1  12
ATOM     12  C   UNL     1       1.111  22.812  15.728  1.00  0.00     0.025 A 
ATOM     13  C   UNL     1       1.209  21.526  16.281  1.00  0.00     0.016 A 
ATOM     14  C   UNL     1       2.441  20.869  16.335  1.00  0.00     0.051 A 
ATOM     15  C   UNL     1       3.596  21.493  15.853  1.00  0.00     0.157 A 
ATOM     16  C   UNL     1       2.277  23.446  15.263  1.00  0.00     0.062 A 
ATOM     17  C   UNL     1       3.516  22.789  15.319  1.00  0.00     0.158 A 
BRANCH  15  18
ATOM     18  O   UNL     1       4.811  20.813  15.918  1.00  0.00    -0.504 OA
ATOM     19  H   UNL     1       4.909  19.854  15.610  1.00  0.00     0.293 HD
ENDBRANCH  15  18
BRANCH  17  20
ATOM     20  O   UNL     1       4.666  23.423  14.850  1.00  0.00    -0.504 OA
ATOM     21  H   UNL     1       4.616  24.223  14.228  1.00  0.00     0.293 HD
ENDBRANCH  17  20
ENDBRANCH   1  12
BRANCH   2  22
ATOM     22  O   UNL     1       0.121  24.419  17.927  1.00  0.00    -0.502 OA
ATOM     23  H   UNL     1      -0.265  24.460  18.862  1.00  0.00     0.293 HD
ENDBRANCH   2  22
BRANCH   6  24
ATOM     24  O   UNL     1      -4.770  25.837  16.368  1.00  0.00    -0.507 OA
ATOM     25  H   UNL     1      -5.041  25.399  17.236  1.00  0.00     0.293 HD
ENDBRANCH   6  24
BRANCH   8  26
ATOM     26  O   UNL     1      -4.691  24.279  11.827  1.00  0.00    -0.508 OA
ATOM     27  H   UNL     1      -5.297  23.493  11.623  1.00  0.00     0.293 HD
ENDBRANCH   8  26
TORSDOF 6
ENDMDL
MODEL 3
REMARK VINA RESULT:    -4.464      4.969      6.899
REMARK INTER + INTRA:          -5.679
REMARK INTER:                  -5.640
REMARK INTRA:                  -0.040
REMARK UNBOUND:                -0.302
REMARK SMILES O=c1c(O)c(-c2ccc(O)c(O)c2)oc2cc(O)cc(O)c12
REMARK SMILES IDX 5 1 3 2 2 3 1 4 22 5 20 6 19 7 17 8 16 9 15 10 14 11 6 12
REMARK SMILES IDX 7 13 8 14 9 15 13 16 11 17 10 18 12 20 4 22 21 24 18 26
REMARK H PARENT 10 19 12 21 4 23 21 25 18 27
REMARK Flexibility Score: inf
ROOT
ATOM      1  C   UNL     1       2.306  16.464  13.991  1.00  0.00     0.180 A 
ATOM      2  C   UNL     1       2.033  15.699  12.844  1.00  0.00     0.208 A 
ATOM      3  C   UNL     1       1.257  16.263  11.819  1.00  0.00     0.238 A 
ATOM      4  O   UNL     1       0.970  15.556  10.818  1.00  0.00    -0.285 OA
ATOM      5  C   UNL     1       0.777  17.589  11.947  1.00  0.00     0.111 A 
ATOM      6  C   UNL     1       0.016  18.275  10.952  1.00  0.00     0.134 A 
ATOM      7  C   UNL     1      -0.517  19.538  11.240  1.00  0.00     0.093 A 
ATOM      8  C   UNL     1      -0.261  20.167  12.461  1.00  0.00     0.123 A 
ATOM      9  C   UNL     1       0.531  19.531  13.414  1.00  0.00     0.094 A 
ATOM     10  C   UNL     1       1.046  18.255  13.170  1.00  0.00     0.146 A 
ATOM     11  O   UNL     1       1.787  17.680  14.111  1.00  0.00    -0.452 OA
ENDROOT
BRANCH   1  12
ATOM     12  C   UNL     1       3.136  15.947  15.103  1.00  0.00     0.025 A 
ATOM     13  C   UNL     1       2.766  14.757  15.748  1.00  0.00     0.016 A 
ATOM     14  C   UNL     1       3.524  14.263  16.812  1.00  0.00     0.051 A 
ATOM     15  C   UNL     1       4.652  14.957  17.259  1.00  0.00     0.157 A 
ATOM     16  C   UNL     1       4.260  16.655  15.567  1.00  0.00     0.062 A 
ATOM     17  C   UNL     1       5.021  16.161  16.637  1.00  0.00     0.158 A 
BRANCH  15  18
ATOM     18  O   UNL     1       5.391  14.438  18.322  1.00  0.00    -0.504 OA
ATOM     19  H   UNL     1       5.639  13.458  18.377  1.00  0.00     0.293 HD
ENDBRANCH  15  18
BRANCH  17  20
ATOM     20  O   UNL     1       6.137  16.865  17.087  1.00  0.00    -0.504 OA
ATOM     21  H   UNL     1       6.193  17.224  18.034  1.00  0.00     0.293 HD
ENDBRANCH  17  20
ENDBRANCH   1  12
BRANCH   2  22
ATOM     22  O   UNL     1       2.498  14.385  12.747  1.00  0.00    -0.502 OA
ATOM     23  H   UNL     1       1.909  13.584  12.942  1.00  0.00     0.293 HD
ENDBRANCH   2  22
BRANCH   6  24
ATOM     24  O   UNL     1      -0.220  17.775   9.668  1.00  0.00    -0.507 OA
ATOM     25  H   UNL     1       0.146  18.177   8.819  1.00  0.00     0.293 HD
ENDBRANCH   6  24
BRANCH   8  26
ATOM     26  O   UNL     1      -0.782  21.430  12.732  1.00  0.00    -0.508 OA
ATOM     27  H   UNL     1      -0.832  22.147  12.017  1.00  0.00     0.293 HD
ENDBRANCH   8  26
TORSDOF 6
ENDMDL
MODEL 4
REMARK VINA RESULT:    -4.451      2.413      8.016
REMARK INTER + INTRA:          -5.664
REMARK INTER:                  -5.336
REMARK INTRA:                  -0.329
REMARK UNBOUND:                -0.302
REMARK SMILES O=c1c(O)c(-c2ccc(O)c(O)c2)oc2cc(O)cc(O)c12
REMARK SMILES IDX 5 1 3 2 2 3 1 4 22 5 20 6 19 7 17 8 16 9 15 10 14 11 6 12
REMARK SMILES IDX 7 13 8 14 9 15 13 16 11 17 10 18 12 20 4 22 21 24 18 26
REMARK H PARENT 10 19 12 21 4 23 21 25 18 27
REMARK Flexibility Score: inf
ROOT
ATOM      1  C   UNL     1       3.262  22.058  16.399  1.00  0.00     0.180 A 
ATOM      2  C   UNL     1       4.508  22.512  15.933  1.00  0.00     0.208 A 
ATOM      3  C   UNL     1       5.675  22.093  16.591  1.00  0.00     0.238 A 
ATOM      4  O   UNL     1       6.783  22.545  16.203  1.00  0.00    -0.285 OA
ATOM      5  C   UNL     1       5.583  21.212  17.696  1.00  0.00     0.111 A 
ATOM      6  C   UNL     1       6.704  20.691  18.411  1.00  0.00     0.134 A 
ATOM      7  C   UNL     1       6.490  19.932  19.569  1.00  0.00     0.093 A 
ATOM      8  C   UNL     1       5.197  19.621  19.999  1.00  0.00     0.123 A 
ATOM      9  C   UNL     1       4.099  20.075  19.272  1.00  0.00     0.094 A 
ATOM     10  C   UNL     1       4.280  20.864  18.134  1.00  0.00     0.146 A 
ATOM     11  O   UNL     1       3.205  21.285  17.478  1.00  0.00    -0.452 OA
ENDROOT
BRANCH   1  12
ATOM     12  C   UNL     1       1.990  22.436  15.743  1.00  0.00     0.025 A 
ATOM     13  C   UNL     1       1.228  23.491  16.269  1.00  0.00     0.016 A 
ATOM     14  C   UNL     1       0.014  23.851  15.679  1.00  0.00     0.051 A 
ATOM     15  C   UNL     1      -0.464  23.155  14.565  1.00  0.00     0.157 A 
ATOM     16  C   UNL     1       1.497  21.724  14.635  1.00  0.00     0.062 A 
ATOM     17  C   UNL     1       0.277  22.083  14.042  1.00  0.00     0.158 A 
BRANCH  15  18
ATOM     18  O   UNL     1      -1.678  23.539  13.995  1.00  0.00    -0.504 OA
ATOM     19  H   UNL     1      -2.474  22.915  13.954  1.00  0.00     0.293 HD
ENDBRANCH  15  18
BRANCH  17  20
ATOM     20  O   UNL     1      -0.201  21.375  12.940  1.00  0.00    -0.504 OA
ATOM     21  H   UNL     1       0.428  20.950  12.268  1.00  0.00     0.293 HD
ENDBRANCH  17  20
ENDBRANCH   1  12
BRANCH   2  22
ATOM     22  O   UNL     1       4.574  23.398  14.854  1.00  0.00    -0.502 OA
ATOM     23  H   UNL     1       5.453  23.744  14.488  1.00  0.00     0.293 HD
ENDBRANCH   2  22
BRANCH   6  24
ATOM     24  O   UNL     1       8.032  20.865  18.015  1.00  0.00    -0.507 OA
ATOM     25  H   UNL     1       8.328  21.084  17.076  1.00  0.00     0.293 HD
ENDBRANCH   6  24
BRANCH   8  26
ATOM     26  O   UNL     1       4.995  18.851  21.142  1.00  0.00    -0.508 OA
ATOM     27  H   UNL     1       5.069  19.251  22.070  1.00  0.00     0.293 HD
ENDBRANCH   8  26
TORSDOF 6
ENDMDL
MODEL 5
REMARK VINA RESULT:    -4.436      1.436      6.946
REMARK INTER + INTRA:          -5.646
REMARK INTER:                  -5.546
REMARK INTRA:                  -0.099
REMARK UNBOUND:                -0.302
REMARK SMILES O=c1c(O)c(-c2ccc(O)c(O)c2)oc2cc(O)cc(O)c12
REMARK SMILES IDX 5 1 3 2 2 3 1 4 22 5 20 6 19 7 17 8 16 9 15 10 14 11 6 12
REMARK SMILES IDX 7 13 8 14 9 15 13 16 11 17 10 18 12 20 4 22 21 24 18 26
REMARK H PARENT 10 19 12 21 4 23 21 25 18 27
REMARK Flexibility Score: inf
ROOT
ATOM      1  C   UNL     1       0.523  22.405  14.864  1.00  0.00     0.180 A 
ATOM      2  C   UNL     1       0.598  21.007  14.994  1.00  0.00     0.208 A 
ATOM      3  C   UNL     1       1.806  20.426  15.410  1.00  0.00     0.238 A 
ATOM      4  O   UNL     1       1.884  19.172  15.473  1.00  0.00    -0.285 OA
ATOM      5  C   UNL     1       2.919  21.250  15.708  1.00  0.00     0.111 A 
ATOM      6  C   UNL     1       4.179  20.771  16.177  1.00  0.00     0.134 A 
ATOM      7  C   UNL     1       5.249  21.664  16.314  1.00  0.00     0.093 A 
ATOM      8  C   UNL     1       5.086  23.029  16.061  1.00  0.00     0.123 A 
ATOM      9  C   UNL     1       3.843  23.514  15.660  1.00  0.00     0.094 A 
ATOM     10  C   UNL     1       2.767  22.642  15.480  1.00  0.00     0.146 A 
ATOM     11  O   UNL     1       1.603  23.145  15.086  1.00  0.00    -0.452 OA
ENDROOT
BRANCH   1  12
ATOM     12  C   UNL     1      -0.723  23.092  14.454  1.00  0.00     0.025 A 
ATOM     13  C   UNL     1      -1.339  23.992  15.336  1.00  0.00     0.016 A 
ATOM     14  C   UNL     1      -2.526  24.636  14.978  1.00  0.00     0.051 A 
ATOM     15  C   UNL     1      -3.123  24.379  13.740  1.00  0.00     0.157 A 
ATOM     16  C   UNL     1      -1.336  22.819  13.217  1.00  0.00     0.062 A 
ATOM     17  C   UNL     1      -2.529  23.463  12.857  1.00  0.00     0.158 A 
BRANCH  15  18
ATOM     18  O   UNL     1      -4.307  25.038  13.408  1.00  0.00    -0.504 OA
ATOM     19  H   UNL     1      -5.217  24.642  13.607  1.00  0.00     0.293 HD
ENDBRANCH  15  18
BRANCH  17  20
ATOM     20  O   UNL     1      -3.128  23.191  11.627  1.00  0.00    -0.504 OA
ATOM     21  H   UNL     1      -3.944  23.702  11.309  1.00  0.00     0.293 HD
ENDBRANCH  17  20
ENDBRANCH   1  12
BRANCH   2  22
ATOM     22  O   UNL     1      -0.505  20.211  14.675  1.00  0.00    -0.502 OA
ATOM     23  H   UNL     1      -1.155  20.452  13.936  1.00  0.00     0.293 HD
ENDBRANCH   2  22
BRANCH   6  24
ATOM     24  O   UNL     1       4.422  19.445  16.545  1.00  0.00    -0.507 OA
ATOM     25  H   UNL     1       3.749  18.697  16.477  1.00  0.00     0.293 HD
ENDBRANCH   6  24
BRANCH   8  26
ATOM     26  O   UNL     1       6.152  23.913  16.215  1.00  0.00    -0.508 OA
ATOM     27  H   UNL     1       6.829  24.060  15.476  1.00  0.00     0.293 HD
ENDBRANCH   8  26
TORSDOF 6
ENDMDL
MODEL 6
REMARK VINA RESULT:    -4.395      2.181      3.031
REMARK INTER + INTRA:          -5.597
REMARK INTER:                  -5.573
REMARK INTRA:                  -0.024
REMARK UNBOUND:                -0.302
REMARK SMILES O=c1c(O)c(-c2ccc(O)c(O)c2)oc2cc(O)cc(O)c12
REMARK SMILES IDX 5 1 3 2 2 3 1 4 22 5 20 6 19 7 17 8 16 9 15 10 14 11 6 12
REMARK SMILES IDX 7 13 8 14 9 15 13 16 11 17 10 18 12 20 4 22 21 24 18 26
REMARK H PARENT 10 19 12 21 4 23 21 25 18 27
REMARK Flexibility Score: inf
ROOT
ATOM      1  C   UNL     1      -0.854  22.678  14.036  1.00  0.00     0.180 A 
ATOM      2  C   UNL     1      -0.965  21.368  13.538  1.00  0.00     0.208 A 
ATOM      3  C   UNL     1      -2.077  21.032  12.749  1.00  0.00     0.238 A 
ATOM      4  O   UNL     1      -2.198  19.844  12.351  1.00  0.00    -0.285 OA
ATOM      5  C   UNL     1      -3.054  22.013  12.454  1.00  0.00     0.111 A 
ATOM      6  C   UNL     1      -4.199  21.793  11.630  1.00  0.00     0.134 A 
ATOM      7  C   UNL     1      -5.168  22.797  11.514  1.00  0.00     0.093 A 
ATOM      8  C   UNL     1      -5.001  24.037  12.138  1.00  0.00     0.123 A 
ATOM      9  C   UNL     1      -3.857  24.281  12.895  1.00  0.00     0.094 A 
ATOM     10  C   UNL     1      -2.890  23.286  13.059  1.00  0.00     0.146 A 
ATOM     11  O   UNL     1      -1.821  23.557  13.797  1.00  0.00    -0.452 OA
ENDROOT
BRANCH   1  12
ATOM     12  C   UNL     1       0.300  23.115  14.854  1.00  0.00     0.025 A 
ATOM     13  C   UNL     1       0.075  23.829  16.042  1.00  0.00     0.016 A 
ATOM     14  C   UNL     1       1.150  24.268  16.818  1.00  0.00     0.051 A 
ATOM     15  C   UNL     1       2.464  24.016  16.414  1.00  0.00     0.157 A 
ATOM     16  C   UNL     1       1.623  22.880  14.438  1.00  0.00     0.062 A 
ATOM     17  C   UNL     1       2.703  23.322  15.216  1.00  0.00     0.158 A 
BRANCH  15  18
ATOM     18  O   UNL     1       3.517  24.464  17.210  1.00  0.00    -0.504 OA
ATOM     19  H   UNL     1       3.444  24.518  18.218  1.00  0.00     0.293 HD
ENDBRANCH  15  18
BRANCH  17  20
ATOM     20  O   UNL     1       4.012  23.080  14.799  1.00  0.00    -0.504 OA
ATOM     21  H   UNL     1       4.339  23.366  13.883  1.00  0.00     0.293 HD
ENDBRANCH  17  20
ENDBRANCH   1  12
BRANCH   2  22
ATOM     22  O   UNL     1      -0.000  20.410  13.859  1.00  0.00    -0.502 OA
ATOM     23  H   UNL     1       0.432  19.817  13.160  1.00  0.00     0.293 HD
ENDBRANCH   2  22
BRANCH   6  24
ATOM     24  O   UNL     1      -4.417  20.627  10.892  1.00  0.00    -0.507 OA
ATOM     25  H   UNL     1      -5.011  20.564  10.079  1.00  0.00     0.293 HD
ENDBRANCH   6  24
BRANCH   8  26
ATOM     26  O   UNL     1      -5.962  25.036  12.003  1.00  0.00    -0.508 OA
ATOM     27  H   UNL     1      -6.845  24.992  12.499  1.00  0.00     0.293 HD
ENDBRANCH   8  26
TORSDOF 6
ENDMDL
MODEL 7
REMARK VINA RESULT:    -4.283      3.900      5.715
REMARK INTER + INTRA:          -5.462
REMARK INTER:                  -5.177
REMARK INTRA:                  -0.285
REMARK UNBOUND:                -0.302
REMARK SMILES O=c1c(O)c(-c2ccc(O)c(O)c2)oc2cc(O)cc(O)c12
REMARK SMILES IDX 5 1 3 2 2 3 1 4 22 5 20 6 19 7 17 8 16 9 15 10 14 11 6 12
REMARK SMILES IDX 7 13 8 14 9 15 13 16 11 17 10 18 12 20 4 22 21 24 18 26
REMARK H PARENT 10 19 12 21 4 23 21 25 18 27
REMARK Flexibility Score: inf
ROOT
ATOM      1  C   UNL     1      -2.444  21.457  11.600  1.00  0.00     0.180 A 
ATOM      2  C   UNL     1      -1.703  22.135  12.584  1.00  0.00     0.208 A 
ATOM      3  C   UNL     1      -2.297  23.210  13.263  1.00  0.00     0.238 A 
ATOM      4  O   UNL     1      -1.610  23.847  14.104  1.00  0.00    -0.285 OA
ATOM      5  C   UNL     1      -3.629  23.584  12.963  1.00  0.00     0.111 A 
ATOM      6  C   UNL     1      -4.343  24.632  13.618  1.00  0.00     0.134 A 
ATOM      7  C   UNL     1      -5.611  25.001  13.150  1.00  0.00     0.093 A 
ATOM      8  C   UNL     1      -6.216  24.316  12.092  1.00  0.00     0.123 A 
ATOM      9  C   UNL     1      -5.550  23.253  11.486  1.00  0.00     0.094 A 
ATOM     10  C   UNL     1      -4.270  22.886  11.908  1.00  0.00     0.146 A 
ATOM     11  O   UNL     1      -3.667  21.874  11.295  1.00  0.00    -0.452 OA
ENDROOT
BRANCH   1  12
ATOM     12  C   UNL     1      -1.895  20.299  10.859  1.00  0.00     0.025 A 
ATOM     13  C   UNL     1      -2.240  18.998  11.256  1.00  0.00     0.016 A 
ATOM     14  C   UNL     1      -1.717  17.890  10.583  1.00  0.00     0.051 A 
ATOM     15  C   UNL     1      -0.831  18.065   9.516  1.00  0.00     0.157 A 
ATOM     16  C   UNL     1      -0.987  20.472   9.798  1.00  0.00     0.062 A 
ATOM     17  C   UNL     1      -0.460  19.361   9.123  1.00  0.00     0.158 A 
BRANCH  15  18
ATOM     18  O   UNL     1      -0.327  16.941   8.862  1.00  0.00    -0.504 OA
ATOM     19  H   UNL     1       0.170  17.008   7.983  1.00  0.00     0.293 HD
ENDBRANCH  15  18
BRANCH  17  20
ATOM     20  O   UNL     1       0.434  19.542   8.069  1.00  0.00    -0.504 OA
ATOM     21  H   UNL     1       0.432  18.931   7.260  1.00  0.00     0.293 HD
ENDBRANCH  17  20
ENDBRANCH   1  12
BRANCH   2  22
ATOM     22  O   UNL     1      -0.382  21.763  12.850  1.00  0.00    -0.502 OA
ATOM     23  H   UNL     1      -0.059  21.531  13.782  1.00  0.00     0.293 HD
ENDBRANCH   2  22
BRANCH   6  24
ATOM     24  O   UNL     1      -3.869  25.318  14.740  1.00  0.00    -0.507 OA
ATOM     25  H   UNL     1      -4.067  26.284  14.949  1.00  0.00     0.293 HD
ENDBRANCH   6  24
BRANCH   8  26
ATOM     26  O   UNL     1      -7.484  24.679  11.644  1.00  0.00    -0.508 OA
ATOM     27  H   UNL     1      -7.634  25.526  11.108  1.00  0.00     0.293 HD
ENDBRANCH   8  26
TORSDOF 6
ENDMDL
MODEL 8
REMARK VINA RESULT:    -4.232      4.374      7.702
REMARK INTER + INTRA:          -5.400
REMARK INTER:                  -5.095
REMARK INTRA:                  -0.305
REMARK UNBOUND:                -0.302
REMARK SMILES O=c1c(O)c(-c2ccc(O)c(O)c2)oc2cc(O)cc(O)c12
REMARK SMILES IDX 5 1 3 2 2 3 1 4 22 5 20 6 19 7 17 8 16 9 15 10 14 11 6 12
REMARK SMILES IDX 7 13 8 14 9 15 13 16 11 17 10 18 12 20 4 22 21 24 18 26
REMARK H PARENT 10 19 12 21 4 23 21 25 18 27
REMARK Flexibility Score: inf
ROOT
ATOM      1  C   UNL     1       5.064  19.495  17.719  1.00  0.00     0.180 A 
ATOM      2  C   UNL     1       6.172  20.305  18.022  1.00  0.00     0.208 A 
ATOM      3  C   UNL     1       6.207  21.622  17.537  1.00  0.00     0.238 A 
ATOM      4  O   UNL     1       7.225  22.324  17.766  1.00  0.00    -0.285 OA
ATOM      5  C   UNL     1       5.126  22.117  16.767  1.00  0.00     0.111 A 
ATOM      6  C   UNL     1       5.038  23.448  16.259  1.00  0.00     0.134 A 
ATOM      7  C   UNL     1       3.985  23.790  15.400  1.00  0.00     0.093 A 
ATOM      8  C   UNL     1       2.984  22.868  15.084  1.00  0.00     0.123 A 
ATOM      9  C   UNL     1       3.030  21.585  15.625  1.00  0.00     0.094 A 
ATOM     10  C   UNL     1       4.087  21.204  16.455  1.00  0.00     0.146 A 
ATOM     11  O   UNL     1       4.098  19.967  16.940  1.00  0.00    -0.452 OA
ENDROOT
BRANCH   1  12
ATOM     12  C   UNL     1       4.944  18.105  18.215  1.00  0.00     0.025 A 
ATOM     13  C   UNL     1       4.497  17.875  19.525  1.00  0.00     0.016 A 
ATOM     14  C   UNL     1       4.396  16.573  20.021  1.00  0.00     0.051 A 
ATOM     15  C   UNL     1       4.756  15.483  19.223  1.00  0.00     0.157 A 
ATOM     16  C   UNL     1       5.325  17.008  17.421  1.00  0.00     0.062 A 
ATOM     17  C   UNL     1       5.227  15.700  17.918  1.00  0.00     0.158 A 
BRANCH  15  18
ATOM     18  O   UNL     1       4.643  14.194  19.743  1.00  0.00    -0.504 OA
ATOM     19  H   UNL     1       3.918  13.942  20.403  1.00  0.00     0.293 HD
ENDBRANCH  15  18
BRANCH  17  20
ATOM     20  O   UNL     1       5.600  14.619  17.121  1.00  0.00    -0.504 OA
ATOM     21  H   UNL     1       5.343  13.668  17.362  1.00  0.00     0.293 HD
ENDBRANCH  17  20
ENDBRANCH   1  12
BRANCH   2  22
ATOM     22  O   UNL     1       7.238  19.789  18.765  1.00  0.00    -0.502 OA
ATOM     23  H   UNL     1       7.182  18.903  19.253  1.00  0.00     0.293 HD
ENDBRANCH   2  22
BRANCH   6  24
ATOM     24  O   UNL     1       5.934  24.470  16.585  1.00  0.00    -0.507 OA
ATOM     25  H   UNL     1       6.231  25.197  15.952  1.00  0.00     0.293 HD
ENDBRANCH   6  24
BRANCH   8  26
ATOM     26  O   UNL     1       1.932  23.222  14.243  1.00  0.00    -0.508 OA
ATOM     27  H   UNL     1       1.259  23.933  14.506  1.00  0.00     0.293 HD
ENDBRANCH   8  26
TORSDOF 6
ENDMDL
MODEL 9
REMARK VINA RESULT:    -4.219      7.078     11.154
REMARK INTER + INTRA:          -5.384
REMARK INTER:                  -5.069
REMARK INTRA:                  -0.315
REMARK UNBOUND:                -0.302
REMARK SMILES O=c1c(O)c(-c2ccc(O)c(O)c2)oc2cc(O)cc(O)c12
REMARK SMILES IDX 5 1 3 2 2 3 1 4 22 5 20 6 19 7 17 8 16 9 15 10 14 11 6 12
REMARK SMILES IDX 7 13 8 14 9 15 13 16 11 17 10 18 12 20 4 22 21 24 18 26
REMARK H PARENT 10 19 12 21 4 23 21 25 18 27
REMARK Flexibility Score: inf
ROOT
ATOM      1  C   UNL     1      -8.459  24.431   9.258  1.00  0.00     0.180 A 
ATOM      2  C   UNL     1      -9.611  25.054   9.770  1.00  0.00     0.208 A 
ATOM      3  C   UNL     1      -9.600  25.521  11.094  1.00  0.00     0.238 A 
ATOM      4  O   UNL     1     -10.651  26.029  11.564  1.00  0.00    -0.285 OA
ATOM      5  C   UNL     1      -8.433  25.374  11.884  1.00  0.00     0.111 A 
ATOM      6  C   UNL     1      -8.298  25.848  13.224  1.00  0.00     0.134 A 
ATOM      7  C   UNL     1      -7.145  25.531  13.953  1.00  0.00     0.093 A 
ATOM      8  C   UNL     1      -6.096  24.816  13.370  1.00  0.00     0.123 A 
ATOM      9  C   UNL     1      -6.195  24.402  12.044  1.00  0.00     0.094 A 
ATOM     10  C   UNL     1      -7.347  24.671  11.302  1.00  0.00     0.146 A 
ATOM     11  O   UNL     1      -7.404  24.249  10.044  1.00  0.00    -0.452 OA
ENDROOT
BRANCH   1  12
ATOM     12  C   UNL     1      -8.386  23.935   7.865  1.00  0.00     0.025 A 
ATOM     13  C   UNL     1      -8.532  22.562   7.611  1.00  0.00     0.016 A 
ATOM     14  C   UNL     1      -8.446  22.070   6.306  1.00  0.00     0.051 A 
ATOM     15  C   UNL     1      -8.196  22.937   5.239  1.00  0.00     0.157 A 
ATOM     16  C   UNL     1      -8.114  24.803   6.792  1.00  0.00     0.062 A 
ATOM     17  C   UNL     1      -8.025  24.310   5.481  1.00  0.00     0.158 A 
BRANCH  15  18
ATOM     18  O   UNL     1      -8.118  22.417   3.947  1.00  0.00    -0.504 OA
ATOM     19  H   UNL     1      -7.784  22.967   3.166  1.00  0.00     0.293 HD
ENDBRANCH  15  18
BRANCH  17  20
ATOM     20  O   UNL     1      -7.762  25.178   4.423  1.00  0.00    -0.504 OA
ATOM     21  H   UNL     1      -8.346  25.987   4.241  1.00  0.00     0.293 HD
ENDBRANCH  17  20
ENDBRANCH   1  12
BRANCH   2  22
ATOM     22  O   UNL     1     -10.758  25.169   8.981  1.00  0.00    -0.502 OA
ATOM     23  H   UNL     1     -11.504  24.484   9.001  1.00  0.00     0.293 HD
ENDBRANCH   2  22
BRANCH   6  24
ATOM     24  O   UNL     1      -9.246  26.646  13.869  1.00  0.00    -0.507 OA
ATOM     25  H   UNL     1      -9.908  26.314  14.553  1.00  0.00     0.293 HD
ENDBRANCH   6  24
BRANCH   8  26
ATOM     26  O   UNL     1      -4.946  24.520  14.098  1.00  0.00    -0.508 OA
ATOM     27  H   UNL     1      -4.412  25.246  14.562  1.00  0.00     0.293 HD
ENDBRANCH   8  26
TORSDOF 6
ENDMDL
