MODEL 1
REMARK VINA RESULT:    -5.140      0.000      0.000
REMARK INTER + INTRA:         -15.483
REMARK INTER:                 -11.750
REMARK INTRA:                  -3.733
REMARK UNBOUND:                -3.733
REMARK SMILES CCCCCCCCCCCCCCCCCCCCCCCC(=O)[O-]
REMARK SMILES IDX 13 1 14 2 15 3 16 4 17 5 18 6 19 7 20 8 21 9 22 10 23 11
REMARK SMILES IDX 24 12 25 13 26 14 12 15 11 16 10 17 9 18 8 19 7 20 6 21 5 22
REMARK SMILES IDX 4 23 3 24 2 25 1 26
REMARK H PARENT
REMARK Flexibility Score: inf
ROOT
ATOM      1  C   UNL     1      19.064  12.392  37.261  1.00  0.00     0.000 C 
ENDROOT
BRANCH   1   2
ATOM      2  C   UNL     1      18.749  11.037  36.604  1.00  0.00     0.000 C 
BRANCH   2   3
ATOM      3  C   UNL     1      19.895  10.526  35.707  1.00  0.00     0.000 C 
BRANCH   3   4
ATOM      4  C   UNL     1      20.558  11.621  34.848  1.00  0.00     0.000 C 
BRANCH   4   5
ATOM      5  C   UNL     1      20.227  11.571  33.345  1.00  0.00     0.000 C 
BRANCH   5   6
ATOM      6  C   UNL     1      20.285  12.928  32.619  1.00  0.00     0.000 C 
BRANCH   6   7
ATOM      7  C   UNL     1      21.725  13.404  32.361  1.00  0.00     0.000 C 
BRANCH   7   8
ATOM      8  C   UNL     1      21.886  14.928  32.550  1.00  0.00     0.000 C 
BRANCH   8   9
ATOM      9  C   UNL     1      20.550  15.684  32.669  1.00  0.00     0.000 C 
BRANCH   9  10
ATOM     10  C   UNL     1      20.506  16.762  33.770  1.00  0.00     0.006 C 
BRANCH  10  11
ATOM     11  C   UNL     1      19.777  18.056  33.363  1.00  0.00     0.053 C 
BRANCH  11  12
ATOM     12  C   UNL     1      20.685  19.012  32.652  1.00  0.00     0.041 C 
ATOM     13  O   UNL     1      20.214  19.840  31.827  1.00  0.00    -0.550 OA
ATOM     14  O   UNL     1      22.046  19.016  32.930  1.00  0.00    -0.550 OA
ENDBRANCH  11  12
ENDBRANCH  10  11
ENDBRANCH   9  10
ENDBRANCH   8   9
ENDBRANCH   7   8
ENDBRANCH   6   7
ENDBRANCH   5   6
ENDBRANCH   4   5
ENDBRANCH   3   4
ENDBRANCH   2   3
ENDBRANCH   1   2
BRANCH   1  15
ATOM     15  C   UNL     1      18.000  13.436  36.901  1.00  0.00     0.000 C 
BRANCH  15  16
ATOM     16  C   UNL     1      18.529  14.421  35.848  1.00  0.00     0.000 C 
BRANCH  16  17
ATOM     17  C   UNL     1      17.680  14.417  34.565  1.00  0.00     0.000 C 
BRANCH  17  18
ATOM     18  C   UNL     1      16.436  13.523  34.696  1.00  0.00    -0.000 C 
BRANCH  18  19
ATOM     19  C   UNL     1      16.509  12.264  33.815  1.00  0.00    -0.000 C 
BRANCH  19  20
ATOM     20  C   UNL     1      15.621  11.094  34.284  1.00  0.00    -0.000 C 
BRANCH  20  21
ATOM     21  C   UNL     1      15.318  11.062  35.796  1.00  0.00    -0.000 C 
BRANCH  21  22
ATOM     22  C   UNL     1      13.833  10.872  36.157  1.00  0.00    -0.000 C 
BRANCH  22  23
ATOM     23  C   UNL     1      13.328  11.902  37.181  1.00  0.00    -0.000 C 
BRANCH  23  24
ATOM     24  C   UNL     1      12.305  12.878  36.579  1.00  0.00    -0.000 C 
BRANCH  24  25
ATOM     25  C   UNL     1      12.936  13.831  35.552  1.00  0.00    -0.003 C 
ATOM     26  C   UNL     1      12.515  13.469  34.130  1.00  0.00     0.004 C 
ENDBRANCH  24  25
ENDBRANCH  23  24
ENDBRANCH  22  23
ENDBRANCH  21  22
ENDBRANCH  20  21
ENDBRANCH  19  20
ENDBRANCH  18  19
ENDBRANCH  17  18
ENDBRANCH  16  17
ENDBRANCH  15  16
ENDBRANCH   1  15
TORSDOF 22
ENDMDL
MODEL 2
REMARK VINA RESULT:    -5.115      1.366      2.745
REMARK INTER + INTRA:         -15.425
REMARK INTER:                 -12.068
REMARK INTRA:                  -3.357
REMARK UNBOUND:                -3.733
REMARK SMILES CCCCCCCCCCCCCCCCCCCCCCCC(=O)[O-]
REMARK SMILES IDX 13 1 14 2 15 3 16 4 17 5 18 6 19 7 20 8 21 9 22 10 23 11
REMARK SMILES IDX 24 12 25 13 26 14 12 15 11 16 10 17 9 18 8 19 7 20 6 21 5 22
REMARK SMILES IDX 4 23 3 24 2 25 1 26
REMARK H PARENT
REMARK Flexibility Score: inf
ROOT
ATOM      1  C   UNL     1      17.057  12.766  35.829  1.00  0.00     0.000 C 
ENDROOT
BRANCH   1   2
ATOM      2  C   UNL     1      17.969  13.666  36.679  1.00  0.00     0.000 C 
BRANCH   2   3
ATOM      3  C   UNL     1      18.944  14.506  35.829  1.00  0.00     0.000 C 
BRANCH   3   4
ATOM      4  C   UNL     1      20.423  14.104  35.987  1.00  0.00     0.000 C 
BRANCH   4   5
ATOM      5  C   UNL     1      20.824  12.780  35.310  1.00  0.00     0.000 C 
BRANCH   5   6
ATOM      6  C   UNL     1      21.551  12.932  33.960  1.00  0.00     0.000 C 
BRANCH   6   7
ATOM      7  C   UNL     1      20.600  13.304  32.810  1.00  0.00     0.000 C 
BRANCH   7   8
ATOM      8  C   UNL     1      21.012  14.614  32.103  1.00  0.00     0.000 C 
BRANCH   8   9
ATOM      9  C   UNL     1      21.920  15.521  32.955  1.00  0.00     0.000 C 
BRANCH   9  10
ATOM     10  C   UNL     1      21.296  16.870  33.362  1.00  0.00     0.006 C 
BRANCH  10  11
ATOM     11  C   UNL     1      19.850  17.074  32.877  1.00  0.00     0.053 C 
BRANCH  11  12
ATOM     12  C   UNL     1      19.513  18.524  32.707  1.00  0.00     0.041 C 
ATOM     13  O   UNL     1      19.610  19.070  31.575  1.00  0.00    -0.550 OA
ATOM     14  O   UNL     1      19.053  19.262  33.789  1.00  0.00    -0.550 OA
ENDBRANCH  11  12
ENDBRANCH  10  11
ENDBRANCH   9  10
ENDBRANCH   8   9
ENDBRANCH   7   8
ENDBRANCH   6   7
ENDBRANCH   5   6
ENDBRANCH   4   5
ENDBRANCH   3   4
ENDBRANCH   2   3
ENDBRANCH   1   2
BRANCH   1  15
ATOM     15  C   UNL     1      17.253  13.042  34.333  1.00  0.00     0.000 C 
BRANCH  15  16
ATOM     16  C   UNL     1      16.851  11.823  33.491  1.00  0.00     0.000 C 
BRANCH  16  17
ATOM     17  C   UNL     1      15.652  11.067  34.090  1.00  0.00     0.000 C 
BRANCH  17  18
ATOM     18  C   UNL     1      14.602  10.708  33.026  1.00  0.00    -0.000 C 
BRANCH  18  19
ATOM     19  C   UNL     1      13.567  11.826  32.808  1.00  0.00    -0.000 C 
BRANCH  19  20
ATOM     20  C   UNL     1      13.682  13.013  33.786  1.00  0.00    -0.000 C 
BRANCH  20  21
ATOM     21  C   UNL     1      12.346  13.516  34.372  1.00  0.00    -0.000 C 
BRANCH  21  22
ATOM     22  C   UNL     1      12.225  13.406  35.903  1.00  0.00    -0.000 C 
BRANCH  22  23
ATOM     23  C   UNL     1      13.424  12.693  36.550  1.00  0.00    -0.000 C 
BRANCH  23  24
ATOM     24  C   UNL     1      12.995  11.557  37.492  1.00  0.00    -0.000 C 
BRANCH  24  25
ATOM     25  C   UNL     1      11.888  10.678  36.887  1.00  0.00    -0.003 C 
ATOM     26  C   UNL     1      12.463   9.674  35.889  1.00  0.00     0.004 C 
ENDBRANCH  24  25
ENDBRANCH  23  24
ENDBRANCH  22  23
ENDBRANCH  21  22
ENDBRANCH  20  21
ENDBRANCH  19  20
ENDBRANCH  18  19
ENDBRANCH  17  18
ENDBRANCH  16  17
ENDBRANCH  15  16
ENDBRANCH   1  15
TORSDOF 22
ENDMDL
MODEL 3
REMARK VINA RESULT:    -4.984      3.607      7.761
REMARK INTER + INTRA:         -15.126
REMARK INTER:                 -11.790
REMARK INTRA:                  -3.336
REMARK UNBOUND:                -3.733
REMARK SMILES CCCCCCCCCCCCCCCCCCCCCCCC(=O)[O-]
REMARK SMILES IDX 13 1 14 2 15 3 16 4 17 5 18 6 19 7 20 8 21 9 22 10 23 11
REMARK SMILES IDX 24 12 25 13 26 14 12 15 11 16 10 17 9 18 8 19 7 20 6 21 5 22
REMARK SMILES IDX 4 23 3 24 2 25 1 26
REMARK H PARENT
REMARK Flexibility Score: inf
ROOT
ATOM      1  C   UNL     1      19.870  13.469  36.072  1.00  0.00     0.000 C 
ENDROOT
BRANCH   1   2
ATOM      2  C   UNL     1      18.810  14.484  35.613  1.00  0.00     0.000 C 
BRANCH   2   3
ATOM      3  C   UNL     1      17.395  13.878  35.530  1.00  0.00     0.000 C 
BRANCH   3   4
ATOM      4  C   UNL     1      17.286  12.453  36.109  1.00  0.00     0.000 C 
BRANCH   4   5
ATOM      5  C   UNL     1      16.616  11.416  35.189  1.00  0.00     0.000 C 
BRANCH   5   6
ATOM      6  C   UNL     1      16.412  11.873  33.732  1.00  0.00     0.000 C 
BRANCH   6   7
ATOM      7  C   UNL     1      15.268  11.123  33.027  1.00  0.00     0.000 C 
BRANCH   7   8
ATOM      8  C   UNL     1      13.883  11.473  33.614  1.00  0.00     0.000 C 
BRANCH   8   9
ATOM      9  C   UNL     1      13.566  12.980  33.605  1.00  0.00     0.000 C 
BRANCH   9  10
ATOM     10  C   UNL     1      13.593  13.660  34.988  1.00  0.00     0.006 C 
BRANCH  10  11
ATOM     11  C   UNL     1      12.334  13.418  35.839  1.00  0.00     0.053 C 
BRANCH  11  12
ATOM     12  C   UNL     1      12.618  12.557  37.031  1.00  0.00     0.041 C 
ATOM     13  O   UNL     1      11.706  12.302  37.863  1.00  0.00    -0.550 OA
ATOM     14  O   UNL     1      13.880  12.002  37.204  1.00  0.00    -0.550 OA
ENDBRANCH  11  12
ENDBRANCH  10  11
ENDBRANCH   9  10
ENDBRANCH   8   9
ENDBRANCH   7   8
ENDBRANCH   6   7
ENDBRANCH   5   6
ENDBRANCH   4   5
ENDBRANCH   3   4
ENDBRANCH   2   3
ENDBRANCH   1   2
BRANCH   1  15
ATOM     15  C   UNL     1      20.637  12.895  34.874  1.00  0.00     0.000 C 
BRANCH  15  16
ATOM     16  C   UNL     1      20.072  13.432  33.550  1.00  0.00     0.000 C 
BRANCH  16  17
ATOM     17  C   UNL     1      20.938  13.037  32.342  1.00  0.00     0.000 C 
BRANCH  17  18
ATOM     18  C   UNL     1      21.848  14.187  31.880  1.00  0.00    -0.000 C 
BRANCH  18  19
ATOM     19  C   UNL     1      23.210  14.195  32.597  1.00  0.00    -0.000 C 
BRANCH  19  20
ATOM     20  C   UNL     1      23.527  15.492  33.369  1.00  0.00    -0.000 C 
BRANCH  20  21
ATOM     21  C   UNL     1      22.899  15.592  34.775  1.00  0.00    -0.000 C 
BRANCH  21  22
ATOM     22  C   UNL     1      21.826  16.685  34.931  1.00  0.00    -0.000 C 
BRANCH  22  23
ATOM     23  C   UNL     1      21.527  17.425  33.615  1.00  0.00    -0.000 C 
BRANCH  23  24
ATOM     24  C   UNL     1      20.060  17.284  33.181  1.00  0.00    -0.000 C 
BRANCH  24  25
ATOM     25  C   UNL     1      19.157  18.360  33.805  1.00  0.00    -0.003 C 
ATOM     26  C   UNL     1      19.343  19.708  33.111  1.00  0.00     0.004 C 
ENDBRANCH  24  25
ENDBRANCH  23  24
ENDBRANCH  22  23
ENDBRANCH  21  22
ENDBRANCH  20  21
ENDBRANCH  19  20
ENDBRANCH  18  19
ENDBRANCH  17  18
ENDBRANCH  16  17
ENDBRANCH  15  16
ENDBRANCH   1  15
TORSDOF 22
ENDMDL
MODEL 4
REMARK VINA RESULT:    -4.979      1.290      2.830
REMARK INTER + INTRA:         -15.115
REMARK INTER:                 -10.959
REMARK INTRA:                  -4.156
REMARK UNBOUND:                -3.733
REMARK SMILES CCCCCCCCCCCCCCCCCCCCCCCC(=O)[O-]
REMARK SMILES IDX 13 1 14 2 15 3 16 4 17 5 18 6 19 7 20 8 21 9 22 10 23 11
REMARK SMILES IDX 24 12 25 13 26 14 12 15 11 16 10 17 9 18 8 19 7 20 6 21 5 22
REMARK SMILES IDX 4 23 3 24 2 25 1 26
REMARK H PARENT
REMARK Flexibility Score: inf
ROOT
ATOM      1  C   UNL     1      18.371  14.138  36.162  1.00  0.00     0.000 C 
ENDROOT
BRANCH   1   2
ATOM      2  C   UNL     1      18.680  13.323  37.429  1.00  0.00     0.000 C 
BRANCH   2   3
ATOM      3  C   UNL     1      20.192  13.203  37.711  1.00  0.00     0.000 C 
BRANCH   3   4
ATOM      4  C   UNL     1      20.803  11.851  37.295  1.00  0.00     0.000 C 
BRANCH   4   5
ATOM      5  C   UNL     1      21.089  11.690  35.791  1.00  0.00     0.000 C 
BRANCH   5   6
ATOM      6  C   UNL     1      20.117  10.764  35.037  1.00  0.00     0.000 C 
BRANCH   6   7
ATOM      7  C   UNL     1      20.202  10.926  33.510  1.00  0.00     0.000 C 
BRANCH   7   8
ATOM      8  C   UNL     1      19.583  12.253  33.021  1.00  0.00     0.000 C 
BRANCH   8   9
ATOM      9  C   UNL     1      20.619  13.271  32.509  1.00  0.00     0.000 C 
BRANCH   9  10
ATOM     10  C   UNL     1      20.713  14.573  33.328  1.00  0.00     0.006 C 
BRANCH  10  11
ATOM     11  C   UNL     1      20.231  15.829  32.582  1.00  0.00     0.053 C 
BRANCH  11  12
ATOM     12  C   UNL     1      20.504  17.083  33.356  1.00  0.00     0.041 C 
ATOM     13  O   UNL     1      19.974  18.172  33.009  1.00  0.00    -0.550 OA
ATOM     14  O   UNL     1      21.313  17.041  34.484  1.00  0.00    -0.550 OA
ENDBRANCH  11  12
ENDBRANCH  10  11
ENDBRANCH   9  10
ENDBRANCH   8   9
ENDBRANCH   7   8
ENDBRANCH   6   7
ENDBRANCH   5   6
ENDBRANCH   4   5
ENDBRANCH   3   4
ENDBRANCH   2   3
ENDBRANCH   1   2
BRANCH   1  15
ATOM     15  C   UNL     1      17.136  13.586  35.442  1.00  0.00     0.000 C 
BRANCH  15  16
ATOM     16  C   UNL     1      16.633  12.301  36.116  1.00  0.00     0.000 C 
BRANCH  16  17
ATOM     17  C   UNL     1      16.432  11.153  35.112  1.00  0.00     0.000 C 
BRANCH  17  18
ATOM     18  C   UNL     1      16.006  11.663  33.726  1.00  0.00    -0.000 C 
BRANCH  18  19
ATOM     19  C   UNL     1      14.676  11.053  33.249  1.00  0.00    -0.000 C 
BRANCH  19  20
ATOM     20  C   UNL     1      13.445  11.963  33.433  1.00  0.00    -0.000 C 
BRANCH  20  21
ATOM     21  C   UNL     1      13.758  13.434  33.778  1.00  0.00    -0.000 C 
BRANCH  21  22
ATOM     22  C   UNL     1      13.339  13.873  35.193  1.00  0.00    -0.000 C 
BRANCH  22  23
ATOM     23  C   UNL     1      12.407  12.863  35.883  1.00  0.00    -0.000 C 
BRANCH  23  24
ATOM     24  C   UNL     1      13.034  12.251  37.146  1.00  0.00    -0.000 C 
BRANCH  24  25
ATOM     25  C   UNL     1      13.346  10.755  36.981  1.00  0.00    -0.003 C 
ATOM     26  C   UNL     1      13.522  10.074  38.336  1.00  0.00     0.004 C 
ENDBRANCH  24  25
ENDBRANCH  23  24
ENDBRANCH  22  23
ENDBRANCH  21  22
ENDBRANCH  20  21
ENDBRANCH  19  20
ENDBRANCH  18  19
ENDBRANCH  17  18
ENDBRANCH  16  17
ENDBRANCH  15  16
ENDBRANCH   1  15
TORSDOF 22
ENDMDL
MODEL 5
REMARK VINA RESULT:    -4.956      1.842      3.672
REMARK INTER + INTRA:         -15.063
REMARK INTER:                 -11.510
REMARK INTRA:                  -3.553
REMARK UNBOUND:                -3.733
REMARK SMILES CCCCCCCCCCCCCCCCCCCCCCCC(=O)[O-]
REMARK SMILES IDX 13 1 14 2 15 3 16 4 17 5 18 6 19 7 20 8 21 9 22 10 23 11
REMARK SMILES IDX 24 12 25 13 26 14 12 15 11 16 10 17 9 18 8 19 7 20 6 21 5 22
REMARK SMILES IDX 4 23 3 24 2 25 1 26
REMARK H PARENT
REMARK Flexibility Score: inf
ROOT
ATOM      1  C   UNL     1      20.256  13.280  33.495  1.00  0.00     0.000 C 
ENDROOT
BRANCH   1   2
ATOM      2  C   UNL     1      20.628  13.918  32.145  1.00  0.00     0.000 C 
BRANCH   2   3
ATOM      3  C   UNL     1      22.150  13.950  31.897  1.00  0.00     0.000 C 
BRANCH   3   4
ATOM      4  C   UNL     1      22.993  14.108  33.178  1.00  0.00     0.000 C 
BRANCH   4   5
ATOM      5  C   UNL     1      23.326  15.558  33.574  1.00  0.00     0.000 C 
BRANCH   5   6
ATOM      6  C   UNL     1      22.773  16.004  34.941  1.00  0.00     0.000 C 
BRANCH   6   7
ATOM      7  C   UNL     1      21.750  17.147  34.826  1.00  0.00     0.000 C 
BRANCH   7   8
ATOM      8  C   UNL     1      21.347  17.435  33.363  1.00  0.00     0.000 C 
BRANCH   8   9
ATOM      9  C   UNL     1      19.834  17.643  33.165  1.00  0.00     0.000 C 
BRANCH   9  10
ATOM     10  C   UNL     1      19.414  19.087  32.828  1.00  0.00     0.006 C 
BRANCH  10  11
ATOM     11  C   UNL     1      19.952  19.608  31.484  1.00  0.00     0.053 C 
BRANCH  11  12
ATOM     12  C   UNL     1      19.043  19.263  30.343  1.00  0.00     0.041 C 
ATOM     13  O   UNL     1      18.776  20.123  29.462  1.00  0.00    -0.550 OA
ATOM     14  O   UNL     1      18.523  17.980  30.232  1.00  0.00    -0.550 OA
ENDBRANCH  11  12
ENDBRANCH  10  11
ENDBRANCH   9  10
ENDBRANCH   8   9
ENDBRANCH   7   8
ENDBRANCH   6   7
ENDBRANCH   5   6
ENDBRANCH   4   5
ENDBRANCH   3   4
ENDBRANCH   2   3
ENDBRANCH   1   2
BRANCH   1  15
ATOM     15  C   UNL     1      18.874  13.752  33.962  1.00  0.00     0.000 C 
BRANCH  15  16
ATOM     16  C   UNL     1      18.997  14.763  35.113  1.00  0.00     0.000 C 
BRANCH  16  17
ATOM     17  C   UNL     1      19.855  14.227  36.272  1.00  0.00     0.000 C 
BRANCH  17  18
ATOM     18  C   UNL     1      19.007  13.866  37.503  1.00  0.00    -0.000 C 
BRANCH  18  19
ATOM     19  C   UNL     1      19.372  12.495  38.097  1.00  0.00    -0.000 C 
BRANCH  19  20
ATOM     20  C   UNL     1      19.499  11.356  37.066  1.00  0.00    -0.000 C 
BRANCH  20  21
ATOM     21  C   UNL     1      18.210  10.545  36.817  1.00  0.00    -0.000 C 
BRANCH  21  22
ATOM     22  C   UNL     1      17.237  11.165  35.798  1.00  0.00    -0.000 C 
BRANCH  22  23
ATOM     23  C   UNL     1      15.880  11.540  36.415  1.00  0.00    -0.000 C 
BRANCH  23  24
ATOM     24  C   UNL     1      15.538  13.027  36.228  1.00  0.00    -0.000 C 
BRANCH  24  25
ATOM     25  C   UNL     1      14.709  13.283  34.958  1.00  0.00    -0.003 C 
ATOM     26  C   UNL     1      13.460  14.103  35.270  1.00  0.00     0.004 C 
ENDBRANCH  24  25
ENDBRANCH  23  24
ENDBRANCH  22  23
ENDBRANCH  21  22
ENDBRANCH  20  21
ENDBRANCH  19  20
ENDBRANCH  18  19
ENDBRANCH  17  18
ENDBRANCH  16  17
ENDBRANCH  15  16
ENDBRANCH   1  15
TORSDOF 22
ENDMDL
MODEL 6
REMARK VINA RESULT:    -4.917      2.758      4.842
REMARK INTER + INTRA:         -14.974
REMARK INTER:                 -11.219
REMARK INTRA:                  -3.755
REMARK UNBOUND:                -3.733
REMARK SMILES CCCCCCCCCCCCCCCCCCCCCCCC(=O)[O-]
REMARK SMILES IDX 13 1 14 2 15 3 16 4 17 5 18 6 19 7 20 8 21 9 22 10 23 11
REMARK SMILES IDX 24 12 25 13 26 14 12 15 11 16 10 17 9 18 8 19 7 20 6 21 5 22
REMARK SMILES IDX 4 23 3 24 2 25 1 26
REMARK H PARENT
REMARK Flexibility Score: inf
ROOT
ATOM      1  C   UNL     1      20.730  13.396  31.929  1.00  0.00     0.000 C 
ENDROOT
BRANCH   1   2
ATOM      2  C   UNL     1      22.228  13.743  31.950  1.00  0.00     0.000 C 
BRANCH   2   3
ATOM      3  C   UNL     1      22.740  14.104  33.360  1.00  0.00     0.000 C 
BRANCH   3   4
ATOM      4  C   UNL     1      23.393  15.497  33.454  1.00  0.00     0.000 C 
BRANCH   4   5
ATOM      5  C   UNL     1      22.527  16.588  34.112  1.00  0.00     0.000 C 
BRANCH   5   6
ATOM      6  C   UNL     1      21.315  17.049  33.281  1.00  0.00     0.000 C 
BRANCH   6   7
ATOM      7  C   UNL     1      20.019  17.122  34.106  1.00  0.00     0.000 C 
BRANCH   7   8
ATOM      8  C   UNL     1      19.108  15.895  33.886  1.00  0.00     0.000 C 
BRANCH   8   9
ATOM      9  C   UNL     1      18.832  15.087  35.168  1.00  0.00     0.000 C 
BRANCH   9  10
ATOM     10  C   UNL     1      20.090  14.614  35.923  1.00  0.00     0.006 C 
BRANCH  10  11
ATOM     11  C   UNL     1      19.827  14.156  37.369  1.00  0.00     0.053 C 
BRANCH  11  12
ATOM     12  C   UNL     1      20.587  12.911  37.711  1.00  0.00     0.041 C 
ATOM     13  O   UNL     1      20.119  12.090  38.545  1.00  0.00    -0.550 OA
ATOM     14  O   UNL     1      21.793  12.637  37.079  1.00  0.00    -0.550 OA
ENDBRANCH  11  12
ENDBRANCH  10  11
ENDBRANCH   9  10
ENDBRANCH   8   9
ENDBRANCH   7   8
ENDBRANCH   6   7
ENDBRANCH   5   6
ENDBRANCH   4   5
ENDBRANCH   3   4
ENDBRANCH   2   3
ENDBRANCH   1   2
BRANCH   1  15
ATOM     15  C   UNL     1      20.397  12.339  32.988  1.00  0.00     0.000 C 
BRANCH  15  16
ATOM     16  C   UNL     1      19.085  11.615  32.651  1.00  0.00     0.000 C 
BRANCH  16  17
ATOM     17  C   UNL     1      18.034  11.760  33.765  1.00  0.00     0.000 C 
BRANCH  17  18
ATOM     18  C   UNL     1      18.589  11.361  35.142  1.00  0.00    -0.000 C 
BRANCH  18  19
ATOM     19  C   UNL     1      17.500  11.288  36.226  1.00  0.00    -0.000 C 
BRANCH  19  20
ATOM     20  C   UNL     1      16.065  11.109  35.690  1.00  0.00    -0.000 C 
BRANCH  20  21
ATOM     21  C   UNL     1      14.972  11.879  36.461  1.00  0.00    -0.000 C 
BRANCH  21  22
ATOM     22  C   UNL     1      14.431  13.131  35.745  1.00  0.00    -0.000 C 
BRANCH  22  23
ATOM     23  C   UNL     1      14.598  13.067  34.218  1.00  0.00    -0.000 C 
BRANCH  23  24
ATOM     24  C   UNL     1      13.435  12.336  33.529  1.00  0.00    -0.000 C 
BRANCH  24  25
ATOM     25  C   UNL     1      13.910  11.141  32.686  1.00  0.00    -0.003 C 
ATOM     26  C   UNL     1      13.692   9.822  33.425  1.00  0.00     0.004 C 
ENDBRANCH  24  25
ENDBRANCH  23  24
ENDBRANCH  22  23
ENDBRANCH  21  22
ENDBRANCH  20  21
ENDBRANCH  19  20
ENDBRANCH  18  19
ENDBRANCH  17  18
ENDBRANCH  16  17
ENDBRANCH  15  16
ENDBRANCH   1  15
TORSDOF 22
ENDMDL
MODEL 7
REMARK VINA RESULT:    -4.911      4.321      8.438
REMARK INTER + INTRA:         -14.961
REMARK INTER:                 -10.840
REMARK INTRA:                  -4.121
REMARK UNBOUND:                -3.733
REMARK SMILES CCCCCCCCCCCCCCCCCCCCCCCC(=O)[O-]
REMARK SMILES IDX 13 1 14 2 15 3 16 4 17 5 18 6 19 7 20 8 21 9 22 10 23 11
REMARK SMILES IDX 24 12 25 13 26 14 12 15 11 16 10 17 9 18 8 19 7 20 6 21 5 22
REMARK SMILES IDX 4 23 3 24 2 25 1 26
REMARK H PARENT
REMARK Flexibility Score: inf
ROOT
ATOM      1  C   UNL     1      16.193  11.244  35.215  1.00  0.00     0.000 C 
ENDROOT
BRANCH   1   2
ATOM      2  C   UNL     1      16.159  11.532  33.704  1.00  0.00     0.000 C 
BRANCH   2   3
ATOM      3  C   UNL     1      14.915  10.941  33.009  1.00  0.00     0.000 C 
BRANCH   3   4
ATOM      4  C   UNL     1      13.577  11.488  33.543  1.00  0.00     0.000 C 
BRANCH   4   5
ATOM      5  C   UNL     1      13.390  13.012  33.417  1.00  0.00     0.000 C 
BRANCH   5   6
ATOM      6  C   UNL     1      13.055  13.739  34.733  1.00  0.00     0.000 C 
BRANCH   6   7
ATOM      7  C   UNL     1      12.251  12.864  35.709  1.00  0.00     0.000 C 
BRANCH   7   8
ATOM      8  C   UNL     1      12.914  12.767  37.100  1.00  0.00     0.000 C 
BRANCH   8   9
ATOM      9  C   UNL     1      12.366  11.622  37.971  1.00  0.00     0.000 C 
BRANCH   9  10
ATOM     10  C   UNL     1      13.287  10.391  38.085  1.00  0.00     0.006 C 
BRANCH  10  11
ATOM     11  C   UNL     1      12.572   9.042  37.890  1.00  0.00     0.053 C 
BRANCH  11  12
ATOM     12  C   UNL     1      11.570   9.093  36.777  1.00  0.00     0.041 C 
ATOM     13  O   UNL     1      11.954   9.136  35.578  1.00  0.00    -0.550 OA
ATOM     14  O   UNL     1      10.211   9.054  37.063  1.00  0.00    -0.550 OA
ENDBRANCH  11  12
ENDBRANCH  10  11
ENDBRANCH   9  10
ENDBRANCH   8   9
ENDBRANCH   7   8
ENDBRANCH   6   7
ENDBRANCH   5   6
ENDBRANCH   4   5
ENDBRANCH   3   4
ENDBRANCH   2   3
ENDBRANCH   1   2
BRANCH   1  15
ATOM     15  C   UNL     1      16.369  12.538  36.017  1.00  0.00     0.000 C 
BRANCH  15  16
ATOM     16  C   UNL     1      17.043  13.625  35.168  1.00  0.00     0.000 C 
BRANCH  16  17
ATOM     17  C   UNL     1      18.342  14.146  35.808  1.00  0.00     0.000 C 
BRANCH  17  18
ATOM     18  C   UNL     1      18.453  13.758  37.291  1.00  0.00    -0.000 C 
BRANCH  18  19
ATOM     19  C   UNL     1      19.768  13.029  37.621  1.00  0.00    -0.000 C 
BRANCH  19  20
ATOM     20  C   UNL     1      19.598  11.570  38.090  1.00  0.00    -0.000 C 
BRANCH  20  21
ATOM     21  C   UNL     1      19.327  10.544  36.970  1.00  0.00    -0.000 C 
BRANCH  21  22
ATOM     22  C   UNL     1      20.365  10.534  35.833  1.00  0.00    -0.000 C 
BRANCH  22  23
ATOM     23  C   UNL     1      19.786  11.005  34.488  1.00  0.00    -0.000 C 
BRANCH  23  24
ATOM     24  C   UNL     1      20.798  11.814  33.662  1.00  0.00    -0.000 C 
BRANCH  24  25
ATOM     25  C   UNL     1      20.116  12.753  32.653  1.00  0.00    -0.003 C 
ATOM     26  C   UNL     1      20.597  14.192  32.825  1.00  0.00     0.004 C 
ENDBRANCH  24  25
ENDBRANCH  23  24
ENDBRANCH  22  23
ENDBRANCH  21  22
ENDBRANCH  20  21
ENDBRANCH  19  20
ENDBRANCH  18  19
ENDBRANCH  17  18
ENDBRANCH  16  17
ENDBRANCH  15  16
ENDBRANCH   1  15
TORSDOF 22
ENDMDL
MODEL 8
REMARK VINA RESULT:    -4.906      1.186      2.354
REMARK INTER + INTRA:         -14.949
REMARK INTER:                 -11.443
REMARK INTRA:                  -3.507
REMARK UNBOUND:                -3.733
REMARK SMILES CCCCCCCCCCCCCCCCCCCCCCCC(=O)[O-]
REMARK SMILES IDX 13 1 14 2 15 3 16 4 17 5 18 6 19 7 20 8 21 9 22 10 23 11
REMARK SMILES IDX 24 12 25 13 26 14 12 15 11 16 10 17 9 18 8 19 7 20 6 21 5 22
REMARK SMILES IDX 4 23 3 24 2 25 1 26
REMARK H PARENT
REMARK Flexibility Score: inf
ROOT
ATOM      1  C   UNL     1      19.545  11.364  35.806  1.00  0.00     0.000 C 
ENDROOT
BRANCH   1   2
ATOM      2  C   UNL     1      20.456  11.162  34.584  1.00  0.00     0.000 C 
BRANCH   2   3
ATOM      3  C   UNL     1      19.846  11.721  33.283  1.00  0.00     0.000 C 
BRANCH   3   4
ATOM      4  C   UNL     1      20.470  13.050  32.815  1.00  0.00     0.000 C 
BRANCH   4   5
ATOM      5  C   UNL     1      22.008  13.060  32.722  1.00  0.00     0.000 C 
BRANCH   5   6
ATOM      6  C   UNL     1      22.699  14.215  33.469  1.00  0.00     0.000 C 
BRANCH   6   7
ATOM      7  C   UNL     1      21.879  14.724  34.668  1.00  0.00     0.000 C 
BRANCH   7   8
ATOM      8  C   UNL     1      21.760  16.264  34.691  1.00  0.00     0.000 C 
BRANCH   8   9
ATOM      9  C   UNL     1      21.235  16.866  33.374  1.00  0.00     0.000 C 
BRANCH   9  10
ATOM     10  C   UNL     1      19.728  17.190  33.360  1.00  0.00     0.006 C 
BRANCH  10  11
ATOM     11  C   UNL     1      19.396  18.679  33.561  1.00  0.00     0.053 C 
BRANCH  11  12
ATOM     12  C   UNL     1      19.901  19.524  32.432  1.00  0.00     0.041 C 
ATOM     13  O   UNL     1      20.832  20.351  32.625  1.00  0.00    -0.550 OA
ATOM     14  O   UNL     1      19.370  19.371  31.158  1.00  0.00    -0.550 OA
ENDBRANCH  11  12
ENDBRANCH  10  11
ENDBRANCH   9  10
ENDBRANCH   8   9
ENDBRANCH   7   8
ENDBRANCH   6   7
ENDBRANCH   5   6
ENDBRANCH   4   5
ENDBRANCH   3   4
ENDBRANCH   2   3
ENDBRANCH   1   2
BRANCH   1  15
ATOM     15  C   UNL     1      20.249  12.196  36.884  1.00  0.00     0.000 C 
BRANCH  15  16
ATOM     16  C   UNL     1      19.442  13.459  37.220  1.00  0.00     0.000 C 
BRANCH  16  17
ATOM     17  C   UNL     1      18.155  13.569  36.386  1.00  0.00     0.000 C 
BRANCH  17  18
ATOM     18  C   UNL     1      18.256  14.659  35.306  1.00  0.00    -0.000 C 
BRANCH  18  19
ATOM     19  C   UNL     1      17.275  14.438  34.141  1.00  0.00    -0.000 C 
BRANCH  19  20
ATOM     20  C   UNL     1      16.632  13.037  34.095  1.00  0.00    -0.000 C 
BRANCH  20  21
ATOM     21  C   UNL     1      15.092  13.015  34.181  1.00  0.00    -0.000 C 
BRANCH  21  22
ATOM     22  C   UNL     1      14.510  13.468  35.533  1.00  0.00    -0.000 C 
BRANCH  22  23
ATOM     23  C   UNL     1      13.148  14.167  35.395  1.00  0.00    -0.000 C 
BRANCH  23  24
ATOM     24  C   UNL     1      12.000  13.346  36.002  1.00  0.00    -0.000 C 
BRANCH  24  25
ATOM     25  C   UNL     1      12.506  12.183  36.872  1.00  0.00    -0.003 C 
ATOM     26  C   UNL     1      11.634  12.000  38.112  1.00  0.00     0.004 C 
ENDBRANCH  24  25
ENDBRANCH  23  24
ENDBRANCH  22  23
ENDBRANCH  21  22
ENDBRANCH  20  21
ENDBRANCH  19  20
ENDBRANCH  18  19
ENDBRANCH  17  18
ENDBRANCH  16  17
ENDBRANCH  15  16
ENDBRANCH   1  15
TORSDOF 22
ENDMDL
MODEL 9
REMARK VINA RESULT:    -4.879      5.094      9.128
REMARK INTER + INTRA:         -14.887
REMARK INTER:                 -10.702
REMARK INTRA:                  -4.185
REMARK UNBOUND:                -3.733
REMARK SMILES CCCCCCCCCCCCCCCCCCCCCCCC(=O)[O-]
REMARK SMILES IDX 13 1 14 2 15 3 16 4 17 5 18 6 19 7 20 8 21 9 22 10 23 11
REMARK SMILES IDX 24 12 25 13 26 14 12 15 11 16 10 17 9 18 8 19 7 20 6 21 5 22
REMARK SMILES IDX 4 23 3 24 2 25 1 26
REMARK H PARENT
REMARK Flexibility Score: inf
ROOT
ATOM      1  C   UNL     1      14.894  10.754  33.075  1.00  0.00     0.000 C 
ENDROOT
BRANCH   1   2
ATOM      2  C   UNL     1      13.506  11.414  33.134  1.00  0.00     0.000 C 
BRANCH   2   3
ATOM      3  C   UNL     1      13.577  12.939  33.360  1.00  0.00     0.000 C 
BRANCH   3   4
ATOM      4  C   UNL     1      12.405  13.507  34.184  1.00  0.00     0.000 C 
BRANCH   4   5
ATOM      5  C   UNL     1      12.781  14.057  35.573  1.00  0.00     0.000 C 
BRANCH   5   6
ATOM      6  C   UNL     1      13.116  12.988  36.629  1.00  0.00     0.000 C 
BRANCH   6   7
ATOM      7  C   UNL     1      12.160  11.783  36.581  1.00  0.00     0.000 C 
BRANCH   7   8
ATOM      8  C   UNL     1      12.907  10.433  36.649  1.00  0.00     0.000 C 
BRANCH   8   9
ATOM      9  C   UNL     1      13.880  10.320  37.837  1.00  0.00     0.000 C 
BRANCH   9  10
ATOM     10  C   UNL     1      13.536   9.217  38.858  1.00  0.00     0.006 C 
BRANCH  10  11
ATOM     11  C   UNL     1      12.276   8.404  38.514  1.00  0.00     0.053 C 
BRANCH  11  12
ATOM     12  C   UNL     1      11.291   8.390  39.643  1.00  0.00     0.041 C 
ATOM     13  O   UNL     1      10.149   8.904  39.497  1.00  0.00    -0.550 OA
ATOM     14  O   UNL     1      11.618   7.773  40.844  1.00  0.00    -0.550 OA
ENDBRANCH  11  12
ENDBRANCH  10  11
ENDBRANCH   9  10
ENDBRANCH   8   9
ENDBRANCH   7   8
ENDBRANCH   6   7
ENDBRANCH   5   6
ENDBRANCH   4   5
ENDBRANCH   3   4
ENDBRANCH   2   3
ENDBRANCH   1   2
BRANCH   1  15
ATOM     15  C   UNL     1      15.966  11.674  33.672  1.00  0.00     0.000 C 
BRANCH  15  16
ATOM     16  C   UNL     1      16.216  11.341  35.150  1.00  0.00     0.000 C 
BRANCH  16  17
ATOM     17  C   UNL     1      16.493  12.597  35.994  1.00  0.00     0.000 C 
BRANCH  17  18
ATOM     18  C   UNL     1      17.103  13.734  35.158  1.00  0.00    -0.000 C 
BRANCH  18  19
ATOM     19  C   UNL     1      18.392  14.304  35.775  1.00  0.00    -0.000 C 
BRANCH  19  20
ATOM     20  C   UNL     1      18.767  13.712  37.149  1.00  0.00    -0.000 C 
BRANCH  20  21
ATOM     21  C   UNL     1      19.968  12.744  37.145  1.00  0.00    -0.000 C 
BRANCH  21  22
ATOM     22  C   UNL     1      19.604  11.254  37.275  1.00  0.00    -0.000 C 
BRANCH  22  23
ATOM     23  C   UNL     1      19.803  10.471  35.966  1.00  0.00    -0.000 C 
BRANCH  23  24
ATOM     24  C   UNL     1      20.467  11.318  34.869  1.00  0.00    -0.000 C 
BRANCH  24  25
ATOM     25  C   UNL     1      19.599  11.424  33.604  1.00  0.00    -0.003 C 
ATOM     26  C   UNL     1      20.055  12.581  32.717  1.00  0.00     0.004 C 
ENDBRANCH  24  25
ENDBRANCH  23  24
ENDBRANCH  22  23
ENDBRANCH  21  22
ENDBRANCH  20  21
ENDBRANCH  19  20
ENDBRANCH  18  19
ENDBRANCH  17  18
ENDBRANCH  16  17
ENDBRANCH  15  16
ENDBRANCH   1  15
TORSDOF 22
ENDMDL
