MODEL 1
REMARK VINA RESULT:    -3.711      0.000      0.000
REMARK INTER + INTRA:          -9.482
REMARK INTER:                  -8.050
REMARK INTRA:                  -1.432
REMARK UNBOUND:                -1.432
REMARK SMILES CCCCCCCCCCCCCCCCCCCCCC(=O)[O-]
REMARK SMILES IDX 12 1 11 2 10 3 9 4 8 5 7 6 6 7 5 8 4 9 3 10 2 11 1 12 13 13
REMARK SMILES IDX 14 14 15 15 16 16 17 17 18 18 19 19 20 20 21 21 22 22 23 23
REMARK SMILES IDX 24 24
REMARK H PARENT
REMARK Flexibility Score: inf
ROOT
ATOM      1  C   UNL     1      10.920   9.669  -2.264  1.00  0.00     0.000 C 
ENDROOT
BRANCH   1   2
ATOM      2  C   UNL     1      11.679  10.971  -1.946  1.00  0.00     0.000 C 
BRANCH   2   3
ATOM      3  C   UNL     1      11.001  11.812  -0.852  1.00  0.00     0.000 C 
BRANCH   3   4
ATOM      4  C   UNL     1       9.543  12.126  -1.225  1.00  0.00    -0.000 C 
BRANCH   4   5
ATOM      5  C   UNL     1       8.993  13.354  -0.482  1.00  0.00    -0.000 C 
BRANCH   5   6
ATOM      6  C   UNL     1       8.507  14.457  -1.440  1.00  0.00    -0.000 C 
BRANCH   6   7
ATOM      7  C   UNL     1       9.667  15.206  -2.117  1.00  0.00    -0.000 C 
BRANCH   7   8
ATOM      8  C   UNL     1      10.612  15.877  -1.105  1.00  0.00    -0.000 C 
BRANCH   8   9
ATOM      9  C   UNL     1      12.064  15.386  -1.235  1.00  0.00    -0.000 C 
BRANCH   9  10
ATOM     10  C   UNL     1      12.994  15.998  -0.172  1.00  0.00    -0.000 C 
BRANCH  10  11
ATOM     11  C   UNL     1      12.343  17.177   0.567  1.00  0.00    -0.003 C 
ATOM     12  C   UNL     1      12.952  17.420   1.948  1.00  0.00     0.004 C 
ENDBRANCH  10  11
ENDBRANCH   9  10
ENDBRANCH   8   9
ENDBRANCH   7   8
ENDBRANCH   6   7
ENDBRANCH   5   6
ENDBRANCH   4   5
ENDBRANCH   3   4
ENDBRANCH   2   3
ENDBRANCH   1   2
BRANCH   1  13
ATOM     13  C   UNL     1      11.648   8.371  -1.863  1.00  0.00     0.000 C 
BRANCH  13  14
ATOM     14  C   UNL     1      10.694   7.175  -1.694  1.00  0.00     0.000 C 
BRANCH  14  15
ATOM     15  C   UNL     1      10.986   6.359  -0.424  1.00  0.00     0.000 C 
BRANCH  15  16
ATOM     16  C   UNL     1      11.694   5.026  -0.721  1.00  0.00     0.000 C 
BRANCH  16  17
ATOM     17  C   UNL     1      11.218   4.389  -2.037  1.00  0.00     0.000 C 
BRANCH  17  18
ATOM     18  C   UNL     1      12.375   3.802  -2.866  1.00  0.00     0.000 C 
BRANCH  18  19
ATOM     19  C   UNL     1      13.725   3.875  -2.119  1.00  0.00     0.000 C 
BRANCH  19  20
ATOM     20  C   UNL     1      14.480   2.533  -2.079  1.00  0.00     0.006 C 
BRANCH  20  21
ATOM     21  C   UNL     1      15.934   2.646  -1.594  1.00  0.00     0.053 C 
BRANCH  21  22
ATOM     22  C   UNL     1      16.811   1.598  -2.208  1.00  0.00     0.041 C 
ATOM     23  O   UNL     1      16.308   0.529  -2.648  1.00  0.00    -0.550 OA
ATOM     24  O   UNL     1      18.176   1.816  -2.335  1.00  0.00    -0.550 OA
ENDBRANCH  21  22
ENDBRANCH  20  21
ENDBRANCH  19  20
ENDBRANCH  18  19
ENDBRANCH  17  18
ENDBRANCH  16  17
ENDBRANCH  15  16
ENDBRANCH  14  15
ENDBRANCH  13  14
ENDBRANCH   1  13
TORSDOF 20
ENDMDL
MODEL 2
REMARK VINA RESULT:    -3.675      2.041      4.073
REMARK INTER + INTRA:          -9.405
REMARK INTER:                  -8.541
REMARK INTRA:                  -0.864
REMARK UNBOUND:                -1.432
REMARK SMILES CCCCCCCCCCCCCCCCCCCCCC(=O)[O-]
REMARK SMILES IDX 12 1 11 2 10 3 9 4 8 5 7 6 6 7 5 8 4 9 3 10 2 11 1 12 13 13
REMARK SMILES IDX 14 14 15 15 16 16 17 17 18 18 19 19 20 20 21 21 22 22 23 23
REMARK SMILES IDX 24 24
REMARK H PARENT
REMARK Flexibility Score: inf
ROOT
ATOM      1  C   UNL     1      10.721   5.500  -0.525  1.00  0.00     0.000 C 
ENDROOT
BRANCH   1   2
ATOM      2  C   UNL     1      10.523   6.973  -0.930  1.00  0.00     0.000 C 
BRANCH   2   3
ATOM      3  C   UNL     1      10.619   7.198  -2.448  1.00  0.00     0.000 C 
BRANCH   3   4
ATOM      4  C   UNL     1      11.434   8.461  -2.766  1.00  0.00    -0.000 C 
BRANCH   4   5
ATOM      5  C   UNL     1      10.747   9.748  -2.283  1.00  0.00    -0.000 C 
BRANCH   5   6
ATOM      6  C   UNL     1      11.615  10.551  -1.298  1.00  0.00    -0.000 C 
BRANCH   6   7
ATOM      7  C   UNL     1      11.979  11.947  -1.831  1.00  0.00    -0.000 C 
BRANCH   7   8
ATOM      8  C   UNL     1      11.555  13.076  -0.876  1.00  0.00    -0.000 C 
BRANCH   8   9
ATOM      9  C   UNL     1      11.809  14.474  -1.464  1.00  0.00    -0.000 C 
BRANCH   9  10
ATOM     10  C   UNL     1      12.618  15.378  -0.515  1.00  0.00    -0.000 C 
BRANCH  10  11
ATOM     11  C   UNL     1      14.109  15.427  -0.882  1.00  0.00    -0.003 C 
ATOM     12  C   UNL     1      14.527  16.770  -1.481  1.00  0.00     0.004 C 
ENDBRANCH  10  11
ENDBRANCH   9  10
ENDBRANCH   8   9
ENDBRANCH   7   8
ENDBRANCH   6   7
ENDBRANCH   5   6
ENDBRANCH   4   5
ENDBRANCH   3   4
ENDBRANCH   2   3
ENDBRANCH   1   2
BRANCH   1  13
ATOM     13  C   UNL     1      11.458   4.628  -1.560  1.00  0.00     0.000 C 
BRANCH  13  14
ATOM     14  C   UNL     1      12.944   4.418  -1.219  1.00  0.00     0.000 C 
BRANCH  14  15
ATOM     15  C   UNL     1      13.770   3.957  -2.431  1.00  0.00     0.000 C 
BRANCH  15  16
ATOM     16  C   UNL     1      14.950   3.050  -2.038  1.00  0.00     0.000 C 
BRANCH  16  17
ATOM     17  C   UNL     1      14.809   1.627  -2.604  1.00  0.00     0.000 C 
BRANCH  17  18
ATOM     18  C   UNL     1      16.092   0.793  -2.441  1.00  0.00     0.000 C 
BRANCH  18  19
ATOM     19  C   UNL     1      17.365   1.665  -2.476  1.00  0.00     0.000 C 
BRANCH  19  20
ATOM     20  C   UNL     1      18.639   0.882  -2.847  1.00  0.00     0.006 C 
BRANCH  20  21
ATOM     21  C   UNL     1      19.946   1.631  -2.545  1.00  0.00     0.053 C 
BRANCH  21  22
ATOM     22  C   UNL     1      21.059   0.693  -2.189  1.00  0.00     0.041 C 
ATOM     23  O   UNL     1      21.378  -0.238  -2.975  1.00  0.00    -0.550 OA
ATOM     24  O   UNL     1      21.770   0.869  -1.010  1.00  0.00    -0.550 OA
ENDBRANCH  21  22
ENDBRANCH  20  21
ENDBRANCH  19  20
ENDBRANCH  18  19
ENDBRANCH  17  18
ENDBRANCH  16  17
ENDBRANCH  15  16
ENDBRANCH  14  15
ENDBRANCH  13  14
ENDBRANCH   1  13
TORSDOF 20
ENDMDL
MODEL 3
REMARK VINA RESULT:    -3.642      2.621      3.933
REMARK INTER + INTRA:          -9.332
REMARK INTER:                  -6.488
REMARK INTRA:                  -2.844
REMARK UNBOUND:                -1.432
REMARK SMILES CCCCCCCCCCCCCCCCCCCCCC(=O)[O-]
REMARK SMILES IDX 12 1 11 2 10 3 9 4 8 5 7 6 6 7 5 8 4 9 3 10 2 11 1 12 13 13
REMARK SMILES IDX 14 14 15 15 16 16 17 17 18 18 19 19 20 20 21 21 22 22 23 23
REMARK SMILES IDX 24 24
REMARK H PARENT
REMARK Flexibility Score: inf
ROOT
ATOM      1  C   UNL     1      11.280  12.171  -0.517  1.00  0.00     0.000 C 
ENDROOT
BRANCH   1   2
ATOM      2  C   UNL     1       9.823  12.670  -0.489  1.00  0.00     0.000 C 
BRANCH   2   3
ATOM      3  C   UNL     1       9.217  12.840  -1.891  1.00  0.00     0.000 C 
BRANCH   3   4
ATOM      4  C   UNL     1       8.874  14.312  -2.167  1.00  0.00    -0.000 C 
BRANCH   4   5
ATOM      5  C   UNL     1       8.768  15.148  -0.881  1.00  0.00    -0.000 C 
BRANCH   5   6
ATOM      6  C   UNL     1       9.739  16.341  -0.868  1.00  0.00    -0.000 C 
BRANCH   6   7
ATOM      7  C   UNL     1      10.477  16.518  -2.206  1.00  0.00    -0.000 C 
BRANCH   7   8
ATOM      8  C   UNL     1      12.000  16.656  -2.031  1.00  0.00    -0.000 C 
BRANCH   8   9
ATOM      9  C   UNL     1      12.599  15.533  -1.167  1.00  0.00    -0.000 C 
BRANCH   9  10
ATOM     10  C   UNL     1      13.629  16.055  -0.148  1.00  0.00    -0.000 C 
BRANCH  10  11
ATOM     11  C   UNL     1      13.238  17.423   0.432  1.00  0.00    -0.003 C 
ATOM     12  C   UNL     1      12.930  17.365   1.928  1.00  0.00     0.004 C 
ENDBRANCH  10  11
ENDBRANCH   9  10
ENDBRANCH   8   9
ENDBRANCH   7   8
ENDBRANCH   6   7
ENDBRANCH   5   6
ENDBRANCH   4   5
ENDBRANCH   3   4
ENDBRANCH   2   3
ENDBRANCH   1   2
BRANCH   1  13
ATOM     13  C   UNL     1      11.733  11.545  -1.850  1.00  0.00     0.000 C 
BRANCH  13  14
ATOM     14  C   UNL     1      12.444  10.193  -1.667  1.00  0.00     0.000 C 
BRANCH  14  15
ATOM     15  C   UNL     1      11.487   8.997  -1.798  1.00  0.00     0.000 C 
BRANCH  15  16
ATOM     16  C   UNL     1      10.245   9.316  -2.649  1.00  0.00     0.000 C 
BRANCH  16  17
ATOM     17  C   UNL     1       8.933   9.021  -1.903  1.00  0.00     0.000 C 
BRANCH  17  18
ATOM     18  C   UNL     1       8.943   7.650  -1.203  1.00  0.00     0.000 C 
BRANCH  18  19
ATOM     19  C   UNL     1       8.618   6.494  -2.173  1.00  0.00     0.000 C 
BRANCH  19  20
ATOM     20  C   UNL     1       9.687   5.385  -2.190  1.00  0.00     0.006 C 
BRANCH  20  21
ATOM     21  C   UNL     1      10.650   5.424  -0.993  1.00  0.00     0.053 C 
BRANCH  21  22
ATOM     22  C   UNL     1      12.068   5.173  -1.409  1.00  0.00     0.041 C 
ATOM     23  O   UNL     1      12.812   4.435  -0.709  1.00  0.00    -0.550 OA
ATOM     24  O   UNL     1      12.556   5.717  -2.588  1.00  0.00    -0.550 OA
ENDBRANCH  21  22
ENDBRANCH  20  21
ENDBRANCH  19  20
ENDBRANCH  18  19
ENDBRANCH  17  18
ENDBRANCH  16  17
ENDBRANCH  15  16
ENDBRANCH  14  15
ENDBRANCH  13  14
ENDBRANCH   1  13
TORSDOF 20
ENDMDL
MODEL 4
REMARK VINA RESULT:    -3.639      1.162      2.138
REMARK INTER + INTRA:          -9.327
REMARK INTER:                  -7.189
REMARK INTRA:                  -2.138
REMARK UNBOUND:                -1.432
REMARK SMILES CCCCCCCCCCCCCCCCCCCCCC(=O)[O-]
REMARK SMILES IDX 12 1 11 2 10 3 9 4 8 5 7 6 6 7 5 8 4 9 3 10 2 11 1 12 13 13
REMARK SMILES IDX 14 14 15 15 16 16 17 17 18 18 19 19 20 20 21 21 22 22 23 23
REMARK SMILES IDX 24 24
REMARK H PARENT
REMARK Flexibility Score: inf
ROOT
ATOM      1  C   UNL     1      11.963   8.512  -2.007  1.00  0.00     0.000 C 
ENDROOT
BRANCH   1   2
ATOM      2  C   UNL     1      12.547   9.516  -3.019  1.00  0.00     0.000 C 
BRANCH   2   3
ATOM      3  C   UNL     1      13.105  10.785  -2.354  1.00  0.00     0.000 C 
BRANCH   3   4
ATOM      4  C   UNL     1      12.043  11.895  -2.311  1.00  0.00    -0.000 C 
BRANCH   4   5
ATOM      5  C   UNL     1      11.229  11.887  -1.008  1.00  0.00    -0.000 C 
BRANCH   5   6
ATOM      6  C   UNL     1       9.717  12.037  -1.252  1.00  0.00    -0.000 C 
BRANCH   6   7
ATOM      7  C   UNL     1       9.079  13.122  -0.368  1.00  0.00    -0.000 C 
BRANCH   7   8
ATOM      8  C   UNL     1       8.380  14.221  -1.187  1.00  0.00    -0.000 C 
BRANCH   8   9
ATOM      9  C   UNL     1       9.096  15.579  -1.088  1.00  0.00    -0.000 C 
BRANCH   9  10
ATOM     10  C   UNL     1      10.430  15.602  -1.854  1.00  0.00    -0.000 C 
BRANCH  10  11
ATOM     11  C   UNL     1      11.567  16.228  -1.031  1.00  0.00    -0.003 C 
ATOM     12  C   UNL     1      12.609  15.202  -0.584  1.00  0.00     0.004 C 
ENDBRANCH  10  11
ENDBRANCH   9  10
ENDBRANCH   8   9
ENDBRANCH   7   8
ENDBRANCH   6   7
ENDBRANCH   5   6
ENDBRANCH   4   5
ENDBRANCH   3   4
ENDBRANCH   2   3
ENDBRANCH   1   2
BRANCH   1  13
ATOM     13  C   UNL     1      10.427   8.392  -2.013  1.00  0.00     0.000 C 
BRANCH  13  14
ATOM     14  C   UNL     1       9.921   7.131  -1.291  1.00  0.00     0.000 C 
BRANCH  14  15
ATOM     15  C   UNL     1       9.716   5.943  -2.245  1.00  0.00     0.000 C 
BRANCH  15  16
ATOM     16  C   UNL     1      10.507   4.693  -1.821  1.00  0.00     0.000 C 
BRANCH  16  17
ATOM     17  C   UNL     1      11.532   4.995  -0.715  1.00  0.00     0.000 C 
BRANCH  17  18
ATOM     18  C   UNL     1      12.967   5.125  -1.255  1.00  0.00     0.000 C 
BRANCH  18  19
ATOM     19  C   UNL     1      13.174   4.332  -2.563  1.00  0.00     0.000 C 
BRANCH  19  20
ATOM     20  C   UNL     1      13.831   2.954  -2.352  1.00  0.00     0.006 C 
BRANCH  20  21
ATOM     21  C   UNL     1      15.260   2.850  -2.906  1.00  0.00     0.053 C 
BRANCH  21  22
ATOM     22  C   UNL     1      16.086   1.863  -2.138  1.00  0.00     0.041 C 
ATOM     23  O   UNL     1      15.529   0.917  -1.518  1.00  0.00    -0.550 OA
ATOM     24  O   UNL     1      17.470   1.960  -2.139  1.00  0.00    -0.550 OA
ENDBRANCH  21  22
ENDBRANCH  20  21
ENDBRANCH  19  20
ENDBRANCH  18  19
ENDBRANCH  17  18
ENDBRANCH  16  17
ENDBRANCH  15  16
ENDBRANCH  14  15
ENDBRANCH  13  14
ENDBRANCH   1  13
TORSDOF 20
ENDMDL
MODEL 5
REMARK VINA RESULT:    -3.584      5.284     11.914
REMARK INTER + INTRA:          -9.207
REMARK INTER:                  -7.897
REMARK INTRA:                  -1.310
REMARK UNBOUND:                -1.432
REMARK SMILES CCCCCCCCCCCCCCCCCCCCCC(=O)[O-]
REMARK SMILES IDX 12 1 11 2 10 3 9 4 8 5 7 6 6 7 5 8 4 9 3 10 2 11 1 12 13 13
REMARK SMILES IDX 14 14 15 15 16 16 17 17 18 18 19 19 20 20 21 21 22 22 23 23
REMARK SMILES IDX 24 24
REMARK H PARENT
REMARK Flexibility Score: inf
ROOT
ATOM      1  C   UNL     1      11.260  11.397  -0.872  1.00  0.00     0.000 C 
ENDROOT
BRANCH   1   2
ATOM      2  C   UNL     1      12.105  10.437  -1.731  1.00  0.00     0.000 C 
BRANCH   2   3
ATOM      3  C   UNL     1      11.269   9.336  -2.403  1.00  0.00     0.000 C 
BRANCH   3   4
ATOM      4  C   UNL     1      11.726   7.942  -1.946  1.00  0.00    -0.000 C 
BRANCH   4   5
ATOM      5  C   UNL     1      10.641   7.192  -1.156  1.00  0.00    -0.000 C 
BRANCH   5   6
ATOM      6  C   UNL     1      11.151   5.868  -0.560  1.00  0.00    -0.000 C 
BRANCH   6   7
ATOM      7  C   UNL     1      10.721   4.643  -1.384  1.00  0.00    -0.000 C 
BRANCH   7   8
ATOM      8  C   UNL     1      11.869   4.064  -2.230  1.00  0.00    -0.000 C 
BRANCH   8   9
ATOM      9  C   UNL     1      13.243   4.247  -1.564  1.00  0.00    -0.000 C 
BRANCH   9  10
ATOM     10  C   UNL     1      14.368   3.515  -2.318  1.00  0.00    -0.000 C 
BRANCH  10  11
ATOM     11  C   UNL     1      15.330   2.784  -1.369  1.00  0.00    -0.003 C 
ATOM     12  C   UNL     1      15.473   1.298  -1.700  1.00  0.00     0.004 C 
ENDBRANCH  10  11
ENDBRANCH   9  10
ENDBRANCH   8   9
ENDBRANCH   7   8
ENDBRANCH   6   7
ENDBRANCH   5   6
ENDBRANCH   4   5
ENDBRANCH   3   4
ENDBRANCH   2   3
ENDBRANCH   1   2
BRANCH   1  13
ATOM     13  C   UNL     1      11.018  12.788  -1.489  1.00  0.00     0.000 C 
BRANCH  13  14
ATOM     14  C   UNL     1      12.054  13.833  -1.040  1.00  0.00     0.000 C 
BRANCH  14  15
ATOM     15  C   UNL     1      13.226  13.969  -2.026  1.00  0.00     0.000 C 
BRANCH  15  16
ATOM     16  C   UNL     1      14.379  14.823  -1.469  1.00  0.00     0.000 C 
BRANCH  16  17
ATOM     17  C   UNL     1      13.985  16.300  -1.299  1.00  0.00     0.000 C 
BRANCH  17  18
ATOM     18  C   UNL     1      13.917  16.729   0.177  1.00  0.00     0.000 C 
BRANCH  18  19
ATOM     19  C   UNL     1      13.018  17.968   0.385  1.00  0.00     0.000 C 
BRANCH  19  20
ATOM     20  C   UNL     1      11.558  17.619   0.732  1.00  0.00     0.006 C 
BRANCH  20  21
ATOM     21  C   UNL     1      10.685  17.292  -0.489  1.00  0.00     0.053 C 
BRANCH  21  22
ATOM     22  C   UNL     1       9.289  16.915  -0.093  1.00  0.00     0.041 C 
ATOM     23  O   UNL     1       8.617  17.674   0.655  1.00  0.00    -0.550 OA
ATOM     24  O   UNL     1       8.716  15.749  -0.580  1.00  0.00    -0.550 OA
ENDBRANCH  21  22
ENDBRANCH  20  21
ENDBRANCH  19  20
ENDBRANCH  18  19
ENDBRANCH  17  18
ENDBRANCH  16  17
ENDBRANCH  15  16
ENDBRANCH  14  15
ENDBRANCH  13  14
ENDBRANCH   1  13
TORSDOF 20
ENDMDL
MODEL 6
REMARK VINA RESULT:    -3.550      1.484      2.852
REMARK INTER + INTRA:          -9.132
REMARK INTER:                  -7.402
REMARK INTRA:                  -1.730
REMARK UNBOUND:                -1.432
REMARK SMILES CCCCCCCCCCCCCCCCCCCCCC(=O)[O-]
REMARK SMILES IDX 12 1 11 2 10 3 9 4 8 5 7 6 6 7 5 8 4 9 3 10 2 11 1 12 13 13
REMARK SMILES IDX 14 14 15 15 16 16 17 17 18 18 19 19 20 20 21 21 22 22 23 23
REMARK SMILES IDX 24 24
REMARK H PARENT
REMARK Flexibility Score: inf
ROOT
ATOM      1  C   UNL     1      11.716  11.237  -0.875  1.00  0.00     0.000 C 
ENDROOT
BRANCH   1   2
ATOM      2  C   UNL     1      11.110  12.649  -0.971  1.00  0.00     0.000 C 
BRANCH   2   3
ATOM      3  C   UNL     1       9.591  12.670  -0.736  1.00  0.00     0.000 C 
BRANCH   3   4
ATOM      4  C   UNL     1       9.032  14.094  -0.885  1.00  0.00    -0.000 C 
BRANCH   4   5
ATOM      5  C   UNL     1      10.054  15.074  -1.482  1.00  0.00    -0.000 C 
BRANCH   5   6
ATOM      6  C   UNL     1      10.319  16.283  -0.568  1.00  0.00    -0.000 C 
BRANCH   6   7
ATOM      7  C   UNL     1      11.612  17.031  -0.937  1.00  0.00    -0.000 C 
BRANCH   7   8
ATOM      8  C   UNL     1      12.700  16.905   0.144  1.00  0.00    -0.000 C 
BRANCH   8   9
ATOM      9  C   UNL     1      13.999  16.282  -0.396  1.00  0.00    -0.000 C 
BRANCH   9  10
ATOM     10  C   UNL     1      13.749  14.993  -1.198  1.00  0.00    -0.000 C 
BRANCH  10  11
ATOM     11  C   UNL     1      14.923  14.643  -2.125  1.00  0.00    -0.003 C 
ATOM     12  C   UNL     1      14.826  13.227  -2.695  1.00  0.00     0.004 C 
ENDBRANCH  10  11
ENDBRANCH   9  10
ENDBRANCH   8   9
ENDBRANCH   7   8
ENDBRANCH   6   7
ENDBRANCH   5   6
ENDBRANCH   4   5
ENDBRANCH   3   4
ENDBRANCH   2   3
ENDBRANCH   1   2
BRANCH   1  13
ATOM     13  C   UNL     1      12.046  10.571  -2.225  1.00  0.00     0.000 C 
BRANCH  13  14
ATOM     14  C   UNL     1      10.873   9.753  -2.794  1.00  0.00     0.000 C 
BRANCH  14  15
ATOM     15  C   UNL     1      10.427   8.622  -1.852  1.00  0.00     0.000 C 
BRANCH  15  16
ATOM     16  C   UNL     1      11.482   7.510  -1.712  1.00  0.00     0.000 C 
BRANCH  16  17
ATOM     17  C   UNL     1      10.974   6.322  -0.879  1.00  0.00     0.000 C 
BRANCH  17  18
ATOM     18  C   UNL     1      11.780   5.035  -1.128  1.00  0.00     0.000 C 
BRANCH  18  19
ATOM     19  C   UNL     1      11.215   4.208  -2.303  1.00  0.00     0.000 C 
BRANCH  19  20
ATOM     20  C   UNL     1      12.220   3.193  -2.882  1.00  0.00     0.006 C 
BRANCH  20  21
ATOM     21  C   UNL     1      13.666   3.709  -2.943  1.00  0.00     0.053 C 
BRANCH  21  22
ATOM     22  C   UNL     1      14.617   2.787  -2.243  1.00  0.00     0.041 C 
ATOM     23  O   UNL     1      14.927   1.681  -2.763  1.00  0.00    -0.550 OA
ATOM     24  O   UNL     1      15.195   3.163  -1.038  1.00  0.00    -0.550 OA
ENDBRANCH  21  22
ENDBRANCH  20  21
ENDBRANCH  19  20
ENDBRANCH  18  19
ENDBRANCH  17  18
ENDBRANCH  16  17
ENDBRANCH  15  16
ENDBRANCH  14  15
ENDBRANCH  13  14
ENDBRANCH   1  13
TORSDOF 20
ENDMDL
MODEL 7
REMARK VINA RESULT:    -3.529      4.619     10.823
REMARK INTER + INTRA:          -9.088
REMARK INTER:                  -6.928
REMARK INTRA:                  -2.159
REMARK UNBOUND:                -1.432
REMARK SMILES CCCCCCCCCCCCCCCCCCCCCC(=O)[O-]
REMARK SMILES IDX 12 1 11 2 10 3 9 4 8 5 7 6 6 7 5 8 4 9 3 10 2 11 1 12 13 13
REMARK SMILES IDX 14 14 15 15 16 16 17 17 18 18 19 19 20 20 21 21 22 22 23 23
REMARK SMILES IDX 24 24
REMARK H PARENT
REMARK Flexibility Score: inf
ROOT
ATOM      1  C   UNL     1      12.071  10.727  -1.049  1.00  0.00     0.000 C 
ENDROOT
BRANCH   1   2
ATOM      2  C   UNL     1      11.909   9.965  -2.379  1.00  0.00     0.000 C 
BRANCH   2   3
ATOM      3  C   UNL     1      11.597   8.473  -2.183  1.00  0.00     0.000 C 
BRANCH   3   4
ATOM      4  C   UNL     1      10.080   8.223  -2.193  1.00  0.00    -0.000 C 
BRANCH   4   5
ATOM      5  C   UNL     1       9.683   6.955  -1.420  1.00  0.00    -0.000 C 
BRANCH   5   6
ATOM      6  C   UNL     1      10.734   6.546  -0.372  1.00  0.00    -0.000 C 
BRANCH   6   7
ATOM      7  C   UNL     1      11.077   5.048  -0.433  1.00  0.00    -0.000 C 
BRANCH   7   8
ATOM      8  C   UNL     1      11.295   4.547  -1.871  1.00  0.00    -0.000 C 
BRANCH   8   9
ATOM      9  C   UNL     1      12.766   4.642  -2.313  1.00  0.00    -0.000 C 
BRANCH   9  10
ATOM     10  C   UNL     1      13.711   3.837  -1.403  1.00  0.00    -0.000 C 
BRANCH  10  11
ATOM     11  C   UNL     1      14.786   3.080  -2.199  1.00  0.00    -0.003 C 
ATOM     12  C   UNL     1      16.011   2.729  -1.354  1.00  0.00     0.004 C 
ENDBRANCH  10  11
ENDBRANCH   9  10
ENDBRANCH   8   9
ENDBRANCH   7   8
ENDBRANCH   6   7
ENDBRANCH   5   6
ENDBRANCH   4   5
ENDBRANCH   3   4
ENDBRANCH   2   3
ENDBRANCH   1   2
BRANCH   1  13
ATOM     13  C   UNL     1      11.180  11.974  -0.895  1.00  0.00     0.000 C 
BRANCH  13  14
ATOM     14  C   UNL     1      10.172  12.138  -2.047  1.00  0.00     0.000 C 
BRANCH  14  15
ATOM     15  C   UNL     1       8.713  12.141  -1.563  1.00  0.00     0.000 C 
BRANCH  15  16
ATOM     16  C   UNL     1       8.426  13.250  -0.535  1.00  0.00     0.000 C 
BRANCH  16  17
ATOM     17  C   UNL     1       8.251  14.628  -1.194  1.00  0.00     0.000 C 
BRANCH  17  18
ATOM     18  C   UNL     1       9.247  15.673  -0.658  1.00  0.00     0.000 C 
BRANCH  18  19
ATOM     19  C   UNL     1      10.055  16.344  -1.789  1.00  0.00     0.000 C 
BRANCH  19  20
ATOM     20  C   UNL     1      11.466  15.752  -1.973  1.00  0.00     0.006 C 
BRANCH  20  21
ATOM     21  C   UNL     1      12.128  15.292  -0.665  1.00  0.00     0.053 C 
BRANCH  21  22
ATOM     22  C   UNL     1      13.144  16.279  -0.176  1.00  0.00     0.041 C 
ATOM     23  O   UNL     1      12.913  16.970   0.852  1.00  0.00    -0.550 OA
ATOM     24  O   UNL     1      14.362  16.408  -0.828  1.00  0.00    -0.550 OA
ENDBRANCH  21  22
ENDBRANCH  20  21
ENDBRANCH  19  20
ENDBRANCH  18  19
ENDBRANCH  17  18
ENDBRANCH  16  17
ENDBRANCH  15  16
ENDBRANCH  14  15
ENDBRANCH  13  14
ENDBRANCH   1  13
TORSDOF 20
ENDMDL
MODEL 8
REMARK VINA RESULT:    -3.490      2.264      4.270
REMARK INTER + INTRA:          -9.002
REMARK INTER:                  -7.695
REMARK INTRA:                  -1.307
REMARK UNBOUND:                -1.432
REMARK SMILES CCCCCCCCCCCCCCCCCCCCCC(=O)[O-]
REMARK SMILES IDX 12 1 11 2 10 3 9 4 8 5 7 6 6 7 5 8 4 9 3 10 2 11 1 12 13 13
REMARK SMILES IDX 14 14 15 15 16 16 17 17 18 18 19 19 20 20 21 21 22 22 23 23
REMARK SMILES IDX 24 24
REMARK H PARENT
REMARK Flexibility Score: inf
ROOT
ATOM      1  C   UNL     1      10.606   5.563  -2.510  1.00  0.00     0.000 C 
ENDROOT
BRANCH   1   2
ATOM      2  C   UNL     1      10.011   6.945  -2.838  1.00  0.00     0.000 C 
BRANCH   2   3
ATOM      3  C   UNL     1       9.924   7.870  -1.614  1.00  0.00     0.000 C 
BRANCH   3   4
ATOM      4  C   UNL     1       9.492   9.287  -2.024  1.00  0.00    -0.000 C 
BRANCH   4   5
ATOM      5  C   UNL     1      10.593  10.045  -2.783  1.00  0.00    -0.000 C 
BRANCH   5   6
ATOM      6  C   UNL     1      11.942  10.030  -2.043  1.00  0.00    -0.000 C 
BRANCH   6   7
ATOM      7  C   UNL     1      12.751  11.319  -2.261  1.00  0.00    -0.000 C 
BRANCH   7   8
ATOM      8  C   UNL     1      11.856  12.553  -2.472  1.00  0.00    -0.000 C 
BRANCH   8   9
ATOM      9  C   UNL     1      11.620  13.341  -1.172  1.00  0.00    -0.000 C 
BRANCH   9  10
ATOM     10  C   UNL     1      10.186  13.889  -1.064  1.00  0.00    -0.000 C 
BRANCH  10  11
ATOM     11  C   UNL     1       9.133  12.771  -1.028  1.00  0.00    -0.003 C 
ATOM     12  C   UNL     1       7.743  13.279  -0.642  1.00  0.00     0.004 C 
ENDBRANCH  10  11
ENDBRANCH   9  10
ENDBRANCH   8   9
ENDBRANCH   7   8
ENDBRANCH   6   7
ENDBRANCH   5   6
ENDBRANCH   4   5
ENDBRANCH   3   4
ENDBRANCH   2   3
ENDBRANCH   1   2
BRANCH   1  13
ATOM     13  C   UNL     1      11.044   5.368  -1.045  1.00  0.00     0.000 C 
BRANCH  13  14
ATOM     14  C   UNL     1      12.511   4.925  -0.910  1.00  0.00     0.000 C 
BRANCH  14  15
ATOM     15  C   UNL     1      12.916   3.885  -1.969  1.00  0.00     0.000 C 
BRANCH  15  16
ATOM     16  C   UNL     1      14.335   3.331  -1.749  1.00  0.00     0.000 C 
BRANCH  16  17
ATOM     17  C   UNL     1      14.791   2.416  -2.898  1.00  0.00     0.000 C 
BRANCH  17  18
ATOM     18  C   UNL     1      15.725   1.289  -2.424  1.00  0.00     0.000 C 
BRANCH  18  19
ATOM     19  C   UNL     1      17.135   1.807  -2.069  1.00  0.00     0.000 C 
BRANCH  19  20
ATOM     20  C   UNL     1      18.273   0.979  -2.697  1.00  0.00     0.006 C 
BRANCH  20  21
ATOM     21  C   UNL     1      19.639   1.683  -2.688  1.00  0.00     0.053 C 
BRANCH  21  22
ATOM     22  C   UNL     1      20.723   0.790  -2.164  1.00  0.00     0.041 C 
ATOM     23  O   UNL     1      21.533   1.219  -1.299  1.00  0.00    -0.550 OA
ATOM     24  O   UNL     1      20.814  -0.525  -2.597  1.00  0.00    -0.550 OA
ENDBRANCH  21  22
ENDBRANCH  20  21
ENDBRANCH  19  20
ENDBRANCH  18  19
ENDBRANCH  17  18
ENDBRANCH  16  17
ENDBRANCH  15  16
ENDBRANCH  14  15
ENDBRANCH  13  14
ENDBRANCH   1  13
TORSDOF 20
ENDMDL
MODEL 9
REMARK VINA RESULT:    -3.390      4.736     11.925
REMARK INTER + INTRA:          -8.785
REMARK INTER:                  -7.551
REMARK INTRA:                  -1.233
REMARK UNBOUND:                -1.432
REMARK SMILES CCCCCCCCCCCCCCCCCCCCCC(=O)[O-]
REMARK SMILES IDX 12 1 11 2 10 3 9 4 8 5 7 6 6 7 5 8 4 9 3 10 2 11 1 12 13 13
REMARK SMILES IDX 14 14 15 15 16 16 17 17 18 18 19 19 20 20 21 21 22 22 23 23
REMARK SMILES IDX 24 24
REMARK H PARENT
REMARK Flexibility Score: inf
ROOT
ATOM      1  C   UNL     1      11.815   6.126  -1.498  1.00  0.00     0.000 C 
ENDROOT
BRANCH   1   2
ATOM      2  C   UNL     1      12.115   4.625  -1.321  1.00  0.00     0.000 C 
BRANCH   2   3
ATOM      3  C   UNL     1      12.365   3.899  -2.652  1.00  0.00     0.000 C 
BRANCH   3   4
ATOM      4  C   UNL     1      13.801   3.357  -2.721  1.00  0.00    -0.000 C 
BRANCH   4   5
ATOM      5  C   UNL     1      14.554   3.501  -1.388  1.00  0.00    -0.000 C 
BRANCH   5   6
ATOM      6  C   UNL     1      15.862   2.691  -1.356  1.00  0.00    -0.000 C 
BRANCH   6   7
ATOM      7  C   UNL     1      15.655   1.217  -1.744  1.00  0.00    -0.000 C 
BRANCH   7   8
ATOM      8  C   UNL     1      16.566   0.775  -2.903  1.00  0.00    -0.000 C 
BRANCH   8   9
ATOM      9  C   UNL     1      17.844   1.625  -3.008  1.00  0.00    -0.000 C 
BRANCH   9  10
ATOM     10  C   UNL     1      19.066   0.940  -2.371  1.00  0.00    -0.000 C 
BRANCH  10  11
ATOM     11  C   UNL     1      20.376   1.685  -2.668  1.00  0.00    -0.003 C 
ATOM     12  C   UNL     1      21.523   1.254  -1.753  1.00  0.00     0.004 C 
ENDBRANCH  10  11
ENDBRANCH   9  10
ENDBRANCH   8   9
ENDBRANCH   7   8
ENDBRANCH   6   7
ENDBRANCH   5   6
ENDBRANCH   4   5
ENDBRANCH   3   4
ENDBRANCH   2   3
ENDBRANCH   1   2
BRANCH   1  13
ATOM     13  C   UNL     1      10.686   6.680  -0.608  1.00  0.00     0.000 C 
BRANCH  13  14
ATOM     14  C   UNL     1       9.607   7.433  -1.405  1.00  0.00     0.000 C 
BRANCH  14  15
ATOM     15  C   UNL     1      10.126   7.962  -2.753  1.00  0.00     0.000 C 
BRANCH  15  16
ATOM     16  C   UNL     1      10.323   9.488  -2.760  1.00  0.00     0.000 C 
BRANCH  16  17
ATOM     17  C   UNL     1       9.492  10.191  -1.675  1.00  0.00     0.000 C 
BRANCH  17  18
ATOM     18  C   UNL     1       9.075  11.617  -2.078  1.00  0.00     0.000 C 
BRANCH  18  19
ATOM     19  C   UNL     1       9.791  12.696  -1.236  1.00  0.00     0.000 C 
BRANCH  19  20
ATOM     20  C   UNL     1      10.846  13.493  -2.027  1.00  0.00     0.006 C 
BRANCH  20  21
ATOM     21  C   UNL     1      12.125  13.799  -1.231  1.00  0.00     0.053 C 
BRANCH  21  22
ATOM     22  C   UNL     1      12.216  15.247  -0.856  1.00  0.00     0.041 C 
ATOM     23  O   UNL     1      11.183  15.969  -0.860  1.00  0.00    -0.550 OA
ATOM     24  O   UNL     1      13.430  15.791  -0.462  1.00  0.00    -0.550 OA
ENDBRANCH  21  22
ENDBRANCH  20  21
ENDBRANCH  19  20
ENDBRANCH  18  19
ENDBRANCH  17  18
ENDBRANCH  16  17
ENDBRANCH  15  16
ENDBRANCH  14  15
ENDBRANCH  13  14
ENDBRANCH   1  13
TORSDOF 20
ENDMDL
