MODEL 1
REMARK VINA RESULT:    -4.739      0.000      0.000
REMARK INTER + INTRA:          -8.852
REMARK INTER:                  -8.064
REMARK INTRA:                  -0.788
REMARK UNBOUND:                -0.788
REMARK SMILES CCCCCCCCCCCCCC(=O)[O-]
REMARK SMILES IDX 8 1 9 2 10 3 11 4 12 5 13 6 14 7 15 8 16 9 7 10 6 11 5 12
REMARK SMILES IDX 4 13 3 14 2 15 1 16
REMARK H PARENT
REMARK Flexibility Score: inf
ROOT
ATOM      1  C   UNL     1      10.106 -11.794 -23.882  1.00  0.00     0.000 C 
ENDROOT
BRANCH   1   2
ATOM      2  C   UNL     1       9.281 -13.084 -24.024  1.00  0.00     0.000 C 
BRANCH   2   3
ATOM      3  C   UNL     1      10.161 -14.339 -24.146  1.00  0.00     0.000 C 
BRANCH   3   4
ATOM      4  C   UNL     1      11.068 -14.493 -22.917  1.00  0.00     0.000 C 
BRANCH   4   5
ATOM      5  C   UNL     1      10.476 -15.438 -21.859  1.00  0.00     0.006 C 
BRANCH   5   6
ATOM      6  C   UNL     1       9.492 -14.732 -20.918  1.00  0.00     0.053 C 
BRANCH   6   7
ATOM      7  C   UNL     1      10.195 -13.675 -20.126  1.00  0.00     0.041 C 
ATOM      8  O   UNL     1      10.960 -13.997 -19.179  1.00  0.00    -0.550 OA
ATOM      9  O   UNL     1      10.044 -12.336 -20.465  1.00  0.00    -0.550 OA
ENDBRANCH   6   7
ENDBRANCH   5   6
ENDBRANCH   4   5
ENDBRANCH   3   4
ENDBRANCH   2   3
ENDBRANCH   1   2
BRANCH   1  10
ATOM     10  C   UNL     1       9.883 -10.817 -25.046  1.00  0.00     0.000 C 
BRANCH  10  11
ATOM     11  C   UNL     1       9.495  -9.424 -24.528  1.00  0.00    -0.000 C 
BRANCH  11  12
ATOM     12  C   UNL     1       8.635  -8.629 -25.526  1.00  0.00    -0.000 C 
BRANCH  12  13
ATOM     13  C   UNL     1       8.446  -9.296 -26.901  1.00  0.00    -0.000 C 
BRANCH  13  14
ATOM     14  C   UNL     1       8.750  -8.350 -28.073  1.00  0.00    -0.000 C 
BRANCH  14  15
ATOM     15  C   UNL     1       9.098  -6.945 -27.568  1.00  0.00    -0.003 C 
ATOM     16  C   UNL     1       8.130  -5.904 -28.122  1.00  0.00     0.004 C 
ENDBRANCH  14  15
ENDBRANCH  13  14
ENDBRANCH  12  13
ENDBRANCH  11  12
ENDBRANCH  10  11
ENDBRANCH   1  10
TORSDOF 12
ENDMDL
MODEL 2
REMARK VINA RESULT:    -4.559      2.296      4.266
REMARK INTER + INTRA:          -8.546
REMARK INTER:                  -7.140
REMARK INTRA:                  -1.406
REMARK UNBOUND:                -0.788
REMARK SMILES CCCCCCCCCCCCCC(=O)[O-]
REMARK SMILES IDX 8 1 9 2 10 3 11 4 12 5 13 6 14 7 15 8 16 9 7 10 6 11 5 12
REMARK SMILES IDX 4 13 3 14 2 15 1 16
REMARK H PARENT
REMARK Flexibility Score: inf
ROOT
ATOM      1  C   UNL     1      10.123 -17.363 -24.512  1.00  0.00     0.000 C 
ENDROOT
BRANCH   1   2
ATOM      2  C   UNL     1      11.411 -17.682 -23.737  1.00  0.00     0.000 C 
BRANCH   2   3
ATOM      3  C   UNL     1      11.335 -17.258 -22.261  1.00  0.00     0.000 C 
BRANCH   3   4
ATOM      4  C   UNL     1       9.880 -17.254 -21.767  1.00  0.00     0.000 C 
BRANCH   4   5
ATOM      5  C   UNL     1       9.472 -15.910 -21.143  1.00  0.00     0.006 C 
BRANCH   5   6
ATOM      6  C   UNL     1      10.653 -14.942 -20.997  1.00  0.00     0.053 C 
BRANCH   6   7
ATOM      7  C   UNL     1      10.869 -14.594 -19.558  1.00  0.00     0.041 C 
ATOM      8  O   UNL     1      11.142 -15.496 -18.722  1.00  0.00    -0.550 OA
ATOM      9  O   UNL     1      10.818 -13.268 -19.148  1.00  0.00    -0.550 OA
ENDBRANCH   6   7
ENDBRANCH   5   6
ENDBRANCH   4   5
ENDBRANCH   3   4
ENDBRANCH   2   3
ENDBRANCH   1   2
BRANCH   1  10
ATOM     10  C   UNL     1      10.262 -16.125 -25.409  1.00  0.00     0.000 C 
BRANCH  10  11
ATOM     11  C   UNL     1      10.295 -14.839 -24.570  1.00  0.00    -0.000 C 
BRANCH  11  12
ATOM     12  C   UNL     1       8.931 -14.128 -24.505  1.00  0.00    -0.000 C 
BRANCH  12  13
ATOM     13  C   UNL     1       8.884 -12.889 -23.592  1.00  0.00    -0.000 C 
BRANCH  13  14
ATOM     14  C   UNL     1      10.081 -11.949 -23.794  1.00  0.00    -0.000 C 
BRANCH  14  15
ATOM     15  C   UNL     1       9.836 -10.993 -24.967  1.00  0.00    -0.003 C 
ATOM     16  C   UNL     1       9.808  -9.541 -24.500  1.00  0.00     0.004 C 
ENDBRANCH  14  15
ENDBRANCH  13  14
ENDBRANCH  12  13
ENDBRANCH  11  12
ENDBRANCH  10  11
ENDBRANCH   1  10
TORSDOF 12
ENDMDL
MODEL 3
REMARK VINA RESULT:    -4.547      3.507      6.830
REMARK INTER + INTRA:          -8.524
REMARK INTER:                  -7.069
REMARK INTRA:                  -1.455
REMARK UNBOUND:                -0.788
REMARK SMILES CCCCCCCCCCCCCC(=O)[O-]
REMARK SMILES IDX 8 1 9 2 10 3 11 4 12 5 13 6 14 7 15 8 16 9 7 10 6 11 5 12
REMARK SMILES IDX 4 13 3 14 2 15 1 16
REMARK H PARENT
REMARK Flexibility Score: inf
ROOT
ATOM      1  C   UNL     1       8.381 -13.539 -25.157  1.00  0.00     0.000 C 
ENDROOT
BRANCH   1   2
ATOM      2  C   UNL     1       8.687 -12.587 -23.990  1.00  0.00     0.000 C 
BRANCH   2   3
ATOM      3  C   UNL     1      10.157 -12.138 -23.962  1.00  0.00     0.000 C 
BRANCH   3   4
ATOM      4  C   UNL     1      10.874 -12.685 -22.719  1.00  0.00     0.000 C 
BRANCH   4   5
ATOM      5  C   UNL     1       9.897 -13.239 -21.669  1.00  0.00     0.006 C 
BRANCH   5   6
ATOM      6  C   UNL     1      10.389 -14.546 -21.035  1.00  0.00     0.053 C 
BRANCH   6   7
ATOM      7  C   UNL     1      10.731 -14.331 -19.594  1.00  0.00     0.041 C 
ATOM      8  O   UNL     1      11.007 -15.312 -18.855  1.00  0.00    -0.550 OA
ATOM      9  O   UNL     1      10.794 -13.042 -19.080  1.00  0.00    -0.550 OA
ENDBRANCH   6   7
ENDBRANCH   5   6
ENDBRANCH   4   5
ENDBRANCH   3   4
ENDBRANCH   2   3
ENDBRANCH   1   2
BRANCH   1  10
ATOM     10  C   UNL     1       8.397 -15.016 -24.736  1.00  0.00     0.000 C 
BRANCH  10  11
ATOM     11  C   UNL     1       9.537 -15.775 -25.434  1.00  0.00    -0.000 C 
BRANCH  11  12
ATOM     12  C   UNL     1      10.752 -16.007 -24.519  1.00  0.00    -0.000 C 
BRANCH  12  13
ATOM     13  C   UNL     1      10.560 -17.087 -23.438  1.00  0.00    -0.000 C 
BRANCH  13  14
ATOM     14  C   UNL     1      11.731 -18.078 -23.365  1.00  0.00    -0.000 C 
BRANCH  14  15
ATOM     15  C   UNL     1      11.254 -19.511 -23.629  1.00  0.00    -0.003 C 
ATOM     16  C   UNL     1       9.783 -19.678 -23.266  1.00  0.00     0.004 C 
ENDBRANCH  14  15
ENDBRANCH  13  14
ENDBRANCH  12  13
ENDBRANCH  11  12
ENDBRANCH  10  11
ENDBRANCH   1  10
TORSDOF 12
ENDMDL
MODEL 4
REMARK VINA RESULT:    -4.441      4.528      6.688
REMARK INTER + INTRA:          -8.345
REMARK INTER:                  -6.439
REMARK INTRA:                  -1.906
REMARK UNBOUND:                -0.788
REMARK SMILES CCCCCCCCCCCCCC(=O)[O-]
REMARK SMILES IDX 8 1 9 2 10 3 11 4 12 5 13 6 14 7 15 8 16 9 7 10 6 11 5 12
REMARK SMILES IDX 4 13 3 14 2 15 1 16
REMARK H PARENT
REMARK Flexibility Score: inf
ROOT
ATOM      1  C   UNL     1       7.984 -16.649 -23.340  1.00  0.00     0.000 C 
ENDROOT
BRANCH   1   2
ATOM      2  C   UNL     1       8.184 -15.610 -24.455  1.00  0.00     0.000 C 
BRANCH   2   3
ATOM      3  C   UNL     1       8.839 -14.316 -23.948  1.00  0.00     0.000 C 
BRANCH   3   4
ATOM      4  C   UNL     1      10.371 -14.428 -23.982  1.00  0.00     0.000 C 
BRANCH   4   5
ATOM      5  C   UNL     1      11.005 -14.282 -22.589  1.00  0.00     0.006 C 
BRANCH   5   6
ATOM      6  C   UNL     1       9.986 -14.443 -21.455  1.00  0.00     0.053 C 
BRANCH   6   7
ATOM      7  C   UNL     1      10.260 -13.458 -20.362  1.00  0.00     0.041 C 
ATOM      8  O   UNL     1      10.007 -12.236 -20.532  1.00  0.00    -0.550 OA
ATOM      9  O   UNL     1      10.747 -13.897 -19.137  1.00  0.00    -0.550 OA
ENDBRANCH   6   7
ENDBRANCH   5   6
ENDBRANCH   4   5
ENDBRANCH   3   4
ENDBRANCH   2   3
ENDBRANCH   1   2
BRANCH   1  10
ATOM     10  C   UNL     1       8.799 -17.930 -23.572  1.00  0.00     0.000 C 
BRANCH  10  11
ATOM     11  C   UNL     1       9.995 -18.003 -22.611  1.00  0.00    -0.000 C 
BRANCH  11  12
ATOM     12  C   UNL     1      11.352 -17.956 -23.335  1.00  0.00    -0.000 C 
BRANCH  12  13
ATOM     13  C   UNL     1      11.314 -18.356 -24.821  1.00  0.00    -0.000 C 
BRANCH  13  14
ATOM     14  C   UNL     1      11.708 -17.208 -25.762  1.00  0.00    -0.000 C 
BRANCH  14  15
ATOM     15  C   UNL     1      10.619 -16.961 -26.812  1.00  0.00    -0.003 C 
ATOM     16  C   UNL     1      11.061 -17.443 -28.190  1.00  0.00     0.004 C 
ENDBRANCH  14  15
ENDBRANCH  13  14
ENDBRANCH  12  13
ENDBRANCH  11  12
ENDBRANCH  10  11
ENDBRANCH   1  10
TORSDOF 12
ENDMDL
MODEL 5
REMARK VINA RESULT:    -4.350      4.680      7.339
REMARK INTER + INTRA:          -8.190
REMARK INTER:                  -6.705
REMARK INTRA:                  -1.485
REMARK UNBOUND:                -0.788
REMARK SMILES CCCCCCCCCCCCCC(=O)[O-]
REMARK SMILES IDX 8 1 9 2 10 3 11 4 12 5 13 6 14 7 15 8 16 9 7 10 6 11 5 12
REMARK SMILES IDX 4 13 3 14 2 15 1 16
REMARK H PARENT
REMARK Flexibility Score: inf
ROOT
ATOM      1  C   UNL     1       8.923 -15.925 -25.693  1.00  0.00     0.000 C 
ENDROOT
BRANCH   1   2
ATOM      2  C   UNL     1       9.057 -14.992 -24.480  1.00  0.00     0.000 C 
BRANCH   2   3
ATOM      3  C   UNL     1      10.426 -15.109 -23.791  1.00  0.00     0.000 C 
BRANCH   3   4
ATOM      4  C   UNL     1      10.811 -13.787 -23.109  1.00  0.00     0.000 C 
BRANCH   4   5
ATOM      5  C   UNL     1      10.101 -13.590 -21.759  1.00  0.00     0.006 C 
BRANCH   5   6
ATOM      6  C   UNL     1      10.164 -14.838 -20.870  1.00  0.00     0.053 C 
BRANCH   6   7
ATOM      7  C   UNL     1      10.714 -14.493 -19.523  1.00  0.00     0.041 C 
ATOM      8  O   UNL     1      11.139 -15.401 -18.760  1.00  0.00    -0.550 OA
ATOM      9  O   UNL     1      10.806 -13.164 -19.129  1.00  0.00    -0.550 OA
ENDBRANCH   6   7
ENDBRANCH   5   6
ENDBRANCH   4   5
ENDBRANCH   3   4
ENDBRANCH   2   3
ENDBRANCH   1   2
BRANCH   1  10
ATOM     10  C   UNL     1      10.272 -16.504 -26.147  1.00  0.00     0.000 C 
BRANCH  10  11
ATOM     11  C   UNL     1      10.078 -17.836 -26.886  1.00  0.00    -0.000 C 
BRANCH  11  12
ATOM     12  C   UNL     1      10.660 -19.039 -26.121  1.00  0.00    -0.000 C 
BRANCH  12  13
ATOM     13  C   UNL     1      11.163 -18.726 -24.700  1.00  0.00    -0.000 C 
BRANCH  13  14
ATOM     14  C   UNL     1      10.426 -19.524 -23.613  1.00  0.00    -0.000 C 
BRANCH  14  15
ATOM     15  C   UNL     1       9.142 -18.805 -23.182  1.00  0.00    -0.003 C 
ATOM     16  C   UNL     1       9.292 -18.193 -21.793  1.00  0.00     0.004 C 
ENDBRANCH  14  15
ENDBRANCH  13  14
ENDBRANCH  12  13
ENDBRANCH  11  12
ENDBRANCH  10  11
ENDBRANCH   1  10
TORSDOF 12
ENDMDL
MODEL 6
REMARK VINA RESULT:    -4.326      4.572      7.101
REMARK INTER + INTRA:          -8.149
REMARK INTER:                  -6.601
REMARK INTRA:                  -1.548
REMARK UNBOUND:                -0.788
REMARK SMILES CCCCCCCCCCCCCC(=O)[O-]
REMARK SMILES IDX 8 1 9 2 10 3 11 4 12 5 13 6 14 7 15 8 16 9 7 10 6 11 5 12
REMARK SMILES IDX 4 13 3 14 2 15 1 16
REMARK H PARENT
REMARK Flexibility Score: inf
ROOT
ATOM      1  C   UNL     1      10.920 -16.534 -22.744  1.00  0.00     0.000 C 
ENDROOT
BRANCH   1   2
ATOM      2  C   UNL     1       9.877 -15.648 -23.444  1.00  0.00     0.000 C 
BRANCH   2   3
ATOM      3  C   UNL     1      10.497 -14.395 -24.082  1.00  0.00     0.000 C 
BRANCH   3   4
ATOM      4  C   UNL     1      10.903 -13.377 -23.006  1.00  0.00     0.000 C 
BRANCH   4   5
ATOM      5  C   UNL     1       9.763 -13.071 -22.022  1.00  0.00     0.006 C 
BRANCH   5   6
ATOM      6  C   UNL     1      10.252 -12.933 -20.574  1.00  0.00     0.053 C 
BRANCH   6   7
ATOM      7  C   UNL     1      10.148 -14.245 -19.861  1.00  0.00     0.041 C 
ATOM      8  O   UNL     1      11.021 -14.577 -19.016  1.00  0.00    -0.550 OA
ATOM      9  O   UNL     1       9.061 -15.078 -20.092  1.00  0.00    -0.550 OA
ENDBRANCH   6   7
ENDBRANCH   5   6
ENDBRANCH   4   5
ENDBRANCH   3   4
ENDBRANCH   2   3
ENDBRANCH   1   2
BRANCH   1  10
ATOM     10  C   UNL     1      10.288 -17.729 -22.015  1.00  0.00     0.000 C 
BRANCH  10  11
ATOM     11  C   UNL     1       9.877 -18.825 -23.010  1.00  0.00    -0.000 C 
BRANCH  11  12
ATOM     12  C   UNL     1      11.007 -19.210 -23.981  1.00  0.00    -0.000 C 
BRANCH  12  13
ATOM     13  C   UNL     1      10.540 -19.754 -25.344  1.00  0.00    -0.000 C 
BRANCH  13  14
ATOM     14  C   UNL     1      11.265 -19.102 -26.531  1.00  0.00    -0.000 C 
BRANCH  14  15
ATOM     15  C   UNL     1      11.377 -17.585 -26.338  1.00  0.00    -0.003 C 
ATOM     16  C   UNL     1      10.139 -16.868 -26.867  1.00  0.00     0.004 C 
ENDBRANCH  14  15
ENDBRANCH  13  14
ENDBRANCH  12  13
ENDBRANCH  11  12
ENDBRANCH  10  11
ENDBRANCH   1  10
TORSDOF 12
ENDMDL
MODEL 7
REMARK VINA RESULT:    -4.299      3.472      5.339
REMARK INTER + INTRA:          -8.103
REMARK INTER:                  -6.641
REMARK INTRA:                  -1.462
REMARK UNBOUND:                -0.788
REMARK SMILES CCCCCCCCCCCCCC(=O)[O-]
REMARK SMILES IDX 8 1 9 2 10 3 11 4 12 5 13 6 14 7 15 8 16 9 7 10 6 11 5 12
REMARK SMILES IDX 4 13 3 14 2 15 1 16
REMARK H PARENT
REMARK Flexibility Score: inf
ROOT
ATOM      1  C   UNL     1      11.210 -17.760 -25.014  1.00  0.00     0.000 C 
ENDROOT
BRANCH   1   2
ATOM      2  C   UNL     1      11.076 -18.721 -23.822  1.00  0.00     0.000 C 
BRANCH   2   3
ATOM      3  C   UNL     1      11.249 -18.014 -22.469  1.00  0.00     0.000 C 
BRANCH   3   4
ATOM      4  C   UNL     1      10.145 -16.968 -22.252  1.00  0.00     0.000 C 
BRANCH   4   5
ATOM      5  C   UNL     1      10.698 -15.611 -21.787  1.00  0.00     0.006 C 
BRANCH   5   6
ATOM      6  C   UNL     1       9.789 -14.921 -20.764  1.00  0.00     0.053 C 
BRANCH   6   7
ATOM      7  C   UNL     1      10.577 -14.503 -19.563  1.00  0.00     0.041 C 
ATOM      8  O   UNL     1      10.631 -13.289 -19.231  1.00  0.00    -0.550 OA
ATOM      9  O   UNL     1      11.212 -15.459 -18.780  1.00  0.00    -0.550 OA
ENDBRANCH   6   7
ENDBRANCH   5   6
ENDBRANCH   4   5
ENDBRANCH   3   4
ENDBRANCH   2   3
ENDBRANCH   1   2
BRANCH   1  10
ATOM     10  C   UNL     1      10.086 -17.937 -26.047  1.00  0.00     0.000 C 
BRANCH  10  11
ATOM     11  C   UNL     1       9.609 -16.577 -26.578  1.00  0.00    -0.000 C 
BRANCH  11  12
ATOM     12  C   UNL     1       9.679 -15.460 -25.520  1.00  0.00    -0.000 C 
BRANCH  12  13
ATOM     13  C   UNL     1       8.373 -14.670 -25.318  1.00  0.00    -0.000 C 
BRANCH  13  14
ATOM     14  C   UNL     1       8.347 -13.884 -23.998  1.00  0.00    -0.000 C 
BRANCH  14  15
ATOM     15  C   UNL     1       8.886 -12.463 -24.195  1.00  0.00    -0.003 C 
ATOM     16  C   UNL     1      10.198 -12.262 -23.443  1.00  0.00     0.004 C 
ENDBRANCH  14  15
ENDBRANCH  13  14
ENDBRANCH  12  13
ENDBRANCH  11  12
ENDBRANCH  10  11
ENDBRANCH   1  10
TORSDOF 12
ENDMDL
MODEL 8
REMARK VINA RESULT:    -4.239      4.275      7.203
REMARK INTER + INTRA:          -8.000
REMARK INTER:                  -5.992
REMARK INTRA:                  -2.008
REMARK UNBOUND:                -0.788
REMARK SMILES CCCCCCCCCCCCCC(=O)[O-]
REMARK SMILES IDX 8 1 9 2 10 3 11 4 12 5 13 6 14 7 15 8 16 9 7 10 6 11 5 12
REMARK SMILES IDX 4 13 3 14 2 15 1 16
REMARK H PARENT
REMARK Flexibility Score: inf
ROOT
ATOM      1  C   UNL     1      11.465 -18.814 -23.626  1.00  0.00     0.000 C 
ENDROOT
BRANCH   1   2
ATOM      2  C   UNL     1      11.443 -17.488 -22.849  1.00  0.00     0.000 C 
BRANCH   2   3
ATOM      3  C   UNL     1      10.168 -17.314 -22.009  1.00  0.00     0.000 C 
BRANCH   3   4
ATOM      4  C   UNL     1       9.691 -15.854 -22.032  1.00  0.00     0.000 C 
BRANCH   4   5
ATOM      5  C   UNL     1      10.837 -14.863 -22.295  1.00  0.00     0.006 C 
BRANCH   5   6
ATOM      6  C   UNL     1      10.434 -13.735 -23.253  1.00  0.00     0.053 C 
BRANCH   6   7
ATOM      7  C   UNL     1      10.133 -12.484 -22.490  1.00  0.00     0.041 C 
ATOM      8  O   UNL     1       9.958 -11.395 -23.099  1.00  0.00    -0.550 OA
ATOM      9  O   UNL     1       9.995 -12.529 -21.108  1.00  0.00    -0.550 OA
ENDBRANCH   6   7
ENDBRANCH   5   6
ENDBRANCH   4   5
ENDBRANCH   3   4
ENDBRANCH   2   3
ENDBRANCH   1   2
BRANCH   1  10
ATOM     10  C   UNL     1      10.289 -19.733 -23.261  1.00  0.00     0.000 C 
BRANCH  10  11
ATOM     11  C   UNL     1       9.564 -20.224 -24.524  1.00  0.00    -0.000 C 
BRANCH  11  12
ATOM     12  C   UNL     1       8.298 -19.410 -24.846  1.00  0.00    -0.000 C 
BRANCH  12  13
ATOM     13  C   UNL     1       8.480 -18.315 -25.913  1.00  0.00    -0.000 C 
BRANCH  13  14
ATOM     14  C   UNL     1       8.544 -16.901 -25.317  1.00  0.00    -0.000 C 
BRANCH  14  15
ATOM     15  C   UNL     1       9.685 -16.093 -25.945  1.00  0.00    -0.003 C 
ATOM     16  C   UNL     1      10.614 -16.989 -26.757  1.00  0.00     0.004 C 
ENDBRANCH  14  15
ENDBRANCH  13  14
ENDBRANCH  12  13
ENDBRANCH  11  12
ENDBRANCH  10  11
ENDBRANCH   1  10
TORSDOF 12
ENDMDL
MODEL 9
REMARK VINA RESULT:    -4.237      3.187      7.290
REMARK INTER + INTRA:          -7.998
REMARK INTER:                  -6.677
REMARK INTRA:                  -1.321
REMARK UNBOUND:                -0.788
REMARK SMILES CCCCCCCCCCCCCC(=O)[O-]
REMARK SMILES IDX 8 1 9 2 10 3 11 4 12 5 13 6 14 7 15 8 16 9 7 10 6 11 5 12
REMARK SMILES IDX 4 13 3 14 2 15 1 16
REMARK H PARENT
REMARK Flexibility Score: inf
ROOT
ATOM      1  C   UNL     1      11.328 -17.075 -25.099  1.00  0.00     0.000 C 
ENDROOT
BRANCH   1   2
ATOM      2  C   UNL     1      10.652 -15.714 -24.871  1.00  0.00     0.000 C 
BRANCH   2   3
ATOM      3  C   UNL     1       9.248 -15.638 -25.493  1.00  0.00     0.000 C 
BRANCH   3   4
ATOM      4  C   UNL     1       8.366 -14.636 -24.734  1.00  0.00     0.000 C 
BRANCH   4   5
ATOM      5  C   UNL     1       9.179 -13.499 -24.094  1.00  0.00     0.006 C 
BRANCH   5   6
ATOM      6  C   UNL     1       8.689 -12.109 -24.519  1.00  0.00     0.053 C 
BRANCH   6   7
ATOM      7  C   UNL     1       9.801 -11.113 -24.426  1.00  0.00     0.041 C 
ATOM      8  O   UNL     1      10.162 -10.469 -25.447  1.00  0.00    -0.550 OA
ATOM      9  O   UNL     1      10.405 -10.857 -23.201  1.00  0.00    -0.550 OA
ENDBRANCH   6   7
ENDBRANCH   5   6
ENDBRANCH   4   5
ENDBRANCH   3   4
ENDBRANCH   2   3
ENDBRANCH   1   2
BRANCH   1  10
ATOM     10  C   UNL     1      11.498 -17.877 -23.800  1.00  0.00     0.000 C 
BRANCH  10  11
ATOM     11  C   UNL     1      10.164 -18.499 -23.359  1.00  0.00    -0.000 C 
BRANCH  11  12
ATOM     12  C   UNL     1       9.543 -17.789 -22.143  1.00  0.00    -0.000 C 
BRANCH  12  13
ATOM     13  C   UNL     1      10.510 -16.899 -21.341  1.00  0.00    -0.000 C 
BRANCH  13  14
ATOM     14  C   UNL     1      10.003 -15.459 -21.174  1.00  0.00    -0.000 C 
BRANCH  14  15
ATOM     15  C   UNL     1      10.629 -14.797 -19.942  1.00  0.00    -0.003 C 
ATOM     16  C   UNL     1      10.284 -13.313 -19.877  1.00  0.00     0.004 C 
ENDBRANCH  14  15
ENDBRANCH  13  14
ENDBRANCH  12  13
ENDBRANCH  11  12
ENDBRANCH  10  11
ENDBRANCH   1  10
TORSDOF 12
ENDMDL
