MODEL 1
REMARK VINA RESULT:    -3.785      0.000      0.000
REMARK INTER + INTRA:         -13.735
REMARK INTER:                  -9.980
REMARK INTRA:                  -3.754
REMARK UNBOUND:                -3.754
REMARK SMILES CCCCCCCCCCCCCCCCCCCCCCCCCCCCCC(=O)[O-]
REMARK SMILES IDX 16 1 17 2 18 3 19 4 20 5 21 6 22 7 23 8 24 9 25 10 26 11
REMARK SMILES IDX 27 12 28 13 29 14 30 15 31 16 32 17 15 18 14 19 13 20 12 21
REMARK SMILES IDX 11 22 10 23 9 24 8 25 7 26 6 27 5 28 4 29 3 30 2 31 1 32
REMARK H PARENT
REMARK Flexibility Score: inf
ROOT
ATOM      1  C   UNL     1     -97.188 -40.797  87.363  1.00  0.00     0.000 C 
ENDROOT
BRANCH   1   2
ATOM      2  C   UNL     1     -96.090 -41.879  87.358  1.00  0.00     0.000 C 
BRANCH   2   3
ATOM      3  C   UNL     1     -96.508 -43.240  87.951  1.00  0.00     0.000 C 
BRANCH   3   4
ATOM      4  C   UNL     1     -97.660 -43.943  87.210  1.00  0.00     0.000 C 
BRANCH   4   5
ATOM      5  C   UNL     1     -98.976 -43.935  88.008  1.00  0.00     0.000 C 
BRANCH   5   6
ATOM      6  C   UNL     1    -100.086 -43.125  87.317  1.00  0.00     0.000 C 
BRANCH   6   7
ATOM      7  C   UNL     1     -99.857 -42.862  85.815  1.00  0.00     0.000 C 
BRANCH   7   8
ATOM      8  C   UNL     1    -101.021 -43.273  84.893  1.00  0.00     0.000 C 
BRANCH   8   9
ATOM      9  C   UNL     1    -102.297 -42.427  85.046  1.00  0.00     0.000 C 
BRANCH   9  10
ATOM     10  C   UNL     1    -102.428 -41.345  83.960  1.00  0.00     0.000 C 
BRANCH  10  11
ATOM     11  C   UNL     1    -101.491 -41.587  82.768  1.00  0.00     0.000 C 
BRANCH  11  12
ATOM     12  C   UNL     1    -100.576 -40.385  82.478  1.00  0.00     0.000 C 
BRANCH  12  13
ATOM     13  C   UNL     1    -100.309 -40.190  80.977  1.00  0.00     0.006 C 
BRANCH  13  14
ATOM     14  C   UNL     1    -100.173 -41.519  80.223  1.00  0.00     0.053 C 
BRANCH  14  15
ATOM     15  C   UNL     1     -98.782 -41.684  79.694  1.00  0.00     0.041 C 
ATOM     16  O   UNL     1     -98.582 -42.318  78.624  1.00  0.00    -0.550 OA
ATOM     17  O   UNL     1     -97.709 -41.111  80.366  1.00  0.00    -0.550 OA
ENDBRANCH  14  15
ENDBRANCH  13  14
ENDBRANCH  12  13
ENDBRANCH  11  12
ENDBRANCH  10  11
ENDBRANCH   9  10
ENDBRANCH   8   9
ENDBRANCH   7   8
ENDBRANCH   6   7
ENDBRANCH   5   6
ENDBRANCH   4   5
ENDBRANCH   3   4
ENDBRANCH   2   3
ENDBRANCH   1   2
BRANCH   1  18
ATOM     18  C   UNL     1     -97.215 -39.904  88.618  1.00  0.00     0.000 C 
BRANCH  18  19
ATOM     19  C   UNL     1     -98.301 -40.267  89.651  1.00  0.00     0.000 C 
BRANCH  19  20
ATOM     20  C   UNL     1     -97.875 -41.308  90.706  1.00  0.00     0.000 C 
BRANCH  20  21
ATOM     21  C   UNL     1     -96.391 -41.262  91.110  1.00  0.00     0.000 C 
BRANCH  21  22
ATOM     22  C   UNL     1     -96.160 -41.666  92.576  1.00  0.00     0.000 C 
BRANCH  22  23
ATOM     23  C   UNL     1     -97.028 -40.860  93.554  1.00  0.00     0.000 C 
BRANCH  23  24
ATOM     24  C   UNL     1     -98.051 -41.734  94.303  1.00  0.00    -0.000 C 
BRANCH  24  25
ATOM     25  C   UNL     1     -99.416 -41.029  94.458  1.00  0.00    -0.000 C 
BRANCH  25  26
ATOM     26  C   UNL     1     -99.459 -39.621  93.839  1.00  0.00    -0.000 C 
BRANCH  26  27
ATOM     27  C   UNL     1    -100.391 -39.531  92.620  1.00  0.00    -0.000 C 
BRANCH  27  28
ATOM     28  C   UNL     1    -100.266 -38.187  91.885  1.00  0.00    -0.000 C 
BRANCH  28  29
ATOM     29  C   UNL     1    -101.614 -37.452  91.779  1.00  0.00    -0.000 C 
BRANCH  29  30
ATOM     30  C   UNL     1    -101.912 -36.566  93.001  1.00  0.00    -0.000 C 
BRANCH  30  31
ATOM     31  C   UNL     1    -100.685 -35.859  93.604  1.00  0.00    -0.003 C 
ATOM     32  C   UNL     1    -100.458 -36.199  95.076  1.00  0.00     0.004 C 
ENDBRANCH  30  31
ENDBRANCH  29  30
ENDBRANCH  28  29
ENDBRANCH  27  28
ENDBRANCH  26  27
ENDBRANCH  25  26
ENDBRANCH  24  25
ENDBRANCH  23  24
ENDBRANCH  22  23
ENDBRANCH  21  22
ENDBRANCH  20  21
ENDBRANCH  19  20
ENDBRANCH  18  19
ENDBRANCH   1  18
TORSDOF 28
ENDMDL
MODEL 2
REMARK VINA RESULT:    -3.567      4.604      8.633
REMARK INTER + INTRA:         -13.161
REMARK INTER:                  -8.393
REMARK INTRA:                  -4.768
REMARK UNBOUND:                -3.754
REMARK SMILES CCCCCCCCCCCCCCCCCCCCCCCCCCCCCC(=O)[O-]
REMARK SMILES IDX 16 1 17 2 18 3 19 4 20 5 21 6 22 7 23 8 24 9 25 10 26 11
REMARK SMILES IDX 27 12 28 13 29 14 30 15 31 16 32 17 15 18 14 19 13 20 12 21
REMARK SMILES IDX 11 22 10 23 9 24 8 25 7 26 6 27 5 28 4 29 3 30 2 31 1 32
REMARK H PARENT
REMARK Flexibility Score: inf
ROOT
ATOM      1  C   UNL     1    -100.862 -35.832  94.649  1.00  0.00     0.000 C 
ENDROOT
BRANCH   1   2
ATOM      2  C   UNL     1    -100.297 -36.064  93.234  1.00  0.00     0.000 C 
BRANCH   2   3
ATOM      3  C   UNL     1    -101.244 -36.799  92.263  1.00  0.00     0.000 C 
BRANCH   3   4
ATOM      4  C   UNL     1    -100.654 -38.062  91.614  1.00  0.00     0.000 C 
BRANCH   4   5
ATOM      5  C   UNL     1     -99.891 -38.947  92.617  1.00  0.00     0.000 C 
BRANCH   5   6
ATOM      6  C   UNL     1    -100.817 -39.897  93.396  1.00  0.00     0.000 C 
BRANCH   6   7
ATOM      7  C   UNL     1    -100.095 -40.840  94.381  1.00  0.00     0.000 C 
BRANCH   7   8
ATOM      8  C   UNL     1     -98.697 -40.373  94.830  1.00  0.00     0.000 C 
BRANCH   8   9
ATOM      9  C   UNL     1     -97.562 -41.378  94.562  1.00  0.00     0.000 C 
BRANCH   9  10
ATOM     10  C   UNL     1     -96.665 -40.962  93.383  1.00  0.00     0.000 C 
BRANCH  10  11
ATOM     11  C   UNL     1     -96.735 -41.951  92.210  1.00  0.00     0.000 C 
BRANCH  11  12
ATOM     12  C   UNL     1     -98.083 -41.901  91.471  1.00  0.00     0.000 C 
BRANCH  12  13
ATOM     13  C   UNL     1     -97.928 -41.601  89.972  1.00  0.00     0.006 C 
BRANCH  13  14
ATOM     14  C   UNL     1     -98.021 -40.103  89.655  1.00  0.00     0.053 C 
BRANCH  14  15
ATOM     15  C   UNL     1     -97.262 -39.781  88.406  1.00  0.00     0.041 C 
ATOM     16  O   UNL     1     -96.877 -38.602  88.184  1.00  0.00    -0.550 OA
ATOM     17  O   UNL     1     -96.954 -40.788  87.500  1.00  0.00    -0.550 OA
ENDBRANCH  14  15
ENDBRANCH  13  14
ENDBRANCH  12  13
ENDBRANCH  11  12
ENDBRANCH  10  11
ENDBRANCH   9  10
ENDBRANCH   8   9
ENDBRANCH   7   8
ENDBRANCH   6   7
ENDBRANCH   5   6
ENDBRANCH   4   5
ENDBRANCH   3   4
ENDBRANCH   2   3
ENDBRANCH   1   2
BRANCH   1  18
ATOM     18  C   UNL     1    -100.448 -36.885  95.695  1.00  0.00     0.000 C 
BRANCH  18  19
ATOM     19  C   UNL     1    -101.614 -37.687  96.307  1.00  0.00     0.000 C 
BRANCH  19  20
ATOM     20  C   UNL     1    -103.020 -37.232  95.868  1.00  0.00     0.000 C 
BRANCH  20  21
ATOM     21  C   UNL     1    -103.692 -38.117  94.802  1.00  0.00     0.000 C 
BRANCH  21  22
ATOM     22  C   UNL     1    -104.883 -37.425  94.118  1.00  0.00     0.000 C 
BRANCH  22  23
ATOM     23  C   UNL     1    -104.727 -37.358  92.591  1.00  0.00     0.000 C 
BRANCH  23  24
ATOM     24  C   UNL     1    -104.904 -35.932  92.036  1.00  0.00    -0.000 C 
BRANCH  24  25
ATOM     25  C   UNL     1    -104.366 -34.859  93.008  1.00  0.00    -0.000 C 
BRANCH  25  26
ATOM     26  C   UNL     1    -103.268 -33.969  92.401  1.00  0.00    -0.000 C 
BRANCH  26  27
ATOM     27  C   UNL     1    -103.231 -32.561  93.015  1.00  0.00    -0.000 C 
BRANCH  27  28
ATOM     28  C   UNL     1    -101.913 -32.278  93.754  1.00  0.00    -0.000 C 
BRANCH  28  29
ATOM     29  C   UNL     1    -102.104 -32.194  95.278  1.00  0.00    -0.000 C 
BRANCH  29  30
ATOM     30  C   UNL     1    -102.069 -30.750  95.809  1.00  0.00    -0.000 C 
BRANCH  30  31
ATOM     31  C   UNL     1    -100.660 -30.177  96.039  1.00  0.00    -0.003 C 
ATOM     32  C   UNL     1    -100.258 -29.134  94.997  1.00  0.00     0.004 C 
ENDBRANCH  30  31
ENDBRANCH  29  30
ENDBRANCH  28  29
ENDBRANCH  27  28
ENDBRANCH  26  27
ENDBRANCH  25  26
ENDBRANCH  24  25
ENDBRANCH  23  24
ENDBRANCH  22  23
ENDBRANCH  21  22
ENDBRANCH  20  21
ENDBRANCH  19  20
ENDBRANCH  18  19
ENDBRANCH   1  18
TORSDOF 28
ENDMDL
MODEL 3
REMARK VINA RESULT:    -3.560      4.860      7.755
REMARK INTER + INTRA:         -13.141
REMARK INTER:                  -7.732
REMARK INTRA:                  -5.409
REMARK UNBOUND:                -3.754
REMARK SMILES CCCCCCCCCCCCCCCCCCCCCCCCCCCCCC(=O)[O-]
REMARK SMILES IDX 16 1 17 2 18 3 19 4 20 5 21 6 22 7 23 8 24 9 25 10 26 11
REMARK SMILES IDX 27 12 28 13 29 14 30 15 31 16 32 17 15 18 14 19 13 20 12 21
REMARK SMILES IDX 11 22 10 23 9 24 8 25 7 26 6 27 5 28 4 29 3 30 2 31 1 32
REMARK H PARENT
REMARK Flexibility Score: inf
ROOT
ATOM      1  C   UNL     1    -100.563 -42.023  92.407  1.00  0.00     0.000 C 
ENDROOT
BRANCH   1   2
ATOM      2  C   UNL     1    -100.040 -43.177  91.529  1.00  0.00     0.000 C 
BRANCH   2   3
ATOM      3  C   UNL     1    -100.326 -43.033  90.020  1.00  0.00     0.000 C 
BRANCH   3   4
ATOM      4  C   UNL     1     -99.351 -43.791  89.101  1.00  0.00     0.000 C 
BRANCH   4   5
ATOM      5  C   UNL     1     -99.133 -43.084  87.751  1.00  0.00     0.000 C 
BRANCH   5   6
ATOM      6  C   UNL     1     -97.717 -43.301  87.189  1.00  0.00     0.000 C 
BRANCH   6   7
ATOM      7  C   UNL     1     -96.751 -42.115  87.391  1.00  0.00     0.000 C 
BRANCH   7   8
ATOM      8  C   UNL     1     -97.426 -40.737  87.526  1.00  0.00     0.000 C 
BRANCH   8   9
ATOM      9  C   UNL     1     -97.074 -39.966  88.810  1.00  0.00     0.000 C 
BRANCH   9  10
ATOM     10  C   UNL     1     -97.620 -40.642  90.079  1.00  0.00     0.000 C 
BRANCH  10  11
ATOM     11  C   UNL     1     -96.506 -41.176  90.990  1.00  0.00     0.000 C 
BRANCH  11  12
ATOM     12  C   UNL     1     -96.254 -42.683  90.799  1.00  0.00     0.000 C 
BRANCH  12  13
ATOM     13  C   UNL     1     -96.347 -43.471  92.115  1.00  0.00     0.006 C 
BRANCH  13  14
ATOM     14  C   UNL     1     -96.098 -42.595  93.350  1.00  0.00     0.053 C 
BRANCH  14  15
ATOM     15  C   UNL     1     -94.838 -43.011  94.044  1.00  0.00     0.041 C 
ATOM     16  O   UNL     1     -94.664 -42.734  95.261  1.00  0.00    -0.550 OA
ATOM     17  O   UNL     1     -93.869 -43.731  93.356  1.00  0.00    -0.550 OA
ENDBRANCH  14  15
ENDBRANCH  13  14
ENDBRANCH  12  13
ENDBRANCH  11  12
ENDBRANCH  10  11
ENDBRANCH   9  10
ENDBRANCH   8   9
ENDBRANCH   7   8
ENDBRANCH   6   7
ENDBRANCH   5   6
ENDBRANCH   4   5
ENDBRANCH   3   4
ENDBRANCH   2   3
ENDBRANCH   1   2
BRANCH   1  18
ATOM     18  C   UNL     1     -99.492 -41.317  93.260  1.00  0.00     0.000 C 
BRANCH  18  19
ATOM     19  C   UNL     1     -99.641 -39.786  93.357  1.00  0.00     0.000 C 
BRANCH  19  20
ATOM     20  C   UNL     1    -100.204 -39.104  92.093  1.00  0.00     0.000 C 
BRANCH  20  21
ATOM     21  C   UNL     1    -100.329 -37.572  92.176  1.00  0.00     0.000 C 
BRANCH  21  22
ATOM     22  C   UNL     1    -100.533 -37.068  93.615  1.00  0.00     0.000 C 
BRANCH  22  23
ATOM     23  C   UNL     1    -100.567 -35.534  93.703  1.00  0.00     0.000 C 
BRANCH  23  24
ATOM     24  C   UNL     1    -101.837 -35.005  94.394  1.00  0.00    -0.000 C 
BRANCH  24  25
ATOM     25  C   UNL     1    -102.533 -33.902  93.567  1.00  0.00    -0.000 C 
BRANCH  25  26
ATOM     26  C   UNL     1    -103.147 -34.410  92.251  1.00  0.00    -0.000 C 
BRANCH  26  27
ATOM     27  C   UNL     1    -104.062 -35.629  92.449  1.00  0.00    -0.000 C 
BRANCH  27  28
ATOM     28  C   UNL     1    -103.747 -36.766  91.463  1.00  0.00    -0.000 C 
BRANCH  28  29
ATOM     29  C   UNL     1    -104.050 -38.153  92.055  1.00  0.00    -0.000 C 
BRANCH  29  30
ATOM     30  C   UNL     1    -104.136 -38.143  93.591  1.00  0.00    -0.000 C 
BRANCH  30  31
ATOM     31  C   UNL     1    -103.243 -39.178  94.298  1.00  0.00    -0.003 C 
ATOM     32  C   UNL     1    -103.672 -40.621  94.034  1.00  0.00     0.004 C 
ENDBRANCH  30  31
ENDBRANCH  29  30
ENDBRANCH  28  29
ENDBRANCH  27  28
ENDBRANCH  26  27
ENDBRANCH  25  26
ENDBRANCH  24  25
ENDBRANCH  23  24
ENDBRANCH  22  23
ENDBRANCH  21  22
ENDBRANCH  20  21
ENDBRANCH  19  20
ENDBRANCH  18  19
ENDBRANCH   1  18
TORSDOF 28
ENDMDL
MODEL 4
REMARK VINA RESULT:    -3.528     12.159     15.978
REMARK INTER + INTRA:         -13.058
REMARK INTER:                  -6.913
REMARK INTRA:                  -6.145
REMARK UNBOUND:                -3.754
REMARK SMILES CCCCCCCCCCCCCCCCCCCCCCCCCCCCCC(=O)[O-]
REMARK SMILES IDX 16 1 17 2 18 3 19 4 20 5 21 6 22 7 23 8 24 9 25 10 26 11
REMARK SMILES IDX 27 12 28 13 29 14 30 15 31 16 32 17 15 18 14 19 13 20 12 21
REMARK SMILES IDX 11 22 10 23 9 24 8 25 7 26 6 27 5 28 4 29 3 30 2 31 1 32
REMARK H PARENT
REMARK Flexibility Score: inf
ROOT
ATOM      1  C   UNL     1     -96.941 -26.797  84.055  1.00  0.00     0.000 C 
ENDROOT
BRANCH   1   2
ATOM      2  C   UNL     1     -98.311 -26.571  84.724  1.00  0.00     0.000 C 
BRANCH   2   3
ATOM      3  C   UNL     1     -99.020 -25.256  84.338  1.00  0.00     0.000 C 
BRANCH   3   4
ATOM      4  C   UNL     1     -98.745 -24.769  82.905  1.00  0.00     0.000 C 
BRANCH   4   5
ATOM      5  C   UNL     1     -99.913 -25.055  81.944  1.00  0.00     0.000 C 
BRANCH   5   6
ATOM      6  C   UNL     1     -99.550 -26.075  80.851  1.00  0.00     0.000 C 
BRANCH   6   7
ATOM      7  C   UNL     1    -100.425 -27.345  80.835  1.00  0.00     0.000 C 
BRANCH   7   8
ATOM      8  C   UNL     1    -100.935 -27.807  82.214  1.00  0.00     0.000 C 
BRANCH   8   9
ATOM      9  C   UNL     1    -100.179 -29.006  82.814  1.00  0.00     0.000 C 
BRANCH   9  10
ATOM     10  C   UNL     1    -100.873 -29.583  84.060  1.00  0.00     0.000 C 
BRANCH  10  11
ATOM     11  C   UNL     1    -101.860 -28.596  84.698  1.00  0.00     0.000 C 
BRANCH  11  12
ATOM     12  C   UNL     1    -103.059 -29.298  85.360  1.00  0.00     0.000 C 
BRANCH  12  13
ATOM     13  C   UNL     1    -102.926 -30.830  85.355  1.00  0.00     0.006 C 
BRANCH  13  14
ATOM     14  C   UNL     1    -102.856 -31.423  86.768  1.00  0.00     0.053 C 
BRANCH  14  15
ATOM     15  C   UNL     1    -104.090 -32.215  87.068  1.00  0.00     0.041 C 
ATOM     16  O   UNL     1    -104.191 -33.406  86.669  1.00  0.00    -0.550 OA
ATOM     17  O   UNL     1    -105.116 -31.649  87.815  1.00  0.00    -0.550 OA
ENDBRANCH  14  15
ENDBRANCH  13  14
ENDBRANCH  12  13
ENDBRANCH  11  12
ENDBRANCH  10  11
ENDBRANCH   9  10
ENDBRANCH   8   9
ENDBRANCH   7   8
ENDBRANCH   6   7
ENDBRANCH   5   6
ENDBRANCH   4   5
ENDBRANCH   3   4
ENDBRANCH   2   3
ENDBRANCH   1   2
BRANCH   1  18
ATOM     18  C   UNL     1     -96.842 -28.067  83.188  1.00  0.00     0.000 C 
BRANCH  18  19
ATOM     19  C   UNL     1     -96.410 -27.826  81.728  1.00  0.00     0.000 C 
BRANCH  19  20
ATOM     20  C   UNL     1     -95.812 -26.433  81.446  1.00  0.00     0.000 C 
BRANCH  20  21
ATOM     21  C   UNL     1     -96.037 -25.901  80.019  1.00  0.00     0.000 C 
BRANCH  21  22
ATOM     22  C   UNL     1     -95.292 -26.721  78.952  1.00  0.00     0.000 C 
BRANCH  22  23
ATOM     23  C   UNL     1     -96.156 -26.998  77.712  1.00  0.00     0.000 C 
BRANCH  23  24
ATOM     24  C   UNL     1     -97.530 -27.596  78.065  1.00  0.00    -0.000 C 
BRANCH  24  25
ATOM     25  C   UNL     1     -97.430 -29.081  78.477  1.00  0.00    -0.000 C 
BRANCH  25  26
ATOM     26  C   UNL     1     -98.759 -29.848  78.355  1.00  0.00    -0.000 C 
BRANCH  26  27
ATOM     27  C   UNL     1     -99.095 -30.666  79.612  1.00  0.00    -0.000 C 
BRANCH  27  28
ATOM     28  C   UNL     1    -100.582 -31.051  79.682  1.00  0.00    -0.000 C 
BRANCH  28  29
ATOM     29  C   UNL     1    -100.890 -31.976  80.872  1.00  0.00    -0.000 C 
BRANCH  29  30
ATOM     30  C   UNL     1    -102.321 -31.803  81.410  1.00  0.00    -0.000 C 
BRANCH  30  31
ATOM     31  C   UNL     1    -103.066 -30.562  80.887  1.00  0.00    -0.003 C 
ATOM     32  C   UNL     1    -104.095 -30.017  81.876  1.00  0.00     0.004 C 
ENDBRANCH  30  31
ENDBRANCH  29  30
ENDBRANCH  28  29
ENDBRANCH  27  28
ENDBRANCH  26  27
ENDBRANCH  25  26
ENDBRANCH  24  25
ENDBRANCH  23  24
ENDBRANCH  22  23
ENDBRANCH  21  22
ENDBRANCH  20  21
ENDBRANCH  19  20
ENDBRANCH  18  19
ENDBRANCH   1  18
TORSDOF 28
ENDMDL
MODEL 5
REMARK VINA RESULT:    -3.504     12.572     15.469
REMARK INTER + INTRA:         -12.993
REMARK INTER:                  -6.874
REMARK INTRA:                  -6.119
REMARK UNBOUND:                -3.754
REMARK SMILES CCCCCCCCCCCCCCCCCCCCCCCCCCCCCC(=O)[O-]
REMARK SMILES IDX 16 1 17 2 18 3 19 4 20 5 21 6 22 7 23 8 24 9 25 10 26 11
REMARK SMILES IDX 27 12 28 13 29 14 30 15 31 16 32 17 15 18 14 19 13 20 12 21
REMARK SMILES IDX 11 22 10 23 9 24 8 25 7 26 6 27 5 28 4 29 3 30 2 31 1 32
REMARK H PARENT
REMARK Flexibility Score: inf
ROOT
ATOM      1  C   UNL     1     -96.126 -27.663  82.081  1.00  0.00     0.000 C 
ENDROOT
BRANCH   1   2
ATOM      2  C   UNL     1     -95.874 -26.142  82.097  1.00  0.00     0.000 C 
BRANCH   2   3
ATOM      3  C   UNL     1     -94.605 -25.681  81.350  1.00  0.00     0.000 C 
BRANCH   3   4
ATOM      4  C   UNL     1     -94.745 -25.611  79.819  1.00  0.00     0.000 C 
BRANCH   4   5
ATOM      5  C   UNL     1     -96.086 -25.003  79.370  1.00  0.00     0.000 C 
BRANCH   5   6
ATOM      6  C   UNL     1     -96.858 -25.915  78.400  1.00  0.00     0.000 C 
BRANCH   6   7
ATOM      7  C   UNL     1     -96.523 -27.416  78.519  1.00  0.00     0.000 C 
BRANCH   7   8
ATOM      8  C   UNL     1     -97.721 -28.370  78.342  1.00  0.00     0.000 C 
BRANCH   8   9
ATOM      9  C   UNL     1     -97.672 -29.638  79.212  1.00  0.00     0.000 C 
BRANCH   9  10
ATOM     10  C   UNL     1     -98.484 -30.801  78.615  1.00  0.00     0.000 C 
BRANCH  10  11
ATOM     11  C   UNL     1     -99.936 -30.410  78.307  1.00  0.00     0.000 C 
BRANCH  11  12
ATOM     12  C   UNL     1    -100.889 -31.619  78.310  1.00  0.00     0.000 C 
BRANCH  12  13
ATOM     13  C   UNL     1    -101.858 -31.607  79.503  1.00  0.00     0.006 C 
BRANCH  13  14
ATOM     14  C   UNL     1    -101.691 -32.831  80.413  1.00  0.00     0.053 C 
BRANCH  14  15
ATOM     15  C   UNL     1    -102.900 -33.015  81.275  1.00  0.00     0.041 C 
ATOM     16  O   UNL     1    -103.303 -34.173  81.564  1.00  0.00    -0.550 OA
ATOM     17  O   UNL     1    -103.566 -31.907  81.786  1.00  0.00    -0.550 OA
ENDBRANCH  14  15
ENDBRANCH  13  14
ENDBRANCH  12  13
ENDBRANCH  11  12
ENDBRANCH  10  11
ENDBRANCH   9  10
ENDBRANCH   8   9
ENDBRANCH   7   8
ENDBRANCH   6   7
ENDBRANCH   5   6
ENDBRANCH   4   5
ENDBRANCH   3   4
ENDBRANCH   2   3
ENDBRANCH   1   2
BRANCH   1  18
ATOM     18  C   UNL     1     -96.530 -28.270  83.439  1.00  0.00     0.000 C 
BRANCH  18  19
ATOM     19  C   UNL     1     -96.879 -27.241  84.533  1.00  0.00     0.000 C 
BRANCH  19  20
ATOM     20  C   UNL     1     -98.386 -26.979  84.725  1.00  0.00     0.000 C 
BRANCH  20  21
ATOM     21  C   UNL     1     -98.776 -25.500  84.899  1.00  0.00     0.000 C 
BRANCH  21  22
ATOM     22  C   UNL     1     -99.680 -24.984  83.767  1.00  0.00     0.000 C 
BRANCH  22  23
ATOM     23  C   UNL     1     -98.887 -24.287  82.650  1.00  0.00     0.000 C 
BRANCH  23  24
ATOM     24  C   UNL     1     -99.313 -24.744  81.243  1.00  0.00    -0.000 C 
BRANCH  24  25
ATOM     25  C   UNL     1     -99.311 -26.282  81.104  1.00  0.00    -0.000 C 
BRANCH  25  26
ATOM     26  C   UNL     1    -100.489 -26.830  80.279  1.00  0.00    -0.000 C 
BRANCH  26  27
ATOM     27  C   UNL     1    -100.975 -28.203  80.770  1.00  0.00    -0.000 C 
BRANCH  27  28
ATOM     28  C   UNL     1    -100.103 -28.762  81.907  1.00  0.00    -0.000 C 
BRANCH  28  29
ATOM     29  C   UNL     1    -100.823 -29.860  82.708  1.00  0.00    -0.000 C 
BRANCH  29  30
ATOM     30  C   UNL     1    -101.044 -29.479  84.183  1.00  0.00    -0.000 C 
BRANCH  30  31
ATOM     31  C   UNL     1    -101.796 -28.155  84.405  1.00  0.00    -0.003 C 
ATOM     32  C   UNL     1    -103.231 -28.183  83.880  1.00  0.00     0.004 C 
ENDBRANCH  30  31
ENDBRANCH  29  30
ENDBRANCH  28  29
ENDBRANCH  27  28
ENDBRANCH  26  27
ENDBRANCH  25  26
ENDBRANCH  24  25
ENDBRANCH  23  24
ENDBRANCH  22  23
ENDBRANCH  21  22
ENDBRANCH  20  21
ENDBRANCH  19  20
ENDBRANCH  18  19
ENDBRANCH   1  18
TORSDOF 28
ENDMDL
MODEL 6
REMARK VINA RESULT:    -3.483      5.485      8.734
REMARK INTER + INTRA:         -12.939
REMARK INTER:                  -8.484
REMARK INTRA:                  -4.456
REMARK UNBOUND:                -3.754
REMARK SMILES CCCCCCCCCCCCCCCCCCCCCCCCCCCCCC(=O)[O-]
REMARK SMILES IDX 16 1 17 2 18 3 19 4 20 5 21 6 22 7 23 8 24 9 25 10 26 11
REMARK SMILES IDX 27 12 28 13 29 14 30 15 31 16 32 17 15 18 14 19 13 20 12 21
REMARK SMILES IDX 11 22 10 23 9 24 8 25 7 26 6 27 5 28 4 29 3 30 2 31 1 32
REMARK H PARENT
REMARK Flexibility Score: inf
ROOT
ATOM      1  C   UNL     1     -99.574 -39.654  92.207  1.00  0.00     0.000 C 
ENDROOT
BRANCH   1   2
ATOM      2  C   UNL     1     -98.569 -40.517  91.419  1.00  0.00     0.000 C 
BRANCH   2   3
ATOM      3  C   UNL     1     -98.635 -40.364  89.886  1.00  0.00     0.000 C 
BRANCH   3   4
ATOM      4  C   UNL     1     -97.292 -40.037  89.210  1.00  0.00     0.000 C 
BRANCH   4   5
ATOM      5  C   UNL     1     -97.239 -40.490  87.739  1.00  0.00     0.000 C 
BRANCH   5   6
ATOM      6  C   UNL     1     -96.482 -41.816  87.551  1.00  0.00     0.000 C 
BRANCH   6   7
ATOM      7  C   UNL     1     -97.374 -43.075  87.542  1.00  0.00     0.000 C 
BRANCH   7   8
ATOM      8  C   UNL     1     -97.116 -44.069  88.691  1.00  0.00     0.000 C 
BRANCH   8   9
ATOM      9  C   UNL     1     -96.099 -43.593  89.743  1.00  0.00     0.000 C 
BRANCH   9  10
ATOM     10  C   UNL     1     -96.721 -43.427  91.140  1.00  0.00     0.000 C 
BRANCH  10  11
ATOM     11  C   UNL     1     -95.704 -42.949  92.186  1.00  0.00     0.000 C 
BRANCH  11  12
ATOM     12  C   UNL     1     -96.372 -42.474  93.489  1.00  0.00     0.000 C 
BRANCH  12  13
ATOM     13  C   UNL     1     -95.971 -41.041  93.873  1.00  0.00     0.006 C 
BRANCH  13  14
ATOM     14  C   UNL     1     -95.541 -40.918  95.340  1.00  0.00     0.053 C 
BRANCH  14  15
ATOM     15  C   UNL     1     -94.055 -41.038  95.465  1.00  0.00     0.041 C 
ATOM     16  O   UNL     1     -93.500 -42.165  95.380  1.00  0.00    -0.550 OA
ATOM     17  O   UNL     1     -93.277 -39.899  95.644  1.00  0.00    -0.550 OA
ENDBRANCH  14  15
ENDBRANCH  13  14
ENDBRANCH  12  13
ENDBRANCH  11  12
ENDBRANCH  10  11
ENDBRANCH   9  10
ENDBRANCH   8   9
ENDBRANCH   7   8
ENDBRANCH   6   7
ENDBRANCH   5   6
ENDBRANCH   4   5
ENDBRANCH   3   4
ENDBRANCH   2   3
ENDBRANCH   1   2
BRANCH   1  18
ATOM     18  C   UNL     1    -100.173 -38.472  91.421  1.00  0.00     0.000 C 
BRANCH  18  19
ATOM     19  C   UNL     1    -100.409 -37.193  92.249  1.00  0.00     0.000 C 
BRANCH  19  20
ATOM     20  C   UNL     1    -100.814 -37.432  93.718  1.00  0.00     0.000 C 
BRANCH  20  21
ATOM     21  C   UNL     1    -101.731 -36.356  94.327  1.00  0.00     0.000 C 
BRANCH  21  22
ATOM     22  C   UNL     1    -101.188 -34.930  94.132  1.00  0.00     0.000 C 
BRANCH  22  23
ATOM     23  C   UNL     1    -102.216 -33.993  93.478  1.00  0.00     0.000 C 
BRANCH  23  24
ATOM     24  C   UNL     1    -103.670 -34.406  93.770  1.00  0.00    -0.000 C 
BRANCH  24  25
ATOM     25  C   UNL     1    -104.504 -34.554  92.479  1.00  0.00    -0.000 C 
BRANCH  25  26
ATOM     26  C   UNL     1    -104.527 -35.987  91.920  1.00  0.00    -0.000 C 
BRANCH  26  27
ATOM     27  C   UNL     1    -103.582 -36.178  90.723  1.00  0.00    -0.000 C 
BRANCH  27  28
ATOM     28  C   UNL     1    -103.566 -37.628  90.213  1.00  0.00    -0.000 C 
BRANCH  28  29
ATOM     29  C   UNL     1    -104.411 -38.566  91.093  1.00  0.00    -0.000 C 
BRANCH  29  30
ATOM     30  C   UNL     1    -103.654 -39.838  91.512  1.00  0.00    -0.000 C 
BRANCH  30  31
ATOM     31  C   UNL     1    -103.292 -39.915  93.006  1.00  0.00    -0.003 C 
ATOM     32  C   UNL     1    -104.240 -39.113  93.896  1.00  0.00     0.004 C 
ENDBRANCH  30  31
ENDBRANCH  29  30
ENDBRANCH  28  29
ENDBRANCH  27  28
ENDBRANCH  26  27
ENDBRANCH  25  26
ENDBRANCH  24  25
ENDBRANCH  23  24
ENDBRANCH  22  23
ENDBRANCH  21  22
ENDBRANCH  20  21
ENDBRANCH  19  20
ENDBRANCH  18  19
ENDBRANCH   1  18
TORSDOF 28
ENDMDL
MODEL 7
REMARK VINA RESULT:    -3.430     11.938     15.306
REMARK INTER + INTRA:         -12.798
REMARK INTER:                  -6.457
REMARK INTRA:                  -6.341
REMARK UNBOUND:                -3.754
REMARK SMILES CCCCCCCCCCCCCCCCCCCCCCCCCCCCCC(=O)[O-]
REMARK SMILES IDX 16 1 17 2 18 3 19 4 20 5 21 6 22 7 23 8 24 9 25 10 26 11
REMARK SMILES IDX 27 12 28 13 29 14 30 15 31 16 32 17 15 18 14 19 13 20 12 21
REMARK SMILES IDX 11 22 10 23 9 24 8 25 7 26 6 27 5 28 4 29 3 30 2 31 1 32
REMARK H PARENT
REMARK Flexibility Score: inf
ROOT
ATOM      1  C   UNL     1    -100.285 -27.974  83.984  1.00  0.00     0.000 C 
ENDROOT
BRANCH   1   2
ATOM      2  C   UNL     1    -100.277 -29.513  83.905  1.00  0.00     0.000 C 
BRANCH   2   3
ATOM      3  C   UNL     1    -101.181 -30.118  82.811  1.00  0.00     0.000 C 
BRANCH   3   4
ATOM      4  C   UNL     1    -102.208 -29.143  82.208  1.00  0.00     0.000 C 
BRANCH   4   5
ATOM      5  C   UNL     1    -102.558 -29.474  80.747  1.00  0.00     0.000 C 
BRANCH   5   6
ATOM      6  C   UNL     1    -101.592 -30.494  80.119  1.00  0.00     0.000 C 
BRANCH   6   7
ATOM      7  C   UNL     1    -102.265 -31.562  79.232  1.00  0.00     0.000 C 
BRANCH   7   8
ATOM      8  C   UNL     1    -101.966 -33.022  79.624  1.00  0.00     0.000 C 
BRANCH   8   9
ATOM      9  C   UNL     1    -102.504 -33.445  81.002  1.00  0.00     0.000 C 
BRANCH   9  10
ATOM     10  C   UNL     1    -103.977 -33.055  81.212  1.00  0.00     0.000 C 
BRANCH  10  11
ATOM     11  C   UNL     1    -104.288 -32.677  82.667  1.00  0.00     0.000 C 
BRANCH  11  12
ATOM     12  C   UNL     1    -105.055 -31.348  82.785  1.00  0.00     0.000 C 
BRANCH  12  13
ATOM     13  C   UNL     1    -104.989 -30.747  84.198  1.00  0.00     0.006 C 
BRANCH  13  14
ATOM     14  C   UNL     1    -104.203 -31.627  85.179  1.00  0.00     0.053 C 
BRANCH  14  15
ATOM     15  C   UNL     1    -103.181 -30.815  85.911  1.00  0.00     0.041 C 
ATOM     16  O   UNL     1    -102.265 -31.386  86.561  1.00  0.00    -0.550 OA
ATOM     17  O   UNL     1    -103.222 -29.427  85.852  1.00  0.00    -0.550 OA
ENDBRANCH  14  15
ENDBRANCH  13  14
ENDBRANCH  12  13
ENDBRANCH  11  12
ENDBRANCH  10  11
ENDBRANCH   9  10
ENDBRANCH   8   9
ENDBRANCH   7   8
ENDBRANCH   6   7
ENDBRANCH   5   6
ENDBRANCH   4   5
ENDBRANCH   3   4
ENDBRANCH   2   3
ENDBRANCH   1   2
BRANCH   1  18
ATOM     18  C   UNL     1     -98.911 -27.329  84.252  1.00  0.00     0.000 C 
BRANCH  18  19
ATOM     19  C   UNL     1     -97.733 -28.319  84.338  1.00  0.00     0.000 C 
BRANCH  19  20
ATOM     20  C   UNL     1     -96.516 -27.962  83.461  1.00  0.00     0.000 C 
BRANCH  20  21
ATOM     21  C   UNL     1     -96.524 -26.537  82.879  1.00  0.00     0.000 C 
BRANCH  21  22
ATOM     22  C   UNL     1     -95.513 -26.356  81.733  1.00  0.00     0.000 C 
BRANCH  22  23
ATOM     23  C   UNL     1     -95.800 -25.106  80.887  1.00  0.00     0.000 C 
BRANCH  23  24
ATOM     24  C   UNL     1     -95.928 -25.420  79.385  1.00  0.00    -0.000 C 
BRANCH  24  25
ATOM     25  C   UNL     1     -95.512 -26.870  79.056  1.00  0.00    -0.000 C 
BRANCH  25  26
ATOM     26  C   UNL     1     -96.248 -27.465  77.843  1.00  0.00    -0.000 C 
BRANCH  26  27
ATOM     27  C   UNL     1     -97.278 -28.537  78.235  1.00  0.00    -0.000 C 
BRANCH  27  28
ATOM     28  C   UNL     1     -97.109 -29.010  79.688  1.00  0.00    -0.000 C 
BRANCH  28  29
ATOM     29  C   UNL     1     -98.374 -28.773  80.530  1.00  0.00    -0.000 C 
BRANCH  29  30
ATOM     30  C   UNL     1     -99.323 -27.734  79.907  1.00  0.00    -0.000 C 
BRANCH  30  31
ATOM     31  C   UNL     1     -99.487 -26.436  80.718  1.00  0.00    -0.003 C 
ATOM     32  C   UNL     1     -99.518 -25.182  79.846  1.00  0.00     0.004 C 
ENDBRANCH  30  31
ENDBRANCH  29  30
ENDBRANCH  28  29
ENDBRANCH  27  28
ENDBRANCH  26  27
ENDBRANCH  25  26
ENDBRANCH  24  25
ENDBRANCH  23  24
ENDBRANCH  22  23
ENDBRANCH  21  22
ENDBRANCH  20  21
ENDBRANCH  19  20
ENDBRANCH  18  19
ENDBRANCH   1  18
TORSDOF 28
ENDMDL
MODEL 8
REMARK VINA RESULT:    -3.412     12.762     16.590
REMARK INTER + INTRA:         -12.752
REMARK INTER:                  -6.328
REMARK INTRA:                  -6.424
REMARK UNBOUND:                -3.754
REMARK SMILES CCCCCCCCCCCCCCCCCCCCCCCCCCCCCC(=O)[O-]
REMARK SMILES IDX 16 1 17 2 18 3 19 4 20 5 21 6 22 7 23 8 24 9 25 10 26 11
REMARK SMILES IDX 27 12 28 13 29 14 30 15 31 16 32 17 15 18 14 19 13 20 12 21
REMARK SMILES IDX 11 22 10 23 9 24 8 25 7 26 6 27 5 28 4 29 3 30 2 31 1 32
REMARK H PARENT
REMARK Flexibility Score: inf
ROOT
ATOM      1  C   UNL     1     -97.326 -28.125  83.852  1.00  0.00     0.000 C 
ENDROOT
BRANCH   1   2
ATOM      2  C   UNL     1     -97.582 -26.890  84.738  1.00  0.00     0.000 C 
BRANCH   2   3
ATOM      3  C   UNL     1     -99.019 -26.332  84.684  1.00  0.00     0.000 C 
BRANCH   3   4
ATOM      4  C   UNL     1     -99.136 -24.896  84.145  1.00  0.00     0.000 C 
BRANCH   4   5
ATOM      5  C   UNL     1     -99.886 -24.820  82.803  1.00  0.00     0.000 C 
BRANCH   5   6
ATOM      6  C   UNL     1     -98.942 -24.634  81.603  1.00  0.00     0.000 C 
BRANCH   6   7
ATOM      7  C   UNL     1     -99.259 -25.527  80.386  1.00  0.00     0.000 C 
BRANCH   7   8
ATOM      8  C   UNL     1     -99.535 -27.007  80.713  1.00  0.00     0.000 C 
BRANCH   8   9
ATOM      9  C   UNL     1    -100.978 -27.471  80.451  1.00  0.00     0.000 C 
BRANCH   9  10
ATOM     10  C   UNL     1    -101.541 -28.340  81.588  1.00  0.00     0.000 C 
BRANCH  10  11
ATOM     11  C   UNL     1    -100.450 -28.836  82.548  1.00  0.00     0.000 C 
BRANCH  11  12
ATOM     12  C   UNL     1    -100.932 -29.985  83.452  1.00  0.00     0.000 C 
BRANCH  12  13
ATOM     13  C   UNL     1    -101.651 -29.485  84.715  1.00  0.00     0.006 C 
BRANCH  13  14
ATOM     14  C   UNL     1    -103.067 -30.059  84.856  1.00  0.00     0.053 C 
BRANCH  14  15
ATOM     15  C   UNL     1    -104.028 -28.992  85.280  1.00  0.00     0.041 C 
ATOM     16  O   UNL     1    -103.977 -28.520  86.446  1.00  0.00    -0.550 OA
ATOM     17  O   UNL     1    -104.960 -28.497  84.376  1.00  0.00    -0.550 OA
ENDBRANCH  14  15
ENDBRANCH  13  14
ENDBRANCH  12  13
ENDBRANCH  11  12
ENDBRANCH  10  11
ENDBRANCH   9  10
ENDBRANCH   8   9
ENDBRANCH   7   8
ENDBRANCH   6   7
ENDBRANCH   5   6
ENDBRANCH   4   5
ENDBRANCH   3   4
ENDBRANCH   2   3
ENDBRANCH   1   2
BRANCH   1  18
ATOM     18  C   UNL     1     -96.485 -27.856  82.589  1.00  0.00     0.000 C 
BRANCH  18  19
ATOM     19  C   UNL     1     -96.021 -26.396  82.415  1.00  0.00     0.000 C 
BRANCH  19  20
ATOM     20  C   UNL     1     -95.151 -26.132  81.170  1.00  0.00     0.000 C 
BRANCH  20  21
ATOM     21  C   UNL     1     -95.723 -26.669  79.845  1.00  0.00     0.000 C 
BRANCH  21  22
ATOM     22  C   UNL     1     -95.919 -25.566  78.790  1.00  0.00     0.000 C 
BRANCH  22  23
ATOM     23  C   UNL     1     -96.732 -26.048  77.579  1.00  0.00     0.000 C 
BRANCH  23  24
ATOM     24  C   UNL     1     -97.026 -27.559  77.621  1.00  0.00    -0.000 C 
BRANCH  24  25
ATOM     25  C   UNL     1     -98.490 -27.878  77.251  1.00  0.00    -0.000 C 
BRANCH  25  26
ATOM     26  C   UNL     1     -98.943 -29.287  77.673  1.00  0.00    -0.000 C 
BRANCH  26  27
ATOM     27  C   UNL     1     -98.096 -29.869  78.815  1.00  0.00    -0.000 C 
BRANCH  27  28
ATOM     28  C   UNL     1     -98.943 -30.646  79.837  1.00  0.00    -0.000 C 
BRANCH  28  29
ATOM     29  C   UNL     1    -100.329 -31.020  79.282  1.00  0.00    -0.000 C 
BRANCH  29  30
ATOM     30  C   UNL     1    -101.135 -31.915  80.238  1.00  0.00    -0.000 C 
BRANCH  30  31
ATOM     31  C   UNL     1    -102.636 -31.585  80.327  1.00  0.00    -0.003 C 
ATOM     32  C   UNL     1    -103.277 -32.045  81.635  1.00  0.00     0.004 C 
ENDBRANCH  30  31
ENDBRANCH  29  30
ENDBRANCH  28  29
ENDBRANCH  27  28
ENDBRANCH  26  27
ENDBRANCH  25  26
ENDBRANCH  24  25
ENDBRANCH  23  24
ENDBRANCH  22  23
ENDBRANCH  21  22
ENDBRANCH  20  21
ENDBRANCH  19  20
ENDBRANCH  18  19
ENDBRANCH   1  18
TORSDOF 28
ENDMDL
MODEL 9
REMARK VINA RESULT:    -3.367     13.141     16.945
REMARK INTER + INTRA:         -12.633
REMARK INTER:                  -7.095
REMARK INTRA:                  -5.538
REMARK UNBOUND:                -3.754
REMARK SMILES CCCCCCCCCCCCCCCCCCCCCCCCCCCCCC(=O)[O-]
REMARK SMILES IDX 16 1 17 2 18 3 19 4 20 5 21 6 22 7 23 8 24 9 25 10 26 11
REMARK SMILES IDX 27 12 28 13 29 14 30 15 31 16 32 17 15 18 14 19 13 20 12 21
REMARK SMILES IDX 11 22 10 23 9 24 8 25 7 26 6 27 5 28 4 29 3 30 2 31 1 32
REMARK H PARENT
REMARK Flexibility Score: inf
ROOT
ATOM      1  C   UNL     1     -97.990 -27.118  84.747  1.00  0.00     0.000 C 
ENDROOT
BRANCH   1   2
ATOM      2  C   UNL     1     -98.680 -25.755  84.955  1.00  0.00     0.000 C 
BRANCH   2   3
ATOM      3  C   UNL     1     -99.571 -25.287  83.786  1.00  0.00     0.000 C 
BRANCH   3   4
ATOM      4  C   UNL     1     -98.873 -24.367  82.769  1.00  0.00     0.000 C 
BRANCH   4   5
ATOM      5  C   UNL     1     -99.207 -24.729  81.310  1.00  0.00     0.000 C 
BRANCH   5   6
ATOM      6  C   UNL     1     -99.310 -26.247  81.082  1.00  0.00     0.000 C 
BRANCH   6   7
ATOM      7  C   UNL     1    -100.715 -26.748  80.687  1.00  0.00     0.000 C 
BRANCH   7   8
ATOM      8  C   UNL     1    -101.056 -28.177  81.154  1.00  0.00     0.000 C 
BRANCH   8   9
ATOM      9  C   UNL     1    -100.053 -28.790  82.147  1.00  0.00     0.000 C 
BRANCH   9  10
ATOM     10  C   UNL     1    -100.740 -29.455  83.353  1.00  0.00     0.000 C 
BRANCH  10  11
ATOM     11  C   UNL     1    -101.435 -28.440  84.271  1.00  0.00     0.000 C 
BRANCH  11  12
ATOM     12  C   UNL     1    -102.549 -29.074  85.122  1.00  0.00     0.000 C 
BRANCH  12  13
ATOM     13  C   UNL     1    -102.510 -30.611  85.102  1.00  0.00     0.006 C 
BRANCH  13  14
ATOM     14  C   UNL     1    -103.784 -31.243  85.676  1.00  0.00     0.053 C 
BRANCH  14  15
ATOM     15  C   UNL     1    -103.459 -32.094  86.864  1.00  0.00     0.041 C 
ATOM     16  O   UNL     1    -102.431 -31.856  87.553  1.00  0.00    -0.550 OA
ATOM     17  O   UNL     1    -104.308 -33.132  87.231  1.00  0.00    -0.550 OA
ENDBRANCH  14  15
ENDBRANCH  13  14
ENDBRANCH  12  13
ENDBRANCH  11  12
ENDBRANCH  10  11
ENDBRANCH   9  10
ENDBRANCH   8   9
ENDBRANCH   7   8
ENDBRANCH   6   7
ENDBRANCH   5   6
ENDBRANCH   4   5
ENDBRANCH   3   4
ENDBRANCH   2   3
ENDBRANCH   1   2
BRANCH   1  18
ATOM     18  C   UNL     1     -96.626 -27.054  84.032  1.00  0.00     0.000 C 
BRANCH  18  19
ATOM     19  C   UNL     1     -96.477 -28.008  82.830  1.00  0.00     0.000 C 
BRANCH  19  20
ATOM     20  C   UNL     1     -96.095 -27.327  81.500  1.00  0.00     0.000 C 
BRANCH  20  21
ATOM     21  C   UNL     1     -95.577 -25.883  81.629  1.00  0.00     0.000 C 
BRANCH  21  22
ATOM     22  C   UNL     1     -94.295 -25.635  80.816  1.00  0.00     0.000 C 
BRANCH  22  23
ATOM     23  C   UNL     1     -94.428 -24.443  79.855  1.00  0.00     0.000 C 
BRANCH  23  24
ATOM     24  C   UNL     1     -95.259 -24.778  78.602  1.00  0.00    -0.000 C 
BRANCH  24  25
ATOM     25  C   UNL     1     -94.796 -26.089  77.931  1.00  0.00    -0.000 C 
BRANCH  25  26
ATOM     26  C   UNL     1     -95.933 -27.101  77.702  1.00  0.00    -0.000 C 
BRANCH  26  27
ATOM     27  C   UNL     1     -97.314 -26.545  78.080  1.00  0.00    -0.000 C 
BRANCH  27  28
ATOM     28  C   UNL     1     -98.403 -26.941  77.069  1.00  0.00    -0.000 C 
BRANCH  28  29
ATOM     29  C   UNL     1     -99.277 -28.101  77.577  1.00  0.00    -0.000 C 
BRANCH  29  30
ATOM     30  C   UNL     1     -98.785 -29.477  77.096  1.00  0.00    -0.000 C 
BRANCH  30  31
ATOM     31  C   UNL     1     -98.533 -30.503  78.214  1.00  0.00    -0.003 C 
ATOM     32  C   UNL     1     -97.810 -29.910  79.423  1.00  0.00     0.004 C 
ENDBRANCH  30  31
ENDBRANCH  29  30
ENDBRANCH  28  29
ENDBRANCH  27  28
ENDBRANCH  26  27
ENDBRANCH  25  26
ENDBRANCH  24  25
ENDBRANCH  23  24
ENDBRANCH  22  23
ENDBRANCH  21  22
ENDBRANCH  20  21
ENDBRANCH  19  20
ENDBRANCH  18  19
ENDBRANCH   1  18
TORSDOF 28
ENDMDL
