MODEL 1
REMARK VINA RESULT:    -7.538      0.000      0.000
REMARK INTER + INTRA:          -9.146
REMARK INTER:                  -8.860
REMARK INTRA:                  -0.285
REMARK UNBOUND:                -0.285
REMARK SMILES O=c1c(O)c(-c2ccc(O)cc2)oc2cc(O)cc(O)c12
REMARK SMILES IDX 5 1 3 2 2 3 1 4 21 5 19 6 18 7 16 8 15 9 14 10 13 11 6 12
REMARK SMILES IDX 7 13 8 14 9 15 12 16 11 17 10 18 4 20 20 22 17 24
REMARK H PARENT 10 19 4 21 20 23 17 25
REMARK Flexibility Score: inf
ROOT
ATOM      1  C   UNL     1     -11.464  62.785  39.513  1.00  0.00     0.180 A 
ATOM      2  C   UNL     1     -11.477  61.389  39.683  1.00  0.00     0.208 A 
ATOM      3  C   UNL     1     -12.655  60.680  39.401  1.00  0.00     0.238 A 
ATOM      4  O   UNL     1     -12.676  59.439  39.607  1.00  0.00    -0.285 OA
ATOM      5  C   UNL     1     -13.800  61.372  38.937  1.00  0.00     0.111 A 
ATOM      6  C   UNL     1     -15.035  60.749  38.582  1.00  0.00     0.134 A 
ATOM      7  C   UNL     1     -16.141  61.544  38.260  1.00  0.00     0.093 A 
ATOM      8  C   UNL     1     -16.041  62.934  38.216  1.00  0.00     0.123 A 
ATOM      9  C   UNL     1     -14.824  63.550  38.505  1.00  0.00     0.094 A 
ATOM     10  C   UNL     1     -13.711  62.786  38.864  1.00  0.00     0.146 A 
ATOM     11  O   UNL     1     -12.573  63.412  39.141  1.00  0.00    -0.452 OA
ENDROOT
BRANCH   1  12
ATOM     12  C   UNL     1     -10.252  63.599  39.767  1.00  0.00     0.021 A 
ATOM     13  C   UNL     1      -9.374  63.951  38.725  1.00  0.00     0.016 A 
ATOM     14  C   UNL     1      -8.251  64.740  38.986  1.00  0.00     0.047 A 
ATOM     15  C   UNL     1      -7.997  65.199  40.284  1.00  0.00     0.115 A 
ATOM     16  C   UNL     1     -10.002  64.081  41.063  1.00  0.00     0.016 A 
ATOM     17  C   UNL     1      -8.876  64.870  41.320  1.00  0.00     0.047 A 
BRANCH  15  18
ATOM     18  O   UNL     1      -6.879  65.986  40.555  1.00  0.00    -0.508 OA
ATOM     19  H   UNL     1      -5.962  65.576  40.679  1.00  0.00     0.293 HD
ENDBRANCH  15  18
ENDBRANCH   1  12
BRANCH   2  20
ATOM     20  O   UNL     1     -10.342  60.729  40.163  1.00  0.00    -0.502 OA
ATOM     21  H   UNL     1     -10.244  59.721  40.130  1.00  0.00     0.293 HD
ENDBRANCH   2  20
BRANCH   6  22
ATOM     22  O   UNL     1     -15.216  59.365  38.504  1.00  0.00    -0.507 OA
ATOM     23  H   UNL     1     -15.690  58.889  37.751  1.00  0.00     0.293 HD
ENDBRANCH   6  22
BRANCH   8  24
ATOM     24  O   UNL     1     -17.160  63.693  37.877  1.00  0.00    -0.508 OA
ATOM     25  H   UNL     1     -17.934  63.812  38.520  1.00  0.00     0.293 HD
ENDBRANCH   8  24
TORSDOF 5
ENDMDL
MODEL 2
REMARK VINA RESULT:    -7.449     19.753     21.021
REMARK INTER + INTRA:          -9.040
REMARK INTER:                  -8.744
REMARK INTRA:                  -0.297
REMARK UNBOUND:                -0.285
REMARK SMILES O=c1c(O)c(-c2ccc(O)cc2)oc2cc(O)cc(O)c12
REMARK SMILES IDX 5 1 3 2 2 3 1 4 21 5 19 6 18 7 16 8 15 9 14 10 13 11 6 12
REMARK SMILES IDX 7 13 8 14 9 15 12 16 11 17 10 18 4 20 20 22 17 24
REMARK H PARENT 10 19 4 21 20 23 17 25
REMARK Flexibility Score: inf
ROOT
ATOM      1  C   UNL     1      -8.446  49.444  55.769  1.00  0.00     0.180 A 
ATOM      2  C   UNL     1      -9.198  48.282  56.018  1.00  0.00     0.208 A 
ATOM      3  C   UNL     1     -10.485  48.174  55.468  1.00  0.00     0.238 A 
ATOM      4  O   UNL     1     -11.173  47.155  55.740  1.00  0.00    -0.285 OA
ATOM      5  C   UNL     1     -10.998  49.219  54.664  1.00  0.00     0.111 A 
ATOM      6  C   UNL     1     -12.274  49.198  54.024  1.00  0.00     0.134 A 
ATOM      7  C   UNL     1     -12.733  50.342  53.359  1.00  0.00     0.093 A 
ATOM      8  C   UNL     1     -11.937  51.482  53.256  1.00  0.00     0.123 A 
ATOM      9  C   UNL     1     -10.664  51.493  53.828  1.00  0.00     0.094 A 
ATOM     10  C   UNL     1     -10.193  50.380  54.528  1.00  0.00     0.146 A 
ATOM     11  O   UNL     1      -8.981  50.435  55.066  1.00  0.00    -0.452 OA
ENDROOT
BRANCH   1  12
ATOM     12  C   UNL     1      -7.072  49.621  56.294  1.00  0.00     0.021 A 
ATOM     13  C   UNL     1      -5.947  49.209  55.555  1.00  0.00     0.016 A 
ATOM     14  C   UNL     1      -4.659  49.410  56.061  1.00  0.00     0.047 A 
ATOM     15  C   UNL     1      -4.478  50.034  57.301  1.00  0.00     0.115 A 
ATOM     16  C   UNL     1      -6.881  50.266  57.527  1.00  0.00     0.016 A 
ATOM     17  C   UNL     1      -5.590  50.464  58.030  1.00  0.00     0.047 A 
BRANCH  15  18
ATOM     18  O   UNL     1      -3.199  50.238  57.815  1.00  0.00    -0.508 OA
ATOM     19  H   UNL     1      -2.385  50.267  57.212  1.00  0.00     0.293 HD
ENDBRANCH  15  18
ENDBRANCH   1  12
BRANCH   2  20
ATOM     20  O   UNL     1      -8.680  47.271  56.833  1.00  0.00    -0.502 OA
ATOM     21  H   UNL     1      -8.189  47.467  57.697  1.00  0.00     0.293 HD
ENDBRANCH   2  20
BRANCH   6  22
ATOM     22  O   UNL     1     -13.110  48.078  53.987  1.00  0.00    -0.507 OA
ATOM     23  H   UNL     1     -13.260  47.499  53.175  1.00  0.00     0.293 HD
ENDBRANCH   6  22
BRANCH   8  24
ATOM     24  O   UNL     1     -12.419  52.598  52.574  1.00  0.00    -0.508 OA
ATOM     25  H   UNL     1     -13.045  53.260  53.018  1.00  0.00     0.293 HD
ENDBRANCH   8  24
TORSDOF 5
ENDMDL
MODEL 3
REMARK VINA RESULT:    -7.068     19.659     21.910
REMARK INTER + INTRA:          -8.593
REMARK INTER:                  -8.519
REMARK INTRA:                  -0.074
REMARK UNBOUND:                -0.285
REMARK SMILES O=c1c(O)c(-c2ccc(O)cc2)oc2cc(O)cc(O)c12
REMARK SMILES IDX 5 1 3 2 2 3 1 4 21 5 19 6 18 7 16 8 15 9 14 10 13 11 6 12
REMARK SMILES IDX 7 13 8 14 9 15 12 16 11 17 10 18 4 20 20 22 17 24
REMARK H PARENT 10 19 4 21 20 23 17 25
REMARK Flexibility Score: inf
ROOT
ATOM      1  C   UNL     1      -8.061  49.496  55.016  1.00  0.00     0.180 A 
ATOM      2  C   UNL     1      -7.551  49.412  56.323  1.00  0.00     0.208 A 
ATOM      3  C   UNL     1      -6.160  49.400  56.511  1.00  0.00     0.238 A 
ATOM      4  O   UNL     1      -5.709  49.269  57.679  1.00  0.00    -0.285 OA
ATOM      5  C   UNL     1      -5.296  49.491  55.393  1.00  0.00     0.111 A 
ATOM      6  C   UNL     1      -3.871  49.528  55.470  1.00  0.00     0.134 A 
ATOM      7  C   UNL     1      -3.115  49.487  54.292  1.00  0.00     0.093 A 
ATOM      8  C   UNL     1      -3.730  49.474  53.041  1.00  0.00     0.123 A 
ATOM      9  C   UNL     1      -5.123  49.496  52.953  1.00  0.00     0.094 A 
ATOM     10  C   UNL     1      -5.904  49.502  54.111  1.00  0.00     0.146 A 
ATOM     11  O   UNL     1      -7.226  49.512  53.984  1.00  0.00    -0.452 OA
ENDROOT
BRANCH   1  12
ATOM     12  C   UNL     1      -9.516  49.538  54.739  1.00  0.00     0.021 A 
ATOM     13  C   UNL     1     -10.367  48.489  55.132  1.00  0.00     0.016 A 
ATOM     14  C   UNL     1     -11.740  48.563  54.882  1.00  0.00     0.047 A 
ATOM     15  C   UNL     1     -12.282  49.689  54.249  1.00  0.00     0.115 A 
ATOM     16  C   UNL     1     -10.070  50.673  54.124  1.00  0.00     0.016 A 
ATOM     17  C   UNL     1     -11.445  50.743  53.874  1.00  0.00     0.047 A 
BRANCH  15  18
ATOM     18  O   UNL     1     -13.649  49.772  53.994  1.00  0.00    -0.508 OA
ATOM     19  H   UNL     1     -14.191  48.954  53.740  1.00  0.00     0.293 HD
ENDBRANCH  15  18
ENDBRANCH   1  12
BRANCH   2  20
ATOM     20  O   UNL     1      -8.420  49.301  57.412  1.00  0.00    -0.502 OA
ATOM     21  H   UNL     1      -8.258  49.783  58.289  1.00  0.00     0.293 HD
ENDBRANCH   2  20
BRANCH   6  22
ATOM     22  O   UNL     1      -3.157  49.635  56.666  1.00  0.00    -0.507 OA
ATOM     23  H   UNL     1      -2.805  48.853  57.198  1.00  0.00     0.293 HD
ENDBRANCH   6  22
BRANCH   8  24
ATOM     24  O   UNL     1      -2.946  49.448  51.890  1.00  0.00    -0.508 OA
ATOM     25  H   UNL     1      -1.940  49.342  51.937  1.00  0.00     0.293 HD
ENDBRANCH   8  24
TORSDOF 5
ENDMDL
MODEL 4
REMARK VINA RESULT:    -6.222     18.927     21.415
REMARK INTER + INTRA:          -7.599
REMARK INTER:                  -7.425
REMARK INTRA:                  -0.174
REMARK UNBOUND:                -0.285
REMARK SMILES O=c1c(O)c(-c2ccc(O)cc2)oc2cc(O)cc(O)c12
REMARK SMILES IDX 5 1 3 2 2 3 1 4 21 5 19 6 18 7 16 8 15 9 14 10 13 11 6 12
REMARK SMILES IDX 7 13 8 14 9 15 12 16 11 17 10 18 4 20 20 22 17 24
REMARK H PARENT 10 19 4 21 20 23 17 25
REMARK Flexibility Score: inf
ROOT
ATOM      1  C   UNL     1     -13.657  48.817  53.627  1.00  0.00     0.180 A 
ATOM      2  C   UNL     1     -13.065  49.993  53.135  1.00  0.00     0.208 A 
ATOM      3  C   UNL     1     -11.757  50.314  53.531  1.00  0.00     0.238 A 
ATOM      4  O   UNL     1     -11.253  51.396  53.130  1.00  0.00    -0.285 OA
ATOM      5  C   UNL     1     -11.051  49.447  54.400  1.00  0.00     0.111 A 
ATOM      6  C   UNL     1      -9.707  49.653  54.834  1.00  0.00     0.134 A 
ATOM      7  C   UNL     1      -9.154  48.800  55.797  1.00  0.00     0.093 A 
ATOM      8  C   UNL     1      -9.872  47.712  56.292  1.00  0.00     0.123 A 
ATOM      9  C   UNL     1     -11.165  47.468  55.831  1.00  0.00     0.094 A 
ATOM     10  C   UNL     1     -11.757  48.321  54.898  1.00  0.00     0.146 A 
ATOM     11  O   UNL     1     -12.994  48.060  54.492  1.00  0.00    -0.452 OA
ENDROOT
BRANCH   1  12
ATOM     12  C   UNL     1     -15.023  48.400  53.235  1.00  0.00     0.021 A 
ATOM     13  C   UNL     1     -15.241  47.263  52.434  1.00  0.00     0.016 A 
ATOM     14  C   UNL     1     -16.542  46.875  52.099  1.00  0.00     0.047 A 
ATOM     15  C   UNL     1     -17.639  47.607  52.569  1.00  0.00     0.115 A 
ATOM     16  C   UNL     1     -16.131  49.116  53.720  1.00  0.00     0.016 A 
ATOM     17  C   UNL     1     -17.430  48.725  53.382  1.00  0.00     0.047 A 
BRANCH  15  18
ATOM     18  O   UNL     1     -18.940  47.229  52.240  1.00  0.00    -0.508 OA
ATOM     19  H   UNL     1     -19.666  47.166  52.943  1.00  0.00     0.293 HD
ENDBRANCH  15  18
ENDBRANCH   1  12
BRANCH   2  20
ATOM     20  O   UNL     1     -13.787  50.846  52.295  1.00  0.00    -0.502 OA
ATOM     21  H   UNL     1     -14.733  51.143  52.504  1.00  0.00     0.293 HD
ENDBRANCH   2  20
BRANCH   6  22
ATOM     22  O   UNL     1      -8.870  50.655  54.334  1.00  0.00    -0.507 OA
ATOM     23  H   UNL     1      -7.958  50.495  53.932  1.00  0.00     0.293 HD
ENDBRANCH   6  22
BRANCH   8  24
ATOM     24  O   UNL     1      -9.284  46.875  57.239  1.00  0.00    -0.508 OA
ATOM     25  H   UNL     1      -9.399  45.869  57.200  1.00  0.00     0.293 HD
ENDBRANCH   8  24
TORSDOF 5
ENDMDL
MODEL 5
REMARK VINA RESULT:    -5.935     19.653     21.200
REMARK INTER + INTRA:          -7.262
REMARK INTER:                  -7.260
REMARK INTRA:                  -0.002
REMARK UNBOUND:                -0.285
REMARK SMILES O=c1c(O)c(-c2ccc(O)cc2)oc2cc(O)cc(O)c12
REMARK SMILES IDX 5 1 3 2 2 3 1 4 21 5 19 6 18 7 16 8 15 9 14 10 13 11 6 12
REMARK SMILES IDX 7 13 8 14 9 15 12 16 11 17 10 18 4 20 20 22 17 24
REMARK H PARENT 10 19 4 21 20 23 17 25
REMARK Flexibility Score: inf
ROOT
ATOM      1  C   UNL     1      -9.996  48.854  55.143  1.00  0.00     0.180 A 
ATOM      2  C   UNL     1      -9.979  50.112  54.515  1.00  0.00     0.208 A 
ATOM      3  C   UNL     1     -11.108  50.526  53.791  1.00  0.00     0.238 A 
ATOM      4  O   UNL     1     -11.066  51.629  53.186  1.00  0.00    -0.285 OA
ATOM      5  C   UNL     1     -12.245  49.686  53.717  1.00  0.00     0.111 A 
ATOM      6  C   UNL     1     -13.459  50.021  53.044  1.00  0.00     0.134 A 
ATOM      7  C   UNL     1     -14.471  49.061  52.925  1.00  0.00     0.093 A 
ATOM      8  C   UNL     1     -14.340  47.801  53.508  1.00  0.00     0.123 A 
ATOM      9  C   UNL     1     -13.182  47.483  54.218  1.00  0.00     0.094 A 
ATOM     10  C   UNL     1     -12.141  48.407  54.324  1.00  0.00     0.146 A 
ATOM     11  O   UNL     1     -11.051  48.061  55.000  1.00  0.00    -0.452 OA
ENDROOT
BRANCH   1  12
ATOM     12  C   UNL     1      -8.853  48.358  55.944  1.00  0.00     0.021 A 
ATOM     13  C   UNL     1      -9.023  47.918  57.270  1.00  0.00     0.016 A 
ATOM     14  C   UNL     1      -7.933  47.432  57.998  1.00  0.00     0.047 A 
ATOM     15  C   UNL     1      -6.665  47.365  57.408  1.00  0.00     0.115 A 
ATOM     16  C   UNL     1      -7.581  48.268  55.353  1.00  0.00     0.016 A 
ATOM     17  C   UNL     1      -6.493  47.782  56.085  1.00  0.00     0.047 A 
BRANCH  15  18
ATOM     18  O   UNL     1      -5.572  46.883  58.125  1.00  0.00    -0.508 OA
ATOM     19  H   UNL     1      -5.613  46.001  58.622  1.00  0.00     0.293 HD
ENDBRANCH  15  18
ENDBRANCH   1  12
BRANCH   2  20
ATOM     20  O   UNL     1      -8.838  50.916  54.582  1.00  0.00    -0.502 OA
ATOM     21  H   UNL     1      -8.121  50.785  55.286  1.00  0.00     0.293 HD
ENDBRANCH   2  20
BRANCH   6  22
ATOM     22  O   UNL     1     -13.729  51.282  52.506  1.00  0.00    -0.507 OA
ATOM     23  H   UNL     1     -13.359  51.627  51.633  1.00  0.00     0.293 HD
ENDBRANCH   6  22
BRANCH   8  24
ATOM     24  O   UNL     1     -15.374  46.875  53.383  1.00  0.00    -0.508 OA
ATOM     25  H   UNL     1     -16.141  46.845  54.044  1.00  0.00     0.293 HD
ENDBRANCH   8  24
TORSDOF 5
ENDMDL
MODEL 6
REMARK VINA RESULT:    -5.606     18.246     20.616
REMARK INTER + INTRA:          -6.875
REMARK INTER:                  -6.753
REMARK INTRA:                  -0.122
REMARK UNBOUND:                -0.285
REMARK SMILES O=c1c(O)c(-c2ccc(O)cc2)oc2cc(O)cc(O)c12
REMARK SMILES IDX 5 1 3 2 2 3 1 4 21 5 19 6 18 7 16 8 15 9 14 10 13 11 6 12
REMARK SMILES IDX 7 13 8 14 9 15 12 16 11 17 10 18 4 20 20 22 17 24
REMARK H PARENT 10 19 4 21 20 23 17 25
REMARK Flexibility Score: inf
ROOT
ATOM      1  C   UNL     1     -14.270  48.922  53.537  1.00  0.00     0.180 A 
ATOM      2  C   UNL     1     -13.411  48.153  54.341  1.00  0.00     0.208 A 
ATOM      3  C   UNL     1     -12.152  48.672  54.682  1.00  0.00     0.238 A 
ATOM      4  O   UNL     1     -11.366  47.956  55.356  1.00  0.00    -0.285 OA
ATOM      5  C   UNL     1     -11.774  49.960  54.230  1.00  0.00     0.111 A 
ATOM      6  C   UNL     1     -10.539  50.601  54.549  1.00  0.00     0.134 A 
ATOM      7  C   UNL     1     -10.216  51.819  53.940  1.00  0.00     0.093 A 
ATOM      8  C   UNL     1     -11.110  52.451  53.076  1.00  0.00     0.123 A 
ATOM      9  C   UNL     1     -12.345  51.862  52.803  1.00  0.00     0.094 A 
ATOM     10  C   UNL     1     -12.680  50.629  53.368  1.00  0.00     0.146 A 
ATOM     11  O   UNL     1     -13.861  50.097  53.074  1.00  0.00    -0.452 OA
ENDROOT
BRANCH   1  12
ATOM     12  C   UNL     1     -15.623  48.453  53.156  1.00  0.00     0.021 A 
ATOM     13  C   UNL     1     -15.803  47.312  52.352  1.00  0.00     0.016 A 
ATOM     14  C   UNL     1     -17.090  46.875  52.026  1.00  0.00     0.047 A 
ATOM     15  C   UNL     1     -18.211  47.561  52.509  1.00  0.00     0.115 A 
ATOM     16  C   UNL     1     -16.753  49.123  53.654  1.00  0.00     0.016 A 
ATOM     17  C   UNL     1     -18.039  48.683  53.325  1.00  0.00     0.047 A 
BRANCH  15  18
ATOM     18  O   UNL     1     -19.499  47.134  52.189  1.00  0.00    -0.508 OA
ATOM     19  H   UNL     1     -20.059  47.616  51.496  1.00  0.00     0.293 HD
ENDBRANCH  15  18
ENDBRANCH   1  12
BRANCH   2  20
ATOM     20  O   UNL     1     -13.794  46.875  54.758  1.00  0.00    -0.502 OA
ATOM     21  H   UNL     1     -14.736  46.663  55.066  1.00  0.00     0.293 HD
ENDBRANCH   2  20
BRANCH   6  22
ATOM     22  O   UNL     1      -9.615  50.100  55.471  1.00  0.00    -0.507 OA
ATOM     23  H   UNL     1      -8.613  50.126  55.354  1.00  0.00     0.293 HD
ENDBRANCH   6  22
BRANCH   8  24
ATOM     24  O   UNL     1     -10.762  53.672  52.500  1.00  0.00    -0.508 OA
ATOM     25  H   UNL     1     -10.032  54.254  52.893  1.00  0.00     0.293 HD
ENDBRANCH   8  24
TORSDOF 5
ENDMDL
MODEL 7
REMARK VINA RESULT:    -5.035     13.923     16.494
REMARK INTER + INTRA:          -6.203
REMARK INTER:                  -6.172
REMARK INTRA:                  -0.031
REMARK UNBOUND:                -0.285
REMARK SMILES O=c1c(O)c(-c2ccc(O)cc2)oc2cc(O)cc(O)c12
REMARK SMILES IDX 5 1 3 2 2 3 1 4 21 5 19 6 18 7 16 8 15 9 14 10 13 11 6 12
REMARK SMILES IDX 7 13 8 14 9 15 12 16 11 17 10 18 4 20 20 22 17 24
REMARK H PARENT 10 19 4 21 20 23 17 25
REMARK Flexibility Score: inf
ROOT
ATOM      1  C   UNL     1      -5.866  61.355  54.371  1.00  0.00     0.180 A 
ATOM      2  C   UNL     1      -6.999  61.882  55.014  1.00  0.00     0.208 A 
ATOM      3  C   UNL     1      -7.724  62.905  54.384  1.00  0.00     0.238 A 
ATOM      4  O   UNL     1      -8.705  63.411  54.989  1.00  0.00    -0.285 OA
ATOM      5  C   UNL     1      -7.319  63.377  53.112  1.00  0.00     0.111 A 
ATOM      6  C   UNL     1      -8.003  64.382  52.364  1.00  0.00     0.134 A 
ATOM      7  C   UNL     1      -7.439  64.862  51.176  1.00  0.00     0.093 A 
ATOM      8  C   UNL     1      -6.251  64.331  50.676  1.00  0.00     0.123 A 
ATOM      9  C   UNL     1      -5.604  63.307  51.369  1.00  0.00     0.094 A 
ATOM     10  C   UNL     1      -6.124  62.831  52.575  1.00  0.00     0.146 A 
ATOM     11  O   UNL     1      -5.472  61.863  53.210  1.00  0.00    -0.452 OA
ENDROOT
BRANCH   1  12
ATOM     12  C   UNL     1      -5.064  60.258  54.961  1.00  0.00     0.021 A 
ATOM     13  C   UNL     1      -3.692  60.417  55.232  1.00  0.00     0.016 A 
ATOM     14  C   UNL     1      -2.962  59.375  55.812  1.00  0.00     0.047 A 
ATOM     15  C   UNL     1      -3.594  58.170  56.142  1.00  0.00     0.115 A 
ATOM     16  C   UNL     1      -5.694  59.053  55.314  1.00  0.00     0.016 A 
ATOM     17  C   UNL     1      -4.960  58.013  55.893  1.00  0.00     0.047 A 
BRANCH  15  18
ATOM     18  O   UNL     1      -2.875  57.125  56.719  1.00  0.00    -0.508 OA
ATOM     19  H   UNL     1      -3.170  56.161  56.619  1.00  0.00     0.293 HD
ENDBRANCH  15  18
ENDBRANCH   1  12
BRANCH   2  20
ATOM     20  O   UNL     1      -7.369  61.418  56.279  1.00  0.00    -0.502 OA
ATOM     21  H   UNL     1      -8.167  60.810  56.424  1.00  0.00     0.293 HD
ENDBRANCH   2  20
BRANCH   6  22
ATOM     22  O   UNL     1      -9.243  64.915  52.726  1.00  0.00    -0.507 OA
ATOM     23  H   UNL     1      -9.424  65.896  52.882  1.00  0.00     0.293 HD
ENDBRANCH   6  22
BRANCH   8  24
ATOM     24  O   UNL     1      -5.726  64.823  49.483  1.00  0.00    -0.508 OA
ATOM     25  H   UNL     1      -6.040  65.702  49.089  1.00  0.00     0.293 HD
ENDBRANCH   8  24
TORSDOF 5
ENDMDL
MODEL 8
REMARK VINA RESULT:    -4.993      1.885      2.940
REMARK INTER + INTRA:          -6.154
REMARK INTER:                  -6.528
REMARK INTRA:                   0.374
REMARK UNBOUND:                -0.285
REMARK SMILES O=c1c(O)c(-c2ccc(O)cc2)oc2cc(O)cc(O)c12
REMARK SMILES IDX 5 1 3 2 2 3 1 4 21 5 19 6 18 7 16 8 15 9 14 10 13 11 6 12
REMARK SMILES IDX 7 13 8 14 9 15 12 16 11 17 10 18 4 20 20 22 17 24
REMARK H PARENT 10 19 4 21 20 23 17 25
REMARK Flexibility Score: inf
ROOT
ATOM      1  C   UNL     1     -10.151  63.327  40.161  1.00  0.00     0.180 A 
ATOM      2  C   UNL     1     -10.138  62.823  41.473  1.00  0.00     0.208 A 
ATOM      3  C   UNL     1     -11.080  61.848  41.836  1.00  0.00     0.238 A 
ATOM      4  O   UNL     1     -11.098  61.441  43.027  1.00  0.00    -0.285 OA
ATOM      5  C   UNL     1     -12.013  61.378  40.881  1.00  0.00     0.111 A 
ATOM      6  C   UNL     1     -12.986  60.364  41.129  1.00  0.00     0.134 A 
ATOM      7  C   UNL     1     -13.942  60.070  40.149  1.00  0.00     0.093 A 
ATOM      8  C   UNL     1     -13.921  60.706  38.908  1.00  0.00     0.123 A 
ATOM      9  C   UNL     1     -12.938  61.657  38.634  1.00  0.00     0.094 A 
ATOM     10  C   UNL     1     -11.992  61.997  39.604  1.00  0.00     0.146 A 
ATOM     11  O   UNL     1     -11.080  62.915  39.307  1.00  0.00    -0.452 OA
ENDROOT
BRANCH   1  12
ATOM     12  C   UNL     1      -9.173  64.339  39.696  1.00  0.00     0.021 A 
ATOM     13  C   UNL     1      -8.528  65.204  40.599  1.00  0.00     0.016 A 
ATOM     14  C   UNL     1      -7.590  66.133  40.138  1.00  0.00     0.047 A 
ATOM     15  C   UNL     1      -7.276  66.201  38.775  1.00  0.00     0.115 A 
ATOM     16  C   UNL     1      -8.837  64.399  38.333  1.00  0.00     0.016 A 
ATOM     17  C   UNL     1      -7.899  65.331  37.876  1.00  0.00     0.047 A 
BRANCH  15  18
ATOM     18  O   UNL     1      -6.345  67.125  38.305  1.00  0.00    -0.508 OA
ATOM     19  H   UNL     1      -6.060  67.142  37.333  1.00  0.00     0.293 HD
ENDBRANCH  15  18
ENDBRANCH   1  12
BRANCH   2  20
ATOM     20  O   UNL     1      -9.223  63.317  42.407  1.00  0.00    -0.502 OA
ATOM     21  H   UNL     1      -9.006  64.303  42.487  1.00  0.00     0.293 HD
ENDBRANCH   2  20
BRANCH   6  22
ATOM     22  O   UNL     1     -13.038  59.602  42.299  1.00  0.00    -0.507 OA
ATOM     23  H   UNL     1     -12.264  59.464  42.931  1.00  0.00     0.293 HD
ENDBRANCH   6  22
BRANCH   8  24
ATOM     24  O   UNL     1     -14.879  60.378  37.951  1.00  0.00    -0.508 OA
ATOM     25  H   UNL     1     -15.296  59.455  37.914  1.00  0.00     0.293 HD
ENDBRANCH   8  24
TORSDOF 5
ENDMDL
