MODEL 1
REMARK VINA RESULT:    -7.363      0.000      0.000
REMARK INTER + INTRA:         -11.612
REMARK INTER:                 -10.592
REMARK INTRA:                  -1.020
REMARK UNBOUND:                -1.020
REMARK SMILES O=c1c(O[C@@H]2O[C@@H](CO)[C@H](O)[C@H](O)[C@H]2O)c(-c2ccc(O)cc2)oc2cc(O)cc(O)c12
REMARK SMILES IDX 4 1 3 2 16 3 24 4 2 5 25 6 1 7 32 8 26 9 30 10 27 11 29 12
REMARK SMILES IDX 17 13 18 14 19 15 20 16 23 17 22 18 21 19 31 21 28 23 5 25
REMARK SMILES IDX 14 26 6 27 12 28 7 29 10 30 15 31 13 33 8 35 9 36 11 38
REMARK H PARENT 21 20 31 22 28 24 15 32 13 34 9 37 11 39
REMARK Flexibility Score: inf
ROOT
ATOM      1  O   UNL     1      16.090 -35.817  -0.132  1.00  0.00    -0.454 OA
ENDROOT
BRANCH   1   2
ATOM      2  C   UNL     1      15.042 -35.664  -1.048  1.00  0.00     0.214 A 
ATOM      3  C   UNL     1      15.110 -36.208  -2.346  1.00  0.00     0.180 A 
ATOM      4  O   UNL     1      14.143 -35.948  -3.217  1.00  0.00    -0.452 OA
ATOM      5  C   UNL     1      13.909 -34.935  -0.675  1.00  0.00     0.239 A 
ATOM      6  C   UNL     1      13.060 -35.240  -2.916  1.00  0.00     0.146 A 
ATOM      7  O   UNL     1      13.874 -34.434   0.479  1.00  0.00    -0.285 OA
ATOM      8  C   UNL     1      12.860 -34.735  -1.604  1.00  0.00     0.111 A 
ATOM      9  C   UNL     1      12.118 -35.002  -3.920  1.00  0.00     0.094 A 
ATOM     10  C   UNL     1      11.652 -34.030  -1.324  1.00  0.00     0.134 A 
ATOM     11  C   UNL     1      10.970 -34.262  -3.650  1.00  0.00     0.123 A 
ATOM     12  C   UNL     1      10.743 -33.778  -2.359  1.00  0.00     0.093 A 
BRANCH   3  13
ATOM     13  C   UNL     1      16.231 -37.070  -2.782  1.00  0.00     0.021 A 
ATOM     14  C   UNL     1      16.109 -38.466  -2.694  1.00  0.00     0.016 A 
ATOM     15  C   UNL     1      17.160 -39.294  -3.099  1.00  0.00     0.047 A 
ATOM     16  C   UNL     1      18.351 -38.735  -3.581  1.00  0.00     0.115 A 
ATOM     17  C   UNL     1      17.439 -36.516  -3.243  1.00  0.00     0.016 A 
ATOM     18  C   UNL     1      18.488 -37.346  -3.649  1.00  0.00     0.047 A 
BRANCH  16  19
ATOM     19  O   UNL     1      19.404 -39.551  -3.992  1.00  0.00    -0.508 OA
ATOM     20  H   UNL     1      19.313 -40.560  -4.015  1.00  0.00     0.293 HD
ENDBRANCH  16  19
ENDBRANCH   3  13
BRANCH  10  21
ATOM     21  O   UNL     1      11.288 -33.582  -0.050  1.00  0.00    -0.507 OA
ATOM     22  H   UNL     1      10.968 -34.177   0.699  1.00  0.00     0.293 HD
ENDBRANCH  10  21
BRANCH  11  23
ATOM     23  O   UNL     1      10.053 -34.019  -4.671  1.00  0.00    -0.508 OA
ATOM     24  H   UNL     1      10.101 -34.509  -5.555  1.00  0.00     0.293 HD
ENDBRANCH  11  23
ENDBRANCH   1   2
BRANCH   1  25
ATOM     25  C   UNL     1      15.893 -36.312   1.198  1.00  0.00     0.339 C 
ATOM     26  C   UNL     1      16.235 -37.815   1.285  1.00  0.00     0.214 C 
ATOM     27  O   UNL     1      16.635 -35.551   2.136  1.00  0.00    -0.332 OA
ATOM     28  C   UNL     1      17.759 -38.072   1.233  1.00  0.00     0.180 C 
ATOM     29  C   UNL     1      18.028 -35.617   1.881  1.00  0.00     0.179 C 
ATOM     30  C   UNL     1      18.548 -37.060   2.098  1.00  0.00     0.177 C 
BRANCH  26  31
ATOM     31  O   UNL     1      15.678 -38.380   2.448  1.00  0.00    -0.384 OA
ATOM     32  H   UNL     1      16.017 -39.309   2.528  1.00  0.00     0.211 HD
ENDBRANCH  26  31
BRANCH  28  33
ATOM     33  O   UNL     1      18.222 -38.101  -0.097  1.00  0.00    -0.387 OA
ATOM     34  H   UNL     1      17.978 -38.974  -0.494  1.00  0.00     0.211 HD
ENDBRANCH  28  33
BRANCH  29  35
ATOM     35  C   UNL     1      18.720 -34.626   2.828  1.00  0.00     0.191 C 
BRANCH  35  36
ATOM     36  O   UNL     1      19.889 -34.123   2.244  1.00  0.00    -0.394 OA
ATOM     37  H   UNL     1      20.107 -33.290   2.738  1.00  0.00     0.210 HD
ENDBRANCH  35  36
ENDBRANCH  29  35
BRANCH  30  38
ATOM     38  O   UNL     1      19.916 -37.132   1.787  1.00  0.00    -0.387 OA
ATOM     39  H   UNL     1      20.075 -36.494   1.044  1.00  0.00     0.211 HD
ENDBRANCH  30  38
ENDBRANCH   1  25
TORSDOF 11
ENDMDL
MODEL 2
REMARK VINA RESULT:    -6.937      2.080      6.534
REMARK INTER + INTRA:         -10.998
REMARK INTER:                  -9.360
REMARK INTRA:                  -1.638
REMARK UNBOUND:                -1.020
REMARK SMILES O=c1c(O[C@@H]2O[C@@H](CO)[C@H](O)[C@H](O)[C@H]2O)c(-c2ccc(O)cc2)oc2cc(O)cc(O)c12
REMARK SMILES IDX 4 1 3 2 16 3 24 4 2 5 25 6 1 7 32 8 26 9 30 10 27 11 29 12
REMARK SMILES IDX 17 13 18 14 19 15 20 16 23 17 22 18 21 19 31 21 28 23 5 25
REMARK SMILES IDX 14 26 6 27 12 28 7 29 10 30 15 31 13 33 8 35 9 36 11 38
REMARK H PARENT 21 20 31 22 28 24 15 32 13 34 9 37 11 39
REMARK Flexibility Score: inf
ROOT
ATOM      1  O   UNL     1      14.506 -36.098   0.409  1.00  0.00    -0.454 OA
ENDROOT
BRANCH   1   2
ATOM      2  C   UNL     1      15.297 -36.480  -0.681  1.00  0.00     0.214 A 
ATOM      3  C   UNL     1      14.980 -36.088  -1.997  1.00  0.00     0.180 A 
ATOM      4  O   UNL     1      15.695 -36.561  -3.011  1.00  0.00    -0.452 OA
ATOM      5  C   UNL     1      16.418 -37.287  -0.463  1.00  0.00     0.239 A 
ATOM      6  C   UNL     1      16.752 -37.351  -2.855  1.00  0.00     0.146 A 
ATOM      7  O   UNL     1      16.673 -37.649   0.715  1.00  0.00    -0.285 OA
ATOM      8  C   UNL     1      17.202 -37.717  -1.559  1.00  0.00     0.111 A 
ATOM      9  C   UNL     1      17.412 -37.814  -3.995  1.00  0.00     0.094 A 
ATOM     10  C   UNL     1      18.376 -38.521  -1.450  1.00  0.00     0.134 A 
ATOM     11  C   UNL     1      18.522 -38.647  -3.878  1.00  0.00     0.123 A 
ATOM     12  C   UNL     1      18.997 -38.998  -2.611  1.00  0.00     0.093 A 
BRANCH   3  13
ATOM     13  C   UNL     1      13.870 -35.158  -2.297  1.00  0.00     0.021 A 
ATOM     14  C   UNL     1      12.775 -35.603  -3.053  1.00  0.00     0.016 A 
ATOM     15  C   UNL     1      11.719 -34.734  -3.348  1.00  0.00     0.047 A 
ATOM     16  C   UNL     1      11.755 -33.407  -2.902  1.00  0.00     0.115 A 
ATOM     17  C   UNL     1      13.911 -33.816  -1.874  1.00  0.00     0.016 A 
ATOM     18  C   UNL     1      12.854 -32.950  -2.168  1.00  0.00     0.047 A 
BRANCH  16  19
ATOM     19  O   UNL     1      10.707 -32.533  -3.185  1.00  0.00    -0.508 OA
ATOM     20  H   UNL     1       9.904 -32.829  -3.729  1.00  0.00     0.293 HD
ENDBRANCH  16  19
ENDBRANCH   3  13
BRANCH  10  21
ATOM     21  O   UNL     1      18.983 -38.856  -0.236  1.00  0.00    -0.507 OA
ATOM     22  H   UNL     1      18.905 -38.317   0.613  1.00  0.00     0.293 HD
ENDBRANCH  10  21
BRANCH  11  23
ATOM     23  O   UNL     1      19.155 -39.115  -5.028  1.00  0.00    -0.508 OA
ATOM     24  H   UNL     1      18.756 -39.859  -5.588  1.00  0.00     0.293 HD
ENDBRANCH  11  23
ENDBRANCH   1   2
BRANCH   1  25
ATOM     25  C   UNL     1      13.517 -36.955   0.990  1.00  0.00     0.339 C 
ATOM     26  C   UNL     1      13.599 -36.928   2.532  1.00  0.00     0.214 C 
ATOM     27  O   UNL     1      12.220 -36.616   0.530  1.00  0.00    -0.332 OA
ATOM     28  C   UNL     1      13.049 -35.609   3.125  1.00  0.00     0.180 C 
ATOM     29  C   UNL     1      11.867 -35.289   0.885  1.00  0.00     0.179 C 
ATOM     30  C   UNL     1      11.746 -35.156   2.423  1.00  0.00     0.177 C 
BRANCH  26  31
ATOM     31  O   UNL     1      12.924 -38.034   3.080  1.00  0.00    -0.384 OA
ATOM     32  H   UNL     1      12.808 -38.709   2.361  1.00  0.00     0.211 HD
ENDBRANCH  26  31
BRANCH  28  33
ATOM     33  O   UNL     1      14.032 -34.601   3.110  1.00  0.00    -0.387 OA
ATOM     34  H   UNL     1      13.654 -33.801   2.665  1.00  0.00     0.211 HD
ENDBRANCH  28  33
BRANCH  29  35
ATOM     35  C   UNL     1      10.536 -34.963   0.191  1.00  0.00     0.191 C 
BRANCH  35  36
ATOM     36  O   UNL     1      10.256 -33.594   0.287  1.00  0.00    -0.394 OA
ATOM     37  H   UNL     1      10.242 -33.383   1.257  1.00  0.00     0.210 HD
ENDBRANCH  35  36
ENDBRANCH  29  35
BRANCH  30  38
ATOM     38  O   UNL     1      11.454 -33.828   2.773  1.00  0.00    -0.387 OA
ATOM     39  H   UNL     1      10.560 -33.836   3.205  1.00  0.00     0.211 HD
ENDBRANCH  30  38
ENDBRANCH   1  25
TORSDOF 11
ENDMDL
MODEL 3
REMARK VINA RESULT:    -6.798      2.478      3.191
REMARK INTER + INTRA:         -10.799
REMARK INTER:                  -9.642
REMARK INTRA:                  -1.157
REMARK UNBOUND:                -1.020
REMARK SMILES O=c1c(O[C@@H]2O[C@@H](CO)[C@H](O)[C@H](O)[C@H]2O)c(-c2ccc(O)cc2)oc2cc(O)cc(O)c12
REMARK SMILES IDX 4 1 3 2 16 3 24 4 2 5 25 6 1 7 32 8 26 9 30 10 27 11 29 12
REMARK SMILES IDX 17 13 18 14 19 15 20 16 23 17 22 18 21 19 31 21 28 23 5 25
REMARK SMILES IDX 14 26 6 27 12 28 7 29 10 30 15 31 13 33 8 35 9 36 11 38
REMARK H PARENT 21 20 31 22 28 24 15 32 13 34 9 37 11 39
REMARK Flexibility Score: inf
ROOT
ATOM      1  O   UNL     1      14.518 -36.356  -1.257  1.00  0.00    -0.454 OA
ENDROOT
BRANCH   1   2
ATOM      2  C   UNL     1      13.893 -37.028  -2.314  1.00  0.00     0.214 A 
ATOM      3  C   UNL     1      14.636 -37.717  -3.293  1.00  0.00     0.180 A 
ATOM      4  O   UNL     1      14.010 -38.250  -4.336  1.00  0.00    -0.452 OA
ATOM      5  C   UNL     1      12.499 -36.999  -2.414  1.00  0.00     0.239 A 
ATOM      6  C   UNL     1      12.690 -38.224  -4.486  1.00  0.00     0.146 A 
ATOM      7  O   UNL     1      11.851 -36.357  -1.545  1.00  0.00    -0.285 OA
ATOM      8  C   UNL     1      11.855 -37.637  -3.500  1.00  0.00     0.111 A 
ATOM      9  C   UNL     1      12.140 -38.790  -5.639  1.00  0.00     0.094 A 
ATOM     10  C   UNL     1      10.442 -37.688  -3.688  1.00  0.00     0.134 A 
ATOM     11  C   UNL     1      10.761 -38.783  -5.840  1.00  0.00     0.123 A 
ATOM     12  C   UNL     1       9.921 -38.232  -4.869  1.00  0.00     0.093 A 
BRANCH   3  13
ATOM     13  C   UNL     1      16.104 -37.875  -3.203  1.00  0.00     0.021 A 
ATOM     14  C   UNL     1      16.943 -36.851  -3.668  1.00  0.00     0.016 A 
ATOM     15  C   UNL     1      18.333 -36.987  -3.593  1.00  0.00     0.047 A 
ATOM     16  C   UNL     1      18.898 -38.156  -3.065  1.00  0.00     0.115 A 
ATOM     17  C   UNL     1      16.679 -39.056  -2.698  1.00  0.00     0.016 A 
ATOM     18  C   UNL     1      18.068 -39.189  -2.621  1.00  0.00     0.047 A 
BRANCH  16  19
ATOM     19  O   UNL     1      20.282 -38.300  -2.981  1.00  0.00    -0.508 OA
ATOM     20  H   UNL     1      20.712 -38.848  -2.244  1.00  0.00     0.293 HD
ENDBRANCH  16  19
ENDBRANCH   3  13
BRANCH  10  21
ATOM     21  O   UNL     1       9.512 -37.247  -2.741  1.00  0.00    -0.507 OA
ATOM     22  H   UNL     1       9.062 -37.838  -2.058  1.00  0.00     0.293 HD
ENDBRANCH  10  21
BRANCH  11  23
ATOM     23  O   UNL     1      10.234 -39.334  -7.006  1.00  0.00    -0.508 OA
ATOM     24  H   UNL     1      10.831 -39.713  -7.731  1.00  0.00     0.293 HD
ENDBRANCH  11  23
ENDBRANCH   1   2
BRANCH   1  25
ATOM     25  C   UNL     1      14.306 -36.700   0.117  1.00  0.00     0.339 C 
ATOM     26  C   UNL     1      15.464 -37.569   0.654  1.00  0.00     0.214 C 
ATOM     27  O   UNL     1      14.114 -35.539   0.907  1.00  0.00    -0.332 OA
ATOM     28  C   UNL     1      16.754 -36.747   0.884  1.00  0.00     0.180 C 
ATOM     29  C   UNL     1      15.246 -34.687   0.872  1.00  0.00     0.179 C 
ATOM     30  C   UNL     1      16.461 -35.377   1.541  1.00  0.00     0.177 C 
BRANCH  26  31
ATOM     31  O   UNL     1      15.079 -38.224   1.839  1.00  0.00    -0.384 OA
ATOM     32  H   UNL     1      14.615 -37.564   2.417  1.00  0.00     0.211 HD
ENDBRANCH  26  31
BRANCH  28  33
ATOM     33  O   UNL     1      17.485 -36.611  -0.312  1.00  0.00    -0.387 OA
ATOM     34  H   UNL     1      17.782 -37.510  -0.602  1.00  0.00     0.211 HD
ENDBRANCH  28  33
BRANCH  29  35
ATOM     35  C   UNL     1      14.872 -33.389   1.602  1.00  0.00     0.191 C 
BRANCH  35  36
ATOM     36  O   UNL     1      15.598 -33.268   2.793  1.00  0.00    -0.394 OA
ATOM     37  H   UNL     1      16.275 -33.993   2.777  1.00  0.00     0.210 HD
ENDBRANCH  35  36
ENDBRANCH  29  35
BRANCH  30  38
ATOM     38  O   UNL     1      17.595 -34.554   1.453  1.00  0.00    -0.387 OA
ATOM     39  H   UNL     1      18.386 -35.155   1.450  1.00  0.00     0.211 HD
ENDBRANCH  30  38
ENDBRANCH   1  25
TORSDOF 11
ENDMDL
MODEL 4
REMARK VINA RESULT:    -6.545      3.374      5.981
REMARK INTER + INTRA:         -10.434
REMARK INTER:                  -9.074
REMARK INTRA:                  -1.360
REMARK UNBOUND:                -1.020
REMARK SMILES O=c1c(O[C@@H]2O[C@@H](CO)[C@H](O)[C@H](O)[C@H]2O)c(-c2ccc(O)cc2)oc2cc(O)cc(O)c12
REMARK SMILES IDX 4 1 3 2 16 3 24 4 2 5 25 6 1 7 32 8 26 9 30 10 27 11 29 12
REMARK SMILES IDX 17 13 18 14 19 15 20 16 23 17 22 18 21 19 31 21 28 23 5 25
REMARK SMILES IDX 14 26 6 27 12 28 7 29 10 30 15 31 13 33 8 35 9 36 11 38
REMARK H PARENT 21 20 31 22 28 24 15 32 13 34 9 37 11 39
REMARK Flexibility Score: inf
ROOT
ATOM      1  O   UNL     1      13.166 -36.372  -2.985  1.00  0.00    -0.454 OA
ENDROOT
BRANCH   1   2
ATOM      2  C   UNL     1      12.947 -37.603  -3.615  1.00  0.00     0.214 A 
ATOM      3  C   UNL     1      13.919 -38.623  -3.602  1.00  0.00     0.180 A 
ATOM      4  O   UNL     1      13.714 -39.733  -4.301  1.00  0.00    -0.452 OA
ATOM      5  C   UNL     1      11.742 -37.821  -4.290  1.00  0.00     0.239 A 
ATOM      6  C   UNL     1      12.597 -39.973  -4.979  1.00  0.00     0.146 A 
ATOM      7  O   UNL     1      10.894 -36.891  -4.313  1.00  0.00    -0.285 OA
ATOM      8  C   UNL     1      11.523 -39.044  -4.967  1.00  0.00     0.111 A 
ATOM      9  C   UNL     1      12.500 -41.163  -5.704  1.00  0.00     0.094 A 
ATOM     10  C   UNL     1      10.326 -39.380  -5.667  1.00  0.00     0.134 A 
ATOM     11  C   UNL     1      11.349 -41.454  -6.432  1.00  0.00     0.123 A 
ATOM     12  C   UNL     1      10.271 -40.564  -6.413  1.00  0.00     0.093 A 
BRANCH   3  13
ATOM     13  C   UNL     1      15.175 -38.505  -2.829  1.00  0.00     0.021 A 
ATOM     14  C   UNL     1      15.184 -38.825  -1.462  1.00  0.00     0.016 A 
ATOM     15  C   UNL     1      16.363 -38.715  -0.718  1.00  0.00     0.047 A 
ATOM     16  C   UNL     1      17.542 -38.271  -1.329  1.00  0.00     0.115 A 
ATOM     17  C   UNL     1      16.357 -38.035  -3.430  1.00  0.00     0.016 A 
ATOM     18  C   UNL     1      17.535 -37.928  -2.684  1.00  0.00     0.047 A 
BRANCH  16  19
ATOM     19  O   UNL     1      18.724 -38.162  -0.598  1.00  0.00    -0.508 OA
ATOM     20  H   UNL     1      18.844 -38.641   0.287  1.00  0.00     0.293 HD
ENDBRANCH  16  19
ENDBRANCH   3  13
BRANCH  10  21
ATOM     21  O   UNL     1       9.163 -38.604  -5.640  1.00  0.00    -0.507 OA
ATOM     22  H   UNL     1       8.894 -37.997  -4.881  1.00  0.00     0.293 HD
ENDBRANCH  10  21
BRANCH  11  23
ATOM     23  O   UNL     1      11.280 -42.636  -7.165  1.00  0.00    -0.508 OA
ATOM     24  H   UNL     1      11.559 -42.674  -8.138  1.00  0.00     0.293 HD
ENDBRANCH  11  23
ENDBRANCH   1   2
BRANCH   1  25
ATOM     25  C   UNL     1      12.846 -36.134  -1.609  1.00  0.00     0.339 C 
ATOM     26  C   UNL     1      14.035 -35.483  -0.870  1.00  0.00     0.214 C 
ATOM     27  O   UNL     1      11.667 -35.356  -1.490  1.00  0.00    -0.332 OA
ATOM     28  C   UNL     1      14.223 -33.998  -1.258  1.00  0.00     0.180 C 
ATOM     29  C   UNL     1      11.814 -34.084  -2.098  1.00  0.00     0.179 C 
ATOM     30  C   UNL     1      12.874 -33.244  -1.343  1.00  0.00     0.177 C 
BRANCH  26  31
ATOM     31  O   UNL     1      13.879 -35.613   0.523  1.00  0.00    -0.384 OA
ATOM     32  H   UNL     1      13.852 -34.701   0.914  1.00  0.00     0.211 HD
ENDBRANCH  26  31
BRANCH  28  33
ATOM     33  O   UNL     1      14.969 -33.877  -2.447  1.00  0.00    -0.387 OA
ATOM     34  H   UNL     1      15.781 -34.436  -2.365  1.00  0.00     0.211 HD
ENDBRANCH  28  33
BRANCH  29  35
ATOM     35  C   UNL     1      10.440 -33.399  -2.076  1.00  0.00     0.191 C 
BRANCH  35  36
ATOM     36  O   UNL     1      10.381 -32.385  -3.041  1.00  0.00    -0.394 OA
ATOM     37  H   UNL     1      10.608 -31.542  -2.567  1.00  0.00     0.210 HD
ENDBRANCH  35  36
ENDBRANCH  29  35
BRANCH  30  38
ATOM     38  O   UNL     1      13.058 -32.008  -1.984  1.00  0.00    -0.387 OA
ATOM     39  H   UNL     1      12.893 -31.305  -1.301  1.00  0.00     0.211 HD
ENDBRANCH  30  38
ENDBRANCH   1  25
TORSDOF 11
ENDMDL
MODEL 5
REMARK VINA RESULT:    -6.542      2.657      4.078
REMARK INTER + INTRA:         -10.430
REMARK INTER:                  -9.164
REMARK INTRA:                  -1.266
REMARK UNBOUND:                -1.020
REMARK SMILES O=c1c(O[C@@H]2O[C@@H](CO)[C@H](O)[C@H](O)[C@H]2O)c(-c2ccc(O)cc2)oc2cc(O)cc(O)c12
REMARK SMILES IDX 4 1 3 2 16 3 24 4 2 5 25 6 1 7 32 8 26 9 30 10 27 11 29 12
REMARK SMILES IDX 17 13 18 14 19 15 20 16 23 17 22 18 21 19 31 21 28 23 5 25
REMARK SMILES IDX 14 26 6 27 12 28 7 29 10 30 15 31 13 33 8 35 9 36 11 38
REMARK H PARENT 21 20 31 22 28 24 15 32 13 34 9 37 11 39
REMARK Flexibility Score: inf
ROOT
ATOM      1  O   UNL     1      14.034 -36.405  -1.365  1.00  0.00    -0.454 OA
ENDROOT
BRANCH   1   2
ATOM      2  C   UNL     1      13.461 -37.123  -2.422  1.00  0.00     0.214 A 
ATOM      3  C   UNL     1      14.253 -37.798  -3.372  1.00  0.00     0.180 A 
ATOM      4  O   UNL     1      13.672 -38.375  -4.417  1.00  0.00    -0.452 OA
ATOM      5  C   UNL     1      12.069 -37.155  -2.551  1.00  0.00     0.239 A 
ATOM      6  C   UNL     1      12.356 -38.409  -4.595  1.00  0.00     0.146 A 
ATOM      7  O   UNL     1      11.376 -36.526  -1.708  1.00  0.00    -0.285 OA
ATOM      8  C   UNL     1      11.476 -37.840  -3.638  1.00  0.00     0.111 A 
ATOM      9  C   UNL     1      11.855 -39.019  -5.748  1.00  0.00     0.094 A 
ATOM     10  C   UNL     1      10.071 -37.955  -3.854  1.00  0.00     0.134 A 
ATOM     11  C   UNL     1      10.482 -39.074  -5.977  1.00  0.00     0.123 A 
ATOM     12  C   UNL     1       9.598 -38.542  -5.034  1.00  0.00     0.093 A 
BRANCH   3  13
ATOM     13  C   UNL     1      15.724 -37.891  -3.249  1.00  0.00     0.021 A 
ATOM     14  C   UNL     1      16.298 -38.980  -2.574  1.00  0.00     0.016 A 
ATOM     15  C   UNL     1      17.687 -39.080  -2.447  1.00  0.00     0.047 A 
ATOM     16  C   UNL     1      18.516 -38.085  -2.980  1.00  0.00     0.115 A 
ATOM     17  C   UNL     1      16.562 -36.882  -3.759  1.00  0.00     0.016 A 
ATOM     18  C   UNL     1      17.950 -36.986  -3.632  1.00  0.00     0.047 A 
BRANCH  16  19
ATOM     19  O   UNL     1      19.902 -38.177  -2.863  1.00  0.00    -0.508 OA
ATOM     20  H   UNL     1      20.380 -37.901  -2.013  1.00  0.00     0.293 HD
ENDBRANCH  16  19
ENDBRANCH   3  13
BRANCH  10  21
ATOM     21  O   UNL     1       9.103 -37.537  -2.935  1.00  0.00    -0.507 OA
ATOM     22  H   UNL     1       8.116 -37.467  -3.131  1.00  0.00     0.293 HD
ENDBRANCH  10  21
BRANCH  11  23
ATOM     23  O   UNL     1      10.004 -39.669  -7.143  1.00  0.00    -0.508 OA
ATOM     24  H   UNL     1      10.627 -39.952  -7.889  1.00  0.00     0.293 HD
ENDBRANCH  11  23
ENDBRANCH   1   2
BRANCH   1  25
ATOM     25  C   UNL     1      14.490 -35.054  -1.500  1.00  0.00     0.339 C 
ATOM     26  C   UNL     1      13.389 -34.055  -1.083  1.00  0.00     0.214 C 
ATOM     27  O   UNL     1      15.686 -34.848  -0.768  1.00  0.00    -0.332 OA
ATOM     28  C   UNL     1      13.186 -34.013   0.449  1.00  0.00     0.180 C 
ATOM     29  C   UNL     1      15.500 -35.077   0.618  1.00  0.00     0.179 C 
ATOM     30  C   UNL     1      14.531 -34.026   1.214  1.00  0.00     0.177 C 
BRANCH  26  31
ATOM     31  O   UNL     1      13.677 -32.770  -1.578  1.00  0.00    -0.384 OA
ATOM     32  H   UNL     1      13.028 -32.568  -2.301  1.00  0.00     0.211 HD
ENDBRANCH  26  31
BRANCH  28  33
ATOM     33  O   UNL     1      12.330 -35.048   0.874  1.00  0.00    -0.387 OA
ATOM     34  H   UNL     1      11.493 -34.998   0.348  1.00  0.00     0.211 HD
ENDBRANCH  28  33
BRANCH  29  35
ATOM     35  C   UNL     1      16.880 -35.007   1.289  1.00  0.00     0.191 C 
BRANCH  35  36
ATOM     36  O   UNL     1      17.885 -35.367   0.382  1.00  0.00    -0.394 OA
ATOM     37  H   UNL     1      18.322 -34.519   0.105  1.00  0.00     0.210 HD
ENDBRANCH  35  36
ENDBRANCH  29  35
BRANCH  30  38
ATOM     38  O   UNL     1      14.305 -34.292   2.574  1.00  0.00    -0.387 OA
ATOM     39  H   UNL     1      13.440 -33.863   2.809  1.00  0.00     0.211 HD
ENDBRANCH  30  38
ENDBRANCH   1  25
TORSDOF 11
ENDMDL
MODEL 6
REMARK VINA RESULT:    -6.486      1.579      2.238
REMARK INTER + INTRA:         -10.349
REMARK INTER:                  -8.879
REMARK INTRA:                  -1.471
REMARK UNBOUND:                -1.020
REMARK SMILES O=c1c(O[C@@H]2O[C@@H](CO)[C@H](O)[C@H](O)[C@H]2O)c(-c2ccc(O)cc2)oc2cc(O)cc(O)c12
REMARK SMILES IDX 4 1 3 2 16 3 24 4 2 5 25 6 1 7 32 8 26 9 30 10 27 11 29 12
REMARK SMILES IDX 17 13 18 14 19 15 20 16 23 17 22 18 21 19 31 21 28 23 5 25
REMARK SMILES IDX 14 26 6 27 12 28 7 29 10 30 15 31 13 33 8 35 9 36 11 38
REMARK H PARENT 21 20 31 22 28 24 15 32 13 34 9 37 11 39
REMARK Flexibility Score: inf
ROOT
ATOM      1  O   UNL     1      14.526 -36.684  -0.126  1.00  0.00    -0.454 OA
ENDROOT
BRANCH   1   2
ATOM      2  C   UNL     1      13.684 -36.370  -1.200  1.00  0.00     0.214 A 
ATOM      3  C   UNL     1      14.140 -36.406  -2.532  1.00  0.00     0.180 A 
ATOM      4  O   UNL     1      13.340 -35.999  -3.510  1.00  0.00    -0.452 OA
ATOM      5  C   UNL     1      12.362 -35.992  -0.944  1.00  0.00     0.239 A 
ATOM      6  C   UNL     1      12.086 -35.607  -3.313  1.00  0.00     0.146 A 
ATOM      7  O   UNL     1      11.976 -35.941   0.253  1.00  0.00    -0.285 OA
ATOM      8  C   UNL     1      11.511 -35.631  -2.015  1.00  0.00     0.111 A 
ATOM      9  C   UNL     1      11.344 -35.169  -4.412  1.00  0.00     0.094 A 
ATOM     10  C   UNL     1      10.143 -35.252  -1.871  1.00  0.00     0.134 A 
ATOM     11  C   UNL     1      10.027 -34.746  -4.251  1.00  0.00     0.123 A 
ATOM     12  C   UNL     1       9.434 -34.786  -2.986  1.00  0.00     0.093 A 
BRANCH   3  13
ATOM     13  C   UNL     1      15.492 -36.888  -2.889  1.00  0.00     0.021 A 
ATOM     14  C   UNL     1      15.768 -38.265  -2.870  1.00  0.00     0.016 A 
ATOM     15  C   UNL     1      17.042 -38.735  -3.202  1.00  0.00     0.047 A 
ATOM     16  C   UNL     1      18.059 -37.834  -3.542  1.00  0.00     0.115 A 
ATOM     17  C   UNL     1      16.525 -35.987  -3.207  1.00  0.00     0.016 A 
ATOM     18  C   UNL     1      17.798 -36.460  -3.541  1.00  0.00     0.047 A 
BRANCH  16  19
ATOM     19  O   UNL     1      19.331 -38.291  -3.879  1.00  0.00    -0.508 OA
ATOM     20  H   UNL     1      19.808 -38.989  -3.319  1.00  0.00     0.293 HD
ENDBRANCH  16  19
ENDBRANCH   3  13
BRANCH  10  21
ATOM     21  O   UNL     1       9.431 -35.339  -0.671  1.00  0.00    -0.507 OA
ATOM     22  H   UNL     1       9.646 -34.816   0.164  1.00  0.00     0.293 HD
ENDBRANCH  10  21
BRANCH  11  23
ATOM     23  O   UNL     1       9.309 -34.294  -5.356  1.00  0.00    -0.508 OA
ATOM     24  H   UNL     1       8.388 -33.883  -5.260  1.00  0.00     0.293 HD
ENDBRANCH  11  23
ENDBRANCH   1   2
BRANCH   1  25
ATOM     25  C   UNL     1      15.541 -35.792   0.352  1.00  0.00     0.339 C 
ATOM     26  C   UNL     1      15.287 -35.406   1.825  1.00  0.00     0.214 C 
ATOM     27  O   UNL     1      16.831 -36.352   0.173  1.00  0.00    -0.332 OA
ATOM     28  C   UNL     1      15.607 -36.564   2.798  1.00  0.00     0.180 C 
ATOM     29  C   UNL     1      16.982 -37.563   0.893  1.00  0.00     0.179 C 
ATOM     30  C   UNL     1      16.917 -37.297   2.418  1.00  0.00     0.177 C 
BRANCH  26  31
ATOM     31  O   UNL     1      16.025 -34.256   2.166  1.00  0.00    -0.384 OA
ATOM     32  H   UNL     1      16.771 -34.536   2.757  1.00  0.00     0.211 HD
ENDBRANCH  26  31
BRANCH  28  33
ATOM     33  O   UNL     1      14.519 -37.452   2.902  1.00  0.00    -0.387 OA
ATOM     34  H   UNL     1      13.921 -37.131   3.623  1.00  0.00     0.211 HD
ENDBRANCH  28  33
BRANCH  29  35
ATOM     35  C   UNL     1      18.333 -38.175   0.492  1.00  0.00     0.191 C 
BRANCH  35  36
ATOM     36  O   UNL     1      19.334 -37.789   1.393  1.00  0.00    -0.394 OA
ATOM     37  H   UNL     1      19.863 -37.086   0.931  1.00  0.00     0.210 HD
ENDBRANCH  35  36
ENDBRANCH  29  35
BRANCH  30  38
ATOM     38  O   UNL     1      17.009 -38.506   3.125  1.00  0.00    -0.387 OA
ATOM     39  H   UNL     1      17.236 -38.273   4.063  1.00  0.00     0.211 HD
ENDBRANCH  30  38
ENDBRANCH   1  25
TORSDOF 11
ENDMDL
MODEL 7
REMARK VINA RESULT:    -6.404      2.170      7.004
REMARK INTER + INTRA:         -10.231
REMARK INTER:                  -8.802
REMARK INTRA:                  -1.429
REMARK UNBOUND:                -1.020
REMARK SMILES O=c1c(O[C@@H]2O[C@@H](CO)[C@H](O)[C@H](O)[C@H]2O)c(-c2ccc(O)cc2)oc2cc(O)cc(O)c12
REMARK SMILES IDX 4 1 3 2 16 3 24 4 2 5 25 6 1 7 32 8 26 9 30 10 27 11 29 12
REMARK SMILES IDX 17 13 18 14 19 15 20 16 23 17 22 18 21 19 31 21 28 23 5 25
REMARK SMILES IDX 14 26 6 27 12 28 7 29 10 30 15 31 13 33 8 35 9 36 11 38
REMARK H PARENT 21 20 31 22 28 24 15 32 13 34 9 37 11 39
REMARK Flexibility Score: inf
ROOT
ATOM      1  O   UNL     1      13.304 -35.713  -1.805  1.00  0.00    -0.454 OA
ENDROOT
BRANCH   1   2
ATOM      2  C   UNL     1      14.426 -36.345  -1.255  1.00  0.00     0.214 A 
ATOM      3  C   UNL     1      14.840 -37.621  -1.686  1.00  0.00     0.180 A 
ATOM      4  O   UNL     1      15.843 -38.229  -1.064  1.00  0.00    -0.452 OA
ATOM      5  C   UNL     1      15.143 -35.705  -0.240  1.00  0.00     0.239 A 
ATOM      6  C   UNL     1      16.537 -37.671  -0.078  1.00  0.00     0.146 A 
ATOM      7  O   UNL     1      14.746 -34.576   0.151  1.00  0.00    -0.285 OA
ATOM      8  C   UNL     1      16.253 -36.349   0.355  1.00  0.00     0.111 A 
ATOM      9  C   UNL     1      17.554 -38.414   0.525  1.00  0.00     0.094 A 
ATOM     10  C   UNL     1      17.067 -35.781   1.380  1.00  0.00     0.134 A 
ATOM     11  C   UNL     1      18.304 -37.870   1.565  1.00  0.00     0.123 A 
ATOM     12  C   UNL     1      18.058 -36.561   1.988  1.00  0.00     0.093 A 
BRANCH   3  13
ATOM     13  C   UNL     1      14.193 -38.319  -2.818  1.00  0.00     0.021 A 
ATOM     14  C   UNL     1      13.591 -39.571  -2.612  1.00  0.00     0.016 A 
ATOM     15  C   UNL     1      12.979 -40.244  -3.674  1.00  0.00     0.047 A 
ATOM     16  C   UNL     1      12.975 -39.680  -4.957  1.00  0.00     0.115 A 
ATOM     17  C   UNL     1      14.208 -37.771  -4.114  1.00  0.00     0.016 A 
ATOM     18  C   UNL     1      13.593 -38.445  -5.174  1.00  0.00     0.047 A 
BRANCH  16  19
ATOM     19  O   UNL     1      12.364 -40.340  -6.021  1.00  0.00    -0.508 OA
ATOM     20  H   UNL     1      12.135 -41.326  -5.971  1.00  0.00     0.293 HD
ENDBRANCH  16  19
ENDBRANCH   3  13
BRANCH  10  21
ATOM     21  O   UNL     1      16.962 -34.456   1.814  1.00  0.00    -0.507 OA
ATOM     22  H   UNL     1      17.619 -33.998   2.428  1.00  0.00     0.293 HD
ENDBRANCH  10  21
BRANCH  11  23
ATOM     23  O   UNL     1      19.301 -38.635   2.167  1.00  0.00    -0.508 OA
ATOM     24  H   UNL     1      20.281 -38.492   1.953  1.00  0.00     0.293 HD
ENDBRANCH  11  23
ENDBRANCH   1   2
BRANCH   1  25
ATOM     25  C   UNL     1      11.963 -36.030  -1.413  1.00  0.00     0.339 C 
ATOM     26  C   UNL     1      11.465 -35.063  -0.317  1.00  0.00     0.214 C 
ATOM     27  O   UNL     1      11.097 -36.039  -2.535  1.00  0.00    -0.332 OA
ATOM     28  C   UNL     1      11.150 -33.656  -0.875  1.00  0.00     0.180 C 
ATOM     29  C   UNL     1      11.046 -34.772  -3.169  1.00  0.00     0.179 C 
ATOM     30  C   UNL     1      10.402 -33.723  -2.229  1.00  0.00     0.177 C 
BRANCH  26  31
ATOM     31  O   UNL     1      10.339 -35.599   0.336  1.00  0.00    -0.384 OA
ATOM     32  H   UNL     1      10.591 -35.783   1.279  1.00  0.00     0.211 HD
ENDBRANCH  26  31
BRANCH  28  33
ATOM     33  O   UNL     1      12.317 -32.872  -0.958  1.00  0.00    -0.387 OA
ATOM     34  H   UNL     1      12.106 -31.961  -0.635  1.00  0.00     0.211 HD
ENDBRANCH  28  33
BRANCH  29  35
ATOM     35  C   UNL     1      10.233 -34.934  -4.462  1.00  0.00     0.191 C 
BRANCH  35  36
ATOM     36  O   UNL     1       8.876 -34.680  -4.225  1.00  0.00    -0.394 OA
ATOM     37  H   UNL     1       8.792 -33.694  -4.140  1.00  0.00     0.210 HD
ENDBRANCH  35  36
ENDBRANCH  29  35
BRANCH  30  38
ATOM     38  O   UNL     1      10.407 -32.458  -2.839  1.00  0.00    -0.387 OA
ATOM     39  H   UNL     1      10.394 -31.787  -2.107  1.00  0.00     0.211 HD
ENDBRANCH  30  38
ENDBRANCH   1  25
TORSDOF 11
ENDMDL
MODEL 8
REMARK VINA RESULT:    -6.396      2.701      7.680
REMARK INTER + INTRA:         -10.220
REMARK INTER:                  -9.042
REMARK INTRA:                  -1.178
REMARK UNBOUND:                -1.020
REMARK SMILES O=c1c(O[C@@H]2O[C@@H](CO)[C@H](O)[C@H](O)[C@H]2O)c(-c2ccc(O)cc2)oc2cc(O)cc(O)c12
REMARK SMILES IDX 4 1 3 2 16 3 24 4 2 5 25 6 1 7 32 8 26 9 30 10 27 11 29 12
REMARK SMILES IDX 17 13 18 14 19 15 20 16 23 17 22 18 21 19 31 21 28 23 5 25
REMARK SMILES IDX 14 26 6 27 12 28 7 29 10 30 15 31 13 33 8 35 9 36 11 38
REMARK H PARENT 21 20 31 22 28 24 15 32 13 34 9 37 11 39
REMARK Flexibility Score: inf
ROOT
ATOM      1  O   UNL     1      14.007 -37.586  -2.844  1.00  0.00    -0.454 OA
ENDROOT
BRANCH   1   2
ATOM      2  C   UNL     1      14.728 -37.144  -1.728  1.00  0.00     0.214 A 
ATOM      3  C   UNL     1      14.487 -35.885  -1.143  1.00  0.00     0.180 A 
ATOM      4  O   UNL     1      15.265 -35.463  -0.154  1.00  0.00    -0.452 OA
ATOM      5  C   UNL     1      15.726 -37.964  -1.191  1.00  0.00     0.239 A 
ATOM      6  C   UNL     1      16.241 -36.195   0.372  1.00  0.00     0.146 A 
ATOM      7  O   UNL     1      15.946 -39.075  -1.740  1.00  0.00    -0.285 OA
ATOM      8  C   UNL     1      16.492 -37.514  -0.089  1.00  0.00     0.111 A 
ATOM      9  C   UNL     1      17.018 -35.638   1.391  1.00  0.00     0.094 A 
ATOM     10  C   UNL     1      17.516 -38.274   0.550  1.00  0.00     0.134 A 
ATOM     11  C   UNL     1      18.054 -36.368   1.968  1.00  0.00     0.123 A 
ATOM     12  C   UNL     1      18.300 -37.678   1.546  1.00  0.00     0.093 A 
BRANCH   3  13
ATOM     13  C   UNL     1      13.387 -35.005  -1.593  1.00  0.00     0.021 A 
ATOM     14  C   UNL     1      13.506 -34.305  -2.803  1.00  0.00     0.016 A 
ATOM     15  C   UNL     1      12.475 -33.466  -3.240  1.00  0.00     0.047 A 
ATOM     16  C   UNL     1      11.320 -33.308  -2.463  1.00  0.00     0.115 A 
ATOM     17  C   UNL     1      12.235 -34.821  -0.806  1.00  0.00     0.016 A 
ATOM     18  C   UNL     1      11.205 -33.984  -1.245  1.00  0.00     0.047 A 
BRANCH  16  19
ATOM     19  O   UNL     1      10.285 -32.479  -2.890  1.00  0.00    -0.508 OA
ATOM     20  H   UNL     1       9.527 -32.831  -3.462  1.00  0.00     0.293 HD
ENDBRANCH  16  19
ENDBRANCH   3  13
BRANCH  10  21
ATOM     21  O   UNL     1      17.784 -39.617   0.265  1.00  0.00    -0.507 OA
ATOM     22  H   UNL     1      17.888 -39.998  -0.663  1.00  0.00     0.293 HD
ENDBRANCH  10  21
BRANCH  11  23
ATOM     23  O   UNL     1      18.830 -35.788   2.969  1.00  0.00    -0.508 OA
ATOM     24  H   UNL     1      19.137 -34.824   2.910  1.00  0.00     0.293 HD
ENDBRANCH  11  23
ENDBRANCH   1   2
BRANCH   1  25
ATOM     25  C   UNL     1      12.614 -37.916  -2.789  1.00  0.00     0.339 C 
ATOM     26  C   UNL     1      11.916 -37.590  -4.127  1.00  0.00     0.214 C 
ATOM     27  O   UNL     1      12.430 -39.272  -2.421  1.00  0.00    -0.332 OA
ATOM     28  C   UNL     1      12.285 -38.597  -5.241  1.00  0.00     0.180 C 
ATOM     29  C   UNL     1      13.021 -40.156  -3.358  1.00  0.00     0.179 C 
ATOM     30  C   UNL     1      12.297 -40.056  -4.724  1.00  0.00     0.177 C 
BRANCH  26  31
ATOM     31  O   UNL     1      10.520 -37.536  -3.953  1.00  0.00    -0.384 OA
ATOM     32  H   UNL     1      10.146 -38.420  -4.205  1.00  0.00     0.211 HD
ENDBRANCH  26  31
BRANCH  28  33
ATOM     33  O   UNL     1      13.503 -38.247  -5.856  1.00  0.00    -0.387 OA
ATOM     34  H   UNL     1      13.838 -37.416  -5.434  1.00  0.00     0.211 HD
ENDBRANCH  28  33
BRANCH  29  35
ATOM     35  C   UNL     1      12.926 -41.576  -2.780  1.00  0.00     0.191 C 
BRANCH  35  36
ATOM     36  O   UNL     1      14.068 -42.317  -3.108  1.00  0.00    -0.394 OA
ATOM     37  H   UNL     1      14.605 -42.378  -2.275  1.00  0.00     0.210 HD
ENDBRANCH  35  36
ENDBRANCH  29  35
BRANCH  30  38
ATOM     38  O   UNL     1      12.922 -40.890  -5.666  1.00  0.00    -0.387 OA
ATOM     39  H   UNL     1      12.665 -41.822  -5.438  1.00  0.00     0.211 HD
ENDBRANCH  30  38
ENDBRANCH   1  25
TORSDOF 11
ENDMDL
MODEL 9
REMARK VINA RESULT:    -6.308      2.456      5.236
REMARK INTER + INTRA:         -10.094
REMARK INTER:                  -8.756
REMARK INTRA:                  -1.337
REMARK UNBOUND:                -1.020
REMARK SMILES O=c1c(O[C@@H]2O[C@@H](CO)[C@H](O)[C@H](O)[C@H]2O)c(-c2ccc(O)cc2)oc2cc(O)cc(O)c12
REMARK SMILES IDX 4 1 3 2 16 3 24 4 2 5 25 6 1 7 32 8 26 9 30 10 27 11 29 12
REMARK SMILES IDX 17 13 18 14 19 15 20 16 23 17 22 18 21 19 31 21 28 23 5 25
REMARK SMILES IDX 14 26 6 27 12 28 7 29 10 30 15 31 13 33 8 35 9 36 11 38
REMARK H PARENT 21 20 31 22 28 24 15 32 13 34 9 37 11 39
REMARK Flexibility Score: inf
ROOT
ATOM      1  O   UNL     1      14.845 -36.994  -0.164  1.00  0.00    -0.454 OA
ENDROOT
BRANCH   1   2
ATOM      2  C   UNL     1      13.847 -36.902  -1.142  1.00  0.00     0.214 A 
ATOM      3  C   UNL     1      12.930 -35.832  -1.163  1.00  0.00     0.180 A 
ATOM      4  O   UNL     1      11.935 -35.840  -2.042  1.00  0.00    -0.452 OA
ATOM      5  C   UNL     1      13.744 -37.905  -2.110  1.00  0.00     0.239 A 
ATOM      6  C   UNL     1      11.781 -36.785  -2.963  1.00  0.00     0.146 A 
ATOM      7  O   UNL     1      14.555 -38.867  -2.062  1.00  0.00    -0.285 OA
ATOM      8  C   UNL     1      12.714 -37.848  -3.079  1.00  0.00     0.111 A 
ATOM      9  C   UNL     1      10.679 -36.709  -3.819  1.00  0.00     0.094 A 
ATOM     10  C   UNL     1      12.530 -38.803  -4.123  1.00  0.00     0.134 A 
ATOM     11  C   UNL     1      10.477 -37.679  -4.797  1.00  0.00     0.123 A 
ATOM     12  C   UNL     1      11.398 -38.720  -4.944  1.00  0.00     0.093 A 
BRANCH   3  13
ATOM     13  C   UNL     1      13.034 -34.686  -0.234  1.00  0.00     0.021 A 
ATOM     14  C   UNL     1      13.693 -33.516  -0.645  1.00  0.00     0.016 A 
ATOM     15  C   UNL     1      13.802 -32.425   0.223  1.00  0.00     0.047 A 
ATOM     16  C   UNL     1      13.267 -32.497   1.516  1.00  0.00     0.115 A 
ATOM     17  C   UNL     1      12.522 -34.760   1.074  1.00  0.00     0.016 A 
ATOM     18  C   UNL     1      12.631 -33.667   1.939  1.00  0.00     0.047 A 
BRANCH  16  19
ATOM     19  O   UNL     1      13.367 -31.415   2.388  1.00  0.00    -0.508 OA
ATOM     20  H   UNL     1      13.243 -30.462   2.064  1.00  0.00     0.293 HD
ENDBRANCH  16  19
ENDBRANCH   3  13
BRANCH  10  21
ATOM     21  O   UNL     1      13.436 -39.829  -4.411  1.00  0.00    -0.507 OA
ATOM     22  H   UNL     1      14.325 -39.699  -4.869  1.00  0.00     0.293 HD
ENDBRANCH  10  21
BRANCH  11  23
ATOM     23  O   UNL     1       9.362 -37.597  -5.627  1.00  0.00    -0.508 OA
ATOM     24  H   UNL     1       9.132 -36.744  -6.124  1.00  0.00     0.293 HD
ENDBRANCH  11  23
ENDBRANCH   1   2
BRANCH   1  25
ATOM     25  C   UNL     1      16.066 -36.248  -0.227  1.00  0.00     0.339 C 
ATOM     26  C   UNL     1      16.570 -35.892   1.188  1.00  0.00     0.214 C 
ATOM     27  O   UNL     1      17.049 -36.949  -0.971  1.00  0.00    -0.332 OA
ATOM     28  C   UNL     1      17.158 -37.118   1.926  1.00  0.00     0.180 C 
ATOM     29  C   UNL     1      17.365 -38.197  -0.379  1.00  0.00     0.179 C 
ATOM     30  C   UNL     1      18.043 -37.985   0.998  1.00  0.00     0.177 C 
BRANCH  26  31
ATOM     31  O   UNL     1      17.517 -34.853   1.126  1.00  0.00    -0.384 OA
ATOM     32  H   UNL     1      17.057 -34.040   0.792  1.00  0.00     0.211 HD
ENDBRANCH  26  31
BRANCH  28  33
ATOM     33  O   UNL     1      16.141 -37.875   2.539  1.00  0.00    -0.387 OA
ATOM     34  H   UNL     1      16.055 -37.579   3.480  1.00  0.00     0.211 HD
ENDBRANCH  28  33
BRANCH  29  35
ATOM     35  C   UNL     1      18.292 -38.948  -1.347  1.00  0.00     0.191 C 
BRANCH  35  36
ATOM     36  O   UNL     1      17.554 -39.499  -2.403  1.00  0.00    -0.394 OA
ATOM     37  H   UNL     1      17.649 -40.484  -2.319  1.00  0.00     0.210 HD
ENDBRANCH  35  36
ENDBRANCH  29  35
BRANCH  30  38
ATOM     38  O   UNL     1      18.302 -39.224   1.606  1.00  0.00    -0.387 OA
ATOM     39  H   UNL     1      17.424 -39.592   1.890  1.00  0.00     0.211 HD
ENDBRANCH  30  38
ENDBRANCH   1  25
TORSDOF 11
ENDMDL
