MODEL 1
REMARK VINA RESULT:    -9.011      0.000      0.000
REMARK INTER + INTRA:         -11.166
REMARK INTER:                 -10.854
REMARK INTRA:                  -0.312
REMARK UNBOUND:                -0.312
REMARK SMILES O=c1c(O)c(-c2ccc(O)c(O)c2)oc2cc(O)cc(O)c12
REMARK SMILES IDX 5 1 3 2 2 3 1 4 22 5 20 6 19 7 17 8 16 9 15 10 14 11 6 12
REMARK SMILES IDX 7 13 8 14 9 15 13 16 11 17 10 18 12 20 4 22 21 24 18 26
REMARK H PARENT 10 19 12 21 4 23 21 25 18 27
REMARK Flexibility Score: inf
ROOT
ATOM      1  C   UNL     1      -1.526  16.560  13.955  1.00  0.00     0.180 A 
ATOM      2  C   UNL     1      -1.251  16.598  15.333  1.00  0.00     0.208 A 
ATOM      3  C   UNL     1       0.025  16.999  15.761  1.00  0.00     0.238 A 
ATOM      4  O   UNL     1       0.283  16.979  16.993  1.00  0.00    -0.285 OA
ATOM      5  C   UNL     1       1.003  17.372  14.808  1.00  0.00     0.111 A 
ATOM      6  C   UNL     1       2.315  17.831  15.131  1.00  0.00     0.134 A 
ATOM      7  C   UNL     1       3.243  18.048  14.105  1.00  0.00     0.093 A 
ATOM      8  C   UNL     1       2.886  17.883  12.764  1.00  0.00     0.123 A 
ATOM      9  C   UNL     1       1.590  17.492  12.437  1.00  0.00     0.094 A 
ATOM     10  C   UNL     1       0.653  17.234  13.440  1.00  0.00     0.146 A 
ATOM     11  O   UNL     1      -0.568  16.853  13.084  1.00  0.00    -0.452 OA
ENDROOT
BRANCH   1  12
ATOM     12  C   UNL     1      -2.855  16.173  13.428  1.00  0.00     0.025 A 
ATOM     13  C   UNL     1      -3.150  14.815  13.229  1.00  0.00     0.016 A 
ATOM     14  C   UNL     1      -4.390  14.429  12.713  1.00  0.00     0.051 A 
ATOM     15  C   UNL     1      -5.347  15.390  12.376  1.00  0.00     0.157 A 
ATOM     16  C   UNL     1      -3.810  17.141  13.068  1.00  0.00     0.062 A 
ATOM     17  C   UNL     1      -5.055  16.754  12.549  1.00  0.00     0.158 A 
BRANCH  15  18
ATOM     18  O   UNL     1      -6.576  14.974  11.865  1.00  0.00    -0.504 OA
ATOM     19  H   UNL     1      -7.434  15.481  12.049  1.00  0.00     0.293 HD
ENDBRANCH  15  18
BRANCH  17  20
ATOM     20  O   UNL     1      -5.999  17.720  12.200  1.00  0.00    -0.504 OA
ATOM     21  H   UNL     1      -6.348  17.803  11.252  1.00  0.00     0.293 HD
ENDBRANCH  17  20
ENDBRANCH   1  12
BRANCH   2  22
ATOM     22  O   UNL     1      -2.224  16.206  16.256  1.00  0.00    -0.502 OA
ATOM     23  H   UNL     1      -2.021  15.588  17.031  1.00  0.00     0.293 HD
ENDBRANCH   2  22
BRANCH   6  24
ATOM     24  O   UNL     1       2.745  18.116  16.431  1.00  0.00    -0.507 OA
ATOM     25  H   UNL     1       2.368  17.693  17.266  1.00  0.00     0.293 HD
ENDBRANCH   6  24
BRANCH   8  26
ATOM     26  O   UNL     1       3.812  18.116  11.749  1.00  0.00    -0.508 OA
ATOM     27  H   UNL     1       3.876  17.509  10.940  1.00  0.00     0.293 HD
ENDBRANCH   8  26
TORSDOF 6
ENDMDL
MODEL 2
REMARK VINA RESULT:    -8.887      1.815      7.194
REMARK INTER + INTRA:         -11.018
REMARK INTER:                 -10.683
REMARK INTRA:                  -0.335
REMARK UNBOUND:                -0.312
REMARK SMILES O=c1c(O)c(-c2ccc(O)c(O)c2)oc2cc(O)cc(O)c12
REMARK SMILES IDX 5 1 3 2 2 3 1 4 22 5 20 6 19 7 17 8 16 9 15 10 14 11 6 12
REMARK SMILES IDX 7 13 8 14 9 15 13 16 11 17 10 18 12 20 4 22 21 24 18 26
REMARK H PARENT 10 19 12 21 4 23 21 25 18 27
REMARK Flexibility Score: inf
ROOT
ATOM      1  C   UNL     1      -2.684  15.680  14.127  1.00  0.00     0.180 A 
ATOM      2  C   UNL     1      -3.054  14.328  14.228  1.00  0.00     0.208 A 
ATOM      3  C   UNL     1      -4.230  13.896  13.592  1.00  0.00     0.238 A 
ATOM      4  O   UNL     1      -4.586  12.696  13.731  1.00  0.00    -0.285 OA
ATOM      5  C   UNL     1      -5.010  14.816  12.851  1.00  0.00     0.111 A 
ATOM      6  C   UNL     1      -6.197  14.479  12.134  1.00  0.00     0.134 A 
ATOM      7  C   UNL     1      -6.959  15.494  11.544  1.00  0.00     0.093 A 
ATOM      8  C   UNL     1      -6.541  16.827  11.590  1.00  0.00     0.123 A 
ATOM      9  C   UNL     1      -5.353  17.158  12.236  1.00  0.00     0.094 A 
ATOM     10  C   UNL     1      -4.590  16.171  12.866  1.00  0.00     0.146 A 
ATOM     11  O   UNL     1      -3.470  16.532  13.479  1.00  0.00    -0.452 OA
ENDROOT
BRANCH   1  12
ATOM     12  C   UNL     1      -1.446  16.205  14.748  1.00  0.00     0.025 A 
ATOM     13  C   UNL     1      -1.503  16.764  16.035  1.00  0.00     0.016 A 
ATOM     14  C   UNL     1      -0.351  17.284  16.631  1.00  0.00     0.051 A 
ATOM     15  C   UNL     1       0.869  17.268  15.948  1.00  0.00     0.157 A 
ATOM     16  C   UNL     1      -0.223  16.209  14.053  1.00  0.00     0.062 A 
ATOM     17  C   UNL     1       0.934  16.732  14.651  1.00  0.00     0.158 A 
BRANCH  15  18
ATOM     18  O   UNL     1       2.002  17.792  16.570  1.00  0.00    -0.504 OA
ATOM     19  H   UNL     1       1.939  18.492  17.300  1.00  0.00     0.293 HD
ENDBRANCH  15  18
BRANCH  17  20
ATOM     20  O   UNL     1       2.144  16.727  13.958  1.00  0.00    -0.504 OA
ATOM     21  H   UNL     1       2.427  15.936  13.391  1.00  0.00     0.293 HD
ENDBRANCH  17  20
ENDBRANCH   1  12
BRANCH   2  22
ATOM     22  O   UNL     1      -2.282  13.441  14.983  1.00  0.00    -0.502 OA
ATOM     23  H   UNL     1      -1.596  13.755  15.657  1.00  0.00     0.293 HD
ENDBRANCH   2  22
BRANCH   6  24
ATOM     24  O   UNL     1      -6.652  13.169  11.949  1.00  0.00    -0.507 OA
ATOM     25  H   UNL     1      -7.610  12.916  11.760  1.00  0.00     0.293 HD
ENDBRANCH   6  24
BRANCH   8  26
ATOM     26  O   UNL     1      -7.298  17.830  10.986  1.00  0.00    -0.508 OA
ATOM     27  H   UNL     1      -7.978  18.369  11.509  1.00  0.00     0.293 HD
ENDBRANCH   8  26
TORSDOF 6
ENDMDL
MODEL 3
REMARK VINA RESULT:    -8.136      1.790      7.209
REMARK INTER + INTRA:         -10.113
REMARK INTER:                 -10.093
REMARK INTRA:                  -0.020
REMARK UNBOUND:                -0.312
REMARK SMILES O=c1c(O)c(-c2ccc(O)c(O)c2)oc2cc(O)cc(O)c12
REMARK SMILES IDX 5 1 3 2 2 3 1 4 22 5 20 6 19 7 17 8 16 9 15 10 14 11 6 12
REMARK SMILES IDX 7 13 8 14 9 15 13 16 11 17 10 18 12 20 4 22 21 24 18 26
REMARK H PARENT 10 19 12 21 4 23 21 25 18 27
REMARK Flexibility Score: inf
ROOT
ATOM      1  C   UNL     1      -1.069  16.394  13.808  1.00  0.00     0.180 A 
ATOM      2  C   UNL     1      -1.243  16.980  12.542  1.00  0.00     0.208 A 
ATOM      3  C   UNL     1      -2.328  16.574  11.748  1.00  0.00     0.238 A 
ATOM      4  O   UNL     1      -2.447  17.062  10.594  1.00  0.00    -0.285 OA
ATOM      5  C   UNL     1      -3.234  15.602  12.237  1.00  0.00     0.111 A 
ATOM      6  C   UNL     1      -4.390  15.147  11.534  1.00  0.00     0.134 A 
ATOM      7  C   UNL     1      -5.143  14.089  12.056  1.00  0.00     0.093 A 
ATOM      8  C   UNL     1      -4.818  13.512  13.287  1.00  0.00     0.123 A 
ATOM      9  C   UNL     1      -3.727  13.990  14.008  1.00  0.00     0.094 A 
ATOM     10  C   UNL     1      -2.935  15.021  13.496  1.00  0.00     0.146 A 
ATOM     11  O   UNL     1      -1.898  15.439  14.211  1.00  0.00    -0.452 OA
ENDROOT
BRANCH   1  12
ATOM     12  C   UNL     1       0.036  16.788  14.713  1.00  0.00     0.025 A 
ATOM     13  C   UNL     1      -0.261  17.234  16.010  1.00  0.00     0.016 A 
ATOM     14  C   UNL     1       0.765  17.630  16.873  1.00  0.00     0.051 A 
ATOM     15  C   UNL     1       2.097  17.600  16.451  1.00  0.00     0.157 A 
ATOM     16  C   UNL     1       1.375  16.778  14.281  1.00  0.00     0.062 A 
ATOM     17  C   UNL     1       2.404  17.176  15.147  1.00  0.00     0.158 A 
BRANCH  15  18
ATOM     18  O   UNL     1       3.099  17.999  17.336  1.00  0.00    -0.504 OA
ATOM     19  H   UNL     1       2.919  18.145  18.321  1.00  0.00     0.293 HD
ENDBRANCH  15  18
BRANCH  17  20
ATOM     20  O   UNL     1       3.730  17.158  14.713  1.00  0.00    -0.504 OA
ATOM     21  H   UNL     1       4.219  18.010  14.465  1.00  0.00     0.293 HD
ENDBRANCH  17  20
ENDBRANCH   1  12
BRANCH   2  22
ATOM     22  O   UNL     1      -0.324  17.922  12.070  1.00  0.00    -0.502 OA
ATOM     23  H   UNL     1       0.644  17.931  12.363  1.00  0.00     0.293 HD
ENDBRANCH   2  22
BRANCH   6  24
ATOM     24  O   UNL     1      -4.854  15.716  10.343  1.00  0.00    -0.507 OA
ATOM     25  H   UNL     1      -5.589  15.328   9.770  1.00  0.00     0.293 HD
ENDBRANCH   6  24
BRANCH   8  26
ATOM     26  O   UNL     1      -5.582  12.469  13.806  1.00  0.00    -0.508 OA
ATOM     27  H   UNL     1      -6.549  12.604  14.079  1.00  0.00     0.293 HD
ENDBRANCH   8  26
TORSDOF 6
ENDMDL
MODEL 4
REMARK VINA RESULT:    -8.020      1.531      3.393
REMARK INTER + INTRA:          -9.973
REMARK INTER:                 -10.020
REMARK INTRA:                   0.047
REMARK UNBOUND:                -0.312
REMARK SMILES O=c1c(O)c(-c2ccc(O)c(O)c2)oc2cc(O)cc(O)c12
REMARK SMILES IDX 5 1 3 2 2 3 1 4 22 5 20 6 19 7 17 8 16 9 15 10 14 11 6 12
REMARK SMILES IDX 7 13 8 14 9 15 13 16 11 17 10 18 12 20 4 22 21 24 18 26
REMARK H PARENT 10 19 12 21 4 23 21 25 18 27
REMARK Flexibility Score: inf
ROOT
ATOM      1  C   UNL     1      -1.247  17.292  12.199  1.00  0.00     0.180 A 
ATOM      2  C   UNL     1      -0.428  17.540  11.084  1.00  0.00     0.208 A 
ATOM      3  C   UNL     1       0.935  17.806  11.287  1.00  0.00     0.238 A 
ATOM      4  O   UNL     1       1.652  18.081  10.290  1.00  0.00    -0.285 OA
ATOM      5  C   UNL     1       1.466  17.803  12.600  1.00  0.00     0.111 A 
ATOM      6  C   UNL     1       2.840  18.020  12.918  1.00  0.00     0.134 A 
ATOM      7  C   UNL     1       3.230  18.125  14.259  1.00  0.00     0.093 A 
ATOM      8  C   UNL     1       2.305  17.956  15.293  1.00  0.00     0.123 A 
ATOM      9  C   UNL     1       0.973  17.685  14.992  1.00  0.00     0.094 A 
ATOM     10  C   UNL     1       0.547  17.610  13.663  1.00  0.00     0.146 A 
ATOM     11  O   UNL     1      -0.734  17.360  13.421  1.00  0.00    -0.452 OA
ENDROOT
BRANCH   1  12
ATOM     12  C   UNL     1      -2.689  16.979  12.063  1.00  0.00     0.025 A 
ATOM     13  C   UNL     1      -3.608  17.566  12.947  1.00  0.00     0.016 A 
ATOM     14  C   UNL     1      -4.970  17.269  12.850  1.00  0.00     0.051 A 
ATOM     15  C   UNL     1      -5.432  16.372  11.882  1.00  0.00     0.157 A 
ATOM     16  C   UNL     1      -3.152  16.060  11.104  1.00  0.00     0.062 A 
ATOM     17  C   UNL     1      -4.519  15.761  11.007  1.00  0.00     0.158 A 
BRANCH  15  18
ATOM     18  O   UNL     1      -6.798  16.097  11.808  1.00  0.00    -0.504 OA
ATOM     19  H   UNL     1      -7.427  16.289  12.578  1.00  0.00     0.293 HD
ENDBRANCH  15  18
BRANCH  17  20
ATOM     20  O   UNL     1      -4.971  14.854  10.049  1.00  0.00    -0.504 OA
ATOM     21  H   UNL     1      -5.677  15.109   9.368  1.00  0.00     0.293 HD
ENDBRANCH  17  20
ENDBRANCH   1  12
BRANCH   2  22
ATOM     22  O   UNL     1      -0.977  17.559   9.799  1.00  0.00    -0.502 OA
ATOM     23  H   UNL     1      -1.719  16.933   9.515  1.00  0.00     0.293 HD
ENDBRANCH   2  22
BRANCH   6  24
ATOM     24  O   UNL     1       3.858  18.111  11.964  1.00  0.00    -0.507 OA
ATOM     25  H   UNL     1       4.222  18.975  11.592  1.00  0.00     0.293 HD
ENDBRANCH   6  24
BRANCH   8  26
ATOM     26  O   UNL     1       2.705  18.047  16.625  1.00  0.00    -0.508 OA
ATOM     27  H   UNL     1       2.238  17.523  17.356  1.00  0.00     0.293 HD
ENDBRANCH   8  26
TORSDOF 6
ENDMDL
MODEL 5
REMARK VINA RESULT:    -7.581     12.367     16.537
REMARK INTER + INTRA:          -9.444
REMARK INTER:                  -9.425
REMARK INTRA:                  -0.019
REMARK UNBOUND:                -0.312
REMARK SMILES O=c1c(O)c(-c2ccc(O)c(O)c2)oc2cc(O)cc(O)c12
REMARK SMILES IDX 5 1 3 2 2 3 1 4 22 5 20 6 19 7 17 8 16 9 15 10 14 11 6 12
REMARK SMILES IDX 7 13 8 14 9 15 13 16 11 17 10 18 12 20 4 22 21 24 18 26
REMARK H PARENT 10 19 12 21 4 23 21 25 18 27
REMARK Flexibility Score: inf
ROOT
ATOM      1  C   UNL     1      -7.762   3.395  12.717  1.00  0.00     0.180 A 
ATOM      2  C   UNL     1      -6.992   2.221  12.655  1.00  0.00     0.208 A 
ATOM      3  C   UNL     1      -7.297   1.258  11.679  1.00  0.00     0.238 A 
ATOM      4  O   UNL     1      -6.640   0.184  11.664  1.00  0.00    -0.285 OA
ATOM      5  C   UNL     1      -8.356   1.488  10.768  1.00  0.00     0.111 A 
ATOM      6  C   UNL     1      -8.727   0.599   9.716  1.00  0.00     0.134 A 
ATOM      7  C   UNL     1      -9.873   0.866   8.957  1.00  0.00     0.093 A 
ATOM      8  C   UNL     1     -10.625   2.025   9.172  1.00  0.00     0.123 A 
ATOM      9  C   UNL     1     -10.236   2.928  10.158  1.00  0.00     0.094 A 
ATOM     10  C   UNL     1      -9.118   2.670  10.955  1.00  0.00     0.146 A 
ATOM     11  O   UNL     1      -8.790   3.552  11.891  1.00  0.00    -0.452 OA
ENDROOT
BRANCH   1  12
ATOM     12  C   UNL     1      -7.485   4.467  13.700  1.00  0.00     0.025 A 
ATOM     13  C   UNL     1      -6.188   4.995  13.798  1.00  0.00     0.016 A 
ATOM     14  C   UNL     1      -5.900   5.993  14.733  1.00  0.00     0.051 A 
ATOM     15  C   UNL     1      -6.896   6.468  15.592  1.00  0.00     0.157 A 
ATOM     16  C   UNL     1      -8.481   4.930  14.579  1.00  0.00     0.062 A 
ATOM     17  C   UNL     1      -8.193   5.931  15.518  1.00  0.00     0.158 A 
BRANCH  15  18
ATOM     18  O   UNL     1      -6.579   7.466  16.513  1.00  0.00    -0.504 OA
ATOM     19  H   UNL     1      -5.626   7.776  16.663  1.00  0.00     0.293 HD
ENDBRANCH  15  18
BRANCH  17  20
ATOM     20  O   UNL     1      -9.187   6.389  16.382  1.00  0.00    -0.504 OA
ATOM     21  H   UNL     1      -9.743   7.208  16.163  1.00  0.00     0.293 HD
ENDBRANCH  17  20
ENDBRANCH   1  12
BRANCH   2  22
ATOM     22  O   UNL     1      -5.965   2.004  13.577  1.00  0.00    -0.502 OA
ATOM     23  H   UNL     1      -6.127   1.581  14.482  1.00  0.00     0.293 HD
ENDBRANCH   2  22
BRANCH   6  24
ATOM     24  O   UNL     1      -7.993  -0.537   9.357  1.00  0.00    -0.507 OA
ATOM     25  H   UNL     1      -8.059  -1.006   8.466  1.00  0.00     0.293 HD
ENDBRANCH   6  24
BRANCH   8  26
ATOM     26  O   UNL     1     -11.756   2.291   8.402  1.00  0.00    -0.508 OA
ATOM     27  H   UNL     1     -12.553   2.786   8.784  1.00  0.00     0.293 HD
ENDBRANCH   8  26
TORSDOF 6
ENDMDL
MODEL 6
REMARK VINA RESULT:    -7.277     12.121     16.087
REMARK INTER + INTRA:          -9.079
REMARK INTER:                  -8.847
REMARK INTRA:                  -0.231
REMARK UNBOUND:                -0.312
REMARK SMILES O=c1c(O)c(-c2ccc(O)c(O)c2)oc2cc(O)cc(O)c12
REMARK SMILES IDX 5 1 3 2 2 3 1 4 22 5 20 6 19 7 17 8 16 9 15 10 14 11 6 12
REMARK SMILES IDX 7 13 8 14 9 15 13 16 11 17 10 18 12 20 4 22 21 24 18 26
REMARK H PARENT 10 19 12 21 4 23 21 25 18 27
REMARK Flexibility Score: inf
ROOT
ATOM      1  C   UNL     1      -8.231   3.842  12.769  1.00  0.00     0.180 A 
ATOM      2  C   UNL     1      -8.552   2.497  13.023  1.00  0.00     0.208 A 
ATOM      3  C   UNL     1      -8.916   1.670  11.948  1.00  0.00     0.238 A 
ATOM      4  O   UNL     1      -9.255   0.482  12.188  1.00  0.00    -0.285 OA
ATOM      5  C   UNL     1      -8.938   2.193  10.632  1.00  0.00     0.111 A 
ATOM      6  C   UNL     1      -9.252   1.435   9.465  1.00  0.00     0.134 A 
ATOM      7  C   UNL     1      -9.370   2.084   8.230  1.00  0.00     0.093 A 
ATOM      8  C   UNL     1      -9.121   3.454   8.111  1.00  0.00     0.123 A 
ATOM      9  C   UNL     1      -8.756   4.191   9.235  1.00  0.00     0.094 A 
ATOM     10  C   UNL     1      -8.665   3.577  10.486  1.00  0.00     0.146 A 
ATOM     11  O   UNL     1      -8.324   4.319  11.533  1.00  0.00    -0.452 OA
ENDROOT
BRANCH   1  12
ATOM     12  C   UNL     1      -7.814   4.769  13.846  1.00  0.00     0.025 A 
ATOM     13  C   UNL     1      -8.772   5.250  14.752  1.00  0.00     0.016 A 
ATOM     14  C   UNL     1      -8.404   6.141  15.763  1.00  0.00     0.051 A 
ATOM     15  C   UNL     1      -7.081   6.577  15.876  1.00  0.00     0.157 A 
ATOM     16  C   UNL     1      -6.487   5.225  13.947  1.00  0.00     0.062 A 
ATOM     17  C   UNL     1      -6.117   6.121  14.961  1.00  0.00     0.158 A 
BRANCH  15  18
ATOM     18  O   UNL     1      -6.743   7.465  16.897  1.00  0.00    -0.504 OA
ATOM     19  H   UNL     1      -7.191   7.436  17.805  1.00  0.00     0.293 HD
ENDBRANCH  15  18
BRANCH  17  20
ATOM     20  O   UNL     1      -4.798   6.563  15.058  1.00  0.00    -0.504 OA
ATOM     21  H   UNL     1      -4.020   5.975  14.783  1.00  0.00     0.293 HD
ENDBRANCH  17  20
ENDBRANCH   1  12
BRANCH   2  22
ATOM     22  O   UNL     1      -8.546   2.008  14.331  1.00  0.00    -0.502 OA
ATOM     23  H   UNL     1      -9.372   1.625  14.773  1.00  0.00     0.293 HD
ENDBRANCH   2  22
BRANCH   6  24
ATOM     24  O   UNL     1      -9.429   0.047   9.458  1.00  0.00    -0.507 OA
ATOM     25  H   UNL     1     -10.305  -0.420   9.276  1.00  0.00     0.293 HD
ENDBRANCH   6  24
BRANCH   8  26
ATOM     26  O   UNL     1      -9.226   4.090   6.875  1.00  0.00    -0.508 OA
ATOM     27  H   UNL     1      -8.579   4.819   6.597  1.00  0.00     0.293 HD
ENDBRANCH   8  26
TORSDOF 6
ENDMDL
MODEL 7
REMARK VINA RESULT:    -7.097     12.364     15.873
REMARK INTER + INTRA:          -8.861
REMARK INTER:                  -8.862
REMARK INTRA:                   0.001
REMARK UNBOUND:                -0.312
REMARK SMILES O=c1c(O)c(-c2ccc(O)c(O)c2)oc2cc(O)cc(O)c12
REMARK SMILES IDX 5 1 3 2 2 3 1 4 22 5 20 6 19 7 17 8 16 9 15 10 14 11 6 12
REMARK SMILES IDX 7 13 8 14 9 15 13 16 11 17 10 18 12 20 4 22 21 24 18 26
REMARK H PARENT 10 19 12 21 4 23 21 25 18 27
REMARK Flexibility Score: inf
ROOT
ATOM      1  C   UNL     1      -8.272   2.979  12.498  1.00  0.00     0.180 A 
ATOM      2  C   UNL     1      -9.032   2.358  13.504  1.00  0.00     0.208 A 
ATOM      3  C   UNL     1      -9.084   2.947  14.778  1.00  0.00     0.238 A 
ATOM      4  O   UNL     1      -9.722   2.358  15.690  1.00  0.00    -0.285 OA
ATOM      5  C   UNL     1      -8.391   4.157  15.025  1.00  0.00     0.111 A 
ATOM      6  C   UNL     1      -8.407   4.861  16.266  1.00  0.00     0.134 A 
ATOM      7  C   UNL     1      -7.580   5.978  16.437  1.00  0.00     0.093 A 
ATOM      8  C   UNL     1      -6.786   6.453  15.389  1.00  0.00     0.123 A 
ATOM      9  C   UNL     1      -6.809   5.807  14.156  1.00  0.00     0.094 A 
ATOM     10  C   UNL     1      -7.597   4.668  13.966  1.00  0.00     0.146 A 
ATOM     11  O   UNL     1      -7.581   4.077  12.778  1.00  0.00    -0.452 OA
ENDROOT
BRANCH   1  12
ATOM     12  C   UNL     1      -8.189   2.433  11.124  1.00  0.00     0.025 A 
ATOM     13  C   UNL     1      -8.510   3.257  10.033  1.00  0.00     0.016 A 
ATOM     14  C   UNL     1      -8.458   2.756   8.729  1.00  0.00     0.051 A 
ATOM     15  C   UNL     1      -8.101   1.425   8.496  1.00  0.00     0.157 A 
ATOM     16  C   UNL     1      -7.850   1.088  10.889  1.00  0.00     0.062 A 
ATOM     17  C   UNL     1      -7.799   0.584   9.581  1.00  0.00     0.158 A 
BRANCH  15  18
ATOM     18  O   UNL     1      -8.056   0.954   7.184  1.00  0.00    -0.504 OA
ATOM     19  H   UNL     1      -8.655   1.328   6.458  1.00  0.00     0.293 HD
ENDBRANCH  15  18
BRANCH  17  20
ATOM     20  O   UNL     1      -7.456  -0.749   9.357  1.00  0.00    -0.504 OA
ATOM     21  H   UNL     1      -7.546  -1.173   8.440  1.00  0.00     0.293 HD
ENDBRANCH  17  20
ENDBRANCH   1  12
BRANCH   2  22
ATOM     22  O   UNL     1      -9.692   1.154  13.246  1.00  0.00    -0.502 OA
ATOM     23  H   UNL     1     -10.698   1.090  13.167  1.00  0.00     0.293 HD
ENDBRANCH   2  22
BRANCH   6  24
ATOM     24  O   UNL     1      -9.232   4.525  17.344  1.00  0.00    -0.507 OA
ATOM     25  H   UNL     1      -9.630   3.611  17.499  1.00  0.00     0.293 HD
ENDBRANCH   6  24
BRANCH   8  26
ATOM     26  O   UNL     1      -5.977   7.575  15.564  1.00  0.00    -0.508 OA
ATOM     27  H   UNL     1      -5.561   7.794  16.461  1.00  0.00     0.293 HD
ENDBRANCH   8  26
TORSDOF 6
ENDMDL
MODEL 8
REMARK VINA RESULT:    -7.095     13.474     14.624
REMARK INTER + INTRA:          -8.859
REMARK INTER:                  -8.700
REMARK INTRA:                  -0.159
REMARK UNBOUND:                -0.312
REMARK SMILES O=c1c(O)c(-c2ccc(O)c(O)c2)oc2cc(O)cc(O)c12
REMARK SMILES IDX 5 1 3 2 2 3 1 4 22 5 20 6 19 7 17 8 16 9 15 10 14 11 6 12
REMARK SMILES IDX 7 13 8 14 9 15 13 16 11 17 10 18 12 20 4 22 21 24 18 26
REMARK H PARENT 10 19 12 21 4 23 21 25 18 27
REMARK Flexibility Score: inf
ROOT
ATOM      1  C   UNL     1      -9.431   6.063  12.498  1.00  0.00     0.180 A 
ATOM      2  C   UNL     1     -10.418   7.063  12.527  1.00  0.00     0.208 A 
ATOM      3  C   UNL     1     -10.637   7.836  11.375  1.00  0.00     0.238 A 
ATOM      4  O   UNL     1     -11.483   8.767  11.424  1.00  0.00    -0.285 OA
ATOM      5  C   UNL     1      -9.879   7.588  10.205  1.00  0.00     0.111 A 
ATOM      6  C   UNL     1     -10.045   8.284   8.970  1.00  0.00     0.134 A 
ATOM      7  C   UNL     1      -9.152   8.046   7.918  1.00  0.00     0.093 A 
ATOM      8  C   UNL     1      -8.140   7.090   8.035  1.00  0.00     0.123 A 
ATOM      9  C   UNL     1      -8.007   6.364   9.216  1.00  0.00     0.094 A 
ATOM     10  C   UNL     1      -8.860   6.605  10.296  1.00  0.00     0.146 A 
ATOM     11  O   UNL     1      -8.692   5.898  11.407  1.00  0.00    -0.452 OA
ENDROOT
BRANCH   1  12
ATOM     12  C   UNL     1      -9.160   5.190  13.664  1.00  0.00     0.025 A 
ATOM     13  C   UNL     1      -8.618   5.749  14.832  1.00  0.00     0.016 A 
ATOM     14  C   UNL     1      -8.336   4.940  15.937  1.00  0.00     0.051 A 
ATOM     15  C   UNL     1      -8.575   3.564  15.886  1.00  0.00     0.157 A 
ATOM     16  C   UNL     1      -9.380   3.802  13.606  1.00  0.00     0.062 A 
ATOM     17  C   UNL     1      -9.095   2.990  14.714  1.00  0.00     0.158 A 
BRANCH  15  18
ATOM     18  O   UNL     1      -8.284   2.783  17.005  1.00  0.00    -0.504 OA
ATOM     19  H   UNL     1      -7.590   3.060  17.689  1.00  0.00     0.293 HD
ENDBRANCH  15  18
BRANCH  17  20
ATOM     20  O   UNL     1      -9.323   1.615  14.652  1.00  0.00    -0.504 OA
ATOM     21  H   UNL     1     -10.190   1.206  14.979  1.00  0.00     0.293 HD
ENDBRANCH  17  20
ENDBRANCH   1  12
BRANCH   2  22
ATOM     22  O   UNL     1     -11.140   7.306  13.699  1.00  0.00    -0.502 OA
ATOM     23  H   UNL     1     -12.079   6.958  13.841  1.00  0.00     0.293 HD
ENDBRANCH   2  22
BRANCH   6  24
ATOM     24  O   UNL     1     -11.079   9.191   8.717  1.00  0.00    -0.507 OA
ATOM     25  H   UNL     1     -12.062   8.974   8.787  1.00  0.00     0.293 HD
ENDBRANCH   6  24
BRANCH   8  26
ATOM     26  O   UNL     1      -7.265   6.848   6.977  1.00  0.00    -0.508 OA
ATOM     27  H   UNL     1      -6.331   6.488   7.133  1.00  0.00     0.293 HD
ENDBRANCH   8  26
TORSDOF 6
ENDMDL
MODEL 9
REMARK VINA RESULT:    -6.866     13.521     16.710
REMARK INTER + INTRA:          -8.583
REMARK INTER:                  -8.301
REMARK INTRA:                  -0.282
REMARK UNBOUND:                -0.312
REMARK SMILES O=c1c(O)c(-c2ccc(O)c(O)c2)oc2cc(O)cc(O)c12
REMARK SMILES IDX 5 1 3 2 2 3 1 4 22 5 20 6 19 7 17 8 16 9 15 10 14 11 6 12
REMARK SMILES IDX 7 13 8 14 9 15 13 16 11 17 10 18 12 20 4 22 21 24 18 26
REMARK H PARENT 10 19 12 21 4 23 21 25 18 27
REMARK Flexibility Score: inf
ROOT
ATOM      1  C   UNL     1      -8.716   2.736  11.050  1.00  0.00     0.180 A 
ATOM      2  C   UNL     1      -8.277   4.042  10.773  1.00  0.00     0.208 A 
ATOM      3  C   UNL     1      -8.051   4.925  11.842  1.00  0.00     0.238 A 
ATOM      4  O   UNL     1      -7.711   6.110  11.585  1.00  0.00    -0.285 OA
ATOM      5  C   UNL     1      -8.250   4.486  13.173  1.00  0.00     0.111 A 
ATOM      6  C   UNL     1      -8.013   5.283  14.332  1.00  0.00     0.134 A 
ATOM      7  C   UNL     1      -8.368   4.790  15.594  1.00  0.00     0.093 A 
ATOM      8  C   UNL     1      -8.892   3.503  15.743  1.00  0.00     0.123 A 
ATOM      9  C   UNL     1      -9.071   2.696  14.622  1.00  0.00     0.094 A 
ATOM     10  C   UNL     1      -8.760   3.174  13.347  1.00  0.00     0.146 A 
ATOM     11  O   UNL     1      -8.956   2.375  12.305  1.00  0.00    -0.452 OA
ENDROOT
BRANCH   1  12
ATOM     12  C   UNL     1      -8.952   1.740   9.979  1.00  0.00     0.025 A 
ATOM     13  C   UNL     1      -7.855   1.113   9.368  1.00  0.00     0.016 A 
ATOM     14  C   UNL     1      -8.054   0.185   8.341  1.00  0.00     0.051 A 
ATOM     15  C   UNL     1      -9.345  -0.118   7.901  1.00  0.00     0.157 A 
ATOM     16  C   UNL     1     -10.250   1.451   9.521  1.00  0.00     0.062 A 
ATOM     17  C   UNL     1     -10.450   0.521   8.490  1.00  0.00     0.158 A 
BRANCH  15  18
ATOM     18  O   UNL     1      -9.511  -1.049   6.876  1.00  0.00    -0.504 OA
ATOM     19  H   UNL     1      -9.760  -2.013   7.060  1.00  0.00     0.293 HD
ENDBRANCH  15  18
BRANCH  17  20
ATOM     20  O   UNL     1     -11.740   0.235   8.045  1.00  0.00    -0.504 OA
ATOM     21  H   UNL     1     -12.529   0.822   8.292  1.00  0.00     0.293 HD
ENDBRANCH  17  20
ENDBRANCH   1  12
BRANCH   2  22
ATOM     22  O   UNL     1      -8.108   4.462   9.451  1.00  0.00    -0.502 OA
ATOM     23  H   UNL     1      -7.716   3.862   8.736  1.00  0.00     0.293 HD
ENDBRANCH   2  22
BRANCH   6  24
ATOM     24  O   UNL     1      -7.410   6.545  14.303  1.00  0.00    -0.507 OA
ATOM     25  H   UNL     1      -7.313   7.116  13.477  1.00  0.00     0.293 HD
ENDBRANCH   6  24
BRANCH   8  26
ATOM     26  O   UNL     1      -9.228   3.014  17.004  1.00  0.00    -0.508 OA
ATOM     27  H   UNL     1      -8.589   3.082  17.787  1.00  0.00     0.293 HD
ENDBRANCH   8  26
TORSDOF 6
ENDMDL
