MODEL 1
REMARK VINA RESULT:    -4.586      0.000      0.000
REMARK INTER + INTRA:          -4.720
REMARK INTER:                  -4.720
REMARK INTRA:                   0.000
REMARK UNBOUND:                 0.000
REMARK SMILES O=c1ccc2ccc(O)cc2o1
REMARK SMILES IDX 6 1 7 2 8 3 10 4 11 5 5 6 4 7 3 8 2 9 1 10 12 11 9 12
REMARK H PARENT 9 13
REMARK Flexibility Score: inf
ROOT
ATOM      1  C   UNL     1      30.137  51.895  38.677  1.00  0.00     0.016 A 
ATOM      2  C   UNL     1      29.106  52.729  38.234  1.00  0.00     0.047 A 
ATOM      3  C   UNL     1      27.791  52.526  38.679  1.00  0.00     0.119 A 
ATOM      4  C   UNL     1      27.509  51.484  39.570  1.00  0.00     0.094 A 
ATOM      5  C   UNL     1      28.534  50.645  40.019  1.00  0.00     0.142 A 
ATOM      6  C   UNL     1      29.857  50.851  39.569  1.00  0.00     0.018 A 
ATOM      7  C   UNL     1      30.861  49.996  40.035  1.00  0.00     0.019 A 
ATOM      8  C   UNL     1      30.531  48.972  40.922  1.00  0.00     0.094 A 
ATOM      9  C   UNL     1      29.198  48.827  41.324  1.00  0.00     0.336 A 
ATOM     10  O   UNL     1      28.879  47.909  42.125  1.00  0.00    -0.246 OA
ATOM     11  O   UNL     1      28.262  49.655  40.866  1.00  0.00    -0.423 OA
ENDROOT
BRANCH   3  12
ATOM     12  O   UNL     1      26.759  53.354  38.242  1.00  0.00    -0.508 OA
ATOM     13  H   UNL     1      26.642  53.580  37.262  1.00  0.00     0.293 HD
ENDBRANCH   3  12
TORSDOF 1
ENDMDL
MODEL 2
REMARK VINA RESULT:    -4.404      1.470      2.254
REMARK INTER + INTRA:          -4.533
REMARK INTER:                  -4.533
REMARK INTRA:                   0.000
REMARK UNBOUND:                 0.000
REMARK SMILES O=c1ccc2ccc(O)cc2o1
REMARK SMILES IDX 6 1 7 2 8 3 10 4 11 5 5 6 4 7 3 8 2 9 1 10 12 11 9 12
REMARK H PARENT 9 13
REMARK Flexibility Score: inf
ROOT
ATOM      1  C   UNL     1      27.338  52.255  40.150  1.00  0.00     0.016 A 
ATOM      2  C   UNL     1      27.698  53.341  39.346  1.00  0.00     0.047 A 
ATOM      3  C   UNL     1      28.942  53.363  38.699  1.00  0.00     0.119 A 
ATOM      4  C   UNL     1      29.829  52.292  38.857  1.00  0.00     0.094 A 
ATOM      5  C   UNL     1      29.479  51.200  39.659  1.00  0.00     0.142 A 
ATOM      6  C   UNL     1      28.225  51.182  40.310  1.00  0.00     0.018 A 
ATOM      7  C   UNL     1      27.903  50.077  41.105  1.00  0.00     0.019 A 
ATOM      8  C   UNL     1      28.820  49.034  41.233  1.00  0.00     0.094 A 
ATOM      9  C   UNL     1      30.043  49.121  40.558  1.00  0.00     0.336 A 
ATOM     10  O   UNL     1      30.885  48.190  40.660  1.00  0.00    -0.246 OA
ATOM     11  O   UNL     1      30.325  50.183  39.808  1.00  0.00    -0.423 OA
ENDROOT
BRANCH   3  12
ATOM     12  O   UNL     1      29.306  54.441  37.897  1.00  0.00    -0.508 OA
ATOM     13  H   UNL     1      28.732  55.275  37.839  1.00  0.00     0.293 HD
ENDBRANCH   3  12
TORSDOF 1
ENDMDL
MODEL 3
REMARK VINA RESULT:    -4.402     16.448     16.506
REMARK INTER + INTRA:          -4.530
REMARK INTER:                  -4.530
REMARK INTRA:                   0.000
REMARK UNBOUND:                 0.000
REMARK SMILES O=c1ccc2ccc(O)cc2o1
REMARK SMILES IDX 6 1 7 2 8 3 10 4 11 5 5 6 4 7 3 8 2 9 1 10 12 11 9 12
REMARK H PARENT 9 13
REMARK Flexibility Score: inf
ROOT
ATOM      1  C   UNL     1      25.996  41.281  25.114  1.00  0.00     0.016 A 
ATOM      2  C   UNL     1      26.750  42.458  25.148  1.00  0.00     0.047 A 
ATOM      3  C   UNL     1      27.306  42.909  26.354  1.00  0.00     0.119 A 
ATOM      4  C   UNL     1      27.107  42.178  27.531  1.00  0.00     0.094 A 
ATOM      5  C   UNL     1      26.354  40.998  27.508  1.00  0.00     0.142 A 
ATOM      6  C   UNL     1      25.795  40.547  26.291  1.00  0.00     0.018 A 
ATOM      7  C   UNL     1      25.048  39.364  26.299  1.00  0.00     0.019 A 
ATOM      8  C   UNL     1      24.877  38.671  27.497  1.00  0.00     0.094 A 
ATOM      9  C   UNL     1      25.460  39.179  28.664  1.00  0.00     0.336 A 
ATOM     10  O   UNL     1      25.318  38.567  29.755  1.00  0.00    -0.246 OA
ATOM     11  O   UNL     1      26.167  40.305  28.628  1.00  0.00    -0.423 OA
ENDROOT
BRANCH   3  12
ATOM     12  O   UNL     1      28.058  44.081  26.394  1.00  0.00    -0.508 OA
ATOM     13  H   UNL     1      28.737  44.249  27.126  1.00  0.00     0.293 HD
ENDBRANCH   3  12
TORSDOF 1
ENDMDL
MODEL 4
REMARK VINA RESULT:    -4.286      1.882      4.606
REMARK INTER + INTRA:          -4.411
REMARK INTER:                  -4.411
REMARK INTRA:                   0.000
REMARK UNBOUND:                 0.000
REMARK SMILES O=c1ccc2ccc(O)cc2o1
REMARK SMILES IDX 6 1 7 2 8 3 10 4 11 5 5 6 4 7 3 8 2 9 1 10 12 11 9 12
REMARK H PARENT 9 13
REMARK Flexibility Score: inf
ROOT
ATOM      1  C   UNL     1      28.625  49.436  39.593  1.00  0.00     0.016 A 
ATOM      2  C   UNL     1      29.586  48.662  40.252  1.00  0.00     0.047 A 
ATOM      3  C   UNL     1      30.528  49.270  41.096  1.00  0.00     0.119 A 
ATOM      4  C   UNL     1      30.507  50.657  41.280  1.00  0.00     0.094 A 
ATOM      5  C   UNL     1      29.549  51.440  40.625  1.00  0.00     0.142 A 
ATOM      6  C   UNL     1      28.602  50.825  39.776  1.00  0.00     0.018 A 
ATOM      7  C   UNL     1      27.658  51.633  39.136  1.00  0.00     0.019 A 
ATOM      8  C   UNL     1      27.677  53.011  39.351  1.00  0.00     0.094 A 
ATOM      9  C   UNL     1      28.646  53.550  40.205  1.00  0.00     0.336 A 
ATOM     10  O   UNL     1      28.680  54.792  40.413  1.00  0.00    -0.246 OA
ATOM     11  O   UNL     1      29.533  52.759  40.803  1.00  0.00    -0.423 OA
ENDROOT
BRANCH   3  12
ATOM     12  O   UNL     1      31.487  48.505  41.754  1.00  0.00    -0.508 OA
ATOM     13  H   UNL     1      32.040  47.812  41.264  1.00  0.00     0.293 HD
ENDBRANCH   3  12
TORSDOF 1
ENDMDL
MODEL 5
REMARK VINA RESULT:    -4.231      0.847      4.226
REMARK INTER + INTRA:          -4.355
REMARK INTER:                  -4.355
REMARK INTRA:                   0.000
REMARK UNBOUND:                 0.000
REMARK SMILES O=c1ccc2ccc(O)cc2o1
REMARK SMILES IDX 6 1 7 2 8 3 10 4 11 5 5 6 4 7 3 8 2 9 1 10 12 11 9 12
REMARK H PARENT 9 13
REMARK Flexibility Score: inf
ROOT
ATOM      1  C   UNL     1      30.856  50.160  39.734  1.00  0.00     0.016 A 
ATOM      2  C   UNL     1      30.599  49.014  40.493  1.00  0.00     0.047 A 
ATOM      3  C   UNL     1      29.285  48.683  40.856  1.00  0.00     0.119 A 
ATOM      4  C   UNL     1      28.224  49.505  40.458  1.00  0.00     0.094 A 
ATOM      5  C   UNL     1      28.470  50.654  39.698  1.00  0.00     0.142 A 
ATOM      6  C   UNL     1      29.795  50.984  39.334  1.00  0.00     0.018 A 
ATOM      7  C   UNL     1      30.010  52.138  38.574  1.00  0.00     0.019 A 
ATOM      8  C   UNL     1      28.920  52.925  38.202  1.00  0.00     0.094 A 
ATOM      9  C   UNL     1      27.636  52.536  38.599  1.00  0.00     0.336 A 
ATOM     10  O   UNL     1      26.638  53.233  38.272  1.00  0.00    -0.246 OA
ATOM     11  O   UNL     1      27.459  51.432  39.321  1.00  0.00    -0.423 OA
ENDROOT
BRANCH   3  12
ATOM     12  O   UNL     1      29.024  47.543  41.612  1.00  0.00    -0.508 OA
ATOM     13  H   UNL     1      28.517  46.756  41.224  1.00  0.00     0.293 HD
ENDBRANCH   3  12
TORSDOF 1
ENDMDL
MODEL 6
REMARK VINA RESULT:    -4.168     17.256     17.285
REMARK INTER + INTRA:          -4.290
REMARK INTER:                  -4.290
REMARK INTRA:                   0.000
REMARK UNBOUND:                 0.000
REMARK SMILES O=c1ccc2ccc(O)cc2o1
REMARK SMILES IDX 6 1 7 2 8 3 10 4 11 5 5 6 4 7 3 8 2 9 1 10 12 11 9 12
REMARK H PARENT 9 13
REMARK Flexibility Score: inf
ROOT
ATOM      1  C   UNL     1      26.383  42.240  27.019  1.00  0.00     0.016 A 
ATOM      2  C   UNL     1      26.365  42.747  25.717  1.00  0.00     0.047 A 
ATOM      3  C   UNL     1      25.965  41.934  24.645  1.00  0.00     0.119 A 
ATOM      4  C   UNL     1      25.584  40.608  24.881  1.00  0.00     0.094 A 
ATOM      5  C   UNL     1      25.598  40.091  26.181  1.00  0.00     0.142 A 
ATOM      6  C   UNL     1      26.001  40.913  27.258  1.00  0.00     0.018 A 
ATOM      7  C   UNL     1      26.005  40.369  28.546  1.00  0.00     0.019 A 
ATOM      8  C   UNL     1      25.617  39.042  28.730  1.00  0.00     0.094 A 
ATOM      9  C   UNL     1      25.231  38.288  27.616  1.00  0.00     0.336 A 
ATOM     10  O   UNL     1      24.876  37.088  27.762  1.00  0.00    -0.246 OA
ATOM     11  O   UNL     1      25.235  38.830  26.401  1.00  0.00    -0.423 OA
ENDROOT
BRANCH   3  12
ATOM     12  O   UNL     1      25.945  42.433  23.346  1.00  0.00    -0.508 OA
ATOM     13  H   UNL     1      26.715  42.978  22.975  1.00  0.00     0.293 HD
ENDBRANCH   3  12
TORSDOF 1
ENDMDL
MODEL 7
REMARK VINA RESULT:    -3.778      1.653      3.981
REMARK INTER + INTRA:          -3.889
REMARK INTER:                  -3.889
REMARK INTRA:                   0.000
REMARK UNBOUND:                 0.000
REMARK SMILES O=c1ccc2ccc(O)cc2o1
REMARK SMILES IDX 6 1 7 2 8 3 10 4 11 5 5 6 4 7 3 8 2 9 1 10 12 11 9 12
REMARK H PARENT 9 13
REMARK Flexibility Score: inf
ROOT
ATOM      1  C   UNL     1      30.091  51.073  39.116  1.00  0.00     0.016 A 
ATOM      2  C   UNL     1      30.899  50.007  39.523  1.00  0.00     0.047 A 
ATOM      3  C   UNL     1      30.501  49.180  40.585  1.00  0.00     0.119 A 
ATOM      4  C   UNL     1      29.289  49.424  41.241  1.00  0.00     0.094 A 
ATOM      5  C   UNL     1      28.473  50.488  40.841  1.00  0.00     0.142 A 
ATOM      6  C   UNL     1      28.877  51.318  39.771  1.00  0.00     0.018 A 
ATOM      7  C   UNL     1      28.041  52.373  39.394  1.00  0.00     0.019 A 
ATOM      8  C   UNL     1      26.843  52.576  40.079  1.00  0.00     0.094 A 
ATOM      9  C   UNL     1      26.508  51.713  41.129  1.00  0.00     0.336 A 
ATOM     10  O   UNL     1      25.430  51.879  41.759  1.00  0.00    -0.246 OA
ATOM     11  O   UNL     1      27.321  50.716  41.467  1.00  0.00    -0.423 OA
ENDROOT
BRANCH   3  12
ATOM     12  O   UNL     1      31.302  48.117  40.994  1.00  0.00    -0.508 OA
ATOM     13  H   UNL     1      32.312  48.192  41.014  1.00  0.00     0.293 HD
ENDBRANCH   3  12
TORSDOF 1
ENDMDL
MODEL 8
REMARK VINA RESULT:    -3.766      1.713      4.600
REMARK INTER + INTRA:          -3.876
REMARK INTER:                  -3.876
REMARK INTRA:                   0.000
REMARK UNBOUND:                 0.000
REMARK SMILES O=c1ccc2ccc(O)cc2o1
REMARK SMILES IDX 6 1 7 2 8 3 10 4 11 5 5 6 4 7 3 8 2 9 1 10 12 11 9 12
REMARK H PARENT 9 13
REMARK Flexibility Score: inf
ROOT
ATOM      1  C   UNL     1      30.858  49.184  42.083  1.00  0.00     0.016 A 
ATOM      2  C   UNL     1      30.993  47.817  41.824  1.00  0.00     0.047 A 
ATOM      3  C   UNL     1      30.270  47.218  40.781  1.00  0.00     0.119 A 
ATOM      4  C   UNL     1      29.408  47.993  39.996  1.00  0.00     0.094 A 
ATOM      5  C   UNL     1      29.267  49.363  40.247  1.00  0.00     0.142 A 
ATOM      6  C   UNL     1      29.997  49.962  41.298  1.00  0.00     0.018 A 
ATOM      7  C   UNL     1      29.834  51.332  41.525  1.00  0.00     0.019 A 
ATOM      8  C   UNL     1      28.964  52.062  40.716  1.00  0.00     0.094 A 
ATOM      9  C   UNL     1      28.273  51.400  39.694  1.00  0.00     0.336 A 
ATOM     10  O   UNL     1      27.483  52.042  38.951  1.00  0.00    -0.246 OA
ATOM     11  O   UNL     1      28.447  50.096  39.498  1.00  0.00    -0.423 OA
ENDROOT
BRANCH   3  12
ATOM     12  O   UNL     1      30.400  45.857  40.519  1.00  0.00    -0.508 OA
ATOM     13  H   UNL     1      29.750  45.370  39.913  1.00  0.00     0.293 HD
ENDBRANCH   3  12
TORSDOF 1
ENDMDL
