MODEL 1
REMARK VINA RESULT:    -6.311      0.000      0.000
REMARK INTER + INTRA:          -7.810
REMARK INTER:                  -7.603
REMARK INTRA:                  -0.207
REMARK UNBOUND:                -0.207
REMARK SMILES O=c1c(O)c(-c2ccc(O)c(O)c2)oc2cc(O)cc(O)c12
REMARK SMILES IDX 5 1 3 2 2 3 1 4 22 5 20 6 19 7 17 8 16 9 15 10 14 11 6 12
REMARK SMILES IDX 7 13 8 14 9 15 13 16 11 17 10 18 12 20 4 22 21 24 18 26
REMARK H PARENT 10 19 12 21 4 23 21 25 18 27
REMARK Flexibility Score: inf
ROOT
ATOM      1  C   UNL     1      -7.452  14.278  -2.857  1.00  0.00     0.180 A 
ATOM      2  C   UNL     1      -7.584  12.880  -2.914  1.00  0.00     0.208 A 
ATOM      3  C   UNL     1      -7.652  12.253  -4.169  1.00  0.00     0.238 A 
ATOM      4  O   UNL     1      -7.825  11.007  -4.215  1.00  0.00    -0.285 OA
ATOM      5  C   UNL     1      -7.569  13.030  -5.350  1.00  0.00     0.111 A 
ATOM      6  C   UNL     1      -7.586  12.496  -6.674  1.00  0.00     0.134 A 
ATOM      7  C   UNL     1      -7.630  13.368  -7.769  1.00  0.00     0.093 A 
ATOM      8  C   UNL     1      -7.591  14.754  -7.589  1.00  0.00     0.123 A 
ATOM      9  C   UNL     1      -7.515  15.282  -6.304  1.00  0.00     0.094 A 
ATOM     10  C   UNL     1      -7.506  14.438  -5.190  1.00  0.00     0.146 A 
ATOM     11  O   UNL     1      -7.443  14.985  -3.981  1.00  0.00    -0.452 OA
ENDROOT
BRANCH   1  12
ATOM     12  C   UNL     1      -7.349  15.008  -1.573  1.00  0.00     0.025 A 
ATOM     13  C   UNL     1      -8.351  15.923  -1.216  1.00  0.00     0.016 A 
ATOM     14  C   UNL     1      -8.263  16.637  -0.018  1.00  0.00     0.051 A 
ATOM     15  C   UNL     1      -7.165  16.458   0.833  1.00  0.00     0.157 A 
ATOM     16  C   UNL     1      -6.237  14.845  -0.725  1.00  0.00     0.062 A 
ATOM     17  C   UNL     1      -6.148  15.564   0.476  1.00  0.00     0.158 A 
BRANCH  15  18
ATOM     18  O   UNL     1      -7.075  17.167   2.029  1.00  0.00    -0.504 OA
ATOM     19  H   UNL     1      -6.518  18.009   2.105  1.00  0.00     0.293 HD
ENDBRANCH  15  18
BRANCH  17  20
ATOM     20  O   UNL     1      -5.049  15.397   1.318  1.00  0.00    -0.504 OA
ATOM     21  H   UNL     1      -4.485  16.184   1.615  1.00  0.00     0.293 HD
ENDBRANCH  17  20
ENDBRANCH   1  12
BRANCH   2  22
ATOM     22  O   UNL     1      -7.686  12.134  -1.737  1.00  0.00    -0.502 OA
ATOM     23  H   UNL     1      -7.084  12.294  -0.938  1.00  0.00     0.293 HD
ENDBRANCH   2  22
BRANCH   6  24
ATOM     24  O   UNL     1      -7.534  11.131  -6.966  1.00  0.00    -0.507 OA
ATOM     25  H   UNL     1      -6.807  10.504  -6.654  1.00  0.00     0.293 HD
ENDBRANCH   6  24
BRANCH   8  26
ATOM     26  O   UNL     1      -7.620  15.613  -8.685  1.00  0.00    -0.508 OA
ATOM     27  H   UNL     1      -6.776  15.855  -9.191  1.00  0.00     0.293 HD
ENDBRANCH   8  26
TORSDOF 6
ENDMDL
MODEL 2
REMARK VINA RESULT:    -6.075      3.212      8.451
REMARK INTER + INTRA:          -7.525
REMARK INTER:                  -7.421
REMARK INTRA:                  -0.104
REMARK UNBOUND:                -0.207
REMARK SMILES O=c1c(O)c(-c2ccc(O)c(O)c2)oc2cc(O)cc(O)c12
REMARK SMILES IDX 5 1 3 2 2 3 1 4 22 5 20 6 19 7 17 8 16 9 15 10 14 11 6 12
REMARK SMILES IDX 7 13 8 14 9 15 13 16 11 17 10 18 12 20 4 22 21 24 18 26
REMARK H PARENT 10 19 12 21 4 23 21 25 18 27
REMARK Flexibility Score: inf
ROOT
ATOM      1  C   UNL     1      -7.463  16.010   1.189  1.00  0.00     0.180 A 
ATOM      2  C   UNL     1      -7.532  14.786   1.875  1.00  0.00     0.208 A 
ATOM      3  C   UNL     1      -7.272  14.763   3.255  1.00  0.00     0.238 A 
ATOM      4  O   UNL     1      -7.281  13.657   3.855  1.00  0.00    -0.285 OA
ATOM      5  C   UNL     1      -6.963  15.967   3.933  1.00  0.00     0.111 A 
ATOM      6  C   UNL     1      -6.722  16.068   5.337  1.00  0.00     0.134 A 
ATOM      7  C   UNL     1      -6.296  17.287   5.878  1.00  0.00     0.093 A 
ATOM      8  C   UNL     1      -6.167  18.426   5.078  1.00  0.00     0.123 A 
ATOM      9  C   UNL     1      -6.458  18.352   3.719  1.00  0.00     0.094 A 
ATOM     10  C   UNL     1      -6.850  17.140   3.143  1.00  0.00     0.146 A 
ATOM     11  O   UNL     1      -7.107  17.112   1.840  1.00  0.00    -0.452 OA
ENDROOT
BRANCH   1  12
ATOM     12  C   UNL     1      -7.749  16.118  -0.260  1.00  0.00     0.025 A 
ATOM     13  C   UNL     1      -8.830  16.901  -0.695  1.00  0.00     0.016 A 
ATOM     14  C   UNL     1      -9.129  17.000  -2.056  1.00  0.00     0.051 A 
ATOM     15  C   UNL     1      -8.362  16.306  -3.001  1.00  0.00     0.157 A 
ATOM     16  C   UNL     1      -6.993  15.407  -1.211  1.00  0.00     0.062 A 
ATOM     17  C   UNL     1      -7.296  15.505  -2.576  1.00  0.00     0.158 A 
BRANCH  15  18
ATOM     18  O   UNL     1      -8.657  16.405  -4.359  1.00  0.00    -0.504 OA
ATOM     19  H   UNL     1      -9.530  16.059  -4.739  1.00  0.00     0.293 HD
ENDBRANCH  15  18
BRANCH  17  20
ATOM     20  O   UNL     1      -6.542  14.804  -3.517  1.00  0.00    -0.504 OA
ATOM     21  H   UNL     1      -6.512  13.791  -3.525  1.00  0.00     0.293 HD
ENDBRANCH  17  20
ENDBRANCH   1  12
BRANCH   2  22
ATOM     22  O   UNL     1      -7.817  13.606   1.182  1.00  0.00    -0.502 OA
ATOM     23  H   UNL     1      -8.628  13.509   0.584  1.00  0.00     0.293 HD
ENDBRANCH   2  22
BRANCH   6  24
ATOM     24  O   UNL     1      -6.909  15.017   6.238  1.00  0.00    -0.507 OA
ATOM     25  H   UNL     1      -6.369  14.164   6.247  1.00  0.00     0.293 HD
ENDBRANCH   6  24
BRANCH   8  26
ATOM     26  O   UNL     1      -5.759  19.638   5.628  1.00  0.00    -0.508 OA
ATOM     27  H   UNL     1      -6.314  20.480   5.529  1.00  0.00     0.293 HD
ENDBRANCH   8  26
TORSDOF 6
ENDMDL
MODEL 3
REMARK VINA RESULT:    -5.972      1.961      2.126
REMARK INTER + INTRA:          -7.401
REMARK INTER:                  -7.188
REMARK INTRA:                  -0.213
REMARK UNBOUND:                -0.207
REMARK SMILES O=c1c(O)c(-c2ccc(O)c(O)c2)oc2cc(O)cc(O)c12
REMARK SMILES IDX 5 1 3 2 2 3 1 4 22 5 20 6 19 7 17 8 16 9 15 10 14 11 6 12
REMARK SMILES IDX 7 13 8 14 9 15 13 16 11 17 10 18 12 20 4 22 21 24 18 26
REMARK H PARENT 10 19 12 21 4 23 21 25 18 27
REMARK Flexibility Score: inf
ROOT
ATOM      1  C   UNL     1      -8.473  15.095  -2.023  1.00  0.00     0.180 A 
ATOM      2  C   UNL     1      -9.707  14.424  -2.021  1.00  0.00     0.208 A 
ATOM      3  C   UNL     1     -10.235  13.964  -3.239  1.00  0.00     0.238 A 
ATOM      4  O   UNL     1     -11.365  13.411  -3.239  1.00  0.00    -0.285 OA
ATOM      5  C   UNL     1      -9.512  14.166  -4.439  1.00  0.00     0.111 A 
ATOM      6  C   UNL     1      -9.932  13.707  -5.724  1.00  0.00     0.134 A 
ATOM      7  C   UNL     1      -9.204  14.078  -6.862  1.00  0.00     0.093 A 
ATOM      8  C   UNL     1      -8.035  14.836  -6.754  1.00  0.00     0.123 A 
ATOM      9  C   UNL     1      -7.585  15.238  -5.499  1.00  0.00     0.094 A 
ATOM     10  C   UNL     1      -8.310  14.914  -4.349  1.00  0.00     0.146 A 
ATOM     11  O   UNL     1      -7.852  15.327  -3.173  1.00  0.00    -0.452 OA
ENDROOT
BRANCH   1  12
ATOM     12  C   UNL     1      -7.841  15.587  -0.777  1.00  0.00     0.025 A 
ATOM     13  C   UNL     1      -8.392  16.694  -0.113  1.00  0.00     0.016 A 
ATOM     14  C   UNL     1      -7.801  17.187   1.053  1.00  0.00     0.051 A 
ATOM     15  C   UNL     1      -6.641  16.589   1.563  1.00  0.00     0.157 A 
ATOM     16  C   UNL     1      -6.665  15.002  -0.271  1.00  0.00     0.062 A 
ATOM     17  C   UNL     1      -6.071  15.498   0.897  1.00  0.00     0.158 A 
BRANCH  15  18
ATOM     18  O   UNL     1      -6.050  17.076   2.727  1.00  0.00    -0.504 OA
ATOM     19  H   UNL     1      -6.210  18.024   3.046  1.00  0.00     0.293 HD
ENDBRANCH  15  18
BRANCH  17  20
ATOM     20  O   UNL     1      -4.909  14.913   1.400  1.00  0.00    -0.504 OA
ATOM     21  H   UNL     1      -4.403  14.206   0.880  1.00  0.00     0.293 HD
ENDBRANCH  17  20
ENDBRANCH   1  12
BRANCH   2  22
ATOM     22  O   UNL     1     -10.414  14.254  -0.827  1.00  0.00    -0.502 OA
ATOM     23  H   UNL     1     -11.319  14.679  -0.665  1.00  0.00     0.293 HD
ENDBRANCH   2  22
BRANCH   6  24
ATOM     24  O   UNL     1     -11.031  12.870  -5.934  1.00  0.00    -0.507 OA
ATOM     25  H   UNL     1     -11.289  12.472  -6.824  1.00  0.00     0.293 HD
ENDBRANCH   6  24
BRANCH   8  26
ATOM     26  O   UNL     1      -7.309  15.187  -7.889  1.00  0.00    -0.508 OA
ATOM     27  H   UNL     1      -7.572  14.857  -8.810  1.00  0.00     0.293 HD
ENDBRANCH   8  26
TORSDOF 6
ENDMDL
MODEL 4
REMARK VINA RESULT:    -5.841      1.931      6.864
REMARK INTER + INTRA:          -7.243
REMARK INTER:                  -6.941
REMARK INTRA:                  -0.303
REMARK UNBOUND:                -0.207
REMARK SMILES O=c1c(O)c(-c2ccc(O)c(O)c2)oc2cc(O)cc(O)c12
REMARK SMILES IDX 5 1 3 2 2 3 1 4 22 5 20 6 19 7 17 8 16 9 15 10 14 11 6 12
REMARK SMILES IDX 7 13 8 14 9 15 13 16 11 17 10 18 12 20 4 22 21 24 18 26
REMARK H PARENT 10 19 12 21 4 23 21 25 18 27
REMARK Flexibility Score: inf
ROOT
ATOM      1  C   UNL     1      -7.686  14.730  -2.020  1.00  0.00     0.180 A 
ATOM      2  C   UNL     1      -8.294  13.606  -1.437  1.00  0.00     0.208 A 
ATOM      3  C   UNL     1      -8.402  13.537  -0.038  1.00  0.00     0.238 A 
ATOM      4  O   UNL     1      -8.898  12.504   0.481  1.00  0.00    -0.285 OA
ATOM      5  C   UNL     1      -7.916  14.603   0.758  1.00  0.00     0.111 A 
ATOM      6  C   UNL     1      -8.010  14.658   2.181  1.00  0.00     0.134 A 
ATOM      7  C   UNL     1      -7.378  15.698   2.875  1.00  0.00     0.093 A 
ATOM      8  C   UNL     1      -6.713  16.720   2.192  1.00  0.00     0.123 A 
ATOM      9  C   UNL     1      -6.667  16.706   0.801  1.00  0.00     0.094 A 
ATOM     10  C   UNL     1      -7.257  15.662   0.083  1.00  0.00     0.146 A 
ATOM     11  O   UNL     1      -7.181  15.682  -1.243  1.00  0.00    -0.452 OA
ENDROOT
BRANCH   1  12
ATOM     12  C   UNL     1      -7.557  14.886  -3.487  1.00  0.00     0.025 A 
ATOM     13  C   UNL     1      -8.524  15.620  -4.191  1.00  0.00     0.016 A 
ATOM     14  C   UNL     1      -8.434  15.762  -5.578  1.00  0.00     0.051 A 
ATOM     15  C   UNL     1      -7.383  15.159  -6.283  1.00  0.00     0.157 A 
ATOM     16  C   UNL     1      -6.516  14.265  -4.201  1.00  0.00     0.062 A 
ATOM     17  C   UNL     1      -6.426  14.406  -5.593  1.00  0.00     0.158 A 
BRANCH  15  18
ATOM     18  O   UNL     1      -7.289  15.300  -7.665  1.00  0.00    -0.504 OA
ATOM     19  H   UNL     1      -8.112  15.419  -8.244  1.00  0.00     0.293 HD
ENDBRANCH  15  18
BRANCH  17  20
ATOM     20  O   UNL     1      -5.390  13.795  -6.298  1.00  0.00    -0.504 OA
ATOM     21  H   UNL     1      -4.709  14.337  -6.817  1.00  0.00     0.293 HD
ENDBRANCH  17  20
ENDBRANCH   1  12
BRANCH   2  22
ATOM     22  O   UNL     1      -8.747  12.556  -2.241  1.00  0.00    -0.502 OA
ATOM     23  H   UNL     1      -8.155  12.101  -2.926  1.00  0.00     0.293 HD
ENDBRANCH   2  22
BRANCH   6  24
ATOM     24  O   UNL     1      -8.727  13.740   2.953  1.00  0.00    -0.507 OA
ATOM     25  H   UNL     1      -9.591  13.944   3.433  1.00  0.00     0.293 HD
ENDBRANCH   6  24
BRANCH   8  26
ATOM     26  O   UNL     1      -6.101  17.759   2.889  1.00  0.00    -0.508 OA
ATOM     27  H   UNL     1      -5.871  17.675   3.872  1.00  0.00     0.293 HD
ENDBRANCH   8  26
TORSDOF 6
ENDMDL
MODEL 5
REMARK VINA RESULT:    -5.792      1.900      7.136
REMARK INTER + INTRA:          -7.184
REMARK INTER:                  -6.967
REMARK INTRA:                  -0.217
REMARK UNBOUND:                -0.207
REMARK SMILES O=c1c(O)c(-c2ccc(O)c(O)c2)oc2cc(O)cc(O)c12
REMARK SMILES IDX 5 1 3 2 2 3 1 4 22 5 20 6 19 7 17 8 16 9 15 10 14 11 6 12
REMARK SMILES IDX 7 13 8 14 9 15 13 16 11 17 10 18 12 20 4 22 21 24 18 26
REMARK H PARENT 10 19 12 21 4 23 21 25 18 27
REMARK Flexibility Score: inf
ROOT
ATOM      1  C   UNL     1      -7.799  14.754  -3.343  1.00  0.00     0.180 A 
ATOM      2  C   UNL     1      -8.117  15.907  -2.605  1.00  0.00     0.208 A 
ATOM      3  C   UNL     1      -7.979  15.882  -1.208  1.00  0.00     0.238 A 
ATOM      4  O   UNL     1      -8.316  16.899  -0.548  1.00  0.00    -0.285 OA
ATOM      5  C   UNL     1      -7.508  14.710  -0.568  1.00  0.00     0.111 A 
ATOM      6  C   UNL     1      -7.292  14.585   0.837  1.00  0.00     0.134 A 
ATOM      7  C   UNL     1      -6.949  13.338   1.375  1.00  0.00     0.093 A 
ATOM      8  C   UNL     1      -6.752  12.227   0.551  1.00  0.00     0.123 A 
ATOM      9  C   UNL     1      -6.903  12.353  -0.827  1.00  0.00     0.094 A 
ATOM     10  C   UNL     1      -7.280  13.576  -1.390  1.00  0.00     0.146 A 
ATOM     11  O   UNL     1      -7.423  13.649  -2.708  1.00  0.00    -0.452 OA
ENDROOT
BRANCH   1  12
ATOM     12  C   UNL     1      -7.895  14.712  -4.820  1.00  0.00     0.025 A 
ATOM     13  C   UNL     1      -6.721  14.706  -5.589  1.00  0.00     0.016 A 
ATOM     14  C   UNL     1      -6.789  14.687  -6.984  1.00  0.00     0.051 A 
ATOM     15  C   UNL     1      -8.032  14.689  -7.631  1.00  0.00     0.157 A 
ATOM     16  C   UNL     1      -9.141  14.734  -5.474  1.00  0.00     0.062 A 
ATOM     17  C   UNL     1      -9.209  14.717  -6.874  1.00  0.00     0.158 A 
BRANCH  15  18
ATOM     18  O   UNL     1      -8.103  14.668  -9.022  1.00  0.00    -0.504 OA
ATOM     19  H   UNL     1      -7.652  13.942  -9.566  1.00  0.00     0.293 HD
ENDBRANCH  15  18
BRANCH  17  20
ATOM     20  O   UNL     1     -10.445  14.733  -7.520  1.00  0.00    -0.504 OA
ATOM     21  H   UNL     1     -10.956  13.879  -7.710  1.00  0.00     0.293 HD
ENDBRANCH  17  20
ENDBRANCH   1  12
BRANCH   2  22
ATOM     22  O   UNL     1      -8.600  17.046  -3.255  1.00  0.00    -0.502 OA
ATOM     23  H   UNL     1      -8.555  17.970  -2.840  1.00  0.00     0.293 HD
ENDBRANCH   2  22
BRANCH   6  24
ATOM     24  O   UNL     1      -7.372  15.651   1.737  1.00  0.00    -0.507 OA
ATOM     25  H   UNL     1      -7.092  15.608   2.706  1.00  0.00     0.293 HD
ENDBRANCH   6  24
BRANCH   8  26
ATOM     26  O   UNL     1      -6.397  10.994   1.093  1.00  0.00    -0.508 OA
ATOM     27  H   UNL     1      -6.707  10.711   2.015  1.00  0.00     0.293 HD
ENDBRANCH   8  26
TORSDOF 6
ENDMDL
MODEL 6
REMARK VINA RESULT:    -5.773      2.299      7.776
REMARK INTER + INTRA:          -7.161
REMARK INTER:                  -6.838
REMARK INTRA:                  -0.323
REMARK UNBOUND:                -0.207
REMARK SMILES O=c1c(O)c(-c2ccc(O)c(O)c2)oc2cc(O)cc(O)c12
REMARK SMILES IDX 5 1 3 2 2 3 1 4 22 5 20 6 19 7 17 8 16 9 15 10 14 11 6 12
REMARK SMILES IDX 7 13 8 14 9 15 13 16 11 17 10 18 12 20 4 22 21 24 18 26
REMARK H PARENT 10 19 12 21 4 23 21 25 18 27
REMARK Flexibility Score: inf
ROOT
ATOM      1  C   UNL     1      -8.153  15.692  -0.771  1.00  0.00     0.180 A 
ATOM      2  C   UNL     1      -6.877  15.545  -0.200  1.00  0.00     0.208 A 
ATOM      3  C   UNL     1      -6.666  15.984   1.118  1.00  0.00     0.238 A 
ATOM      4  O   UNL     1      -5.509  15.900   1.605  1.00  0.00    -0.285 OA
ATOM      5  C   UNL     1      -7.737  16.547   1.852  1.00  0.00     0.111 A 
ATOM      6  C   UNL     1      -7.647  16.987   3.207  1.00  0.00     0.134 A 
ATOM      7  C   UNL     1      -8.735  17.649   3.791  1.00  0.00     0.093 A 
ATOM      8  C   UNL     1      -9.931  17.827   3.091  1.00  0.00     0.123 A 
ATOM      9  C   UNL     1     -10.048  17.348   1.789  1.00  0.00     0.094 A 
ATOM     10  C   UNL     1      -8.968  16.716   1.167  1.00  0.00     0.146 A 
ATOM     11  O   UNL     1      -9.120  16.284  -0.079  1.00  0.00    -0.452 OA
ENDROOT
BRANCH   1  12
ATOM     12  C   UNL     1      -8.459  15.231  -2.145  1.00  0.00     0.025 A 
ATOM     13  C   UNL     1      -8.858  13.902  -2.355  1.00  0.00     0.016 A 
ATOM     14  C   UNL     1      -9.132  13.441  -3.645  1.00  0.00     0.051 A 
ATOM     15  C   UNL     1      -8.996  14.298  -4.745  1.00  0.00     0.157 A 
ATOM     16  C   UNL     1      -8.305  16.083  -3.255  1.00  0.00     0.062 A 
ATOM     17  C   UNL     1      -8.577  15.619  -4.549  1.00  0.00     0.158 A 
BRANCH  15  18
ATOM     18  O   UNL     1      -9.270  13.842  -6.033  1.00  0.00    -0.504 OA
ATOM     19  H   UNL     1      -8.570  13.364  -6.587  1.00  0.00     0.293 HD
ENDBRANCH  15  18
BRANCH  17  20
ATOM     20  O   UNL     1      -8.430  16.467  -5.647  1.00  0.00    -0.504 OA
ATOM     21  H   UNL     1      -8.974  16.339  -6.493  1.00  0.00     0.293 HD
ENDBRANCH  17  20
ENDBRANCH   1  12
BRANCH   2  22
ATOM     22  O   UNL     1      -5.828  15.007  -0.951  1.00  0.00    -0.502 OA
ATOM     23  H   UNL     1      -5.827  14.046  -1.272  1.00  0.00     0.293 HD
ENDBRANCH   2  22
BRANCH   6  24
ATOM     24  O   UNL     1      -6.533  16.778   4.024  1.00  0.00    -0.507 OA
ATOM     25  H   UNL     1      -6.573  16.611   5.018  1.00  0.00     0.293 HD
ENDBRANCH   6  24
BRANCH   8  26
ATOM     26  O   UNL     1     -11.012  18.472   3.686  1.00  0.00    -0.508 OA
ATOM     27  H   UNL     1     -10.884  19.275   4.291  1.00  0.00     0.293 HD
ENDBRANCH   8  26
TORSDOF 6
ENDMDL
MODEL 7
REMARK VINA RESULT:    -5.749      2.022      7.049
REMARK INTER + INTRA:          -7.132
REMARK INTER:                  -6.837
REMARK INTRA:                  -0.296
REMARK UNBOUND:                -0.207
REMARK SMILES O=c1c(O)c(-c2ccc(O)c(O)c2)oc2cc(O)cc(O)c12
REMARK SMILES IDX 5 1 3 2 2 3 1 4 22 5 20 6 19 7 17 8 16 9 15 10 14 11 6 12
REMARK SMILES IDX 7 13 8 14 9 15 13 16 11 17 10 18 12 20 4 22 21 24 18 26
REMARK H PARENT 10 19 12 21 4 23 21 25 18 27
REMARK Flexibility Score: inf
ROOT
ATOM      1  C   UNL     1      -8.723  14.030  -4.314  1.00  0.00     0.180 A 
ATOM      2  C   UNL     1      -9.989  13.950  -3.710  1.00  0.00     0.208 A 
ATOM      3  C   UNL     1     -10.119  14.288  -2.353  1.00  0.00     0.238 A 
ATOM      4  O   UNL     1     -11.244  14.163  -1.803  1.00  0.00    -0.285 OA
ATOM      5  C   UNL     1      -8.984  14.717  -1.623  1.00  0.00     0.111 A 
ATOM      6  C   UNL     1      -9.007  15.123  -0.255  1.00  0.00     0.134 A 
ATOM      7  C   UNL     1      -7.802  15.403   0.403  1.00  0.00     0.093 A 
ATOM      8  C   UNL     1      -6.582  15.356  -0.277  1.00  0.00     0.123 A 
ATOM      9  C   UNL     1      -6.556  15.019  -1.628  1.00  0.00     0.094 A 
ATOM     10  C   UNL     1      -7.738  14.699  -2.301  1.00  0.00     0.146 A 
ATOM     11  O   UNL     1      -7.667  14.372  -3.586  1.00  0.00    -0.452 OA
ENDROOT
BRANCH   1  12
ATOM     12  C   UNL     1      -8.512  13.714  -5.746  1.00  0.00     0.025 A 
ATOM     13  C   UNL     1      -8.379  12.375  -6.145  1.00  0.00     0.016 A 
ATOM     14  C   UNL     1      -8.159  12.056  -7.488  1.00  0.00     0.051 A 
ATOM     15  C   UNL     1      -8.054  13.072  -8.447  1.00  0.00     0.157 A 
ATOM     16  C   UNL     1      -8.387  14.731  -6.710  1.00  0.00     0.062 A 
ATOM     17  C   UNL     1      -8.164  14.411  -8.056  1.00  0.00     0.158 A 
BRANCH  15  18
ATOM     18  O   UNL     1      -7.837  12.757  -9.787  1.00  0.00    -0.504 OA
ATOM     19  H   UNL     1      -8.158  13.362 -10.533  1.00  0.00     0.293 HD
ENDBRANCH  15  18
BRANCH  17  20
ATOM     20  O   UNL     1      -8.045  15.421  -9.011  1.00  0.00    -0.504 OA
ATOM     21  H   UNL     1      -8.837  15.993  -9.279  1.00  0.00     0.293 HD
ENDBRANCH  17  20
ENDBRANCH   1  12
BRANCH   2  22
ATOM     22  O   UNL     1     -11.092  13.503  -4.443  1.00  0.00    -0.502 OA
ATOM     23  H   UNL     1     -11.917  14.073  -4.587  1.00  0.00     0.293 HD
ENDBRANCH   2  22
BRANCH   6  24
ATOM     24  O   UNL     1     -10.177  15.292   0.490  1.00  0.00    -0.507 OA
ATOM     25  H   UNL     1     -11.062  15.592   0.110  1.00  0.00     0.293 HD
ENDBRANCH   6  24
BRANCH   8  26
ATOM     26  O   UNL     1      -5.391  15.651   0.380  1.00  0.00    -0.508 OA
ATOM     27  H   UNL     1      -5.280  15.493   1.375  1.00  0.00     0.293 HD
ENDBRANCH   8  26
TORSDOF 6
ENDMDL
MODEL 8
REMARK VINA RESULT:    -5.724      3.313      5.498
REMARK INTER + INTRA:          -7.102
REMARK INTER:                  -6.840
REMARK INTRA:                  -0.262
REMARK UNBOUND:                -0.207
REMARK SMILES O=c1c(O)c(-c2ccc(O)c(O)c2)oc2cc(O)cc(O)c12
REMARK SMILES IDX 5 1 3 2 2 3 1 4 22 5 20 6 19 7 17 8 16 9 15 10 14 11 6 12
REMARK SMILES IDX 7 13 8 14 9 15 13 16 11 17 10 18 12 20 4 22 21 24 18 26
REMARK H PARENT 10 19 12 21 4 23 21 25 18 27
REMARK Flexibility Score: inf
ROOT
ATOM      1  C   UNL     1      -7.265  16.263   1.657  1.00  0.00     0.180 A 
ATOM      2  C   UNL     1      -6.297  15.578   0.904  1.00  0.00     0.208 A 
ATOM      3  C   UNL     1      -6.671  14.993  -0.317  1.00  0.00     0.238 A 
ATOM      4  O   UNL     1      -5.814  14.335  -0.961  1.00  0.00    -0.285 OA
ATOM      5  C   UNL     1      -8.005  15.117  -0.776  1.00  0.00     0.111 A 
ATOM      6  C   UNL     1      -8.485  14.600  -2.017  1.00  0.00     0.134 A 
ATOM      7  C   UNL     1      -9.853  14.667  -2.310  1.00  0.00     0.093 A 
ATOM      8  C   UNL     1     -10.747  15.291  -1.435  1.00  0.00     0.123 A 
ATOM      9  C   UNL     1     -10.279  15.850  -0.250  1.00  0.00     0.094 A 
ATOM     10  C   UNL     1      -8.925  15.767   0.086  1.00  0.00     0.146 A 
ATOM     11  O   UNL     1      -8.522  16.305   1.231  1.00  0.00    -0.452 OA
ENDROOT
BRANCH   1  12
ATOM     12  C   UNL     1      -6.940  16.926   2.942  1.00  0.00     0.025 A 
ATOM     13  C   UNL     1      -6.775  18.319   2.977  1.00  0.00     0.016 A 
ATOM     14  C   UNL     1      -6.449  18.962   4.174  1.00  0.00     0.051 A 
ATOM     15  C   UNL     1      -6.269  18.220   5.349  1.00  0.00     0.157 A 
ATOM     16  C   UNL     1      -6.739  16.182   4.119  1.00  0.00     0.062 A 
ATOM     17  C   UNL     1      -6.410  16.828   5.320  1.00  0.00     0.158 A 
BRANCH  15  18
ATOM     18  O   UNL     1      -5.945  18.858   6.544  1.00  0.00    -0.504 OA
ATOM     19  H   UNL     1      -4.994  18.888   6.889  1.00  0.00     0.293 HD
ENDBRANCH  15  18
BRANCH  17  20
ATOM     20  O   UNL     1      -6.216  16.090   6.487  1.00  0.00    -0.504 OA
ATOM     21  H   UNL     1      -6.931  15.467   6.845  1.00  0.00     0.293 HD
ENDBRANCH  17  20
ENDBRANCH   1  12
BRANCH   2  22
ATOM     22  O   UNL     1      -4.991  15.449   1.387  1.00  0.00    -0.502 OA
ATOM     23  H   UNL     1      -4.786  15.083   2.310  1.00  0.00     0.293 HD
ENDBRANCH   2  22
BRANCH   6  24
ATOM     24  O   UNL     1      -7.664  14.041  -3.000  1.00  0.00    -0.507 OA
ATOM     25  H   UNL     1      -6.692  13.803  -2.870  1.00  0.00     0.293 HD
ENDBRANCH   6  24
BRANCH   8  26
ATOM     26  O   UNL     1     -12.104  15.366  -1.742  1.00  0.00    -0.508 OA
ATOM     27  H   UNL     1     -12.628  16.225  -1.624  1.00  0.00     0.293 HD
ENDBRANCH   8  26
TORSDOF 6
ENDMDL
MODEL 9
REMARK VINA RESULT:    -5.637      2.390      2.910
REMARK INTER + INTRA:          -6.998
REMARK INTER:                  -6.675
REMARK INTRA:                  -0.322
REMARK UNBOUND:                -0.207
REMARK SMILES O=c1c(O)c(-c2ccc(O)c(O)c2)oc2cc(O)cc(O)c12
REMARK SMILES IDX 5 1 3 2 2 3 1 4 22 5 20 6 19 7 17 8 16 9 15 10 14 11 6 12
REMARK SMILES IDX 7 13 8 14 9 15 13 16 11 17 10 18 12 20 4 22 21 24 18 26
REMARK H PARENT 10 19 12 21 4 23 21 25 18 27
REMARK Flexibility Score: inf
ROOT
ATOM      1  C   UNL     1      -8.815  14.789  -3.221  1.00  0.00     0.180 A 
ATOM      2  C   UNL     1      -7.518  14.900  -3.751  1.00  0.00     0.208 A 
ATOM      3  C   UNL     1      -7.300  14.550  -5.094  1.00  0.00     0.238 A 
ATOM      4  O   UNL     1      -6.128  14.599  -5.550  1.00  0.00    -0.285 OA
ATOM      5  C   UNL     1      -8.384  14.112  -5.892  1.00  0.00     0.111 A 
ATOM      6  C   UNL     1      -8.286  13.770  -7.275  1.00  0.00     0.134 A 
ATOM      7  C   UNL     1      -9.396  13.224  -7.932  1.00  0.00     0.093 A 
ATOM      8  C   UNL     1     -10.618  13.067  -7.273  1.00  0.00     0.123 A 
ATOM      9  C   UNL     1     -10.740  13.453  -5.941  1.00  0.00     0.094 A 
ATOM     10  C   UNL     1      -9.640  13.967  -5.249  1.00  0.00     0.146 A 
ATOM     11  O   UNL     1      -9.797  14.312  -3.976  1.00  0.00    -0.452 OA
ENDROOT
BRANCH   1  12
ATOM     12  C   UNL     1      -9.128  15.162  -1.822  1.00  0.00     0.025 A 
ATOM     13  C   UNL     1      -9.504  16.482  -1.527  1.00  0.00     0.016 A 
ATOM     14  C   UNL     1      -9.784  16.860  -0.211  1.00  0.00     0.051 A 
ATOM     15  C   UNL     1      -9.677  15.929   0.830  1.00  0.00     0.157 A 
ATOM     16  C   UNL     1      -9.002  14.235  -0.771  1.00  0.00     0.062 A 
ATOM     17  C   UNL     1      -9.281  14.616   0.550  1.00  0.00     0.158 A 
BRANCH  15  18
ATOM     18  O   UNL     1      -9.957  16.302   2.143  1.00  0.00    -0.504 OA
ATOM     19  H   UNL     1      -9.233  16.343   2.849  1.00  0.00     0.293 HD
ENDBRANCH  15  18
BRANCH  17  20
ATOM     20  O   UNL     1      -9.161  13.694   1.589  1.00  0.00    -0.504 OA
ATOM     21  H   UNL     1      -8.474  12.950   1.563  1.00  0.00     0.293 HD
ENDBRANCH  17  20
ENDBRANCH   1  12
BRANCH   2  22
ATOM     22  O   UNL     1      -6.459  15.314  -2.940  1.00  0.00    -0.502 OA
ATOM     23  H   UNL     1      -6.350  14.998  -1.983  1.00  0.00     0.293 HD
ENDBRANCH   2  22
BRANCH   6  24
ATOM     24  O   UNL     1      -7.140  13.972  -8.050  1.00  0.00    -0.507 OA
ATOM     25  H   UNL     1      -6.203  13.730  -7.763  1.00  0.00     0.293 HD
ENDBRANCH   6  24
BRANCH   8  26
ATOM     26  O   UNL     1     -11.721  12.537  -7.938  1.00  0.00    -0.508 OA
ATOM     27  H   UNL     1     -12.637  12.965  -7.873  1.00  0.00     0.293 HD
ENDBRANCH   8  26
TORSDOF 6
ENDMDL
