MODEL 1
REMARK VINA RESULT:    -3.775      0.000      0.000
REMARK INTER + INTRA:          -7.984
REMARK INTER:                  -6.864
REMARK INTRA:                  -1.119
REMARK UNBOUND:                -1.119
REMARK SMILES CCCCCCCCCCCCCCCC(=O)[O-]
REMARK SMILES IDX 9 1 10 2 11 3 12 4 13 5 14 6 15 7 16 8 17 9 18 10 8 11 7 12
REMARK SMILES IDX 6 13 5 14 4 15 3 16 2 17 1 18
REMARK H PARENT
REMARK Flexibility Score: inf
ROOT
ATOM      1  C   UNL     1      13.510 -18.004  -4.558  1.00  0.00     0.000 C 
ENDROOT
BRANCH   1   2
ATOM      2  C   UNL     1      14.758 -18.903  -4.581  1.00  0.00     0.000 C 
BRANCH   2   3
ATOM      3  C   UNL     1      15.891 -18.365  -3.693  1.00  0.00     0.000 C 
BRANCH   3   4
ATOM      4  C   UNL     1      17.209 -19.139  -3.872  1.00  0.00     0.000 C 
BRANCH   4   5
ATOM      5  C   UNL     1      17.619 -19.896  -2.590  1.00  0.00     0.000 C 
BRANCH   5   6
ATOM      6  C   UNL     1      17.787 -21.410  -2.797  1.00  0.00     0.006 C 
BRANCH   6   7
ATOM      7  C   UNL     1      16.949 -22.243  -1.819  1.00  0.00     0.053 C 
BRANCH   7   8
ATOM      8  C   UNL     1      16.208 -23.317  -2.550  1.00  0.00     0.041 C 
ATOM      9  O   UNL     1      16.694 -23.825  -3.595  1.00  0.00    -0.550 OA
ATOM     10  O   UNL     1      14.956 -23.724  -2.104  1.00  0.00    -0.550 OA
ENDBRANCH   7   8
ENDBRANCH   6   7
ENDBRANCH   5   6
ENDBRANCH   4   5
ENDBRANCH   3   4
ENDBRANCH   2   3
ENDBRANCH   1   2
BRANCH   1  11
ATOM     11  C   UNL     1      12.201 -18.811  -4.592  1.00  0.00     0.000 C 
BRANCH  11  12
ATOM     12  C   UNL     1      11.456 -18.671  -5.931  1.00  0.00    -0.000 C 
BRANCH  12  13
ATOM     13  C   UNL     1      10.446 -17.511  -5.927  1.00  0.00    -0.000 C 
BRANCH  13  14
ATOM     14  C   UNL     1       9.665 -17.411  -4.604  1.00  0.00    -0.000 C 
BRANCH  14  15
ATOM     15  C   UNL     1       9.649 -15.983  -4.036  1.00  0.00    -0.000 C 
BRANCH  15  16
ATOM     16  C   UNL     1      10.914 -15.651  -3.227  1.00  0.00    -0.000 C 
BRANCH  16  17
ATOM     17  C   UNL     1      11.915 -14.801  -4.026  1.00  0.00    -0.003 C 
ATOM     18  C   UNL     1      11.229 -13.817  -4.973  1.00  0.00     0.004 C 
ENDBRANCH  16  17
ENDBRANCH  15  16
ENDBRANCH  14  15
ENDBRANCH  13  14
ENDBRANCH  12  13
ENDBRANCH  11  12
ENDBRANCH   1  11
TORSDOF 14
ENDMDL
MODEL 2
REMARK VINA RESULT:    -3.767      0.719      2.197
REMARK INTER + INTRA:          -7.969
REMARK INTER:                  -6.861
REMARK INTRA:                  -1.107
REMARK UNBOUND:                -1.119
REMARK SMILES CCCCCCCCCCCCCCCC(=O)[O-]
REMARK SMILES IDX 9 1 10 2 11 3 12 4 13 5 14 6 15 7 16 8 17 9 18 10 8 11 7 12
REMARK SMILES IDX 6 13 5 14 4 15 3 16 2 17 1 18
REMARK H PARENT
REMARK Flexibility Score: inf
ROOT
ATOM      1  C   UNL     1      13.437 -17.681  -4.289  1.00  0.00     0.000 C 
ENDROOT
BRANCH   1   2
ATOM      2  C   UNL     1      14.625 -18.605  -4.608  1.00  0.00     0.000 C 
BRANCH   2   3
ATOM      3  C   UNL     1      15.893 -18.229  -3.826  1.00  0.00     0.000 C 
BRANCH   3   4
ATOM      4  C   UNL     1      17.009 -19.281  -3.957  1.00  0.00     0.000 C 
BRANCH   4   5
ATOM      5  C   UNL     1      17.374 -19.916  -2.599  1.00  0.00     0.000 C 
BRANCH   5   6
ATOM      6  C   UNL     1      17.769 -21.398  -2.698  1.00  0.00     0.006 C 
BRANCH   6   7
ATOM      7  C   UNL     1      17.041 -22.281  -1.677  1.00  0.00     0.053 C 
BRANCH   7   8
ATOM      8  C   UNL     1      16.220 -23.318  -2.374  1.00  0.00     0.041 C 
ATOM      9  O   UNL     1      16.611 -23.807  -3.467  1.00  0.00    -0.550 OA
ATOM     10  O   UNL     1      14.998 -23.710  -1.841  1.00  0.00    -0.550 OA
ENDBRANCH   7   8
ENDBRANCH   6   7
ENDBRANCH   5   6
ENDBRANCH   4   5
ENDBRANCH   3   4
ENDBRANCH   2   3
ENDBRANCH   1   2
BRANCH   1  11
ATOM     11  C   UNL     1      13.869 -16.392  -3.570  1.00  0.00     0.000 C 
BRANCH  11  12
ATOM     12  C   UNL     1      12.691 -15.430  -3.325  1.00  0.00    -0.000 C 
BRANCH  12  13
ATOM     13  C   UNL     1      12.192 -14.765  -4.619  1.00  0.00    -0.000 C 
BRANCH  13  14
ATOM     14  C   UNL     1      10.663 -14.593  -4.644  1.00  0.00    -0.000 C 
BRANCH  14  15
ATOM     15  C   UNL     1       9.956 -15.453  -3.584  1.00  0.00    -0.000 C 
BRANCH  15  16
ATOM     16  C   UNL     1       9.132 -16.597  -4.200  1.00  0.00    -0.000 C 
BRANCH  16  17
ATOM     17  C   UNL     1      10.009 -17.776  -4.649  1.00  0.00    -0.003 C 
ATOM     18  C   UNL     1      10.266 -17.779  -6.156  1.00  0.00     0.004 C 
ENDBRANCH  16  17
ENDBRANCH  15  16
ENDBRANCH  14  15
ENDBRANCH  13  14
ENDBRANCH  12  13
ENDBRANCH  11  12
ENDBRANCH   1  11
TORSDOF 14
ENDMDL
MODEL 3
REMARK VINA RESULT:    -3.673      3.635      8.396
REMARK INTER + INTRA:          -7.799
REMARK INTER:                  -6.868
REMARK INTRA:                  -0.930
REMARK UNBOUND:                -1.119
REMARK SMILES CCCCCCCCCCCCCCCC(=O)[O-]
REMARK SMILES IDX 9 1 10 2 11 3 12 4 13 5 14 6 15 7 16 8 17 9 18 10 8 11 7 12
REMARK SMILES IDX 6 13 5 14 4 15 3 16 2 17 1 18
REMARK H PARENT
REMARK Flexibility Score: inf
ROOT
ATOM      1  C   UNL     1      13.491 -17.949  -4.434  1.00  0.00     0.000 C 
ENDROOT
BRANCH   1   2
ATOM      2  C   UNL     1      12.208 -18.612  -4.967  1.00  0.00     0.000 C 
BRANCH   2   3
ATOM      3  C   UNL     1      11.246 -19.024  -3.843  1.00  0.00     0.000 C 
BRANCH   3   4
ATOM      4  C   UNL     1      10.601 -17.817  -3.136  1.00  0.00     0.000 C 
BRANCH   4   5
ATOM      5  C   UNL     1       9.294 -17.370  -3.824  1.00  0.00     0.000 C 
BRANCH   5   6
ATOM      6  C   UNL     1       9.139 -15.843  -3.917  1.00  0.00     0.006 C 
BRANCH   6   7
ATOM      7  C   UNL     1      10.434 -15.089  -3.591  1.00  0.00     0.053 C 
BRANCH   7   8
ATOM      8  C   UNL     1      11.063 -14.564  -4.842  1.00  0.00     0.041 C 
ATOM      9  O   UNL     1      11.316 -15.342  -5.799  1.00  0.00    -0.550 OA
ATOM     10  O   UNL     1      11.415 -13.223  -4.933  1.00  0.00    -0.550 OA
ENDBRANCH   7   8
ENDBRANCH   6   7
ENDBRANCH   5   6
ENDBRANCH   4   5
ENDBRANCH   3   4
ENDBRANCH   2   3
ENDBRANCH   1   2
BRANCH   1  11
ATOM     11  C   UNL     1      14.725 -18.856  -4.572  1.00  0.00     0.000 C 
BRANCH  11  12
ATOM     12  C   UNL     1      15.937 -18.328  -3.784  1.00  0.00    -0.000 C 
BRANCH  12  13
ATOM     13  C   UNL     1      17.154 -19.262  -3.875  1.00  0.00    -0.000 C 
BRANCH  13  14
ATOM     14  C   UNL     1      17.474 -19.951  -2.536  1.00  0.00    -0.000 C 
BRANCH  14  15
ATOM     15  C   UNL     1      17.640 -21.473  -2.682  1.00  0.00    -0.000 C 
BRANCH  15  16
ATOM     16  C   UNL     1      17.474 -22.219  -1.347  1.00  0.00    -0.000 C 
BRANCH  16  17
ATOM     17  C   UNL     1      16.812 -23.595  -1.522  1.00  0.00    -0.003 C 
ATOM     18  C   UNL     1      15.565 -23.542  -2.405  1.00  0.00     0.004 C 
ENDBRANCH  16  17
ENDBRANCH  15  16
ENDBRANCH  14  15
ENDBRANCH  13  14
ENDBRANCH  12  13
ENDBRANCH  11  12
ENDBRANCH   1  11
TORSDOF 14
ENDMDL
MODEL 4
REMARK VINA RESULT:    -3.598      1.002      1.811
REMARK INTER + INTRA:          -7.662
REMARK INTER:                  -6.700
REMARK INTRA:                  -0.962
REMARK UNBOUND:                -1.119
REMARK SMILES CCCCCCCCCCCCCCCC(=O)[O-]
REMARK SMILES IDX 9 1 10 2 11 3 12 4 13 5 14 6 15 7 16 8 17 9 18 10 8 11 7 12
REMARK SMILES IDX 6 13 5 14 4 15 3 16 2 17 1 18
REMARK H PARENT
REMARK Flexibility Score: inf
ROOT
ATOM      1  C   UNL     1      12.194 -18.958  -4.433  1.00  0.00     0.000 C 
ENDROOT
BRANCH   1   2
ATOM      2  C   UNL     1      13.468 -18.111  -4.597  1.00  0.00     0.000 C 
BRANCH   2   3
ATOM      3  C   UNL     1      14.746 -18.964  -4.624  1.00  0.00     0.000 C 
BRANCH   3   4
ATOM      4  C   UNL     1      15.881 -18.366  -3.774  1.00  0.00     0.000 C 
BRANCH   4   5
ATOM      5  C   UNL     1      17.179 -19.195  -3.871  1.00  0.00     0.000 C 
BRANCH   5   6
ATOM      6  C   UNL     1      17.487 -20.009  -2.604  1.00  0.00     0.006 C 
BRANCH   6   7
ATOM      7  C   UNL     1      17.898 -21.455  -2.907  1.00  0.00     0.053 C 
BRANCH   7   8
ATOM      8  C   UNL     1      17.001 -22.414  -2.193  1.00  0.00     0.041 C 
ATOM      9  O   UNL     1      17.239 -22.737  -0.999  1.00  0.00    -0.550 OA
ATOM     10  O   UNL     1      15.928 -22.992  -2.862  1.00  0.00    -0.550 OA
ENDBRANCH   7   8
ENDBRANCH   6   7
ENDBRANCH   5   6
ENDBRANCH   4   5
ENDBRANCH   3   4
ENDBRANCH   2   3
ENDBRANCH   1   2
BRANCH   1  11
ATOM     11  C   UNL     1      11.281 -18.895  -5.668  1.00  0.00     0.000 C 
BRANCH  11  12
ATOM     12  C   UNL     1      10.625 -17.513  -5.848  1.00  0.00    -0.000 C 
BRANCH  12  13
ATOM     13  C   UNL     1       9.568 -17.216  -4.771  1.00  0.00    -0.000 C 
BRANCH  13  14
ATOM     14  C   UNL     1       9.619 -15.759  -4.278  1.00  0.00    -0.000 C 
BRANCH  14  15
ATOM     15  C   UNL     1      10.637 -14.909  -5.056  1.00  0.00    -0.000 C 
BRANCH  15  16
ATOM     16  C   UNL     1      11.802 -14.424  -4.177  1.00  0.00    -0.000 C 
BRANCH  16  17
ATOM     17  C   UNL     1      12.218 -15.465  -3.126  1.00  0.00    -0.003 C 
ATOM     18  C   UNL     1      13.704 -15.389  -2.775  1.00  0.00     0.004 C 
ENDBRANCH  16  17
ENDBRANCH  15  16
ENDBRANCH  14  15
ENDBRANCH  13  14
ENDBRANCH  12  13
ENDBRANCH  11  12
ENDBRANCH   1  11
TORSDOF 14
ENDMDL
MODEL 5
REMARK VINA RESULT:    -3.543      1.493      3.010
REMARK INTER + INTRA:          -7.563
REMARK INTER:                  -5.894
REMARK INTRA:                  -1.669
REMARK UNBOUND:                -1.119
REMARK SMILES CCCCCCCCCCCCCCCC(=O)[O-]
REMARK SMILES IDX 9 1 10 2 11 3 12 4 13 5 14 6 15 7 16 8 17 9 18 10 8 11 7 12
REMARK SMILES IDX 6 13 5 14 4 15 3 16 2 17 1 18
REMARK H PARENT
REMARK Flexibility Score: inf
ROOT
ATOM      1  C   UNL     1      13.163 -15.490  -3.169  1.00  0.00     0.000 C 
ENDROOT
BRANCH   1   2
ATOM      2  C   UNL     1      14.213 -16.608  -3.294  1.00  0.00     0.000 C 
BRANCH   2   3
ATOM      3  C   UNL     1      13.808 -17.688  -4.309  1.00  0.00     0.000 C 
BRANCH   3   4
ATOM      4  C   UNL     1      14.935 -18.698  -4.588  1.00  0.00     0.000 C 
BRANCH   4   5
ATOM      5  C   UNL     1      16.144 -18.495  -3.650  1.00  0.00     0.000 C 
BRANCH   5   6
ATOM      6  C   UNL     1      17.167 -19.641  -3.708  1.00  0.00     0.006 C 
BRANCH   6   7
ATOM      7  C   UNL     1      17.754 -19.988  -2.334  1.00  0.00     0.053 C 
BRANCH   7   8
ATOM      8  C   UNL     1      17.312 -21.350  -1.906  1.00  0.00     0.041 C 
ATOM      9  O   UNL     1      16.650 -22.078  -2.691  1.00  0.00    -0.550 OA
ATOM     10  O   UNL     1      17.589 -21.798  -0.620  1.00  0.00    -0.550 OA
ENDBRANCH   7   8
ENDBRANCH   6   7
ENDBRANCH   5   6
ENDBRANCH   4   5
ENDBRANCH   3   4
ENDBRANCH   2   3
ENDBRANCH   1   2
BRANCH   1  11
ATOM     11  C   UNL     1      12.700 -14.959  -4.535  1.00  0.00     0.000 C 
BRANCH  11  12
ATOM     12  C   UNL     1      11.376 -14.179  -4.448  1.00  0.00    -0.000 C 
BRANCH  12  13
ATOM     13  C   UNL     1      10.286 -14.761  -5.364  1.00  0.00    -0.000 C 
BRANCH  13  14
ATOM     14  C   UNL     1      10.716 -16.078  -6.033  1.00  0.00    -0.000 C 
BRANCH  14  15
ATOM     15  C   UNL     1      10.064 -17.310  -5.384  1.00  0.00    -0.000 C 
BRANCH  15  16
ATOM     16  C   UNL     1       9.169 -16.946  -4.187  1.00  0.00    -0.000 C 
BRANCH  16  17
ATOM     17  C   UNL     1       9.824 -17.281  -2.838  1.00  0.00    -0.003 C 
ATOM     18  C   UNL     1      10.674 -18.551  -2.895  1.00  0.00     0.004 C 
ENDBRANCH  16  17
ENDBRANCH  15  16
ENDBRANCH  14  15
ENDBRANCH  13  14
ENDBRANCH  12  13
ENDBRANCH  11  12
ENDBRANCH   1  11
TORSDOF 14
ENDMDL
MODEL 6
REMARK VINA RESULT:    -3.504      2.706      7.849
REMARK INTER + INTRA:          -7.491
REMARK INTER:                  -6.565
REMARK INTRA:                  -0.926
REMARK UNBOUND:                -1.119
REMARK SMILES CCCCCCCCCCCCCCCC(=O)[O-]
REMARK SMILES IDX 9 1 10 2 11 3 12 4 13 5 14 6 15 7 16 8 17 9 18 10 8 11 7 12
REMARK SMILES IDX 6 13 5 14 4 15 3 16 2 17 1 18
REMARK H PARENT
REMARK Flexibility Score: inf
ROOT
ATOM      1  C   UNL     1      14.190 -16.573  -3.348  1.00  0.00     0.000 C 
ENDROOT
BRANCH   1   2
ATOM      2  C   UNL     1      13.085 -15.504  -3.282  1.00  0.00     0.000 C 
BRANCH   2   3
ATOM      3  C   UNL     1      12.496 -15.178  -4.663  1.00  0.00     0.000 C 
BRANCH   3   4
ATOM      4  C   UNL     1      11.407 -14.091  -4.607  1.00  0.00     0.000 C 
BRANCH   4   5
ATOM      5  C   UNL     1      10.006 -14.654  -4.923  1.00  0.00     0.000 C 
BRANCH   5   6
ATOM      6  C   UNL     1       9.423 -15.524  -3.797  1.00  0.00     0.006 C 
BRANCH   6   7
ATOM      7  C   UNL     1       8.958 -16.901  -4.285  1.00  0.00     0.053 C 
BRANCH   7   8
ATOM      8  C   UNL     1      10.135 -17.769  -4.598  1.00  0.00     0.041 C 
ATOM      9  O   UNL     1      10.729 -18.388  -3.677  1.00  0.00    -0.550 OA
ATOM     10  O   UNL     1      10.607 -17.856  -5.902  1.00  0.00    -0.550 OA
ENDBRANCH   7   8
ENDBRANCH   6   7
ENDBRANCH   5   6
ENDBRANCH   4   5
ENDBRANCH   3   4
ENDBRANCH   2   3
ENDBRANCH   1   2
BRANCH   1  11
ATOM     11  C   UNL     1      13.833 -17.734  -4.291  1.00  0.00     0.000 C 
BRANCH  11  12
ATOM     12  C   UNL     1      15.042 -18.637  -4.599  1.00  0.00    -0.000 C 
BRANCH  12  13
ATOM     13  C   UNL     1      16.161 -18.503  -3.553  1.00  0.00    -0.000 C 
BRANCH  13  14
ATOM     14  C   UNL     1      17.408 -19.330  -3.912  1.00  0.00    -0.000 C 
BRANCH  14  15
ATOM     15  C   UNL     1      17.971 -20.100  -2.706  1.00  0.00    -0.000 C 
BRANCH  15  16
ATOM     16  C   UNL     1      17.110 -21.316  -2.323  1.00  0.00    -0.000 C 
BRANCH  16  17
ATOM     17  C   UNL     1      17.696 -22.639  -2.840  1.00  0.00    -0.003 C 
ATOM     18  C   UNL     1      16.620 -23.674  -3.166  1.00  0.00     0.004 C 
ENDBRANCH  16  17
ENDBRANCH  15  16
ENDBRANCH  14  15
ENDBRANCH  13  14
ENDBRANCH  12  13
ENDBRANCH  11  12
ENDBRANCH   1  11
TORSDOF 14
ENDMDL
MODEL 7
REMARK VINA RESULT:    -3.453      3.556      8.489
REMARK INTER + INTRA:          -7.398
REMARK INTER:                  -6.678
REMARK INTRA:                  -0.719
REMARK UNBOUND:                -1.119
REMARK SMILES CCCCCCCCCCCCCCCC(=O)[O-]
REMARK SMILES IDX 9 1 10 2 11 3 12 4 13 5 14 6 15 7 16 8 17 9 18 10 8 11 7 12
REMARK SMILES IDX 6 13 5 14 4 15 3 16 2 17 1 18
REMARK H PARENT
REMARK Flexibility Score: inf
ROOT
ATOM      1  C   UNL     1      15.058 -18.715  -4.633  1.00  0.00     0.000 C 
ENDROOT
BRANCH   1   2
ATOM      2  C   UNL     1      13.728 -18.048  -4.241  1.00  0.00     0.000 C 
BRANCH   2   3
ATOM      3  C   UNL     1      12.505 -18.896  -4.626  1.00  0.00     0.000 C 
BRANCH   3   4
ATOM      4  C   UNL     1      11.202 -18.393  -3.979  1.00  0.00     0.000 C 
BRANCH   4   5
ATOM      5  C   UNL     1      10.242 -17.768  -5.013  1.00  0.00     0.000 C 
BRANCH   5   6
ATOM      6  C   UNL     1       9.428 -16.586  -4.462  1.00  0.00     0.006 C 
BRANCH   6   7
ATOM      7  C   UNL     1      10.237 -15.694  -3.513  1.00  0.00     0.053 C 
BRANCH   7   8
ATOM      8  C   UNL     1      11.124 -14.773  -4.290  1.00  0.00     0.041 C 
ATOM      9  O   UNL     1      10.624 -13.875  -5.017  1.00  0.00    -0.550 OA
ATOM     10  O   UNL     1      12.503 -14.938  -4.249  1.00  0.00    -0.550 OA
ENDBRANCH   7   8
ENDBRANCH   6   7
ENDBRANCH   5   6
ENDBRANCH   4   5
ENDBRANCH   3   4
ENDBRANCH   2   3
ENDBRANCH   1   2
BRANCH   1  11
ATOM     11  C   UNL     1      16.158 -18.500  -3.581  1.00  0.00     0.000 C 
BRANCH  11  12
ATOM     12  C   UNL     1      17.294 -19.533  -3.695  1.00  0.00    -0.000 C 
BRANCH  12  13
ATOM     13  C   UNL     1      17.526 -20.303  -2.385  1.00  0.00    -0.000 C 
BRANCH  13  14
ATOM     14  C   UNL     1      17.443 -21.828  -2.571  1.00  0.00    -0.000 C 
BRANCH  14  15
ATOM     15  C   UNL     1      17.350 -22.581  -1.234  1.00  0.00    -0.000 C 
BRANCH  15  16
ATOM     16  C   UNL     1      16.852 -24.027  -1.400  1.00  0.00    -0.000 C 
BRANCH  16  17
ATOM     17  C   UNL     1      15.504 -24.104  -2.133  1.00  0.00    -0.003 C 
ATOM     18  C   UNL     1      14.312 -24.125  -1.175  1.00  0.00     0.004 C 
ENDBRANCH  16  17
ENDBRANCH  15  16
ENDBRANCH  14  15
ENDBRANCH  13  14
ENDBRANCH  12  13
ENDBRANCH  11  12
ENDBRANCH   1  11
TORSDOF 14
ENDMDL
MODEL 8
REMARK VINA RESULT:    -3.234      2.769      7.882
REMARK INTER + INTRA:          -7.001
REMARK INTER:                  -6.005
REMARK INTRA:                  -0.995
REMARK UNBOUND:                -1.119
REMARK SMILES CCCCCCCCCCCCCCCC(=O)[O-]
REMARK SMILES IDX 9 1 10 2 11 3 12 4 13 5 14 6 15 7 16 8 17 9 18 10 8 11 7 12
REMARK SMILES IDX 6 13 5 14 4 15 3 16 2 17 1 18
REMARK H PARENT
REMARK Flexibility Score: inf
ROOT
ATOM      1  C   UNL     1      15.031 -18.907  -4.358  1.00  0.00     0.000 C 
ENDROOT
BRANCH   1   2
ATOM      2  C   UNL     1      13.992 -17.771  -4.372  1.00  0.00     0.000 C 
BRANCH   2   3
ATOM      3  C   UNL     1      14.387 -16.597  -3.463  1.00  0.00     0.000 C 
BRANCH   3   4
ATOM      4  C   UNL     1      13.198 -15.685  -3.115  1.00  0.00     0.000 C 
BRANCH   4   5
ATOM      5  C   UNL     1      12.311 -15.390  -4.343  1.00  0.00     0.000 C 
BRANCH   5   6
ATOM      6  C   UNL     1      10.848 -15.080  -3.987  1.00  0.00     0.006 C 
BRANCH   6   7
ATOM      7  C   UNL     1      10.125 -16.268  -3.341  1.00  0.00     0.053 C 
BRANCH   7   8
ATOM      8  C   UNL     1      10.341 -17.510  -4.145  1.00  0.00     0.041 C 
ATOM      9  O   UNL     1      10.770 -18.557  -3.592  1.00  0.00    -0.550 OA
ATOM     10  O   UNL     1      10.113 -17.499  -5.516  1.00  0.00    -0.550 OA
ENDBRANCH   7   8
ENDBRANCH   6   7
ENDBRANCH   5   6
ENDBRANCH   4   5
ENDBRANCH   3   4
ENDBRANCH   2   3
ENDBRANCH   1   2
BRANCH   1  11
ATOM     11  C   UNL     1      16.303 -18.533  -3.581  1.00  0.00     0.000 C 
BRANCH  11  12
ATOM     12  C   UNL     1      17.433 -19.562  -3.768  1.00  0.00    -0.000 C 
BRANCH  12  13
ATOM     13  C   UNL     1      18.062 -19.998  -2.434  1.00  0.00    -0.000 C 
BRANCH  13  14
ATOM     14  C   UNL     1      17.536 -21.361  -1.950  1.00  0.00    -0.000 C 
BRANCH  14  15
ATOM     15  C   UNL     1      18.003 -22.523  -2.841  1.00  0.00    -0.000 C 
BRANCH  15  16
ATOM     16  C   UNL     1      16.842 -23.414  -3.314  1.00  0.00    -0.000 C 
BRANCH  16  17
ATOM     17  C   UNL     1      15.519 -23.078  -2.608  1.00  0.00    -0.003 C 
ATOM     18  C   UNL     1      15.127 -24.122  -1.562  1.00  0.00     0.004 C 
ENDBRANCH  16  17
ENDBRANCH  15  16
ENDBRANCH  14  15
ENDBRANCH  13  14
ENDBRANCH  12  13
ENDBRANCH  11  12
ENDBRANCH   1  11
TORSDOF 14
ENDMDL
MODEL 9
REMARK VINA RESULT:    -2.996      2.068      3.923
REMARK INTER + INTRA:          -6.567
REMARK INTER:                  -4.523
REMARK INTRA:                  -2.043
REMARK UNBOUND:                -1.119
REMARK SMILES CCCCCCCCCCCCCCCC(=O)[O-]
REMARK SMILES IDX 9 1 10 2 11 3 12 4 13 5 14 6 15 7 16 8 17 9 18 10 8 11 7 12
REMARK SMILES IDX 6 13 5 14 4 15 3 16 2 17 1 18
REMARK H PARENT
REMARK Flexibility Score: inf
ROOT
ATOM      1  C   UNL     1      10.355 -17.572  -2.780  1.00  0.00     0.000 C 
ENDROOT
BRANCH   1   2
ATOM      2  C   UNL     1      10.996 -18.835  -3.382  1.00  0.00     0.000 C 
BRANCH   2   3
ATOM      3  C   UNL     1      11.096 -18.774  -4.914  1.00  0.00     0.000 C 
BRANCH   3   4
ATOM      4  C   UNL     1      12.534 -18.537  -5.410  1.00  0.00     0.000 C 
BRANCH   4   5
ATOM      5  C   UNL     1      13.587 -19.098  -4.430  1.00  0.00     0.000 C 
BRANCH   5   6
ATOM      6  C   UNL     1      15.031 -18.719  -4.796  1.00  0.00     0.006 C 
BRANCH   6   7
ATOM      7  C   UNL     1      15.906 -18.440  -3.568  1.00  0.00     0.053 C 
BRANCH   7   8
ATOM      8  C   UNL     1      17.077 -19.370  -3.539  1.00  0.00     0.041 C 
ATOM      9  O   UNL     1      18.055 -19.182  -4.309  1.00  0.00    -0.550 OA
ATOM     10  O   UNL     1      17.067 -20.474  -2.695  1.00  0.00    -0.550 OA
ENDBRANCH   7   8
ENDBRANCH   6   7
ENDBRANCH   5   6
ENDBRANCH   4   5
ENDBRANCH   3   4
ENDBRANCH   2   3
ENDBRANCH   1   2
BRANCH   1  11
ATOM     11  C   UNL     1       8.880 -17.410  -3.183  1.00  0.00     0.000 C 
BRANCH  11  12
ATOM     12  C   UNL     1       8.655 -16.220  -4.134  1.00  0.00    -0.000 C 
BRANCH  12  13
ATOM     13  C   UNL     1       9.735 -15.134  -3.988  1.00  0.00    -0.000 C 
BRANCH  13  14
ATOM     14  C   UNL     1      10.384 -14.761  -5.332  1.00  0.00    -0.000 C 
BRANCH  14  15
ATOM     15  C   UNL     1      11.919 -14.827  -5.283  1.00  0.00    -0.000 C 
BRANCH  15  16
ATOM     16  C   UNL     1      12.479 -14.597  -3.869  1.00  0.00    -0.000 C 
BRANCH  16  17
ATOM     17  C   UNL     1      13.288 -15.799  -3.355  1.00  0.00    -0.003 C 
ATOM     18  C   UNL     1      13.993 -15.512  -2.030  1.00  0.00     0.004 C 
ENDBRANCH  16  17
ENDBRANCH  15  16
ENDBRANCH  14  15
ENDBRANCH  13  14
ENDBRANCH  12  13
ENDBRANCH  11  12
ENDBRANCH   1  11
TORSDOF 14
ENDMDL
