MODEL 1
REMARK VINA RESULT:    -4.558      0.000      0.000
REMARK INTER + INTRA:         -10.448
REMARK INTER:                  -8.821
REMARK INTRA:                  -1.627
REMARK UNBOUND:                -1.627
REMARK SMILES CCCCCCCCCCCCCCCCCC(=O)[O-]
REMARK SMILES IDX 10 1 11 2 12 3 13 4 14 5 15 6 16 7 17 8 18 9 19 10 20 11
REMARK SMILES IDX 9 12 8 13 7 14 6 15 5 16 4 17 3 18 2 19 1 20
REMARK H PARENT
REMARK Flexibility Score: inf
ROOT
ATOM      1  C   UNL     1      18.788  11.563 -13.428  1.00  0.00     0.000 C 
ENDROOT
BRANCH   1   2
ATOM      2  C   UNL     1      19.321  12.438 -14.579  1.00  0.00     0.000 C 
BRANCH   2   3
ATOM      3  C   UNL     1      20.341  13.516 -14.161  1.00  0.00     0.000 C 
BRANCH   3   4
ATOM      4  C   UNL     1      21.580  12.929 -13.463  1.00  0.00     0.000 C 
BRANCH   4   5
ATOM      5  C   UNL     1      22.606  14.007 -13.078  1.00  0.00     0.000 C 
BRANCH   5   6
ATOM      6  C   UNL     1      23.107  14.807 -14.292  1.00  0.00     0.000 C 
BRANCH   6   7
ATOM      7  C   UNL     1      22.865  16.309 -14.096  1.00  0.00     0.006 C 
BRANCH   7   8
ATOM      8  C   UNL     1      22.723  17.022 -15.444  1.00  0.00     0.053 C 
BRANCH   8   9
ATOM      9  C   UNL     1      21.605  18.014 -15.397  1.00  0.00     0.041 C 
ATOM     10  O   UNL     1      20.560  17.825 -16.075  1.00  0.00    -0.550 OA
ATOM     11  O   UNL     1      21.694  19.126 -14.568  1.00  0.00    -0.550 OA
ENDBRANCH   8   9
ENDBRANCH   7   8
ENDBRANCH   6   7
ENDBRANCH   5   6
ENDBRANCH   4   5
ENDBRANCH   3   4
ENDBRANCH   2   3
ENDBRANCH   1   2
BRANCH   1  12
ATOM     12  C   UNL     1      18.701  10.058 -13.743  1.00  0.00     0.000 C 
BRANCH  12  13
ATOM     13  C   UNL     1      18.518   9.746 -15.245  1.00  0.00    -0.000 C 
BRANCH  13  14
ATOM     14  C   UNL     1      17.234   8.947 -15.525  1.00  0.00    -0.000 C 
BRANCH  14  15
ATOM     15  C   UNL     1      16.234   9.003 -14.356  1.00  0.00    -0.000 C 
BRANCH  15  16
ATOM     16  C   UNL     1      14.772   8.928 -14.820  1.00  0.00    -0.000 C 
BRANCH  16  17
ATOM     17  C   UNL     1      14.212  10.331 -15.099  1.00  0.00    -0.000 C 
BRANCH  17  18
ATOM     18  C   UNL     1      14.318  11.265 -13.883  1.00  0.00    -0.000 C 
BRANCH  18  19
ATOM     19  C   UNL     1      15.446  12.299 -14.027  1.00  0.00    -0.003 C 
ATOM     20  C   UNL     1      15.711  12.621 -15.495  1.00  0.00     0.004 C 
ENDBRANCH  18  19
ENDBRANCH  17  18
ENDBRANCH  16  17
ENDBRANCH  15  16
ENDBRANCH  14  15
ENDBRANCH  13  14
ENDBRANCH  12  13
ENDBRANCH   1  12
TORSDOF 16
ENDMDL
MODEL 2
REMARK VINA RESULT:    -4.050      3.029      7.799
REMARK INTER + INTRA:          -9.466
REMARK INTER:                  -7.929
REMARK INTRA:                  -1.537
REMARK UNBOUND:                -1.627
REMARK SMILES CCCCCCCCCCCCCCCCCC(=O)[O-]
REMARK SMILES IDX 10 1 11 2 12 3 13 4 14 5 15 6 16 7 17 8 18 9 19 10 20 11
REMARK SMILES IDX 9 12 8 13 7 14 6 15 5 16 4 17 3 18 2 19 1 20
REMARK H PARENT
REMARK Flexibility Score: inf
ROOT
ATOM      1  C   UNL     1      15.480  12.894 -15.583  1.00  0.00     0.000 C 
ENDROOT
BRANCH   1   2
ATOM      2  C   UNL     1      15.480  12.448 -14.108  1.00  0.00     0.000 C 
BRANCH   2   3
ATOM      3  C   UNL     1      14.530  11.280 -13.779  1.00  0.00     0.000 C 
BRANCH   3   4
ATOM      4  C   UNL     1      14.297  10.342 -14.977  1.00  0.00     0.000 C 
BRANCH   4   5
ATOM      5  C   UNL     1      14.758   8.902 -14.696  1.00  0.00     0.000 C 
BRANCH   5   6
ATOM      6  C   UNL     1      15.986   8.501 -15.528  1.00  0.00     0.000 C 
BRANCH   6   7
ATOM      7  C   UNL     1      17.274   9.056 -14.905  1.00  0.00     0.006 C 
BRANCH   7   8
ATOM      8  C   UNL     1      18.463   8.881 -15.856  1.00  0.00     0.053 C 
BRANCH   8   9
ATOM      9  C   UNL     1      19.688   9.522 -15.286  1.00  0.00     0.041 C 
ATOM     10  O   UNL     1      19.713   9.882 -14.079  1.00  0.00    -0.550 OA
ATOM     11  O   UNL     1      20.822   9.680 -16.074  1.00  0.00    -0.550 OA
ENDBRANCH   8   9
ENDBRANCH   7   8
ENDBRANCH   6   7
ENDBRANCH   5   6
ENDBRANCH   4   5
ENDBRANCH   3   4
ENDBRANCH   2   3
ENDBRANCH   1   2
BRANCH   1  12
ATOM     12  C   UNL     1      16.847  13.354 -16.124  1.00  0.00     0.000 C 
BRANCH  12  13
ATOM     13  C   UNL     1      18.049  12.656 -15.450  1.00  0.00    -0.000 C 
BRANCH  13  14
ATOM     14  C   UNL     1      19.307  13.542 -15.434  1.00  0.00    -0.000 C 
BRANCH  14  15
ATOM     15  C   UNL     1      20.192  13.291 -14.201  1.00  0.00    -0.000 C 
BRANCH  15  16
ATOM     16  C   UNL     1      21.655  13.699 -14.426  1.00  0.00    -0.000 C 
BRANCH  16  17
ATOM     17  C   UNL     1      21.743  15.007 -15.226  1.00  0.00    -0.000 C 
BRANCH  17  18
ATOM     18  C   UNL     1      23.043  15.782 -14.956  1.00  0.00    -0.000 C 
BRANCH  18  19
ATOM     19  C   UNL     1      23.092  16.382 -13.543  1.00  0.00    -0.003 C 
ATOM     20  C   UNL     1      23.070  17.908 -13.593  1.00  0.00     0.004 C 
ENDBRANCH  18  19
ENDBRANCH  17  18
ENDBRANCH  16  17
ENDBRANCH  15  16
ENDBRANCH  14  15
ENDBRANCH  13  14
ENDBRANCH  12  13
ENDBRANCH   1  12
TORSDOF 16
ENDMDL
MODEL 3
REMARK VINA RESULT:    -3.999      1.209      1.682
REMARK INTER + INTRA:          -9.367
REMARK INTER:                  -8.043
REMARK INTRA:                  -1.324
REMARK UNBOUND:                -1.627
REMARK SMILES CCCCCCCCCCCCCCCCCC(=O)[O-]
REMARK SMILES IDX 10 1 11 2 12 3 13 4 14 5 15 6 16 7 17 8 18 9 19 10 20 11
REMARK SMILES IDX 9 12 8 13 7 14 6 15 5 16 4 17 3 18 2 19 1 20
REMARK H PARENT
REMARK Flexibility Score: inf
ROOT
ATOM      1  C   UNL     1      19.080  12.044 -14.090  1.00  0.00     0.000 C 
ENDROOT
BRANCH   1   2
ATOM      2  C   UNL     1      20.615  12.117 -14.208  1.00  0.00     0.000 C 
BRANCH   2   3
ATOM      3  C   UNL     1      21.292  13.160 -13.297  1.00  0.00     0.000 C 
BRANCH   3   4
ATOM      4  C   UNL     1      22.038  14.250 -14.086  1.00  0.00     0.000 C 
BRANCH   4   5
ATOM      5  C   UNL     1      21.593  14.322 -15.556  1.00  0.00     0.000 C 
BRANCH   5   6
ATOM      6  C   UNL     1      20.842  15.622 -15.885  1.00  0.00     0.000 C 
BRANCH   6   7
ATOM      7  C   UNL     1      21.824  16.780 -16.104  1.00  0.00     0.006 C 
BRANCH   7   8
ATOM      8  C   UNL     1      21.225  18.106 -15.623  1.00  0.00     0.053 C 
BRANCH   8   9
ATOM      9  C   UNL     1      22.189  18.826 -14.735  1.00  0.00     0.041 C 
ATOM     10  O   UNL     1      22.412  20.054 -14.904  1.00  0.00    -0.550 OA
ATOM     11  O   UNL     1      22.808  18.152 -13.688  1.00  0.00    -0.550 OA
ENDBRANCH   8   9
ENDBRANCH   7   8
ENDBRANCH   6   7
ENDBRANCH   5   6
ENDBRANCH   4   5
ENDBRANCH   3   4
ENDBRANCH   2   3
ENDBRANCH   1   2
BRANCH   1  12
ATOM     12  C   UNL     1      18.497  10.619 -14.052  1.00  0.00     0.000 C 
BRANCH  12  13
ATOM     13  C   UNL     1      18.445   9.932 -15.434  1.00  0.00    -0.000 C 
BRANCH  13  14
ATOM     14  C   UNL     1      17.432   8.775 -15.475  1.00  0.00    -0.000 C 
BRANCH  14  15
ATOM     15  C   UNL     1      16.458   8.798 -14.284  1.00  0.00    -0.000 C 
BRANCH  15  16
ATOM     16  C   UNL     1      14.987   8.715 -14.717  1.00  0.00    -0.000 C 
BRANCH  16  17
ATOM     17  C   UNL     1      14.726   9.599 -15.946  1.00  0.00    -0.000 C 
BRANCH  17  18
ATOM     18  C   UNL     1      14.764  11.100 -15.617  1.00  0.00    -0.000 C 
BRANCH  18  19
ATOM     19  C   UNL     1      14.435  11.392 -14.145  1.00  0.00    -0.003 C 
ATOM     20  C   UNL     1      15.374  12.450 -13.572  1.00  0.00     0.004 C 
ENDBRANCH  18  19
ENDBRANCH  17  18
ENDBRANCH  16  17
ENDBRANCH  15  16
ENDBRANCH  14  15
ENDBRANCH  13  14
ENDBRANCH  12  13
ENDBRANCH   1  12
TORSDOF 16
ENDMDL
MODEL 4
REMARK VINA RESULT:    -3.989      2.630      7.882
REMARK INTER + INTRA:          -9.347
REMARK INTER:                  -7.842
REMARK INTRA:                  -1.504
REMARK UNBOUND:                -1.627
REMARK SMILES CCCCCCCCCCCCCCCCCC(=O)[O-]
REMARK SMILES IDX 10 1 11 2 12 3 13 4 14 5 15 6 16 7 17 8 18 9 19 10 20 11
REMARK SMILES IDX 9 12 8 13 7 14 6 15 5 16 4 17 3 18 2 19 1 20
REMARK H PARENT
REMARK Flexibility Score: inf
ROOT
ATOM      1  C   UNL     1      19.091  12.191 -13.738  1.00  0.00     0.000 C 
ENDROOT
BRANCH   1   2
ATOM      2  C   UNL     1      19.089  10.688 -14.078  1.00  0.00     0.000 C 
BRANCH   2   3
ATOM      3  C   UNL     1      18.622  10.342 -15.506  1.00  0.00     0.000 C 
BRANCH   3   4
ATOM      4  C   UNL     1      18.057   8.916 -15.622  1.00  0.00     0.000 C 
BRANCH   4   5
ATOM      5  C   UNL     1      16.532   8.901 -15.819  1.00  0.00     0.000 C 
BRANCH   5   6
ATOM      6  C   UNL     1      15.766   8.771 -14.493  1.00  0.00     0.000 C 
BRANCH   6   7
ATOM      7  C   UNL     1      14.910  10.017 -14.231  1.00  0.00     0.006 C 
BRANCH   7   8
ATOM      8  C   UNL     1      14.924  10.957 -15.441  1.00  0.00     0.053 C 
BRANCH   8   9
ATOM      9  C   UNL     1      15.452  12.302 -15.054  1.00  0.00     0.041 C 
ATOM     10  O   UNL     1      15.889  13.089 -15.934  1.00  0.00    -0.550 OA
ATOM     11  O   UNL     1      15.418  12.707 -13.724  1.00  0.00    -0.550 OA
ENDBRANCH   8   9
ENDBRANCH   7   8
ENDBRANCH   6   7
ENDBRANCH   5   6
ENDBRANCH   4   5
ENDBRANCH   3   4
ENDBRANCH   2   3
ENDBRANCH   1   2
BRANCH   1  12
ATOM     12  C   UNL     1      20.482  12.798 -13.477  1.00  0.00     0.000 C 
BRANCH  12  13
ATOM     13  C   UNL     1      21.536  12.414 -14.539  1.00  0.00    -0.000 C 
BRANCH  13  14
ATOM     14  C   UNL     1      21.859  13.578 -15.492  1.00  0.00    -0.000 C 
BRANCH  14  15
ATOM     15  C   UNL     1      20.922  14.782 -15.294  1.00  0.00    -0.000 C 
BRANCH  15  16
ATOM     16  C   UNL     1      21.621  16.127 -15.540  1.00  0.00    -0.000 C 
BRANCH  16  17
ATOM     17  C   UNL     1      22.801  16.317 -14.575  1.00  0.00    -0.000 C 
BRANCH  17  18
ATOM     18  C   UNL     1      22.819  17.710 -13.926  1.00  0.00    -0.000 C 
BRANCH  18  19
ATOM     19  C   UNL     1      21.866  18.697 -14.617  1.00  0.00    -0.003 C 
ATOM     20  C   UNL     1      22.628  19.900 -15.168  1.00  0.00     0.004 C 
ENDBRANCH  18  19
ENDBRANCH  17  18
ENDBRANCH  16  17
ENDBRANCH  15  16
ENDBRANCH  14  15
ENDBRANCH  13  14
ENDBRANCH  12  13
ENDBRANCH   1  12
TORSDOF 16
ENDMDL
MODEL 5
REMARK VINA RESULT:    -3.826      3.716      8.072
REMARK INTER + INTRA:          -9.032
REMARK INTER:                  -7.743
REMARK INTRA:                  -1.289
REMARK UNBOUND:                -1.627
REMARK SMILES CCCCCCCCCCCCCCCCCC(=O)[O-]
REMARK SMILES IDX 10 1 11 2 12 3 13 4 14 5 15 6 16 7 17 8 18 9 19 10 20 11
REMARK SMILES IDX 9 12 8 13 7 14 6 15 5 16 4 17 3 18 2 19 1 20
REMARK H PARENT
REMARK Flexibility Score: inf
ROOT
ATOM      1  C   UNL     1      19.247  10.311 -15.087  1.00  0.00     0.000 C 
ENDROOT
BRANCH   1   2
ATOM      2  C   UNL     1      18.872  10.386 -13.595  1.00  0.00     0.000 C 
BRANCH   2   3
ATOM      3  C   UNL     1      17.979  11.582 -13.206  1.00  0.00     0.000 C 
BRANCH   3   4
ATOM      4  C   UNL     1      16.995  11.982 -14.319  1.00  0.00     0.000 C 
BRANCH   4   5
ATOM      5  C   UNL     1      15.613  12.373 -13.770  1.00  0.00     0.000 C 
BRANCH   5   6
ATOM      6  C   UNL     1      14.531  11.330 -14.094  1.00  0.00     0.000 C 
BRANCH   6   7
ATOM      7  C   UNL     1      14.588  10.923 -15.572  1.00  0.00     0.006 C 
BRANCH   7   8
ATOM      8  C   UNL     1      14.239   9.442 -15.747  1.00  0.00     0.053 C 
BRANCH   8   9
ATOM      9  C   UNL     1      15.313   8.578 -15.165  1.00  0.00     0.041 C 
ATOM     10  O   UNL     1      16.382   8.380 -15.802  1.00  0.00    -0.550 OA
ATOM     11  O   UNL     1      15.156   8.028 -13.898  1.00  0.00    -0.550 OA
ENDBRANCH   8   9
ENDBRANCH   7   8
ENDBRANCH   6   7
ENDBRANCH   5   6
ENDBRANCH   4   5
ENDBRANCH   3   4
ENDBRANCH   2   3
ENDBRANCH   1   2
BRANCH   1  12
ATOM     12  C   UNL     1      20.491   9.459 -15.403  1.00  0.00     0.000 C 
BRANCH  12  13
ATOM     13  C   UNL     1      21.752  10.294 -15.719  1.00  0.00    -0.000 C 
BRANCH  13  14
ATOM     14  C   UNL     1      22.118  11.257 -14.576  1.00  0.00    -0.000 C 
BRANCH  14  15
ATOM     15  C   UNL     1      21.695  12.708 -14.866  1.00  0.00    -0.000 C 
BRANCH  15  16
ATOM     16  C   UNL     1      21.627  13.573 -13.599  1.00  0.00    -0.000 C 
BRANCH  16  17
ATOM     17  C   UNL     1      22.552  14.794 -13.717  1.00  0.00    -0.000 C 
BRANCH  17  18
ATOM     18  C   UNL     1      22.254  15.645 -14.962  1.00  0.00    -0.000 C 
BRANCH  18  19
ATOM     19  C   UNL     1      22.480  17.146 -14.721  1.00  0.00    -0.003 C 
ATOM     20  C   UNL     1      23.124  17.392 -13.359  1.00  0.00     0.004 C 
ENDBRANCH  18  19
ENDBRANCH  17  18
ENDBRANCH  16  17
ENDBRANCH  15  16
ENDBRANCH  14  15
ENDBRANCH  13  14
ENDBRANCH  12  13
ENDBRANCH   1  12
TORSDOF 16
ENDMDL
MODEL 6
REMARK VINA RESULT:    -3.658      1.144      3.157
REMARK INTER + INTRA:          -8.706
REMARK INTER:                  -7.001
REMARK INTRA:                  -1.705
REMARK UNBOUND:                -1.627
REMARK SMILES CCCCCCCCCCCCCCCCCC(=O)[O-]
REMARK SMILES IDX 10 1 11 2 12 3 13 4 14 5 15 6 16 7 17 8 18 9 19 10 20 11
REMARK SMILES IDX 9 12 8 13 7 14 6 15 5 16 4 17 3 18 2 19 1 20
REMARK H PARENT
REMARK Flexibility Score: inf
ROOT
ATOM      1  C   UNL     1      15.984  12.596 -15.700  1.00  0.00     0.000 C 
ENDROOT
BRANCH   1   2
ATOM      2  C   UNL     1      17.360  13.185 -16.066  1.00  0.00     0.000 C 
BRANCH   2   3
ATOM      3  C   UNL     1      18.496  12.854 -15.077  1.00  0.00     0.000 C 
BRANCH   3   4
ATOM      4  C   UNL     1      19.853  12.647 -15.772  1.00  0.00     0.000 C 
BRANCH   4   5
ATOM      5  C   UNL     1      21.017  12.543 -14.772  1.00  0.00     0.000 C 
BRANCH   5   6
ATOM      6  C   UNL     1      21.065  13.727 -13.795  1.00  0.00     0.000 C 
BRANCH   6   7
ATOM      7  C   UNL     1      22.514  14.109 -13.468  1.00  0.00     0.006 C 
BRANCH   7   8
ATOM      8  C   UNL     1      23.125  14.957 -14.588  1.00  0.00     0.053 C 
BRANCH   8   9
ATOM      9  C   UNL     1      22.538  16.333 -14.583  1.00  0.00     0.041 C 
ATOM     10  O   UNL     1      23.065  17.245 -13.892  1.00  0.00    -0.550 OA
ATOM     11  O   UNL     1      21.436  16.623 -15.379  1.00  0.00    -0.550 OA
ENDBRANCH   8   9
ENDBRANCH   7   8
ENDBRANCH   6   7
ENDBRANCH   5   6
ENDBRANCH   4   5
ENDBRANCH   3   4
ENDBRANCH   2   3
ENDBRANCH   1   2
BRANCH   1  12
ATOM     12  C   UNL     1      15.734  12.417 -14.191  1.00  0.00     0.000 C 
BRANCH  12  13
ATOM     13  C   UNL     1      14.622  11.396 -13.862  1.00  0.00    -0.000 C 
BRANCH  13  14
ATOM     14  C   UNL     1      14.213  10.561 -15.088  1.00  0.00    -0.000 C 
BRANCH  14  15
ATOM     15  C   UNL     1      14.478   9.058 -14.896  1.00  0.00    -0.000 C 
BRANCH  15  16
ATOM     16  C   UNL     1      15.130   8.407 -16.125  1.00  0.00    -0.000 C 
BRANCH  16  17
ATOM     17  C   UNL     1      16.660   8.541 -16.070  1.00  0.00    -0.000 C 
BRANCH  17  18
ATOM     18  C   UNL     1      17.164   9.034 -14.704  1.00  0.00    -0.000 C 
BRANCH  18  19
ATOM     19  C   UNL     1      18.668   9.345 -14.705  1.00  0.00    -0.003 C 
ATOM     20  C   UNL     1      19.238   9.295 -16.120  1.00  0.00     0.004 C 
ENDBRANCH  18  19
ENDBRANCH  17  18
ENDBRANCH  16  17
ENDBRANCH  15  16
ENDBRANCH  14  15
ENDBRANCH  13  14
ENDBRANCH  12  13
ENDBRANCH   1  12
TORSDOF 16
ENDMDL
MODEL 7
REMARK VINA RESULT:    -3.218      3.510      8.219
REMARK INTER + INTRA:          -7.855
REMARK INTER:                  -7.326
REMARK INTRA:                  -0.529
REMARK UNBOUND:                -1.627
REMARK SMILES CCCCCCCCCCCCCCCCCC(=O)[O-]
REMARK SMILES IDX 10 1 11 2 12 3 13 4 14 5 15 6 16 7 17 8 18 9 19 10 20 11
REMARK SMILES IDX 9 12 8 13 7 14 6 15 5 16 4 17 3 18 2 19 1 20
REMARK H PARENT
REMARK Flexibility Score: inf
ROOT
ATOM      1  C   UNL     1      17.691  11.930 -13.744  1.00  0.00     0.000 C 
ENDROOT
BRANCH   1   2
ATOM      2  C   UNL     1      17.524  11.722 -15.262  1.00  0.00     0.000 C 
BRANCH   2   3
ATOM      3  C   UNL     1      16.635  12.763 -15.971  1.00  0.00     0.000 C 
BRANCH   3   4
ATOM      4  C   UNL     1      15.189  12.773 -15.445  1.00  0.00     0.000 C 
BRANCH   4   5
ATOM      5  C   UNL     1      14.851  11.515 -14.628  1.00  0.00     0.000 C 
BRANCH   5   6
ATOM      6  C   UNL     1      14.054  10.480 -15.439  1.00  0.00     0.000 C 
BRANCH   6   7
ATOM      7  C   UNL     1      14.558   9.059 -15.158  1.00  0.00     0.006 C 
BRANCH   7   8
ATOM      8  C   UNL     1      15.682   8.673 -16.125  1.00  0.00     0.053 C 
BRANCH   8   9
ATOM      9  C   UNL     1      16.982   8.553 -15.396  1.00  0.00     0.041 C 
ATOM     10  O   UNL     1      18.051   8.359 -16.033  1.00  0.00    -0.550 OA
ATOM     11  O   UNL     1      17.023   8.703 -14.014  1.00  0.00    -0.550 OA
ENDBRANCH   8   9
ENDBRANCH   7   8
ENDBRANCH   6   7
ENDBRANCH   5   6
ENDBRANCH   4   5
ENDBRANCH   3   4
ENDBRANCH   2   3
ENDBRANCH   1   2
BRANCH   1  12
ATOM     12  C   UNL     1      19.148  11.952 -13.247  1.00  0.00     0.000 C 
BRANCH  12  13
ATOM     13  C   UNL     1      20.159  11.367 -14.259  1.00  0.00    -0.000 C 
BRANCH  13  14
ATOM     14  C   UNL     1      21.482  12.152 -14.285  1.00  0.00    -0.000 C 
BRANCH  14  15
ATOM     15  C   UNL     1      21.430  13.429 -13.428  1.00  0.00    -0.000 C 
BRANCH  15  16
ATOM     16  C   UNL     1      22.800  14.111 -13.294  1.00  0.00    -0.000 C 
BRANCH  16  17
ATOM     17  C   UNL     1      23.071  15.038 -14.489  1.00  0.00    -0.000 C 
BRANCH  17  18
ATOM     18  C   UNL     1      22.158  16.274 -14.500  1.00  0.00    -0.000 C 
BRANCH  18  19
ATOM     19  C   UNL     1      22.843  17.511 -15.101  1.00  0.00    -0.003 C 
ATOM     20  C   UNL     1      22.129  18.793 -14.681  1.00  0.00     0.004 C 
ENDBRANCH  18  19
ENDBRANCH  17  18
ENDBRANCH  16  17
ENDBRANCH  15  16
ENDBRANCH  14  15
ENDBRANCH  13  14
ENDBRANCH  12  13
ENDBRANCH   1  12
TORSDOF 16
ENDMDL
MODEL 8
REMARK VINA RESULT:    -3.167      2.112      3.201
REMARK INTER + INTRA:          -7.756
REMARK INTER:                  -5.863
REMARK INTRA:                  -1.894
REMARK UNBOUND:                -1.627
REMARK SMILES CCCCCCCCCCCCCCCCCC(=O)[O-]
REMARK SMILES IDX 10 1 11 2 12 3 13 4 14 5 15 6 16 7 17 8 18 9 19 10 20 11
REMARK SMILES IDX 9 12 8 13 7 14 6 15 5 16 4 17 3 18 2 19 1 20
REMARK H PARENT
REMARK Flexibility Score: inf
ROOT
ATOM      1  C   UNL     1      18.119   9.750 -15.234  1.00  0.00     0.000 C 
ENDROOT
BRANCH   1   2
ATOM      2  C   UNL     1      18.895  10.247 -13.998  1.00  0.00     0.000 C 
BRANCH   2   3
ATOM      3  C   UNL     1      20.387  10.549 -14.242  1.00  0.00     0.000 C 
BRANCH   3   4
ATOM      4  C   UNL     1      20.837  10.226 -15.677  1.00  0.00     0.000 C 
BRANCH   4   5
ATOM      5  C   UNL     1      22.362  10.069 -15.795  1.00  0.00     0.000 C 
BRANCH   5   6
ATOM      6  C   UNL     1      23.125  11.292 -15.261  1.00  0.00     0.000 C 
BRANCH   6   7
ATOM      7  C   UNL     1      22.794  12.545 -16.082  1.00  0.00     0.006 C 
BRANCH   7   8
ATOM      8  C   UNL     1      22.854  13.804 -15.210  1.00  0.00     0.053 C 
BRANCH   8   9
ATOM      9  C   UNL     1      21.526  14.066 -14.574  1.00  0.00     0.041 C 
ATOM     10  O   UNL     1      21.345  13.806 -13.355  1.00  0.00    -0.550 OA
ATOM     11  O   UNL     1      20.500  14.641 -15.315  1.00  0.00    -0.550 OA
ENDBRANCH   8   9
ENDBRANCH   7   8
ENDBRANCH   6   7
ENDBRANCH   5   6
ENDBRANCH   4   5
ENDBRANCH   3   4
ENDBRANCH   2   3
ENDBRANCH   1   2
BRANCH   1  12
ATOM     12  C   UNL     1      17.177   8.560 -14.976  1.00  0.00     0.000 C 
BRANCH  12  13
ATOM     13  C   UNL     1      16.160   8.314 -16.113  1.00  0.00    -0.000 C 
BRANCH  13  14
ATOM     14  C   UNL     1      14.750   8.003 -15.581  1.00  0.00    -0.000 C 
BRANCH  14  15
ATOM     15  C   UNL     1      13.762   9.159 -15.811  1.00  0.00    -0.000 C 
BRANCH  15  16
ATOM     16  C   UNL     1      14.449  10.532 -15.847  1.00  0.00    -0.000 C 
BRANCH  16  17
ATOM     17  C   UNL     1      14.512  11.151 -14.443  1.00  0.00    -0.000 C 
BRANCH  17  18
ATOM     18  C   UNL     1      15.589  12.243 -14.323  1.00  0.00    -0.000 C 
BRANCH  18  19
ATOM     19  C   UNL     1      15.808  13.004 -15.639  1.00  0.00    -0.003 C 
ATOM     20  C   UNL     1      17.296  13.158 -15.943  1.00  0.00     0.004 C 
ENDBRANCH  18  19
ENDBRANCH  17  18
ENDBRANCH  16  17
ENDBRANCH  15  16
ENDBRANCH  14  15
ENDBRANCH  13  14
ENDBRANCH  12  13
ENDBRANCH   1  12
TORSDOF 16
ENDMDL
MODEL 9
REMARK VINA RESULT:    -3.147      2.601      3.295
REMARK INTER + INTRA:          -7.717
REMARK INTER:                  -6.074
REMARK INTRA:                  -1.642
REMARK UNBOUND:                -1.627
REMARK SMILES CCCCCCCCCCCCCCCCCC(=O)[O-]
REMARK SMILES IDX 10 1 11 2 12 3 13 4 14 5 15 6 16 7 17 8 18 9 19 10 20 11
REMARK SMILES IDX 9 12 8 13 7 14 6 15 5 16 4 17 3 18 2 19 1 20
REMARK H PARENT
REMARK Flexibility Score: inf
ROOT
ATOM      1  C   UNL     1      18.200  11.309 -14.736  1.00  0.00     0.000 C 
ENDROOT
BRANCH   1   2
ATOM      2  C   UNL     1      18.274  12.811 -15.071  1.00  0.00     0.000 C 
BRANCH   2   3
ATOM      3  C   UNL     1      19.453  13.221 -15.976  1.00  0.00     0.000 C 
BRANCH   3   4
ATOM      4  C   UNL     1      19.768  14.725 -15.906  1.00  0.00     0.000 C 
BRANCH   4   5
ATOM      5  C   UNL     1      21.270  15.020 -16.048  1.00  0.00     0.000 C 
BRANCH   5   6
ATOM      6  C   UNL     1      21.949  15.295 -14.696  1.00  0.00     0.000 C 
BRANCH   6   7
ATOM      7  C   UNL     1      23.117  14.329 -14.464  1.00  0.00     0.006 C 
BRANCH   7   8
ATOM      8  C   UNL     1      23.073  13.164 -15.458  1.00  0.00     0.053 C 
BRANCH   8   9
ATOM      9  C   UNL     1      22.553  11.928 -14.794  1.00  0.00     0.041 C 
ATOM     10  O   UNL     1      22.557  10.829 -15.409  1.00  0.00    -0.550 OA
ATOM     11  O   UNL     1      22.108  11.979 -13.478  1.00  0.00    -0.550 OA
ENDBRANCH   8   9
ENDBRANCH   7   8
ENDBRANCH   6   7
ENDBRANCH   5   6
ENDBRANCH   4   5
ENDBRANCH   3   4
ENDBRANCH   2   3
ENDBRANCH   1   2
BRANCH   1  12
ATOM     12  C   UNL     1      19.074  10.401 -15.621  1.00  0.00     0.000 C 
BRANCH  12  13
ATOM     13  C   UNL     1      18.634   8.920 -15.619  1.00  0.00    -0.000 C 
BRANCH  13  14
ATOM     14  C   UNL     1      17.232   8.727 -15.014  1.00  0.00    -0.000 C 
BRANCH  14  15
ATOM     15  C   UNL     1      16.177   8.359 -16.072  1.00  0.00    -0.000 C 
BRANCH  15  16
ATOM     16  C   UNL     1      14.739   8.497 -15.550  1.00  0.00    -0.000 C 
BRANCH  16  17
ATOM     17  C   UNL     1      14.074   9.767 -16.103  1.00  0.00    -0.000 C 
BRANCH  17  18
ATOM     18  C   UNL     1      14.655  11.054 -15.494  1.00  0.00    -0.000 C 
BRANCH  18  19
ATOM     19  C   UNL     1      14.499  11.109 -13.967  1.00  0.00    -0.003 C 
ATOM     20  C   UNL     1      15.120  12.382 -13.397  1.00  0.00     0.004 C 
ENDBRANCH  18  19
ENDBRANCH  17  18
ENDBRANCH  16  17
ENDBRANCH  15  16
ENDBRANCH  14  15
ENDBRANCH  13  14
ENDBRANCH  12  13
ENDBRANCH   1  12
TORSDOF 16
ENDMDL
