MODEL 1
REMARK VINA RESULT:    -1.735      0.000      0.000
REMARK INTER + INTRA:          -4.392
REMARK INTER:                  -3.765
REMARK INTRA:                  -0.628
REMARK UNBOUND:                -0.628
REMARK SMILES CCCCCCCCCCCCCCCCCCCCCC(=O)[O-]
REMARK SMILES IDX 12 1 11 2 10 3 9 4 8 5 7 6 6 7 5 8 4 9 3 10 2 11 1 12 13 13
REMARK SMILES IDX 14 14 15 15 16 16 17 17 18 18 19 19 20 20 21 21 22 22 23 23
REMARK SMILES IDX 24 24
REMARK H PARENT
REMARK Flexibility Score: inf
ROOT
ATOM      1  C   UNL     1       4.009  14.157  15.999  1.00  0.00     0.000 C 
ENDROOT
BRANCH   1   2
ATOM      2  C   UNL     1       2.514  14.269  15.662  1.00  0.00     0.000 C 
BRANCH   2   3
ATOM      3  C   UNL     1       1.903  12.927  15.220  1.00  0.00     0.000 C 
BRANCH   3   4
ATOM      4  C   UNL     1       2.398  12.484  13.835  1.00  0.00    -0.000 C 
BRANCH   4   5
ATOM      5  C   UNL     1       3.270  13.554  13.152  1.00  0.00    -0.000 C 
BRANCH   5   6
ATOM      6  C   UNL     1       4.216  12.962  12.091  1.00  0.00    -0.000 C 
BRANCH   6   7
ATOM      7  C   UNL     1       3.586  11.882  11.192  1.00  0.00    -0.000 C 
BRANCH   7   8
ATOM      8  C   UNL     1       2.714  12.475  10.071  1.00  0.00    -0.000 C 
BRANCH   8   9
ATOM      9  C   UNL     1       3.551  13.089   8.934  1.00  0.00    -0.000 C 
BRANCH   9  10
ATOM     10  C   UNL     1       4.329  14.335   9.389  1.00  0.00    -0.000 C 
BRANCH  10  11
ATOM     11  C   UNL     1       5.777  14.355   8.878  1.00  0.00    -0.003 C 
ATOM     12  C   UNL     1       6.494  13.014   9.080  1.00  0.00     0.004 C 
ENDBRANCH  10  11
ENDBRANCH   9  10
ENDBRANCH   8   9
ENDBRANCH   7   8
ENDBRANCH   6   7
ENDBRANCH   5   6
ENDBRANCH   4   5
ENDBRANCH   3   4
ENDBRANCH   2   3
ENDBRANCH   1   2
BRANCH   1  13
ATOM     13  C   UNL     1       4.268  14.134  17.517  1.00  0.00     0.000 C 
BRANCH  13  14
ATOM     14  C   UNL     1       5.734  13.813  17.867  1.00  0.00     0.000 C 
BRANCH  14  15
ATOM     15  C   UNL     1       5.972  13.325  19.314  1.00  0.00     0.000 C 
BRANCH  15  16
ATOM     16  C   UNL     1       5.719  14.373  20.419  1.00  0.00     0.000 C 
BRANCH  16  17
ATOM     17  C   UNL     1       6.963  14.763  21.243  1.00  0.00     0.000 C 
BRANCH  17  18
ATOM     18  C   UNL     1       7.674  16.035  20.754  1.00  0.00     0.000 C 
BRANCH  18  19
ATOM     19  C   UNL     1       7.316  17.282  21.597  1.00  0.00     0.000 C 
BRANCH  19  20
ATOM     20  C   UNL     1       6.214  18.154  20.950  1.00  0.00     0.006 C 
BRANCH  20  21
ATOM     21  C   UNL     1       5.124  18.595  21.949  1.00  0.00     0.053 C 
BRANCH  21  22
ATOM     22  C   UNL     1       4.537  17.439  22.698  1.00  0.00     0.041 C 
ATOM     23  O   UNL     1       3.893  16.550  22.084  1.00  0.00    -0.550 OA
ATOM     24  O   UNL     1       4.696  17.348  24.079  1.00  0.00    -0.550 OA
ENDBRANCH  21  22
ENDBRANCH  20  21
ENDBRANCH  19  20
ENDBRANCH  18  19
ENDBRANCH  17  18
ENDBRANCH  16  17
ENDBRANCH  15  16
ENDBRANCH  14  15
ENDBRANCH  13  14
ENDBRANCH   1  13
TORSDOF 20
ENDMDL
MODEL 2
REMARK VINA RESULT:    -1.547      4.223     10.667
REMARK INTER + INTRA:          -3.983
REMARK INTER:                  -3.118
REMARK INTRA:                  -0.866
REMARK UNBOUND:                -0.628
REMARK SMILES CCCCCCCCCCCCCCCCCCCCCC(=O)[O-]
REMARK SMILES IDX 12 1 11 2 10 3 9 4 8 5 7 6 6 7 5 8 4 9 3 10 2 11 1 12 13 13
REMARK SMILES IDX 14 14 15 15 16 16 17 17 18 18 19 19 20 20 21 21 22 22 23 23
REMARK SMILES IDX 24 24
REMARK H PARENT
REMARK Flexibility Score: inf
ROOT
ATOM      1  C   UNL     1       4.555  13.904  16.652  1.00  0.00     0.000 C 
ENDROOT
BRANCH   1   2
ATOM      2  C   UNL     1       5.403  14.227  17.893  1.00  0.00     0.000 C 
BRANCH   2   3
ATOM      3  C   UNL     1       5.645  12.995  18.784  1.00  0.00     0.000 C 
BRANCH   3   4
ATOM      4  C   UNL     1       5.960  13.376  20.238  1.00  0.00    -0.000 C 
BRANCH   4   5
ATOM      5  C   UNL     1       5.891  14.895  20.478  1.00  0.00    -0.000 C 
BRANCH   5   6
ATOM      6  C   UNL     1       7.004  15.401  21.413  1.00  0.00    -0.000 C 
BRANCH   6   7
ATOM      7  C   UNL     1       7.672  16.717  20.972  1.00  0.00    -0.000 C 
BRANCH   7   8
ATOM      8  C   UNL     1       6.657  17.770  20.494  1.00  0.00    -0.000 C 
BRANCH   8   9
ATOM      9  C   UNL     1       6.021  18.548  21.660  1.00  0.00    -0.000 C 
BRANCH   9  10
ATOM     10  C   UNL     1       5.751  17.654  22.881  1.00  0.00    -0.000 C 
BRANCH  10  11
ATOM     11  C   UNL     1       4.254  17.483  23.176  1.00  0.00    -0.003 C 
ATOM     12  C   UNL     1       3.520  16.704  22.078  1.00  0.00     0.004 C 
ENDBRANCH  10  11
ENDBRANCH   9  10
ENDBRANCH   8   9
ENDBRANCH   7   8
ENDBRANCH   6   7
ENDBRANCH   5   6
ENDBRANCH   4   5
ENDBRANCH   3   4
ENDBRANCH   2   3
ENDBRANCH   1   2
BRANCH   1  13
ATOM     13  C   UNL     1       3.056  14.167  16.882  1.00  0.00     0.000 C 
BRANCH  13  14
ATOM     14  C   UNL     1       2.155  13.361  15.924  1.00  0.00     0.000 C 
BRANCH  14  15
ATOM     15  C   UNL     1       1.780  14.085  14.611  1.00  0.00     0.000 C 
BRANCH  15  16
ATOM     16  C   UNL     1       2.942  14.805  13.894  1.00  0.00     0.000 C 
BRANCH  16  17
ATOM     17  C   UNL     1       3.933  13.875  13.165  1.00  0.00     0.000 C 
BRANCH  17  18
ATOM     18  C   UNL     1       3.299  12.596  12.594  1.00  0.00     0.000 C 
BRANCH  18  19
ATOM     19  C   UNL     1       3.624  12.386  11.095  1.00  0.00     0.000 C 
BRANCH  19  20
ATOM     20  C   UNL     1       3.614  13.703  10.283  1.00  0.00     0.006 C 
BRANCH  20  21
ATOM     21  C   UNL     1       4.379  13.598   8.948  1.00  0.00     0.053 C 
BRANCH  21  22
ATOM     22  C   UNL     1       5.821  13.976   9.088  1.00  0.00     0.041 C 
ATOM     23  O   UNL     1       6.165  15.185   9.037  1.00  0.00    -0.550 OA
ATOM     24  O   UNL     1       6.789  12.989   9.265  1.00  0.00    -0.550 OA
ENDBRANCH  21  22
ENDBRANCH  20  21
ENDBRANCH  19  20
ENDBRANCH  18  19
ENDBRANCH  17  18
ENDBRANCH  16  17
ENDBRANCH  15  16
ENDBRANCH  14  15
ENDBRANCH  13  14
ENDBRANCH   1  13
TORSDOF 20
ENDMDL
MODEL 3
REMARK VINA RESULT:    -1.484      4.237     10.548
REMARK INTER + INTRA:          -3.846
REMARK INTER:                  -2.771
REMARK INTRA:                  -1.075
REMARK UNBOUND:                -0.628
REMARK SMILES CCCCCCCCCCCCCCCCCCCCCC(=O)[O-]
REMARK SMILES IDX 12 1 11 2 10 3 9 4 8 5 7 6 6 7 5 8 4 9 3 10 2 11 1 12 13 13
REMARK SMILES IDX 14 14 15 15 16 16 17 17 18 18 19 19 20 20 21 21 22 22 23 23
REMARK SMILES IDX 24 24
REMARK H PARENT
REMARK Flexibility Score: inf
ROOT
ATOM      1  C   UNL     1       1.677  13.294  16.344  1.00  0.00     0.000 C 
ENDROOT
BRANCH   1   2
ATOM      2  C   UNL     1       2.739  14.112  17.094  1.00  0.00     0.000 C 
BRANCH   2   3
ATOM      3  C   UNL     1       4.175  13.752  16.671  1.00  0.00     0.000 C 
BRANCH   3   4
ATOM      4  C   UNL     1       5.223  14.234  17.684  1.00  0.00    -0.000 C 
BRANCH   4   5
ATOM      5  C   UNL     1       5.738  13.096  18.585  1.00  0.00    -0.000 C 
BRANCH   5   6
ATOM      6  C   UNL     1       6.529  13.610  19.802  1.00  0.00    -0.000 C 
BRANCH   6   7
ATOM      7  C   UNL     1       6.061  14.972  20.349  1.00  0.00    -0.000 C 
BRANCH   7   8
ATOM      8  C   UNL     1       7.073  15.604  21.321  1.00  0.00    -0.000 C 
BRANCH   8   9
ATOM      9  C   UNL     1       7.127  17.137  21.201  1.00  0.00    -0.000 C 
BRANCH   9  10
ATOM     10  C   UNL     1       5.742  17.785  21.366  1.00  0.00    -0.000 C 
BRANCH  10  11
ATOM     11  C   UNL     1       5.164  17.610  22.777  1.00  0.00    -0.003 C 
ATOM     12  C   UNL     1       3.654  17.345  22.770  1.00  0.00     0.004 C 
ENDBRANCH  10  11
ENDBRANCH   9  10
ENDBRANCH   8   9
ENDBRANCH   7   8
ENDBRANCH   6   7
ENDBRANCH   5   6
ENDBRANCH   4   5
ENDBRANCH   3   4
ENDBRANCH   2   3
ENDBRANCH   1   2
BRANCH   1  13
ATOM     13  C   UNL     1       1.977  13.185  14.837  1.00  0.00     0.000 C 
BRANCH  13  14
ATOM     14  C   UNL     1       2.351  14.540  14.204  1.00  0.00     0.000 C 
BRANCH  14  15
ATOM     15  C   UNL     1       3.316  14.458  13.000  1.00  0.00     0.000 C 
BRANCH  15  16
ATOM     16  C   UNL     1       4.276  13.249  12.999  1.00  0.00     0.000 C 
BRANCH  16  17
ATOM     17  C   UNL     1       3.731  11.986  12.302  1.00  0.00     0.000 C 
BRANCH  17  18
ATOM     18  C   UNL     1       2.690  12.267  11.205  1.00  0.00     0.000 C 
BRANCH  18  19
ATOM     19  C   UNL     1       3.236  12.006   9.781  1.00  0.00     0.000 C 
BRANCH  19  20
ATOM     20  C   UNL     1       3.188  13.259   8.875  1.00  0.00     0.006 C 
BRANCH  20  21
ATOM     21  C   UNL     1       3.995  14.446   9.438  1.00  0.00     0.053 C 
BRANCH  21  22
ATOM     22  C   UNL     1       5.471  14.272   9.249  1.00  0.00     0.041 C 
ATOM     23  O   UNL     1       5.994  13.135   9.376  1.00  0.00    -0.550 OA
ATOM     24  O   UNL     1       6.270  15.370   8.940  1.00  0.00    -0.550 OA
ENDBRANCH  21  22
ENDBRANCH  20  21
ENDBRANCH  19  20
ENDBRANCH  18  19
ENDBRANCH  17  18
ENDBRANCH  16  17
ENDBRANCH  15  16
ENDBRANCH  14  15
ENDBRANCH  13  14
ENDBRANCH   1  13
TORSDOF 20
ENDMDL
MODEL 4
REMARK VINA RESULT:     0.111      4.233     10.465
REMARK INTER + INTRA:          -0.388
REMARK INTER:                  -1.232
REMARK INTRA:                   0.845
REMARK UNBOUND:                -0.628
REMARK SMILES CCCCCCCCCCCCCCCCCCCCCC(=O)[O-]
REMARK SMILES IDX 12 1 11 2 10 3 9 4 8 5 7 6 6 7 5 8 4 9 3 10 2 11 1 12 13 13
REMARK SMILES IDX 14 14 15 15 16 16 17 17 18 18 19 19 20 20 21 21 22 22 23 23
REMARK SMILES IDX 24 24
REMARK H PARENT
REMARK Flexibility Score: inf
ROOT
ATOM      1  C   UNL     1       4.314  14.550  17.538  1.00  0.00     0.000 C 
ENDROOT
BRANCH   1   2
ATOM      2  C   UNL     1       5.576  13.728  17.845  1.00  0.00     0.000 C 
BRANCH   2   3
ATOM      3  C   UNL     1       5.638  13.261  19.311  1.00  0.00     0.000 C 
BRANCH   3   4
ATOM      4  C   UNL     1       6.270  14.312  20.235  1.00  0.00    -0.000 C 
BRANCH   4   5
ATOM      5  C   UNL     1       5.278  14.846  21.286  1.00  0.00    -0.000 C 
BRANCH   5   6
ATOM      6  C   UNL     1       4.555  16.125  20.826  1.00  0.00    -0.000 C 
BRANCH   6   7
ATOM      7  C   UNL     1       5.484  17.282  20.417  1.00  0.00    -0.000 C 
BRANCH   7   8
ATOM      8  C   UNL     1       6.093  18.014  21.626  1.00  0.00    -0.000 C 
BRANCH   8   9
ATOM      9  C   UNL     1       7.490  17.484  21.995  1.00  0.00    -0.000 C 
BRANCH   9  10
ATOM     10  C   UNL     1       7.955  16.359  21.057  1.00  0.00    -0.000 C 
BRANCH  10  11
ATOM     11  C   UNL     1       9.481  16.306  20.896  1.00  0.00    -0.003 C 
ATOM     12  C   UNL     1      10.021  17.432  20.006  1.00  0.00     0.004 C 
ENDBRANCH  10  11
ENDBRANCH   9  10
ENDBRANCH   8   9
ENDBRANCH   7   8
ENDBRANCH   6   7
ENDBRANCH   5   6
ENDBRANCH   4   5
ENDBRANCH   3   4
ENDBRANCH   2   3
ENDBRANCH   1   2
BRANCH   1  13
ATOM     13  C   UNL     1       3.652  14.135  16.212  1.00  0.00     0.000 C 
BRANCH  13  14
ATOM     14  C   UNL     1       2.247  13.532  16.410  1.00  0.00     0.000 C 
BRANCH  14  15
ATOM     15  C   UNL     1       1.577  12.994  15.126  1.00  0.00     0.000 C 
BRANCH  15  16
ATOM     16  C   UNL     1       2.539  12.643  13.971  1.00  0.00     0.000 C 
BRANCH  16  17
ATOM     17  C   UNL     1       3.512  13.770  13.569  1.00  0.00     0.000 C 
BRANCH  17  18
ATOM     18  C   UNL     1       3.932  13.748  12.090  1.00  0.00     0.000 C 
BRANCH  18  19
ATOM     19  C   UNL     1       3.554  12.426  11.381  1.00  0.00     0.000 C 
BRANCH  19  20
ATOM     20  C   UNL     1       3.235  12.614   9.878  1.00  0.00     0.006 C 
BRANCH  20  21
ATOM     21  C   UNL     1       4.496  12.781   9.007  1.00  0.00     0.053 C 
BRANCH  21  22
ATOM     22  C   UNL     1       4.963  14.203   8.947  1.00  0.00     0.041 C 
ATOM     23  O   UNL     1       6.193  14.465   8.969  1.00  0.00    -0.550 OA
ATOM     24  O   UNL     1       4.036  15.241   8.875  1.00  0.00    -0.550 OA
ENDBRANCH  21  22
ENDBRANCH  20  21
ENDBRANCH  19  20
ENDBRANCH  18  19
ENDBRANCH  17  18
ENDBRANCH  16  17
ENDBRANCH  15  16
ENDBRANCH  14  15
ENDBRANCH  13  14
ENDBRANCH   1  13
TORSDOF 20
ENDMDL
MODEL 5
REMARK VINA RESULT:     0.177      1.756      2.642
REMARK INTER + INTRA:          -0.245
REMARK INTER:                  -0.128
REMARK INTRA:                  -0.117
REMARK UNBOUND:                -0.628
REMARK SMILES CCCCCCCCCCCCCCCCCCCCCC(=O)[O-]
REMARK SMILES IDX 12 1 11 2 10 3 9 4 8 5 7 6 6 7 5 8 4 9 3 10 2 11 1 12 13 13
REMARK SMILES IDX 14 14 15 15 16 16 17 17 18 18 19 19 20 20 21 21 22 22 23 23
REMARK SMILES IDX 24 24
REMARK H PARENT
REMARK Flexibility Score: inf
ROOT
ATOM      1  C   UNL     1       4.700  14.456  17.431  1.00  0.00     0.000 C 
ENDROOT
BRANCH   1   2
ATOM      2  C   UNL     1       4.039  13.817  16.198  1.00  0.00     0.000 C 
BRANCH   2   3
ATOM      3  C   UNL     1       2.549  14.182  16.068  1.00  0.00     0.000 C 
BRANCH   3   4
ATOM      4  C   UNL     1       1.724  13.057  15.425  1.00  0.00    -0.000 C 
BRANCH   4   5
ATOM      5  C   UNL     1       2.293  12.614  14.064  1.00  0.00    -0.000 C 
BRANCH   5   6
ATOM      6  C   UNL     1       3.015  13.753  13.321  1.00  0.00    -0.000 C 
BRANCH   6   7
ATOM      7  C   UNL     1       4.179  13.300  12.419  1.00  0.00    -0.000 C 
BRANCH   7   8
ATOM      8  C   UNL     1       3.742  12.285  11.348  1.00  0.00    -0.000 C 
BRANCH   8   9
ATOM      9  C   UNL     1       2.787  12.898  10.308  1.00  0.00    -0.000 C 
BRANCH   9  10
ATOM     10  C   UNL     1       3.539  13.618   9.176  1.00  0.00    -0.000 C 
BRANCH  10  11
ATOM     11  C   UNL     1       5.006  13.179   9.060  1.00  0.00    -0.003 C 
ATOM     12  C   UNL     1       5.988  14.338   9.265  1.00  0.00     0.004 C 
ENDBRANCH  10  11
ENDBRANCH   9  10
ENDBRANCH   8   9
ENDBRANCH   7   8
ENDBRANCH   6   7
ENDBRANCH   5   6
ENDBRANCH   4   5
ENDBRANCH   3   4
ENDBRANCH   2   3
ENDBRANCH   1   2
BRANCH   1  13
ATOM     13  C   UNL     1       5.379  13.414  18.338  1.00  0.00     0.000 C 
BRANCH  13  14
ATOM     14  C   UNL     1       6.256  14.056  19.431  1.00  0.00     0.000 C 
BRANCH  14  15
ATOM     15  C   UNL     1       5.493  14.549  20.680  1.00  0.00     0.000 C 
BRANCH  15  16
ATOM     16  C   UNL     1       4.994  16.009  20.621  1.00  0.00     0.000 C 
BRANCH  16  17
ATOM     17  C   UNL     1       4.060  16.424  21.776  1.00  0.00     0.000 C 
BRANCH  17  18
ATOM     18  C   UNL     1       4.709  17.353  22.815  1.00  0.00     0.000 C 
BRANCH  18  19
ATOM     19  C   UNL     1       5.519  18.502  22.166  1.00  0.00     0.000 C 
BRANCH  19  20
ATOM     20  C   UNL     1       7.036  18.210  22.098  1.00  0.00     0.006 C 
BRANCH  20  21
ATOM     21  C   UNL     1       7.466  17.536  20.780  1.00  0.00     0.053 C 
BRANCH  21  22
ATOM     22  C   UNL     1       8.593  16.569  20.976  1.00  0.00     0.041 C 
ATOM     23  O   UNL     1       8.422  15.530  21.664  1.00  0.00    -0.550 OA
ATOM     24  O   UNL     1       9.838  16.821  20.403  1.00  0.00    -0.550 OA
ENDBRANCH  21  22
ENDBRANCH  20  21
ENDBRANCH  19  20
ENDBRANCH  18  19
ENDBRANCH  17  18
ENDBRANCH  16  17
ENDBRANCH  15  16
ENDBRANCH  14  15
ENDBRANCH  13  14
ENDBRANCH   1  13
TORSDOF 20
ENDMDL
MODEL 6
REMARK VINA RESULT:     0.180      0.865      2.019
REMARK INTER + INTRA:          -0.237
REMARK INTER:                   1.076
REMARK INTRA:                  -1.313
REMARK UNBOUND:                -0.628
REMARK SMILES CCCCCCCCCCCCCCCCCCCCCC(=O)[O-]
REMARK SMILES IDX 12 1 11 2 10 3 9 4 8 5 7 6 6 7 5 8 4 9 3 10 2 11 1 12 13 13
REMARK SMILES IDX 14 14 15 15 16 16 17 17 18 18 19 19 20 20 21 21 22 22 23 23
REMARK SMILES IDX 24 24
REMARK H PARENT
REMARK Flexibility Score: inf
ROOT
ATOM      1  C   UNL     1       5.371  14.226  17.919  1.00  0.00     0.000 C 
ENDROOT
BRANCH   1   2
ATOM      2  C   UNL     1       4.640  13.915  16.604  1.00  0.00     0.000 C 
BRANCH   2   3
ATOM      3  C   UNL     1       3.159  14.333  16.634  1.00  0.00     0.000 C 
BRANCH   3   4
ATOM      4  C   UNL     1       2.241  13.291  15.977  1.00  0.00    -0.000 C 
BRANCH   4   5
ATOM      5  C   UNL     1       1.954  13.609  14.498  1.00  0.00    -0.000 C 
BRANCH   5   6
ATOM      6  C   UNL     1       3.028  14.513  13.864  1.00  0.00    -0.000 C 
BRANCH   6   7
ATOM      7  C   UNL     1       3.788  13.883  12.682  1.00  0.00    -0.000 C 
BRANCH   7   8
ATOM      8  C   UNL     1       3.538  12.369  12.551  1.00  0.00    -0.000 C 
BRANCH   8   9
ATOM      9  C   UNL     1       3.642  11.878  11.096  1.00  0.00    -0.000 C 
BRANCH   9  10
ATOM     10  C   UNL     1       3.461  13.017  10.080  1.00  0.00    -0.000 C 
BRANCH  10  11
ATOM     11  C   UNL     1       4.633  13.132   9.096  1.00  0.00    -0.003 C 
ATOM     12  C   UNL     1       5.194  14.556   9.006  1.00  0.00     0.004 C 
ENDBRANCH  10  11
ENDBRANCH   9  10
ENDBRANCH   8   9
ENDBRANCH   7   8
ENDBRANCH   6   7
ENDBRANCH   5   6
ENDBRANCH   4   5
ENDBRANCH   3   4
ENDBRANCH   2   3
ENDBRANCH   1   2
BRANCH   1  13
ATOM     13  C   UNL     1       5.434  13.007  18.858  1.00  0.00     0.000 C 
BRANCH  13  14
ATOM     14  C   UNL     1       5.815  13.386  20.303  1.00  0.00     0.000 C 
BRANCH  14  15
ATOM     15  C   UNL     1       6.089  14.888  20.538  1.00  0.00     0.000 C 
BRANCH  15  16
ATOM     16  C   UNL     1       7.159  15.210  21.603  1.00  0.00     0.000 C 
BRANCH  16  17
ATOM     17  C   UNL     1       8.414  15.927  21.067  1.00  0.00     0.000 C 
BRANCH  17  18
ATOM     18  C   UNL     1       8.217  17.426  20.784  1.00  0.00     0.000 C 
BRANCH  18  19
ATOM     19  C   UNL     1       7.284  18.110  21.811  1.00  0.00     0.000 C 
BRANCH  19  20
ATOM     20  C   UNL     1       5.909  18.497  21.217  1.00  0.00     0.006 C 
BRANCH  20  21
ATOM     21  C   UNL     1       4.829  18.736  22.291  1.00  0.00     0.053 C 
BRANCH  21  22
ATOM     22  C   UNL     1       4.340  17.459  22.902  1.00  0.00     0.041 C 
ATOM     23  O   UNL     1       4.463  17.262  24.138  1.00  0.00    -0.550 OA
ATOM     24  O   UNL     1       3.756  16.480  22.101  1.00  0.00    -0.550 OA
ENDBRANCH  21  22
ENDBRANCH  20  21
ENDBRANCH  19  20
ENDBRANCH  18  19
ENDBRANCH  17  18
ENDBRANCH  16  17
ENDBRANCH  15  16
ENDBRANCH  14  15
ENDBRANCH  13  14
ENDBRANCH   1  13
TORSDOF 20
ENDMDL
MODEL 7
REMARK VINA RESULT:     0.633      4.229     10.458
REMARK INTER + INTRA:           0.745
REMARK INTER:                   0.905
REMARK INTRA:                  -0.160
REMARK UNBOUND:                -0.628
REMARK SMILES CCCCCCCCCCCCCCCCCCCCCC(=O)[O-]
REMARK SMILES IDX 12 1 11 2 10 3 9 4 8 5 7 6 6 7 5 8 4 9 3 10 2 11 1 12 13 13
REMARK SMILES IDX 14 14 15 15 16 16 17 17 18 18 19 19 20 20 21 21 22 22 23 23
REMARK SMILES IDX 24 24
REMARK H PARENT
REMARK Flexibility Score: inf
ROOT
ATOM      1  C   UNL     1       3.192  14.646  13.965  1.00  0.00     0.000 C 
ENDROOT
BRANCH   1   2
ATOM      2  C   UNL     1       4.414  14.095  14.717  1.00  0.00     0.000 C 
BRANCH   2   3
ATOM      3  C   UNL     1       4.460  14.549  16.187  1.00  0.00     0.000 C 
BRANCH   3   4
ATOM      4  C   UNL     1       5.353  13.647  17.052  1.00  0.00    -0.000 C 
BRANCH   4   5
ATOM      5  C   UNL     1       5.100  13.837  18.559  1.00  0.00    -0.000 C 
BRANCH   5   6
ATOM      6  C   UNL     1       5.901  12.849  19.427  1.00  0.00    -0.000 C 
BRANCH   6   7
ATOM      7  C   UNL     1       6.324  13.394  20.804  1.00  0.00    -0.000 C 
BRANCH   7   8
ATOM      8  C   UNL     1       6.027  14.896  20.968  1.00  0.00    -0.000 C 
BRANCH   8   9
ATOM      9  C   UNL     1       7.308  15.742  21.077  1.00  0.00    -0.000 C 
BRANCH   9  10
ATOM     10  C   UNL     1       7.024  17.172  21.564  1.00  0.00    -0.000 C 
BRANCH  10  11
ATOM     11  C   UNL     1       5.609  17.654  21.212  1.00  0.00    -0.003 C 
ATOM     12  C   UNL     1       5.495  18.140  19.762  1.00  0.00     0.004 C 
ENDBRANCH  10  11
ENDBRANCH   9  10
ENDBRANCH   8   9
ENDBRANCH   7   8
ENDBRANCH   6   7
ENDBRANCH   5   6
ENDBRANCH   4   5
ENDBRANCH   3   4
ENDBRANCH   2   3
ENDBRANCH   1   2
BRANCH   1  13
ATOM     13  C   UNL     1       1.864  14.254  14.637  1.00  0.00     0.000 C 
BRANCH  13  14
ATOM     14  C   UNL     1       1.692  12.728  14.774  1.00  0.00     0.000 C 
BRANCH  14  15
ATOM     15  C   UNL     1       2.492  11.884  13.758  1.00  0.00     0.000 C 
BRANCH  15  16
ATOM     16  C   UNL     1       1.938  11.876  12.317  1.00  0.00     0.000 C 
BRANCH  16  17
ATOM     17  C   UNL     1       2.929  12.354  11.237  1.00  0.00     0.000 C 
BRANCH  17  18
ATOM     18  C   UNL     1       2.264  12.951   9.985  1.00  0.00     0.000 C 
BRANCH  18  19
ATOM     19  C   UNL     1       3.292  13.416   8.927  1.00  0.00     0.000 C 
BRANCH  19  20
ATOM     20  C   UNL     1       4.297  14.458   9.474  1.00  0.00     0.006 C 
BRANCH  20  21
ATOM     21  C   UNL     1       5.710  14.311   8.875  1.00  0.00     0.053 C 
BRANCH  21  22
ATOM     22  C   UNL     1       6.323  12.979   9.182  1.00  0.00     0.041 C 
ATOM     23  O   UNL     1       7.532  12.763   8.910  1.00  0.00    -0.550 OA
ATOM     24  O   UNL     1       5.554  11.972   9.761  1.00  0.00    -0.550 OA
ENDBRANCH  21  22
ENDBRANCH  20  21
ENDBRANCH  19  20
ENDBRANCH  18  19
ENDBRANCH  17  18
ENDBRANCH  16  17
ENDBRANCH  15  16
ENDBRANCH  14  15
ENDBRANCH  13  14
ENDBRANCH   1  13
TORSDOF 20
ENDMDL
