MODEL 1
REMARK VINA RESULT:    -6.328      0.000      0.000
REMARK INTER + INTRA:          -7.710
REMARK INTER:                  -7.437
REMARK INTRA:                  -0.272
REMARK UNBOUND:                -0.272
REMARK SMILES O=c1cc(-c2ccc(O)c(O)c2)oc2cc(O)cc(O)c12
REMARK SMILES IDX 4 1 3 2 2 3 1 4 21 5 19 6 18 7 16 8 15 9 14 10 13 11 5 12
REMARK SMILES IDX 6 13 7 14 8 15 12 16 10 17 9 18 11 20 20 22 17 24
REMARK H PARENT 9 19 11 21 20 23 17 25
REMARK Flexibility Score: inf
ROOT
ATOM      1  C   UNL     1     -20.370  39.832  -3.887  1.00  0.00     0.138 A 
ATOM      2  C   UNL     1     -19.880  40.743  -4.833  1.00  0.00     0.100 A 
ATOM      3  C   UNL     1     -19.688  40.332  -6.153  1.00  0.00     0.197 A 
ATOM      4  O   UNL     1     -19.196  41.157  -6.965  1.00  0.00    -0.289 OA
ATOM      5  C   UNL     1     -20.022  39.010  -6.534  1.00  0.00     0.107 A 
ATOM      6  C   UNL     1     -19.900  38.488  -7.858  1.00  0.00     0.134 A 
ATOM      7  C   UNL     1     -20.168  37.134  -8.094  1.00  0.00     0.093 A 
ATOM      8  C   UNL     1     -20.609  36.297  -7.066  1.00  0.00     0.123 A 
ATOM      9  C   UNL     1     -20.778  36.808  -5.781  1.00  0.00     0.094 A 
ATOM     10  C   UNL     1     -20.487  38.146  -5.507  1.00  0.00     0.146 A 
ATOM     11  O   UNL     1     -20.645  38.588  -4.263  1.00  0.00    -0.456 OA
ENDROOT
BRANCH   1  12
ATOM     12  C   UNL     1     -20.597  40.216  -2.471  1.00  0.00     0.021 A 
ATOM     13  C   UNL     1     -21.593  41.159  -2.163  1.00  0.00     0.016 A 
ATOM     14  C   UNL     1     -21.833  41.533  -0.838  1.00  0.00     0.051 A 
ATOM     15  C   UNL     1     -21.088  40.963   0.201  1.00  0.00     0.157 A 
ATOM     16  C   UNL     1     -19.861  39.638  -1.418  1.00  0.00     0.062 A 
ATOM     17  C   UNL     1     -20.103  40.013  -0.089  1.00  0.00     0.158 A 
BRANCH  15  18
ATOM     18  O   UNL     1     -21.323  41.335   1.524  1.00  0.00    -0.504 OA
ATOM     19  H   UNL     1     -21.648  40.666   2.213  1.00  0.00     0.293 HD
ENDBRANCH  15  18
BRANCH  17  20
ATOM     20  O   UNL     1     -19.371  39.440   0.950  1.00  0.00    -0.504 OA
ATOM     21  H   UNL     1     -19.738  39.392   1.894  1.00  0.00     0.293 HD
ENDBRANCH  17  20
ENDBRANCH   1  12
BRANCH   6  22
ATOM     22  O   UNL     1     -19.545  39.255  -8.973  1.00  0.00    -0.507 OA
ATOM     23  H   UNL     1     -20.105  39.362  -9.805  1.00  0.00     0.293 HD
ENDBRANCH   6  22
BRANCH   8  24
ATOM     24  O   UNL     1     -20.888  34.955  -7.314  1.00  0.00    -0.508 OA
ATOM     25  H   UNL     1     -20.333  34.213  -6.905  1.00  0.00     0.293 HD
ENDBRANCH   8  24
TORSDOF 5
ENDMDL
MODEL 2
REMARK VINA RESULT:    -6.096      5.261     10.784
REMARK INTER + INTRA:          -7.438
REMARK INTER:                  -7.174
REMARK INTRA:                  -0.264
REMARK UNBOUND:                -0.272
REMARK SMILES O=c1cc(-c2ccc(O)c(O)c2)oc2cc(O)cc(O)c12
REMARK SMILES IDX 4 1 3 2 2 3 1 4 21 5 19 6 18 7 16 8 15 9 14 10 13 11 5 12
REMARK SMILES IDX 6 13 7 14 8 15 12 16 10 17 9 18 11 20 20 22 17 24
REMARK H PARENT 9 19 11 21 20 23 17 25
REMARK Flexibility Score: inf
ROOT
ATOM      1  C   UNL     1     -18.962  41.045   3.404  1.00  0.00     0.138 A 
ATOM      2  C   UNL     1     -17.638  41.453   3.620  1.00  0.00     0.100 A 
ATOM      3  C   UNL     1     -17.197  41.706   4.920  1.00  0.00     0.197 A 
ATOM      4  O   UNL     1     -16.020  42.123   5.076  1.00  0.00    -0.289 OA
ATOM      5  C   UNL     1     -18.077  41.514   6.012  1.00  0.00     0.107 A 
ATOM      6  C   UNL     1     -17.728  41.707   7.383  1.00  0.00     0.134 A 
ATOM      7  C   UNL     1     -18.714  41.582   8.370  1.00  0.00     0.093 A 
ATOM      8  C   UNL     1     -20.021  41.214   8.041  1.00  0.00     0.123 A 
ATOM      9  C   UNL     1     -20.359  40.974   6.712  1.00  0.00     0.094 A 
ATOM     10  C   UNL     1     -19.407  41.124   5.701  1.00  0.00     0.146 A 
ATOM     11  O   UNL     1     -19.777  40.903   4.443  1.00  0.00    -0.456 OA
ENDROOT
BRANCH   1  12
ATOM     12  C   UNL     1     -19.482  40.759   2.043  1.00  0.00     0.021 A 
ATOM     13  C   UNL     1     -20.486  41.582   1.501  1.00  0.00     0.016 A 
ATOM     14  C   UNL     1     -20.989  41.340   0.220  1.00  0.00     0.051 A 
ATOM     15  C   UNL     1     -20.489  40.279  -0.544  1.00  0.00     0.157 A 
ATOM     16  C   UNL     1     -18.976  39.702   1.262  1.00  0.00     0.062 A 
ATOM     17  C   UNL     1     -19.480  39.461  -0.024  1.00  0.00     0.158 A 
BRANCH  15  18
ATOM     18  O   UNL     1     -20.989  40.033  -1.822  1.00  0.00    -0.504 OA
ATOM     19  H   UNL     1     -21.945  39.727  -1.968  1.00  0.00     0.293 HD
ENDBRANCH  15  18
BRANCH  17  20
ATOM     20  O   UNL     1     -18.978  38.412  -0.794  1.00  0.00    -0.504 OA
ATOM     21  H   UNL     1     -19.581  37.679  -1.148  1.00  0.00     0.293 HD
ENDBRANCH  17  20
ENDBRANCH   1  12
BRANCH   6  22
ATOM     22  O   UNL     1     -16.436  42.000   7.829  1.00  0.00    -0.507 OA
ATOM     23  H   UNL     1     -16.173  42.138   8.794  1.00  0.00     0.293 HD
ENDBRANCH   6  22
BRANCH   8  24
ATOM     24  O   UNL     1     -20.990  41.076   9.032  1.00  0.00    -0.508 OA
ATOM     25  H   UNL     1     -21.969  40.947   8.804  1.00  0.00     0.293 HD
ENDBRANCH   8  24
TORSDOF 5
ENDMDL
MODEL 3
REMARK VINA RESULT:    -6.036      1.691      3.022
REMARK INTER + INTRA:          -7.366
REMARK INTER:                  -7.099
REMARK INTRA:                  -0.267
REMARK UNBOUND:                -0.272
REMARK SMILES O=c1cc(-c2ccc(O)c(O)c2)oc2cc(O)cc(O)c12
REMARK SMILES IDX 4 1 3 2 2 3 1 4 21 5 19 6 18 7 16 8 15 9 14 10 13 11 5 12
REMARK SMILES IDX 6 13 7 14 8 15 12 16 10 17 9 18 11 20 20 22 17 24
REMARK H PARENT 9 19 11 21 20 23 17 25
REMARK Flexibility Score: inf
ROOT
ATOM      1  C   UNL     1     -20.050  39.460  -2.256  1.00  0.00     0.138 A 
ATOM      2  C   UNL     1     -21.127  38.574  -2.397  1.00  0.00     0.100 A 
ATOM      3  C   UNL     1     -21.389  37.998  -3.642  1.00  0.00     0.197 A 
ATOM      4  O   UNL     1     -22.395  37.250  -3.749  1.00  0.00    -0.289 OA
ATOM      5  C   UNL     1     -20.544  38.284  -4.741  1.00  0.00     0.107 A 
ATOM      6  C   UNL     1     -20.693  37.730  -6.049  1.00  0.00     0.134 A 
ATOM      7  C   UNL     1     -19.854  38.165  -7.083  1.00  0.00     0.093 A 
ATOM      8  C   UNL     1     -18.836  39.091  -6.843  1.00  0.00     0.123 A 
ATOM      9  C   UNL     1     -18.650  39.600  -5.560  1.00  0.00     0.094 A 
ATOM     10  C   UNL     1     -19.492  39.212  -4.516  1.00  0.00     0.146 A 
ATOM     11  O   UNL     1     -19.292  39.736  -3.311  1.00  0.00    -0.456 OA
ENDROOT
BRANCH   1  12
ATOM     12  C   UNL     1     -19.724  40.097  -0.955  1.00  0.00     0.021 A 
ATOM     13  C   UNL     1     -19.751  41.499  -0.847  1.00  0.00     0.016 A 
ATOM     14  C   UNL     1     -19.456  42.125   0.366  1.00  0.00     0.051 A 
ATOM     15  C   UNL     1     -19.141  41.360   1.495  1.00  0.00     0.157 A 
ATOM     16  C   UNL     1     -19.418  39.335   0.189  1.00  0.00     0.062 A 
ATOM     17  C   UNL     1     -19.124  39.963   1.407  1.00  0.00     0.158 A 
BRANCH  15  18
ATOM     18  O   UNL     1     -18.845  41.980   2.708  1.00  0.00    -0.504 OA
ATOM     19  H   UNL     1     -18.356  41.490   3.449  1.00  0.00     0.293 HD
ENDBRANCH  15  18
BRANCH  17  20
ATOM     20  O   UNL     1     -18.820  39.206   2.537  1.00  0.00    -0.504 OA
ATOM     21  H   UNL     1     -18.605  39.642   3.426  1.00  0.00     0.293 HD
ENDBRANCH  17  20
ENDBRANCH   1  12
BRANCH   6  22
ATOM     22  O   UNL     1     -21.625  36.741  -6.380  1.00  0.00    -0.507 OA
ATOM     23  H   UNL     1     -22.131  36.176  -5.714  1.00  0.00     0.293 HD
ENDBRANCH   6  22
BRANCH   8  24
ATOM     24  O   UNL     1     -17.997  39.506  -7.875  1.00  0.00    -0.508 OA
ATOM     25  H   UNL     1     -18.259  39.400  -8.848  1.00  0.00     0.293 HD
ENDBRANCH   8  24
TORSDOF 5
ENDMDL
MODEL 4
REMARK VINA RESULT:    -6.003      3.033      5.299
REMARK INTER + INTRA:          -7.328
REMARK INTER:                  -7.062
REMARK INTRA:                  -0.266
REMARK UNBOUND:                -0.272
REMARK SMILES O=c1cc(-c2ccc(O)c(O)c2)oc2cc(O)cc(O)c12
REMARK SMILES IDX 4 1 3 2 2 3 1 4 21 5 19 6 18 7 16 8 15 9 14 10 13 11 5 12
REMARK SMILES IDX 6 13 7 14 8 15 12 16 10 17 9 18 11 20 20 22 17 24
REMARK H PARENT 9 19 11 21 20 23 17 25
REMARK Flexibility Score: inf
ROOT
ATOM      1  C   UNL     1     -19.961  40.541   0.920  1.00  0.00     0.138 A 
ATOM      2  C   UNL     1     -21.123  41.255   0.595  1.00  0.00     0.100 A 
ATOM      3  C   UNL     1     -21.752  41.029  -0.630  1.00  0.00     0.197 A 
ATOM      4  O   UNL     1     -22.761  41.724  -0.915  1.00  0.00    -0.289 OA
ATOM      5  C   UNL     1     -21.234  40.056  -1.519  1.00  0.00     0.107 A 
ATOM      6  C   UNL     1     -21.810  39.716  -2.780  1.00  0.00     0.134 A 
ATOM      7  C   UNL     1     -21.151  38.807  -3.617  1.00  0.00     0.093 A 
ATOM      8  C   UNL     1     -19.968  38.183  -3.214  1.00  0.00     0.123 A 
ATOM      9  C   UNL     1     -19.424  38.470  -1.965  1.00  0.00     0.094 A 
ATOM     10  C   UNL     1     -20.039  39.398  -1.121  1.00  0.00     0.146 A 
ATOM     11  O   UNL     1     -19.477  39.657   0.055  1.00  0.00    -0.456 OA
ENDROOT
BRANCH   1  12
ATOM     12  C   UNL     1     -19.253  40.739   2.210  1.00  0.00     0.021 A 
ATOM     13  C   UNL     1     -18.500  41.908   2.413  1.00  0.00     0.016 A 
ATOM     14  C   UNL     1     -17.830  42.123   3.620  1.00  0.00     0.051 A 
ATOM     15  C   UNL     1     -17.912  41.178   4.649  1.00  0.00     0.157 A 
ATOM     16  C   UNL     1     -19.341  39.799   3.256  1.00  0.00     0.062 A 
ATOM     17  C   UNL     1     -18.670  40.016   4.468  1.00  0.00     0.158 A 
BRANCH  15  18
ATOM     18  O   UNL     1     -17.244  41.388   5.854  1.00  0.00    -0.504 OA
ATOM     19  H   UNL     1     -16.790  42.270   6.062  1.00  0.00     0.293 HD
ENDBRANCH  15  18
BRANCH  17  20
ATOM     20  O   UNL     1     -18.757  39.083   5.500  1.00  0.00    -0.504 OA
ATOM     21  H   UNL     1     -18.292  38.184   5.443  1.00  0.00     0.293 HD
ENDBRANCH  17  20
ENDBRANCH   1  12
BRANCH   6  22
ATOM     22  O   UNL     1     -23.028  40.220  -3.247  1.00  0.00    -0.507 OA
ATOM     23  H   UNL     1     -23.842  39.663  -3.461  1.00  0.00     0.293 HD
ENDBRANCH   6  22
BRANCH   8  24
ATOM     24  O   UNL     1     -19.329  37.268  -4.048  1.00  0.00    -0.508 OA
ATOM     25  H   UNL     1     -18.728  37.570  -4.806  1.00  0.00     0.293 HD
ENDBRANCH   8  24
TORSDOF 5
ENDMDL
MODEL 5
REMARK VINA RESULT:    -5.894      1.858      6.880
REMARK INTER + INTRA:          -7.200
REMARK INTER:                  -6.926
REMARK INTRA:                  -0.274
REMARK UNBOUND:                -0.272
REMARK SMILES O=c1cc(-c2ccc(O)c(O)c2)oc2cc(O)cc(O)c12
REMARK SMILES IDX 4 1 3 2 2 3 1 4 21 5 19 6 18 7 16 8 15 9 14 10 13 11 5 12
REMARK SMILES IDX 6 13 7 14 8 15 12 16 10 17 9 18 11 20 20 22 17 24
REMARK H PARENT 9 19 11 21 20 23 17 25
REMARK Flexibility Score: inf
ROOT
ATOM      1  C   UNL     1     -20.245  38.958  -5.652  1.00  0.00     0.138 A 
ATOM      2  C   UNL     1     -19.081  39.734  -5.559  1.00  0.00     0.100 A 
ATOM      3  C   UNL     1     -18.890  40.564  -4.454  1.00  0.00     0.197 A 
ATOM      4  O   UNL     1     -17.862  41.288  -4.426  1.00  0.00    -0.289 OA
ATOM      5  C   UNL     1     -19.856  40.590  -3.418  1.00  0.00     0.107 A 
ATOM      6  C   UNL     1     -19.753  41.372  -2.228  1.00  0.00     0.134 A 
ATOM      7  C   UNL     1     -20.819  41.391  -1.321  1.00  0.00     0.093 A 
ATOM      8  C   UNL     1     -21.960  40.613  -1.532  1.00  0.00     0.123 A 
ATOM      9  C   UNL     1     -22.049  39.808  -2.665  1.00  0.00     0.094 A 
ATOM     10  C   UNL     1     -21.017  39.793  -3.606  1.00  0.00     0.146 A 
ATOM     11  O   UNL     1     -21.150  39.025  -4.682  1.00  0.00    -0.456 OA
ENDROOT
BRANCH   1  12
ATOM     12  C   UNL     1     -20.497  38.055  -6.803  1.00  0.00     0.021 A 
ATOM     13  C   UNL     1     -20.628  38.600  -8.093  1.00  0.00     0.016 A 
ATOM     14  C   UNL     1     -20.857  37.773  -9.195  1.00  0.00     0.051 A 
ATOM     15  C   UNL     1     -20.949  36.386  -9.028  1.00  0.00     0.157 A 
ATOM     16  C   UNL     1     -20.577  36.658  -6.646  1.00  0.00     0.062 A 
ATOM     17  C   UNL     1     -20.806  35.827  -7.753  1.00  0.00     0.158 A 
BRANCH  15  18
ATOM     18  O   UNL     1     -21.179  35.557 -10.124  1.00  0.00    -0.504 OA
ATOM     19  H   UNL     1     -22.081  35.119 -10.278  1.00  0.00     0.293 HD
ENDBRANCH  15  18
BRANCH  17  20
ATOM     20  O   UNL     1     -20.887  34.445  -7.594  1.00  0.00    -0.504 OA
ATOM     21  H   UNL     1     -20.336  33.812  -8.162  1.00  0.00     0.293 HD
ENDBRANCH  17  20
ENDBRANCH   1  12
BRANCH   6  22
ATOM     22  O   UNL     1     -18.627  42.125  -1.880  1.00  0.00    -0.507 OA
ATOM     23  H   UNL     1     -18.546  42.699  -1.054  1.00  0.00     0.293 HD
ENDBRANCH   6  22
BRANCH   8  24
ATOM     24  O   UNL     1     -23.009  40.627  -0.615  1.00  0.00    -0.508 OA
ATOM     25  H   UNL     1     -23.957  40.402  -0.890  1.00  0.00     0.293 HD
ENDBRANCH   8  24
TORSDOF 5
ENDMDL
MODEL 6
REMARK VINA RESULT:    -5.755      1.576      2.941
REMARK INTER + INTRA:          -7.036
REMARK INTER:                  -6.762
REMARK INTRA:                  -0.275
REMARK UNBOUND:                -0.272
REMARK SMILES O=c1cc(-c2ccc(O)c(O)c2)oc2cc(O)cc(O)c12
REMARK SMILES IDX 4 1 3 2 2 3 1 4 21 5 19 6 18 7 16 8 15 9 14 10 13 11 5 12
REMARK SMILES IDX 6 13 7 14 8 15 12 16 10 17 9 18 11 20 20 22 17 24
REMARK H PARENT 9 19 11 21 20 23 17 25
REMARK Flexibility Score: inf
ROOT
ATOM      1  C   UNL     1     -19.835  39.529  -2.852  1.00  0.00     0.138 A 
ATOM      2  C   UNL     1     -20.485  38.336  -3.201  1.00  0.00     0.100 A 
ATOM      3  C   UNL     1     -20.485  37.914  -4.532  1.00  0.00     0.197 A 
ATOM      4  O   UNL     1     -21.122  36.868  -4.821  1.00  0.00    -0.289 OA
ATOM      5  C   UNL     1     -19.799  38.672  -5.511  1.00  0.00     0.107 A 
ATOM      6  C   UNL     1     -19.702  38.322  -6.892  1.00  0.00     0.134 A 
ATOM      7  C   UNL     1     -19.081  39.203  -7.785  1.00  0.00     0.093 A 
ATOM      8  C   UNL     1     -18.503  40.394  -7.339  1.00  0.00     0.123 A 
ATOM      9  C   UNL     1     -18.549  40.721  -5.986  1.00  0.00     0.094 A 
ATOM     10  C   UNL     1     -19.191  39.880  -5.075  1.00  0.00     0.146 A 
ATOM     11  O   UNL     1     -19.227  40.239  -3.796  1.00  0.00    -0.456 OA
ENDROOT
BRANCH   1  12
ATOM     12  C   UNL     1     -19.801  40.023  -1.453  1.00  0.00     0.021 A 
ATOM     13  C   UNL     1     -20.153  41.357  -1.183  1.00  0.00     0.016 A 
ATOM     14  C   UNL     1     -20.136  41.846   0.126  1.00  0.00     0.051 A 
ATOM     15  C   UNL     1     -19.779  41.006   1.188  1.00  0.00     0.157 A 
ATOM     16  C   UNL     1     -19.456  39.181  -0.377  1.00  0.00     0.062 A 
ATOM     17  C   UNL     1     -19.441  39.672   0.937  1.00  0.00     0.158 A 
BRANCH  15  18
ATOM     18  O   UNL     1     -19.760  41.491   2.495  1.00  0.00    -0.504 OA
ATOM     19  H   UNL     1     -18.904  41.523   3.036  1.00  0.00     0.293 HD
ENDBRANCH  15  18
BRANCH  17  20
ATOM     20  O   UNL     1     -19.097  38.838   1.999  1.00  0.00    -0.504 OA
ATOM     21  H   UNL     1     -18.179  38.877   2.428  1.00  0.00     0.293 HD
ENDBRANCH  17  20
ENDBRANCH   1  12
BRANCH   6  22
ATOM     22  O   UNL     1     -20.175  37.121  -7.431  1.00  0.00    -0.507 OA
ATOM     23  H   UNL     1     -20.802  36.484  -6.964  1.00  0.00     0.293 HD
ENDBRANCH   6  22
BRANCH   8  24
ATOM     24  O   UNL     1     -17.874  41.257  -8.234  1.00  0.00    -0.508 OA
ATOM     25  H   UNL     1     -18.289  42.143  -8.498  1.00  0.00     0.293 HD
ENDBRANCH   8  24
TORSDOF 5
ENDMDL
MODEL 7
REMARK VINA RESULT:    -5.384      6.522     12.316
REMARK INTER + INTRA:          -6.601
REMARK INTER:                  -6.338
REMARK INTRA:                  -0.264
REMARK UNBOUND:                -0.272
REMARK SMILES O=c1cc(-c2ccc(O)c(O)c2)oc2cc(O)cc(O)c12
REMARK SMILES IDX 4 1 3 2 2 3 1 4 21 5 19 6 18 7 16 8 15 9 14 10 13 11 5 12
REMARK SMILES IDX 6 13 7 14 8 15 12 16 10 17 9 18 11 20 20 22 17 24
REMARK H PARENT 9 19 11 21 20 23 17 25
REMARK Flexibility Score: inf
ROOT
ATOM      1  C   UNL     1     -19.264  40.755   5.177  1.00  0.00     0.138 A 
ATOM      2  C   UNL     1     -20.479  40.756   5.876  1.00  0.00     0.100 A 
ATOM      3  C   UNL     1     -20.492  41.056   7.239  1.00  0.00     0.197 A 
ATOM      4  O   UNL     1     -21.590  40.995   7.849  1.00  0.00    -0.289 OA
ATOM      5  C   UNL     1     -19.284  41.392   7.897  1.00  0.00     0.107 A 
ATOM      6  C   UNL     1     -19.179  41.748   9.276  1.00  0.00     0.134 A 
ATOM      7  C   UNL     1     -17.915  41.964   9.839  1.00  0.00     0.093 A 
ATOM      8  C   UNL     1     -16.757  41.893   9.060  1.00  0.00     0.123 A 
ATOM      9  C   UNL     1     -16.853  41.595   7.703  1.00  0.00     0.094 A 
ATOM     10  C   UNL     1     -18.096  41.341   7.119  1.00  0.00     0.146 A 
ATOM     11  O   UNL     1     -18.140  41.042   5.825  1.00  0.00    -0.456 OA
ENDROOT
BRANCH   1  12
ATOM     12  C   UNL     1     -19.193  40.447   3.726  1.00  0.00     0.021 A 
ATOM     13  C   UNL     1     -19.006  39.116   3.311  1.00  0.00     0.016 A 
ATOM     14  C   UNL     1     -18.943  38.797   1.953  1.00  0.00     0.051 A 
ATOM     15  C   UNL     1     -19.077  39.802   0.986  1.00  0.00     0.157 A 
ATOM     16  C   UNL     1     -19.340  41.449   2.747  1.00  0.00     0.062 A 
ATOM     17  C   UNL     1     -19.278  41.128   1.383  1.00  0.00     0.158 A 
BRANCH  15  18
ATOM     18  O   UNL     1     -19.014  39.488  -0.371  1.00  0.00    -0.504 OA
ATOM     19  H   UNL     1     -18.155  39.162  -0.800  1.00  0.00     0.293 HD
ENDBRANCH  15  18
BRANCH  17  20
ATOM     20  O   UNL     1     -19.422  42.122   0.417  1.00  0.00    -0.504 OA
ATOM     21  H   UNL     1     -18.626  42.648   0.075  1.00  0.00     0.293 HD
ENDBRANCH  17  20
ENDBRANCH   1  12
BRANCH   6  22
ATOM     22  O   UNL     1     -20.276  41.924  10.125  1.00  0.00    -0.507 OA
ATOM     23  H   UNL     1     -20.908  41.193  10.415  1.00  0.00     0.293 HD
ENDBRANCH   6  22
BRANCH   8  24
ATOM     24  O   UNL     1     -15.506  42.125   9.626  1.00  0.00    -0.508 OA
ATOM     25  H   UNL     1     -14.662  42.134   9.065  1.00  0.00     0.293 HD
ENDBRANCH   8  24
TORSDOF 5
ENDMDL
MODEL 8
REMARK VINA RESULT:    -5.361      1.521      7.242
REMARK INTER + INTRA:          -6.573
REMARK INTER:                  -6.301
REMARK INTRA:                  -0.272
REMARK UNBOUND:                -0.272
REMARK SMILES O=c1cc(-c2ccc(O)c(O)c2)oc2cc(O)cc(O)c12
REMARK SMILES IDX 4 1 3 2 2 3 1 4 21 5 19 6 18 7 16 8 15 9 14 10 13 11 5 12
REMARK SMILES IDX 6 13 7 14 8 15 12 16 10 17 9 18 11 20 20 22 17 24
REMARK H PARENT 9 19 11 21 20 23 17 25
REMARK Flexibility Score: inf
ROOT
ATOM      1  C   UNL     1     -20.583  39.595  -2.752  1.00  0.00     0.138 A 
ATOM      2  C   UNL     1     -21.595  40.526  -2.479  1.00  0.00     0.100 A 
ATOM      3  C   UNL     1     -21.734  41.035  -1.186  1.00  0.00     0.197 A 
ATOM      4  O   UNL     1     -22.684  41.827  -0.960  1.00  0.00    -0.289 OA
ATOM      5  C   UNL     1     -20.831  40.634  -0.171  1.00  0.00     0.107 A 
ATOM      6  C   UNL     1     -20.855  41.111   1.175  1.00  0.00     0.134 A 
ATOM      7  C   UNL     1     -19.972  40.566   2.115  1.00  0.00     0.093 A 
ATOM      8  C   UNL     1     -19.028  39.604   1.746  1.00  0.00     0.123 A 
ATOM      9  C   UNL     1     -18.964  39.168   0.425  1.00  0.00     0.094 A 
ATOM     10  C   UNL     1     -19.854  39.667  -0.529  1.00  0.00     0.146 A 
ATOM     11  O   UNL     1     -19.770  39.211  -1.775  1.00  0.00    -0.456 OA
ENDROOT
BRANCH   1  12
ATOM     12  C   UNL     1     -20.388  39.025  -4.109  1.00  0.00     0.021 A 
ATOM     13  C   UNL     1     -19.783  39.809  -5.107  1.00  0.00     0.016 A 
ATOM     14  C   UNL     1     -19.580  39.295  -6.390  1.00  0.00     0.051 A 
ATOM     15  C   UNL     1     -19.969  37.984  -6.694  1.00  0.00     0.157 A 
ATOM     16  C   UNL     1     -20.765  37.703  -4.420  1.00  0.00     0.062 A 
ATOM     17  C   UNL     1     -20.560  37.187  -5.708  1.00  0.00     0.158 A 
BRANCH  15  18
ATOM     18  O   UNL     1     -19.770  37.468  -7.974  1.00  0.00    -0.504 OA
ATOM     19  H   UNL     1     -20.055  36.526  -8.216  1.00  0.00     0.293 HD
ENDBRANCH  15  18
BRANCH  17  20
ATOM     20  O   UNL     1     -20.936  35.880  -6.013  1.00  0.00    -0.504 OA
ATOM     21  H   UNL     1     -21.859  35.527  -5.788  1.00  0.00     0.293 HD
ENDBRANCH  17  20
ENDBRANCH   1  12
BRANCH   6  22
ATOM     22  O   UNL     1     -21.702  42.125   1.632  1.00  0.00    -0.507 OA
ATOM     23  H   UNL     1     -22.144  42.146   2.539  1.00  0.00     0.293 HD
ENDBRANCH   6  22
BRANCH   8  24
ATOM     24  O   UNL     1     -18.144  39.080   2.686  1.00  0.00    -0.508 OA
ATOM     25  H   UNL     1     -17.638  38.219   2.517  1.00  0.00     0.293 HD
ENDBRANCH   8  24
TORSDOF 5
ENDMDL
MODEL 9
REMARK VINA RESULT:    -5.237      1.442      3.132
REMARK INTER + INTRA:          -6.428
REMARK INTER:                  -6.146
REMARK INTRA:                  -0.282
REMARK UNBOUND:                -0.272
REMARK SMILES O=c1cc(-c2ccc(O)c(O)c2)oc2cc(O)cc(O)c12
REMARK SMILES IDX 4 1 3 2 2 3 1 4 21 5 19 6 18 7 16 8 15 9 14 10 13 11 5 12
REMARK SMILES IDX 6 13 7 14 8 15 12 16 10 17 9 18 11 20 20 22 17 24
REMARK H PARENT 9 19 11 21 20 23 17 25
REMARK Flexibility Score: inf
ROOT
ATOM      1  C   UNL     1     -20.652  38.980  -4.404  1.00  0.00     0.138 A 
ATOM      2  C   UNL     1     -20.728  37.617  -4.724  1.00  0.00     0.100 A 
ATOM      3  C   UNL     1     -20.684  37.218  -6.061  1.00  0.00     0.197 A 
ATOM      4  O   UNL     1     -20.809  35.993  -6.319  1.00  0.00    -0.289 OA
ATOM      5  C   UNL     1     -20.527  38.189  -7.080  1.00  0.00     0.107 A 
ATOM      6  C   UNL     1     -20.436  37.898  -8.475  1.00  0.00     0.134 A 
ATOM      7  C   UNL     1     -20.381  38.950  -9.397  1.00  0.00     0.093 A 
ATOM      8  C   UNL     1     -20.357  40.281  -8.972  1.00  0.00     0.123 A 
ATOM      9  C   UNL     1     -20.396  40.574  -7.611  1.00  0.00     0.094 A 
ATOM     10  C   UNL     1     -20.485  39.548  -6.668  1.00  0.00     0.146 A 
ATOM     11  O   UNL     1     -20.538  39.872  -5.380  1.00  0.00    -0.456 OA
ENDROOT
BRANCH   1  12
ATOM     12  C   UNL     1     -20.691  39.459  -2.999  1.00  0.00     0.021 A 
ATOM     13  C   UNL     1     -19.744  38.976  -2.078  1.00  0.00     0.016 A 
ATOM     14  C   UNL     1     -19.753  39.415  -0.752  1.00  0.00     0.051 A 
ATOM     15  C   UNL     1     -20.701  40.354  -0.327  1.00  0.00     0.157 A 
ATOM     16  C   UNL     1     -21.634  40.412  -2.566  1.00  0.00     0.062 A 
ATOM     17  C   UNL     1     -21.641  40.854  -1.235  1.00  0.00     0.158 A 
BRANCH  15  18
ATOM     18  O   UNL     1     -20.714  40.794   0.995  1.00  0.00    -0.504 OA
ATOM     19  H   UNL     1     -20.980  41.742   1.236  1.00  0.00     0.293 HD
ENDBRANCH  15  18
BRANCH  17  20
ATOM     20  O   UNL     1     -22.576  41.796  -0.809  1.00  0.00    -0.504 OA
ATOM     21  H   UNL     1     -23.404  41.525  -0.291  1.00  0.00     0.293 HD
ENDBRANCH  17  20
ENDBRANCH   1  12
BRANCH   6  22
ATOM     22  O   UNL     1     -20.372  36.605  -9.003  1.00  0.00    -0.507 OA
ATOM     23  H   UNL     1     -19.553  36.015  -8.995  1.00  0.00     0.293 HD
ENDBRANCH   6  22
BRANCH   8  24
ATOM     24  O   UNL     1     -20.288  41.320  -9.898  1.00  0.00    -0.508 OA
ATOM     25  H   UNL     1     -20.061  41.151 -10.870  1.00  0.00     0.293 HD
ENDBRANCH   8  24
TORSDOF 5
ENDMDL
