MODEL 1
REMARK VINA RESULT:     4.556      0.000      0.000
REMARK INTER + INTRA:          15.437
REMARK INTER:                  12.013
REMARK INTRA:                   3.424
REMARK UNBOUND:                 3.424
REMARK SMILES CCCCCCCCCCCCCCCCCCCCCCCCCCCCCC(=O)[O-]
REMARK SMILES IDX 16 1 17 2 18 3 19 4 20 5 21 6 22 7 23 8 24 9 25 10 26 11
REMARK SMILES IDX 27 12 28 13 29 14 30 15 31 16 32 17 15 18 14 19 13 20 12 21
REMARK SMILES IDX 11 22 10 23 9 24 8 25 7 26 6 27 5 28 4 29 3 30 2 31 1 32
REMARK H PARENT
REMARK Flexibility Score: inf
ROOT
ATOM      1  C   UNL     1     -30.362 -20.978 -32.481  1.00  0.00     0.000 C 
ENDROOT
BRANCH   1   2
ATOM      2  C   UNL     1     -31.593 -21.655 -33.109  1.00  0.00     0.000 C 
BRANCH   2   3
ATOM      3  C   UNL     1     -31.661 -21.582 -34.648  1.00  0.00     0.000 C 
BRANCH   3   4
ATOM      4  C   UNL     1     -31.721 -22.943 -35.363  1.00  0.00     0.000 C 
BRANCH   4   5
ATOM      5  C   UNL     1     -33.031 -23.150 -36.139  1.00  0.00     0.000 C 
BRANCH   5   6
ATOM      6  C   UNL     1     -34.102 -22.140 -35.701  1.00  0.00     0.000 C 
BRANCH   6   7
ATOM      7  C   UNL     1     -33.519 -20.746 -35.421  1.00  0.00     0.000 C 
BRANCH   7   8
ATOM      8  C   UNL     1     -34.070 -19.671 -36.376  1.00  0.00     0.000 C 
BRANCH   8   9
ATOM      9  C   UNL     1     -33.994 -20.094 -37.851  1.00  0.00     0.000 C 
BRANCH   9  10
ATOM     10  C   UNL     1     -32.791 -21.003 -38.144  1.00  0.00     0.000 C 
BRANCH  10  11
ATOM     11  C   UNL     1     -33.170 -22.122 -39.121  1.00  0.00     0.000 C 
BRANCH  11  12
ATOM     12  C   UNL     1     -32.144 -23.264 -39.074  1.00  0.00     0.000 C 
BRANCH  12  13
ATOM     13  C   UNL     1     -32.797 -24.658 -39.121  1.00  0.00     0.006 C 
BRANCH  13  14
ATOM     14  C   UNL     1     -31.951 -25.773 -38.485  1.00  0.00     0.053 C 
BRANCH  14  15
ATOM     15  C   UNL     1     -32.658 -27.093 -38.495  1.00  0.00     0.041 C 
ATOM     16  O   UNL     1     -32.015 -28.152 -38.723  1.00  0.00    -0.550 OA
ATOM     17  O   UNL     1     -34.029 -27.152 -38.275  1.00  0.00    -0.550 OA
ENDBRANCH  14  15
ENDBRANCH  13  14
ENDBRANCH  12  13
ENDBRANCH  11  12
ENDBRANCH  10  11
ENDBRANCH   9  10
ENDBRANCH   8   9
ENDBRANCH   7   8
ENDBRANCH   6   7
ENDBRANCH   5   6
ENDBRANCH   4   5
ENDBRANCH   3   4
ENDBRANCH   2   3
ENDBRANCH   1   2
BRANCH   1  18
ATOM     18  C   UNL     1     -29.111 -21.084 -33.370  1.00  0.00     0.000 C 
BRANCH  18  19
ATOM     19  C   UNL     1     -28.660 -19.726 -33.931  1.00  0.00     0.000 C 
BRANCH  19  20
ATOM     20  C   UNL     1     -27.917 -18.876 -32.885  1.00  0.00     0.000 C 
BRANCH  20  21
ATOM     21  C   UNL     1     -28.543 -18.966 -31.480  1.00  0.00     0.000 C 
BRANCH  21  22
ATOM     22  C   UNL     1     -27.603 -19.492 -30.378  1.00  0.00     0.000 C 
BRANCH  22  23
ATOM     23  C   UNL     1     -28.345 -19.865 -29.083  1.00  0.00     0.000 C 
BRANCH  23  24
ATOM     24  C   UNL     1     -29.808 -19.396 -29.083  1.00  0.00    -0.000 C 
BRANCH  24  25
ATOM     25  C   UNL     1     -30.801 -20.564 -29.216  1.00  0.00    -0.000 C 
BRANCH  25  26
ATOM     26  C   UNL     1     -30.347 -21.815 -28.448  1.00  0.00    -0.000 C 
BRANCH  26  27
ATOM     27  C   UNL     1     -30.136 -23.030 -29.368  1.00  0.00    -0.000 C 
BRANCH  27  28
ATOM     28  C   UNL     1     -30.940 -22.925 -30.672  1.00  0.00    -0.000 C 
BRANCH  28  29
ATOM     29  C   UNL     1     -31.868 -24.134 -30.894  1.00  0.00    -0.000 C 
BRANCH  29  30
ATOM     30  C   UNL     1     -31.514 -25.331 -29.993  1.00  0.00    -0.000 C 
BRANCH  30  31
ATOM     31  C   UNL     1     -32.519 -26.496 -30.045  1.00  0.00    -0.003 C 
ATOM     32  C   UNL     1     -31.868 -27.858 -29.812  1.00  0.00     0.004 C 
ENDBRANCH  30  31
ENDBRANCH  29  30
ENDBRANCH  28  29
ENDBRANCH  27  28
ENDBRANCH  26  27
ENDBRANCH  25  26
ENDBRANCH  24  25
ENDBRANCH  23  24
ENDBRANCH  22  23
ENDBRANCH  21  22
ENDBRANCH  20  21
ENDBRANCH  19  20
ENDBRANCH  18  19
ENDBRANCH   1  18
TORSDOF 28
ENDMDL
MODEL 2
REMARK VINA RESULT:     4.898      3.057      5.105
REMARK INTER + INTRA:          16.338
REMARK INTER:                  16.972
REMARK INTRA:                  -0.634
REMARK UNBOUND:                 3.424
REMARK SMILES CCCCCCCCCCCCCCCCCCCCCCCCCCCCCC(=O)[O-]
REMARK SMILES IDX 16 1 17 2 18 3 19 4 20 5 21 6 22 7 23 8 24 9 25 10 26 11
REMARK SMILES IDX 27 12 28 13 29 14 30 15 31 16 32 17 15 18 14 19 13 20 12 21
REMARK SMILES IDX 11 22 10 23 9 24 8 25 7 26 6 27 5 28 4 29 3 30 2 31 1 32
REMARK H PARENT
REMARK Flexibility Score: inf
ROOT
ATOM      1  C   UNL     1     -30.304 -21.067 -34.355  1.00  0.00     0.000 C 
ENDROOT
BRANCH   1   2
ATOM      2  C   UNL     1     -31.732 -21.631 -34.476  1.00  0.00     0.000 C 
BRANCH   2   3
ATOM      3  C   UNL     1     -32.153 -22.034 -35.904  1.00  0.00     0.000 C 
BRANCH   3   4
ATOM      4  C   UNL     1     -33.639 -21.811 -36.233  1.00  0.00     0.000 C 
BRANCH   4   5
ATOM      5  C   UNL     1     -33.855 -20.723 -37.295  1.00  0.00     0.000 C 
BRANCH   5   6
ATOM      6  C   UNL     1     -33.573 -21.259 -38.706  1.00  0.00     0.000 C 
BRANCH   6   7
ATOM      7  C   UNL     1     -32.328 -22.158 -38.758  1.00  0.00     0.000 C 
BRANCH   7   8
ATOM      8  C   UNL     1     -32.676 -23.639 -38.990  1.00  0.00     0.000 C 
BRANCH   8   9
ATOM      9  C   UNL     1     -32.028 -24.569 -37.953  1.00  0.00     0.000 C 
BRANCH   9  10
ATOM     10  C   UNL     1     -32.169 -26.055 -38.321  1.00  0.00     0.000 C 
BRANCH  10  11
ATOM     11  C   UNL     1     -33.644 -26.444 -38.483  1.00  0.00     0.000 C 
BRANCH  11  12
ATOM     12  C   UNL     1     -33.783 -27.933 -38.832  1.00  0.00     0.000 C 
BRANCH  12  13
ATOM     13  C   UNL     1     -32.427 -28.617 -39.086  1.00  0.00     0.006 C 
BRANCH  13  14
ATOM     14  C   UNL     1     -32.491 -30.153 -39.125  1.00  0.00     0.053 C 
BRANCH  14  15
ATOM     15  C   UNL     1     -31.135 -30.778 -39.020  1.00  0.00     0.041 C 
ATOM     16  O   UNL     1     -30.104 -30.054 -39.026  1.00  0.00    -0.550 OA
ATOM     17  O   UNL     1     -31.008 -32.160 -38.939  1.00  0.00    -0.550 OA
ENDBRANCH  14  15
ENDBRANCH  13  14
ENDBRANCH  12  13
ENDBRANCH  11  12
ENDBRANCH  10  11
ENDBRANCH   9  10
ENDBRANCH   8   9
ENDBRANCH   7   8
ENDBRANCH   6   7
ENDBRANCH   5   6
ENDBRANCH   4   5
ENDBRANCH   3   4
ENDBRANCH   2   3
ENDBRANCH   1   2
BRANCH   1  18
ATOM     18  C   UNL     1     -30.083 -20.293 -33.045  1.00  0.00     0.000 C 
BRANCH  18  19
ATOM     19  C   UNL     1     -31.344 -19.558 -32.564  1.00  0.00     0.000 C 
BRANCH  19  20
ATOM     20  C   UNL     1     -31.466 -19.543 -31.030  1.00  0.00     0.000 C 
BRANCH  20  21
ATOM     21  C   UNL     1     -30.525 -20.549 -30.341  1.00  0.00     0.000 C 
BRANCH  21  22
ATOM     22  C   UNL     1     -30.942 -22.027 -30.464  1.00  0.00     0.000 C 
BRANCH  22  23
ATOM     23  C   UNL     1     -30.611 -22.852 -29.208  1.00  0.00     0.000 C 
BRANCH  23  24
ATOM     24  C   UNL     1     -30.314 -21.973 -27.984  1.00  0.00    -0.000 C 
BRANCH  24  25
ATOM     25  C   UNL     1     -29.010 -22.375 -27.271  1.00  0.00    -0.000 C 
BRANCH  25  26
ATOM     26  C   UNL     1     -27.871 -21.374 -27.520  1.00  0.00    -0.000 C 
BRANCH  26  27
ATOM     27  C   UNL     1     -27.430 -20.648 -26.237  1.00  0.00    -0.000 C 
BRANCH  27  28
ATOM     28  C   UNL     1     -28.052 -21.262 -24.973  1.00  0.00    -0.000 C 
BRANCH  28  29
ATOM     29  C   UNL     1     -27.795 -20.412 -23.715  1.00  0.00    -0.000 C 
BRANCH  29  30
ATOM     30  C   UNL     1     -28.064 -21.182 -22.409  1.00  0.00    -0.000 C 
BRANCH  30  31
ATOM     31  C   UNL     1     -26.800 -21.597 -21.634  1.00  0.00    -0.003 C 
ATOM     32  C   UNL     1     -25.766 -22.303 -22.511  1.00  0.00     0.004 C 
ENDBRANCH  30  31
ENDBRANCH  29  30
ENDBRANCH  28  29
ENDBRANCH  27  28
ENDBRANCH  26  27
ENDBRANCH  25  26
ENDBRANCH  24  25
ENDBRANCH  23  24
ENDBRANCH  22  23
ENDBRANCH  21  22
ENDBRANCH  20  21
ENDBRANCH  19  20
ENDBRANCH  18  19
ENDBRANCH   1  18
TORSDOF 28
ENDMDL
MODEL 3
REMARK VINA RESULT:     5.022      3.574      5.488
REMARK INTER + INTRA:          16.666
REMARK INTER:                  18.017
REMARK INTRA:                  -1.351
REMARK UNBOUND:                 3.424
REMARK SMILES CCCCCCCCCCCCCCCCCCCCCCCCCCCCCC(=O)[O-]
REMARK SMILES IDX 16 1 17 2 18 3 19 4 20 5 21 6 22 7 23 8 24 9 25 10 26 11
REMARK SMILES IDX 27 12 28 13 29 14 30 15 31 16 32 17 15 18 14 19 13 20 12 21
REMARK SMILES IDX 11 22 10 23 9 24 8 25 7 26 6 27 5 28 4 29 3 30 2 31 1 32
REMARK H PARENT
REMARK Flexibility Score: inf
ROOT
ATOM      1  C   UNL     1     -30.217 -18.875 -30.562  1.00  0.00     0.000 C 
ENDROOT
BRANCH   1   2
ATOM      2  C   UNL     1     -29.374 -19.830 -31.426  1.00  0.00     0.000 C 
BRANCH   2   3
ATOM      3  C   UNL     1     -28.820 -19.213 -32.726  1.00  0.00     0.000 C 
BRANCH   3   4
ATOM      4  C   UNL     1     -29.362 -19.835 -34.026  1.00  0.00     0.000 C 
BRANCH   4   5
ATOM      5  C   UNL     1     -30.892 -19.975 -34.024  1.00  0.00     0.000 C 
BRANCH   5   6
ATOM      6  C   UNL     1     -31.321 -21.394 -33.626  1.00  0.00     0.000 C 
BRANCH   6   7
ATOM      7  C   UNL     1     -31.743 -22.244 -34.834  1.00  0.00     0.000 C 
BRANCH   7   8
ATOM      8  C   UNL     1     -32.886 -21.601 -35.641  1.00  0.00     0.000 C 
BRANCH   8   9
ATOM      9  C   UNL     1     -33.723 -22.636 -36.409  1.00  0.00     0.000 C 
BRANCH   9  10
ATOM     10  C   UNL     1     -33.041 -23.103 -37.704  1.00  0.00     0.000 C 
BRANCH  10  11
ATOM     11  C   UNL     1     -31.700 -23.785 -37.406  1.00  0.00     0.000 C 
BRANCH  11  12
ATOM     12  C   UNL     1     -31.508 -25.028 -38.289  1.00  0.00     0.000 C 
BRANCH  12  13
ATOM     13  C   UNL     1     -32.820 -25.510 -38.935  1.00  0.00     0.006 C 
BRANCH  13  14
ATOM     14  C   UNL     1     -33.509 -26.660 -38.183  1.00  0.00     0.053 C 
BRANCH  14  15
ATOM     15  C   UNL     1     -33.194 -27.996 -38.781  1.00  0.00     0.041 C 
ATOM     16  O   UNL     1     -34.121 -28.814 -39.022  1.00  0.00    -0.550 OA
ATOM     17  O   UNL     1     -31.876 -28.346 -39.051  1.00  0.00    -0.550 OA
ENDBRANCH  14  15
ENDBRANCH  13  14
ENDBRANCH  12  13
ENDBRANCH  11  12
ENDBRANCH  10  11
ENDBRANCH   9  10
ENDBRANCH   8   9
ENDBRANCH   7   8
ENDBRANCH   6   7
ENDBRANCH   5   6
ENDBRANCH   4   5
ENDBRANCH   3   4
ENDBRANCH   2   3
ENDBRANCH   1   2
BRANCH   1  18
ATOM     18  C   UNL     1     -31.727 -19.131 -30.699  1.00  0.00     0.000 C 
BRANCH  18  19
ATOM     19  C   UNL     1     -32.223 -20.276 -29.801  1.00  0.00     0.000 C 
BRANCH  19  20
ATOM     20  C   UNL     1     -31.189 -20.675 -28.733  1.00  0.00     0.000 C 
BRANCH  20  21
ATOM     21  C   UNL     1     -30.769 -22.154 -28.824  1.00  0.00     0.000 C 
BRANCH  21  22
ATOM     22  C   UNL     1     -29.600 -22.560 -27.906  1.00  0.00     0.000 C 
BRANCH  22  23
ATOM     23  C   UNL     1     -28.597 -21.418 -27.670  1.00  0.00     0.000 C 
BRANCH  23  24
ATOM     24  C   UNL     1     -27.829 -21.569 -26.348  1.00  0.00    -0.000 C 
BRANCH  24  25
ATOM     25  C   UNL     1     -27.861 -20.286 -25.498  1.00  0.00    -0.000 C 
BRANCH  25  26
ATOM     26  C   UNL     1     -26.460 -19.701 -25.261  1.00  0.00    -0.000 C 
BRANCH  26  27
ATOM     27  C   UNL     1     -26.068 -19.689 -23.773  1.00  0.00    -0.000 C 
BRANCH  27  28
ATOM     28  C   UNL     1     -25.461 -21.025 -23.316  1.00  0.00    -0.000 C 
BRANCH  28  29
ATOM     29  C   UNL     1     -25.308 -21.111 -21.786  1.00  0.00    -0.000 C 
BRANCH  29  30
ATOM     30  C   UNL     1     -26.657 -21.059 -21.046  1.00  0.00    -0.000 C 
BRANCH  30  31
ATOM     31  C   UNL     1     -27.643 -22.179 -21.425  1.00  0.00    -0.003 C 
ATOM     32  C   UNL     1     -26.975 -23.548 -21.547  1.00  0.00     0.004 C 
ENDBRANCH  30  31
ENDBRANCH  29  30
ENDBRANCH  28  29
ENDBRANCH  27  28
ENDBRANCH  26  27
ENDBRANCH  25  26
ENDBRANCH  24  25
ENDBRANCH  23  24
ENDBRANCH  22  23
ENDBRANCH  21  22
ENDBRANCH  20  21
ENDBRANCH  19  20
ENDBRANCH  18  19
ENDBRANCH   1  18
TORSDOF 28
ENDMDL
MODEL 4
REMARK VINA RESULT:     5.257      5.483     10.904
REMARK INTER + INTRA:          17.287
REMARK INTER:                  17.081
REMARK INTRA:                   0.206
REMARK UNBOUND:                 3.424
REMARK SMILES CCCCCCCCCCCCCCCCCCCCCCCCCCCCCC(=O)[O-]
REMARK SMILES IDX 16 1 17 2 18 3 19 4 20 5 21 6 22 7 23 8 24 9 25 10 26 11
REMARK SMILES IDX 27 12 28 13 29 14 30 15 31 16 32 17 15 18 14 19 13 20 12 21
REMARK SMILES IDX 11 22 10 23 9 24 8 25 7 26 6 27 5 28 4 29 3 30 2 31 1 32
REMARK H PARENT
REMARK Flexibility Score: inf
ROOT
ATOM      1  C   UNL     1     -32.155 -19.065 -31.854  1.00  0.00     0.000 C 
ENDROOT
BRANCH   1   2
ATOM      2  C   UNL     1     -32.672 -18.880 -30.416  1.00  0.00     0.000 C 
BRANCH   2   3
ATOM      3  C   UNL     1     -31.910 -19.684 -29.343  1.00  0.00     0.000 C 
BRANCH   3   4
ATOM      4  C   UNL     1     -30.498 -20.142 -29.751  1.00  0.00     0.000 C 
BRANCH   4   5
ATOM      5  C   UNL     1     -30.437 -21.635 -30.104  1.00  0.00     0.000 C 
BRANCH   5   6
ATOM      6  C   UNL     1     -30.500 -22.508 -28.842  1.00  0.00     0.000 C 
BRANCH   6   7
ATOM      7  C   UNL     1     -29.185 -22.491 -28.047  1.00  0.00     0.000 C 
BRANCH   7   8
ATOM      8  C   UNL     1     -28.923 -21.137 -27.363  1.00  0.00     0.000 C 
BRANCH   8   9
ATOM      9  C   UNL     1     -27.498 -21.025 -26.799  1.00  0.00     0.000 C 
BRANCH   9  10
ATOM     10  C   UNL     1     -27.356 -19.886 -25.777  1.00  0.00     0.000 C 
BRANCH  10  11
ATOM     11  C   UNL     1     -27.316 -20.434 -24.345  1.00  0.00     0.000 C 
BRANCH  11  12
ATOM     12  C   UNL     1     -25.874 -20.746 -23.916  1.00  0.00     0.000 C 
BRANCH  12  13
ATOM     13  C   UNL     1     -25.703 -20.795 -22.387  1.00  0.00     0.006 C 
BRANCH  13  14
ATOM     14  C   UNL     1     -27.025 -20.879 -21.606  1.00  0.00     0.053 C 
BRANCH  14  15
ATOM     15  C   UNL     1     -27.594 -22.264 -21.604  1.00  0.00     0.041 C 
ATOM     16  O   UNL     1     -28.185 -22.704 -22.626  1.00  0.00    -0.550 OA
ATOM     17  O   UNL     1     -27.493 -23.058 -20.468  1.00  0.00    -0.550 OA
ENDBRANCH  14  15
ENDBRANCH  13  14
ENDBRANCH  12  13
ENDBRANCH  11  12
ENDBRANCH  10  11
ENDBRANCH   9  10
ENDBRANCH   8   9
ENDBRANCH   7   8
ENDBRANCH   6   7
ENDBRANCH   5   6
ENDBRANCH   4   5
ENDBRANCH   3   4
ENDBRANCH   2   3
ENDBRANCH   1   2
BRANCH   1  18
ATOM     18  C   UNL     1     -30.633 -18.875 -31.965  1.00  0.00     0.000 C 
BRANCH  18  19
ATOM     19  C   UNL     1     -30.089 -19.205 -33.364  1.00  0.00     0.000 C 
BRANCH  19  20
ATOM     20  C   UNL     1     -29.657 -20.676 -33.494  1.00  0.00     0.000 C 
BRANCH  20  21
ATOM     21  C   UNL     1     -30.459 -21.448 -34.559  1.00  0.00     0.000 C 
BRANCH  21  22
ATOM     22  C   UNL     1     -31.922 -21.750 -34.185  1.00  0.00     0.000 C 
BRANCH  22  23
ATOM     23  C   UNL     1     -32.652 -22.592 -35.245  1.00  0.00     0.000 C 
BRANCH  23  24
ATOM     24  C   UNL     1     -33.789 -21.820 -35.934  1.00  0.00    -0.000 C 
BRANCH  24  25
ATOM     25  C   UNL     1     -33.294 -20.543 -36.635  1.00  0.00    -0.000 C 
BRANCH  25  26
ATOM     26  C   UNL     1     -34.123 -20.196 -37.881  1.00  0.00    -0.000 C 
BRANCH  26  27
ATOM     27  C   UNL     1     -33.754 -21.062 -39.098  1.00  0.00    -0.000 C 
BRANCH  27  28
ATOM     28  C   UNL     1     -32.411 -21.785 -38.917  1.00  0.00    -0.000 C 
BRANCH  28  29
ATOM     29  C   UNL     1     -32.550 -23.318 -38.986  1.00  0.00    -0.000 C 
BRANCH  29  30
ATOM     30  C   UNL     1     -31.498 -24.053 -38.137  1.00  0.00    -0.000 C 
BRANCH  30  31
ATOM     31  C   UNL     1     -31.630 -25.586 -38.133  1.00  0.00    -0.003 C 
ATOM     32  C   UNL     1     -32.945 -26.074 -38.740  1.00  0.00     0.004 C 
ENDBRANCH  30  31
ENDBRANCH  29  30
ENDBRANCH  28  29
ENDBRANCH  27  28
ENDBRANCH  26  27
ENDBRANCH  25  26
ENDBRANCH  24  25
ENDBRANCH  23  24
ENDBRANCH  22  23
ENDBRANCH  21  22
ENDBRANCH  20  21
ENDBRANCH  19  20
ENDBRANCH  18  19
ENDBRANCH   1  18
TORSDOF 28
ENDMDL
MODEL 5
REMARK VINA RESULT:     5.851      4.370      9.702
REMARK INTER + INTRA:          18.853
REMARK INTER:                  17.660
REMARK INTRA:                   1.192
REMARK UNBOUND:                 3.424
REMARK SMILES CCCCCCCCCCCCCCCCCCCCCCCCCCCCCC(=O)[O-]
REMARK SMILES IDX 16 1 17 2 18 3 19 4 20 5 21 6 22 7 23 8 24 9 25 10 26 11
REMARK SMILES IDX 27 12 28 13 29 14 30 15 31 16 32 17 15 18 14 19 13 20 12 21
REMARK SMILES IDX 11 22 10 23 9 24 8 25 7 26 6 27 5 28 4 29 3 30 2 31 1 32
REMARK H PARENT
REMARK Flexibility Score: inf
ROOT
ATOM      1  C   UNL     1     -31.865 -22.299 -35.327  1.00  0.00     0.000 C 
ENDROOT
BRANCH   1   2
ATOM      2  C   UNL     1     -31.886 -20.810 -34.939  1.00  0.00     0.000 C 
BRANCH   2   3
ATOM      3  C   UNL     1     -33.112 -20.023 -35.444  1.00  0.00     0.000 C 
BRANCH   3   4
ATOM      4  C   UNL     1     -33.711 -19.028 -34.434  1.00  0.00     0.000 C 
BRANCH   4   5
ATOM      5  C   UNL     1     -32.899 -18.942 -33.134  1.00  0.00     0.000 C 
BRANCH   5   6
ATOM      6  C   UNL     1     -31.392 -18.878 -33.421  1.00  0.00     0.000 C 
BRANCH   6   7
ATOM      7  C   UNL     1     -30.545 -18.875 -32.138  1.00  0.00     0.000 C 
BRANCH   7   8
ATOM      8  C   UNL     1     -29.692 -20.147 -31.988  1.00  0.00     0.000 C 
BRANCH   8   9
ATOM      9  C   UNL     1     -30.537 -21.431 -32.000  1.00  0.00     0.000 C 
BRANCH   9  10
ATOM     10  C   UNL     1     -30.927 -21.896 -30.589  1.00  0.00     0.000 C 
BRANCH  10  11
ATOM     11  C   UNL     1     -31.543 -20.747 -29.782  1.00  0.00     0.000 C 
BRANCH  11  12
ATOM     12  C   UNL     1     -31.226 -20.894 -28.286  1.00  0.00     0.000 C 
BRANCH  12  13
ATOM     13  C   UNL     1     -30.263 -22.060 -27.992  1.00  0.00     0.006 C 
BRANCH  13  14
ATOM     14  C   UNL     1     -28.886 -21.927 -28.663  1.00  0.00     0.053 C 
BRANCH  14  15
ATOM     15  C   UNL     1     -28.057 -20.846 -28.041  1.00  0.00     0.041 C 
ATOM     16  O   UNL     1     -27.389 -20.065 -28.769  1.00  0.00    -0.550 OA
ATOM     17  O   UNL     1     -28.002 -20.718 -26.658  1.00  0.00    -0.550 OA
ENDBRANCH  14  15
ENDBRANCH  13  14
ENDBRANCH  12  13
ENDBRANCH  11  12
ENDBRANCH  10  11
ENDBRANCH   9  10
ENDBRANCH   8   9
ENDBRANCH   7   8
ENDBRANCH   6   7
ENDBRANCH   5   6
ENDBRANCH   4   5
ENDBRANCH   3   4
ENDBRANCH   2   3
ENDBRANCH   1   2
BRANCH   1  18
ATOM     18  C   UNL     1     -33.197 -22.770 -35.934  1.00  0.00     0.000 C 
BRANCH  18  19
ATOM     19  C   UNL     1     -33.459 -22.184 -37.330  1.00  0.00     0.000 C 
BRANCH  19  20
ATOM     20  C   UNL     1     -32.239 -22.313 -38.260  1.00  0.00     0.000 C 
BRANCH  20  21
ATOM     21  C   UNL     1     -31.981 -23.761 -38.719  1.00  0.00     0.000 C 
BRANCH  21  22
ATOM     22  C   UNL     1     -33.243 -24.571 -39.069  1.00  0.00     0.000 C 
BRANCH  22  23
ATOM     23  C   UNL     1     -33.032 -26.091 -38.955  1.00  0.00     0.000 C 
BRANCH  23  24
ATOM     24  C   UNL     1     -33.640 -26.678 -37.672  1.00  0.00    -0.000 C 
BRANCH  24  25
ATOM     25  C   UNL     1     -33.425 -28.198 -37.559  1.00  0.00    -0.000 C 
BRANCH  25  26
ATOM     26  C   UNL     1     -33.318 -28.881 -38.931  1.00  0.00    -0.000 C 
BRANCH  26  27
ATOM     27  C   UNL     1     -33.354 -30.416 -38.832  1.00  0.00    -0.000 C 
BRANCH  27  28
ATOM     28  C   UNL     1     -31.988 -31.055 -39.125  1.00  0.00    -0.000 C 
BRANCH  28  29
ATOM     29  C   UNL     1     -31.905 -32.518 -38.650  1.00  0.00    -0.000 C 
BRANCH  29  30
ATOM     30  C   UNL     1     -30.480 -33.092 -38.729  1.00  0.00    -0.000 C 
BRANCH  30  31
ATOM     31  C   UNL     1     -29.424 -32.306 -37.932  1.00  0.00    -0.003 C 
ATOM     32  C   UNL     1     -29.116 -30.936 -38.536  1.00  0.00     0.004 C 
ENDBRANCH  30  31
ENDBRANCH  29  30
ENDBRANCH  28  29
ENDBRANCH  27  28
ENDBRANCH  26  27
ENDBRANCH  25  26
ENDBRANCH  24  25
ENDBRANCH  23  24
ENDBRANCH  22  23
ENDBRANCH  21  22
ENDBRANCH  20  21
ENDBRANCH  19  20
ENDBRANCH  18  19
ENDBRANCH   1  18
TORSDOF 28
ENDMDL
MODEL 6
REMARK VINA RESULT:     6.290      5.023      6.631
REMARK INTER + INTRA:          20.011
REMARK INTER:                  22.166
REMARK INTRA:                  -2.156
REMARK UNBOUND:                 3.424
REMARK SMILES CCCCCCCCCCCCCCCCCCCCCCCCCCCCCC(=O)[O-]
REMARK SMILES IDX 16 1 17 2 18 3 19 4 20 5 21 6 22 7 23 8 24 9 25 10 26 11
REMARK SMILES IDX 27 12 28 13 29 14 30 15 31 16 32 17 15 18 14 19 13 20 12 21
REMARK SMILES IDX 11 22 10 23 9 24 8 25 7 26 6 27 5 28 4 29 3 30 2 31 1 32
REMARK H PARENT
REMARK Flexibility Score: inf
ROOT
ATOM      1  C   UNL     1     -30.621 -22.417 -29.862  1.00  0.00     0.000 C 
ENDROOT
BRANCH   1   2
ATOM      2  C   UNL     1     -31.111 -21.550 -31.036  1.00  0.00     0.000 C 
BRANCH   2   3
ATOM      3  C   UNL     1     -31.381 -20.073 -30.684  1.00  0.00     0.000 C 
BRANCH   3   4
ATOM      4  C   UNL     1     -30.317 -19.078 -31.180  1.00  0.00     0.000 C 
BRANCH   4   5
ATOM      5  C   UNL     1     -30.221 -19.027 -32.712  1.00  0.00     0.000 C 
BRANCH   5   6
ATOM      6  C   UNL     1     -29.255 -20.095 -33.246  1.00  0.00     0.000 C 
BRANCH   6   7
ATOM      7  C   UNL     1     -29.808 -20.828 -34.478  1.00  0.00     0.000 C 
BRANCH   7   8
ATOM      8  C   UNL     1     -31.340 -20.975 -34.442  1.00  0.00     0.000 C 
BRANCH   8   9
ATOM      9  C   UNL     1     -31.800 -22.425 -34.662  1.00  0.00     0.000 C 
BRANCH   9  10
ATOM     10  C   UNL     1     -33.131 -22.513 -35.425  1.00  0.00     0.000 C 
BRANCH  10  11
ATOM     11  C   UNL     1     -33.389 -21.234 -36.230  1.00  0.00     0.000 C 
BRANCH  11  12
ATOM     12  C   UNL     1     -33.449 -21.535 -37.735  1.00  0.00     0.000 C 
BRANCH  12  13
ATOM     13  C   UNL     1     -32.084 -21.949 -38.316  1.00  0.00     0.006 C 
BRANCH  13  14
ATOM     14  C   UNL     1     -32.112 -23.258 -39.123  1.00  0.00     0.053 C 
BRANCH  14  15
ATOM     15  C   UNL     1     -31.837 -24.455 -38.267  1.00  0.00     0.041 C 
ATOM     16  O   UNL     1     -32.679 -25.390 -38.201  1.00  0.00    -0.550 OA
ATOM     17  O   UNL     1     -30.664 -24.528 -37.525  1.00  0.00    -0.550 OA
ENDBRANCH  14  15
ENDBRANCH  13  14
ENDBRANCH  12  13
ENDBRANCH  11  12
ENDBRANCH  10  11
ENDBRANCH   9  10
ENDBRANCH   8   9
ENDBRANCH   7   8
ENDBRANCH   6   7
ENDBRANCH   5   6
ENDBRANCH   4   5
ENDBRANCH   3   4
ENDBRANCH   2   3
ENDBRANCH   1   2
BRANCH   1  18
ATOM     18  C   UNL     1     -30.186 -21.579 -28.649  1.00  0.00     0.000 C 
BRANCH  18  19
ATOM     19  C   UNL     1     -29.311 -22.367 -27.661  1.00  0.00     0.000 C 
BRANCH  19  20
ATOM     20  C   UNL     1     -28.276 -21.475 -26.953  1.00  0.00     0.000 C 
BRANCH  20  21
ATOM     21  C   UNL     1     -28.397 -21.512 -25.418  1.00  0.00     0.000 C 
BRANCH  21  22
ATOM     22  C   UNL     1     -27.546 -20.469 -24.669  1.00  0.00     0.000 C 
BRANCH  22  23
ATOM     23  C   UNL     1     -27.792 -20.471 -23.150  1.00  0.00     0.000 C 
BRANCH  23  24
ATOM     24  C   UNL     1     -28.397 -21.792 -22.650  1.00  0.00    -0.000 C 
BRANCH  24  25
ATOM     25  C   UNL     1     -27.684 -22.330 -21.397  1.00  0.00    -0.000 C 
BRANCH  25  26
ATOM     26  C   UNL     1     -26.172 -22.056 -21.416  1.00  0.00    -0.000 C 
BRANCH  26  27
ATOM     27  C   UNL     1     -25.336 -23.338 -21.253  1.00  0.00    -0.000 C 
BRANCH  27  28
ATOM     28  C   UNL     1     -25.807 -24.467 -22.181  1.00  0.00    -0.000 C 
BRANCH  28  29
ATOM     29  C   UNL     1     -24.677 -25.005 -23.080  1.00  0.00    -0.000 C 
BRANCH  29  30
ATOM     30  C   UNL     1     -23.691 -25.910 -22.322  1.00  0.00    -0.000 C 
BRANCH  30  31
ATOM     31  C   UNL     1     -22.210 -25.520 -22.475  1.00  0.00    -0.003 C 
ATOM     32  C   UNL     1     -21.891 -24.908 -23.838  1.00  0.00     0.004 C 
ENDBRANCH  30  31
ENDBRANCH  29  30
ENDBRANCH  28  29
ENDBRANCH  27  28
ENDBRANCH  26  27
ENDBRANCH  25  26
ENDBRANCH  24  25
ENDBRANCH  23  24
ENDBRANCH  22  23
ENDBRANCH  21  22
ENDBRANCH  20  21
ENDBRANCH  19  20
ENDBRANCH  18  19
ENDBRANCH   1  18
TORSDOF 28
ENDMDL
