MODEL 1
REMARK VINA RESULT:    -6.004      0.000      0.000
REMARK INTER + INTRA:         -14.326
REMARK INTER:                 -13.024
REMARK INTRA:                  -1.302
REMARK UNBOUND:                -1.302
REMARK SMILES CCCCCCCCCCCCCCCCCCCCCC(=O)[O-]
REMARK SMILES IDX 12 1 11 2 10 3 9 4 8 5 7 6 6 7 5 8 4 9 3 10 2 11 1 12 13 13
REMARK SMILES IDX 14 14 15 15 16 16 17 17 18 18 19 19 20 20 21 21 22 22 23 23
REMARK SMILES IDX 24 24
REMARK H PARENT
REMARK Flexibility Score: inf
ROOT
ATOM      1  C   UNL     1      10.789  10.286 -18.637  1.00  0.00     0.000 C 
ENDROOT
BRANCH   1   2
ATOM      2  C   UNL     1      11.145  10.595 -17.176  1.00  0.00     0.000 C 
BRANCH   2   3
ATOM      3  C   UNL     1      10.591  11.965 -16.758  1.00  0.00     0.000 C 
BRANCH   3   4
ATOM      4  C   UNL     1      10.113  12.807 -17.955  1.00  0.00    -0.000 C 
BRANCH   4   5
ATOM      5  C   UNL     1       9.706  14.255 -17.616  1.00  0.00    -0.000 C 
BRANCH   5   6
ATOM      6  C   UNL     1       9.269  15.107 -18.820  1.00  0.00    -0.000 C 
BRANCH   6   7
ATOM      7  C   UNL     1       8.887  14.262 -20.044  1.00  0.00    -0.000 C 
BRANCH   7   8
ATOM      8  C   UNL     1       7.894  15.010 -20.940  1.00  0.00    -0.000 C 
BRANCH   8   9
ATOM      9  C   UNL     1       6.750  14.088 -21.381  1.00  0.00    -0.000 C 
BRANCH   9  10
ATOM     10  C   UNL     1       5.536  14.900 -21.847  1.00  0.00    -0.000 C 
BRANCH  10  11
ATOM     11  C   UNL     1       4.374  13.978 -22.233  1.00  0.00    -0.003 C 
ATOM     12  C   UNL     1       4.694  13.183 -23.494  1.00  0.00     0.004 C 
ENDBRANCH  10  11
ENDBRANCH   9  10
ENDBRANCH   8   9
ENDBRANCH   7   8
ENDBRANCH   6   7
ENDBRANCH   5   6
ENDBRANCH   4   5
ENDBRANCH   3   4
ENDBRANCH   2   3
ENDBRANCH   1   2
BRANCH   1  13
ATOM     13  C   UNL     1      11.662   9.174 -19.239  1.00  0.00     0.000 C 
BRANCH  13  14
ATOM     14  C   UNL     1      12.487   8.427 -18.179  1.00  0.00     0.000 C 
BRANCH  14  15
ATOM     15  C   UNL     1      13.218   7.225 -18.796  1.00  0.00     0.000 C 
BRANCH  15  16
ATOM     16  C   UNL     1      13.382   7.345 -20.322  1.00  0.00     0.000 C 
BRANCH  16  17
ATOM     17  C   UNL     1      14.437   6.404 -20.937  1.00  0.00     0.000 C 
BRANCH  17  18
ATOM     18  C   UNL     1      15.604   7.113 -21.651  1.00  0.00     0.000 C 
BRANCH  18  19
ATOM     19  C   UNL     1      15.381   8.613 -21.932  1.00  0.00     0.000 C 
BRANCH  19  20
ATOM     20  C   UNL     1      16.539   9.534 -21.504  1.00  0.00     0.006 C 
BRANCH  20  21
ATOM     21  C   UNL     1      17.450   8.895 -20.448  1.00  0.00     0.053 C 
BRANCH  21  22
ATOM     22  C   UNL     1      17.650   9.830 -19.295  1.00  0.00     0.041 C 
ATOM     23  O   UNL     1      17.651  11.077 -19.482  1.00  0.00    -0.550 OA
ATOM     24  O   UNL     1      17.807   9.325 -18.010  1.00  0.00    -0.550 OA
ENDBRANCH  21  22
ENDBRANCH  20  21
ENDBRANCH  19  20
ENDBRANCH  18  19
ENDBRANCH  17  18
ENDBRANCH  16  17
ENDBRANCH  15  16
ENDBRANCH  14  15
ENDBRANCH  13  14
ENDBRANCH   1  13
TORSDOF 20
ENDMDL
MODEL 2
REMARK VINA RESULT:    -5.869      2.300      4.541
REMARK INTER + INTRA:         -14.033
REMARK INTER:                 -12.600
REMARK INTRA:                  -1.432
REMARK UNBOUND:                -1.302
REMARK SMILES CCCCCCCCCCCCCCCCCCCCCC(=O)[O-]
REMARK SMILES IDX 12 1 11 2 10 3 9 4 8 5 7 6 6 7 5 8 4 9 3 10 2 11 1 12 13 13
REMARK SMILES IDX 14 14 15 15 16 16 17 17 18 18 19 19 20 20 21 21 22 22 23 23
REMARK SMILES IDX 24 24
REMARK H PARENT
REMARK Flexibility Score: inf
ROOT
ATOM      1  C   UNL     1      13.517   7.456 -20.371  1.00  0.00     0.000 C 
ENDROOT
BRANCH   1   2
ATOM      2  C   UNL     1      13.124   7.230 -18.904  1.00  0.00     0.000 C 
BRANCH   2   3
ATOM      3  C   UNL     1      12.387   8.454 -18.342  1.00  0.00     0.000 C 
BRANCH   3   4
ATOM      4  C   UNL     1      11.514   9.161 -19.395  1.00  0.00    -0.000 C 
BRANCH   4   5
ATOM      5  C   UNL     1      10.728  10.384 -18.880  1.00  0.00    -0.000 C 
BRANCH   5   6
ATOM      6  C   UNL     1      10.694  11.587 -19.838  1.00  0.00    -0.000 C 
BRANCH   6   7
ATOM      7  C   UNL     1       9.277  11.920 -20.328  1.00  0.00    -0.000 C 
BRANCH   7   8
ATOM      8  C   UNL     1       8.963  13.409 -20.133  1.00  0.00    -0.000 C 
BRANCH   8   9
ATOM      9  C   UNL     1       9.434  13.893 -18.757  1.00  0.00    -0.000 C 
BRANCH   9  10
ATOM     10  C   UNL     1       9.179  15.395 -18.584  1.00  0.00    -0.000 C 
BRANCH  10  11
ATOM     11  C   UNL     1       9.195  15.787 -17.102  1.00  0.00    -0.003 C 
ATOM     12  C   UNL     1       9.709  14.644 -16.233  1.00  0.00     0.004 C 
ENDBRANCH  10  11
ENDBRANCH   9  10
ENDBRANCH   8   9
ENDBRANCH   7   8
ENDBRANCH   6   7
ENDBRANCH   5   6
ENDBRANCH   4   5
ENDBRANCH   3   4
ENDBRANCH   2   3
ENDBRANCH   1   2
BRANCH   1  13
ATOM     13  C   UNL     1      14.575   6.456 -20.863  1.00  0.00     0.000 C 
BRANCH  13  14
ATOM     14  C   UNL     1      15.577   7.087 -21.843  1.00  0.00     0.000 C 
BRANCH  14  15
ATOM     15  C   UNL     1      15.282   8.581 -22.047  1.00  0.00     0.000 C 
BRANCH  15  16
ATOM     16  C   UNL     1      16.445   9.486 -21.603  1.00  0.00     0.000 C 
BRANCH  16  17
ATOM     17  C   UNL     1      17.389   8.863 -20.556  1.00  0.00     0.000 C 
BRANCH  17  18
ATOM     18  C   UNL     1      18.376   9.849 -19.901  1.00  0.00     0.000 C 
BRANCH  18  19
ATOM     19  C   UNL     1      19.502  10.354 -20.826  1.00  0.00     0.000 C 
BRANCH  19  20
ATOM     20  C   UNL     1      19.705  11.880 -20.830  1.00  0.00     0.006 C 
BRANCH  20  21
ATOM     21  C   UNL     1      18.397  12.655 -21.038  1.00  0.00     0.053 C 
BRANCH  21  22
ATOM     22  C   UNL     1      18.089  13.494 -19.837  1.00  0.00     0.041 C 
ATOM     23  O   UNL     1      16.911  13.559 -19.392  1.00  0.00    -0.550 OA
ATOM     24  O   UNL     1      19.110  14.181 -19.190  1.00  0.00    -0.550 OA
ENDBRANCH  21  22
ENDBRANCH  20  21
ENDBRANCH  19  20
ENDBRANCH  18  19
ENDBRANCH  17  18
ENDBRANCH  16  17
ENDBRANCH  15  16
ENDBRANCH  14  15
ENDBRANCH  13  14
ENDBRANCH   1  13
TORSDOF 20
ENDMDL
MODEL 3
REMARK VINA RESULT:    -5.833      1.647      3.649
REMARK INTER + INTRA:         -13.954
REMARK INTER:                 -12.837
REMARK INTRA:                  -1.117
REMARK UNBOUND:                -1.302
REMARK SMILES CCCCCCCCCCCCCCCCCCCCCC(=O)[O-]
REMARK SMILES IDX 12 1 11 2 10 3 9 4 8 5 7 6 6 7 5 8 4 9 3 10 2 11 1 12 13 13
REMARK SMILES IDX 14 14 15 15 16 16 17 17 18 18 19 19 20 20 21 21 22 22 23 23
REMARK SMILES IDX 24 24
REMARK H PARENT
REMARK Flexibility Score: inf
ROOT
ATOM      1  C   UNL     1      10.746  10.279 -19.046  1.00  0.00     0.000 C 
ENDROOT
BRANCH   1   2
ATOM      2  C   UNL     1      10.571  11.472 -19.998  1.00  0.00     0.000 C 
BRANCH   2   3
ATOM      3  C   UNL     1       9.423  12.378 -19.530  1.00  0.00     0.000 C 
BRANCH   3   4
ATOM      4  C   UNL     1       8.374  12.629 -20.629  1.00  0.00    -0.000 C 
BRANCH   4   5
ATOM      5  C   UNL     1       8.132  14.111 -20.977  1.00  0.00    -0.000 C 
BRANCH   5   6
ATOM      6  C   UNL     1       9.148  15.097 -20.376  1.00  0.00    -0.000 C 
BRANCH   6   7
ATOM      7  C   UNL     1       8.504  16.108 -19.415  1.00  0.00    -0.000 C 
BRANCH   7   8
ATOM      8  C   UNL     1       9.233  16.125 -18.066  1.00  0.00    -0.000 C 
BRANCH   8   9
ATOM      9  C   UNL     1       9.468  14.700 -17.551  1.00  0.00    -0.000 C 
BRANCH   9  10
ATOM     10  C   UNL     1       9.543  14.672 -16.020  1.00  0.00    -0.000 C 
BRANCH  10  11
ATOM     11  C   UNL     1       8.292  15.303 -15.398  1.00  0.00    -0.003 C 
ATOM     12  C   UNL     1       8.447  15.466 -13.889  1.00  0.00     0.004 C 
ENDBRANCH  10  11
ENDBRANCH   9  10
ENDBRANCH   8   9
ENDBRANCH   7   8
ENDBRANCH   6   7
ENDBRANCH   5   6
ENDBRANCH   4   5
ENDBRANCH   3   4
ENDBRANCH   2   3
ENDBRANCH   1   2
BRANCH   1  13
ATOM     13  C   UNL     1      11.791   9.270 -19.544  1.00  0.00     0.000 C 
BRANCH  13  14
ATOM     14  C   UNL     1      12.062   8.146 -18.531  1.00  0.00     0.000 C 
BRANCH  14  15
ATOM     15  C   UNL     1      13.329   7.361 -18.904  1.00  0.00     0.000 C 
BRANCH  15  16
ATOM     16  C   UNL     1      13.511   7.209 -20.425  1.00  0.00     0.000 C 
BRANCH  16  17
ATOM     17  C   UNL     1      14.820   6.519 -20.856  1.00  0.00     0.000 C 
BRANCH  17  18
ATOM     18  C   UNL     1      15.654   7.295 -21.895  1.00  0.00     0.000 C 
BRANCH  18  19
ATOM     19  C   UNL     1      15.410   8.818 -21.919  1.00  0.00     0.000 C 
BRANCH  19  20
ATOM     20  C   UNL     1      16.670   9.681 -21.729  1.00  0.00     0.006 C 
BRANCH  20  21
ATOM     21  C   UNL     1      17.642   9.098 -20.694  1.00  0.00     0.053 C 
BRANCH  21  22
ATOM     22  C   UNL     1      17.634   9.925 -19.446  1.00  0.00     0.041 C 
ATOM     23  O   UNL     1      17.478   9.376 -18.322  1.00  0.00    -0.550 OA
ATOM     24  O   UNL     1      17.830  11.299 -19.522  1.00  0.00    -0.550 OA
ENDBRANCH  21  22
ENDBRANCH  20  21
ENDBRANCH  19  20
ENDBRANCH  18  19
ENDBRANCH  17  18
ENDBRANCH  16  17
ENDBRANCH  15  16
ENDBRANCH  14  15
ENDBRANCH  13  14
ENDBRANCH   1  13
TORSDOF 20
ENDMDL
MODEL 4
REMARK VINA RESULT:    -5.795      1.839      3.500
REMARK INTER + INTRA:         -13.873
REMARK INTER:                 -12.162
REMARK INTRA:                  -1.710
REMARK UNBOUND:                -1.302
REMARK SMILES CCCCCCCCCCCCCCCCCCCCCC(=O)[O-]
REMARK SMILES IDX 12 1 11 2 10 3 9 4 8 5 7 6 6 7 5 8 4 9 3 10 2 11 1 12 13 13
REMARK SMILES IDX 14 14 15 15 16 16 17 17 18 18 19 19 20 20 21 21 22 22 23 23
REMARK SMILES IDX 24 24
REMARK H PARENT
REMARK Flexibility Score: inf
ROOT
ATOM      1  C   UNL     1      11.940   8.362 -18.878  1.00  0.00     0.000 C 
ENDROOT
BRANCH   1   2
ATOM      2  C   UNL     1      11.276   9.619 -19.457  1.00  0.00     0.000 C 
BRANCH   2   3
ATOM      3  C   UNL     1      10.763  10.532 -18.333  1.00  0.00     0.000 C 
BRANCH   3   4
ATOM      4  C   UNL     1      10.565  11.989 -18.790  1.00  0.00    -0.000 C 
BRANCH   4   5
ATOM      5  C   UNL     1      10.074  12.159 -20.241  1.00  0.00    -0.000 C 
BRANCH   5   6
ATOM      6  C   UNL     1       8.555  12.013 -20.436  1.00  0.00    -0.000 C 
BRANCH   6   7
ATOM      7  C   UNL     1       7.897  13.289 -20.983  1.00  0.00    -0.000 C 
BRANCH   7   8
ATOM      8  C   UNL     1       8.867  14.475 -20.926  1.00  0.00    -0.000 C 
BRANCH   8   9
ATOM      9  C   UNL     1       8.461  15.463 -19.827  1.00  0.00    -0.000 C 
BRANCH   9  10
ATOM     10  C   UNL     1       9.545  15.562 -18.747  1.00  0.00    -0.000 C 
BRANCH  10  11
ATOM     11  C   UNL     1       8.922  15.710 -17.355  1.00  0.00    -0.003 C 
ATOM     12  C   UNL     1       9.345  14.570 -16.434  1.00  0.00     0.004 C 
ENDBRANCH  10  11
ENDBRANCH   9  10
ENDBRANCH   8   9
ENDBRANCH   7   8
ENDBRANCH   6   7
ENDBRANCH   5   6
ENDBRANCH   4   5
ENDBRANCH   3   4
ENDBRANCH   2   3
ENDBRANCH   1   2
BRANCH   1  13
ATOM     13  C   UNL     1      12.666   7.529 -19.946  1.00  0.00     0.000 C 
BRANCH  13  14
ATOM     14  C   UNL     1      14.192   7.522 -19.757  1.00  0.00     0.000 C 
BRANCH  14  15
ATOM     15  C   UNL     1      14.861   6.530 -20.720  1.00  0.00     0.000 C 
BRANCH  15  16
ATOM     16  C   UNL     1      15.666   7.226 -21.832  1.00  0.00     0.000 C 
BRANCH  16  17
ATOM     17  C   UNL     1      15.185   8.645 -22.190  1.00  0.00     0.000 C 
BRANCH  17  18
ATOM     18  C   UNL     1      16.235   9.757 -22.000  1.00  0.00     0.000 C 
BRANCH  18  19
ATOM     19  C   UNL     1      17.154   9.581 -20.774  1.00  0.00     0.000 C 
BRANCH  19  20
ATOM     20  C   UNL     1      18.485  10.353 -20.843  1.00  0.00     0.006 C 
BRANCH  20  21
ATOM     21  C   UNL     1      18.313  11.795 -21.339  1.00  0.00     0.053 C 
BRANCH  21  22
ATOM     22  C   UNL     1      18.159  12.731 -20.181  1.00  0.00     0.041 C 
ATOM     23  O   UNL     1      17.023  12.929 -19.671  1.00  0.00    -0.550 OA
ATOM     24  O   UNL     1      19.275  13.364 -19.646  1.00  0.00    -0.550 OA
ENDBRANCH  21  22
ENDBRANCH  20  21
ENDBRANCH  19  20
ENDBRANCH  18  19
ENDBRANCH  17  18
ENDBRANCH  16  17
ENDBRANCH  15  16
ENDBRANCH  14  15
ENDBRANCH  13  14
ENDBRANCH   1  13
TORSDOF 20
ENDMDL
MODEL 5
REMARK VINA RESULT:    -5.727      1.770      2.470
REMARK INTER + INTRA:         -13.726
REMARK INTER:                 -12.007
REMARK INTRA:                  -1.719
REMARK UNBOUND:                -1.302
REMARK SMILES CCCCCCCCCCCCCCCCCCCCCC(=O)[O-]
REMARK SMILES IDX 12 1 11 2 10 3 9 4 8 5 7 6 6 7 5 8 4 9 3 10 2 11 1 12 13 13
REMARK SMILES IDX 14 14 15 15 16 16 17 17 18 18 19 19 20 20 21 21 22 22 23 23
REMARK SMILES IDX 24 24
REMARK H PARENT
REMARK Flexibility Score: inf
ROOT
ATOM      1  C   UNL     1      11.021   9.814 -19.638  1.00  0.00     0.000 C 
ENDROOT
BRANCH   1   2
ATOM      2  C   UNL     1      10.730  11.050 -18.775  1.00  0.00     0.000 C 
BRANCH   2   3
ATOM      3  C   UNL     1      11.084  10.785 -17.305  1.00  0.00     0.000 C 
BRANCH   3   4
ATOM      4  C   UNL     1      10.718  11.961 -16.381  1.00  0.00    -0.000 C 
BRANCH   4   5
ATOM      5  C   UNL     1       9.731  12.982 -16.979  1.00  0.00    -0.000 C 
BRANCH   5   6
ATOM      6  C   UNL     1       9.891  14.423 -16.465  1.00  0.00    -0.000 C 
BRANCH   6   7
ATOM      7  C   UNL     1       9.069  15.440 -17.271  1.00  0.00    -0.000 C 
BRANCH   7   8
ATOM      8  C   UNL     1       9.512  15.466 -18.738  1.00  0.00    -0.000 C 
BRANCH   8   9
ATOM      9  C   UNL     1       8.389  15.989 -19.642  1.00  0.00    -0.000 C 
BRANCH   9  10
ATOM     10  C   UNL     1       8.020  14.958 -20.715  1.00  0.00    -0.000 C 
BRANCH  10  11
ATOM     11  C   UNL     1       8.815  13.661 -20.527  1.00  0.00    -0.003 C 
ATOM     12  C   UNL     1       7.977  12.440 -20.895  1.00  0.00     0.004 C 
ENDBRANCH  10  11
ENDBRANCH   9  10
ENDBRANCH   8   9
ENDBRANCH   7   8
ENDBRANCH   6   7
ENDBRANCH   5   6
ENDBRANCH   4   5
ENDBRANCH   3   4
ENDBRANCH   2   3
ENDBRANCH   1   2
BRANCH   1  13
ATOM     13  C   UNL     1      11.898   8.779 -18.916  1.00  0.00     0.000 C 
BRANCH  13  14
ATOM     14  C   UNL     1      12.555   7.780 -19.883  1.00  0.00     0.000 C 
BRANCH  14  15
ATOM     15  C   UNL     1      13.959   7.387 -19.398  1.00  0.00     0.000 C 
BRANCH  15  16
ATOM     16  C   UNL     1      14.765   6.619 -20.462  1.00  0.00     0.000 C 
BRANCH  16  17
ATOM     17  C   UNL     1      15.229   7.468 -21.662  1.00  0.00     0.000 C 
BRANCH  17  18
ATOM     18  C   UNL     1      16.023   8.737 -21.294  1.00  0.00     0.000 C 
BRANCH  18  19
ATOM     19  C   UNL     1      17.229   8.503 -20.362  1.00  0.00     0.000 C 
BRANCH  19  20
ATOM     20  C   UNL     1      18.343   9.560 -20.461  1.00  0.00     0.006 C 
BRANCH  20  21
ATOM     21  C   UNL     1      17.915  10.805 -21.251  1.00  0.00     0.053 C 
BRANCH  21  22
ATOM     22  C   UNL     1      17.933  12.015 -20.370  1.00  0.00     0.041 C 
ATOM     23  O   UNL     1      19.015  12.414 -19.860  1.00  0.00    -0.550 OA
ATOM     24  O   UNL     1      16.758  12.720 -20.134  1.00  0.00    -0.550 OA
ENDBRANCH  21  22
ENDBRANCH  20  21
ENDBRANCH  19  20
ENDBRANCH  18  19
ENDBRANCH  17  18
ENDBRANCH  16  17
ENDBRANCH  15  16
ENDBRANCH  14  15
ENDBRANCH  13  14
ENDBRANCH   1  13
TORSDOF 20
ENDMDL
MODEL 6
REMARK VINA RESULT:    -5.606      1.078      2.407
REMARK INTER + INTRA:         -13.462
REMARK INTER:                 -12.326
REMARK INTRA:                  -1.136
REMARK UNBOUND:                -1.302
REMARK SMILES CCCCCCCCCCCCCCCCCCCCCC(=O)[O-]
REMARK SMILES IDX 12 1 11 2 10 3 9 4 8 5 7 6 6 7 5 8 4 9 3 10 2 11 1 12 13 13
REMARK SMILES IDX 14 14 15 15 16 16 17 17 18 18 19 19 20 20 21 21 22 22 23 23
REMARK SMILES IDX 24 24
REMARK H PARENT
REMARK Flexibility Score: inf
ROOT
ATOM      1  C   UNL     1      10.585  11.878 -17.070  1.00  0.00     0.000 C 
ENDROOT
BRANCH   1   2
ATOM      2  C   UNL     1      10.200  12.780 -18.252  1.00  0.00     0.000 C 
BRANCH   2   3
ATOM      3  C   UNL     1       9.619  14.111 -17.755  1.00  0.00     0.000 C 
BRANCH   3   4
ATOM      4  C   UNL     1       9.229  15.059 -18.904  1.00  0.00    -0.000 C 
BRANCH   4   5
ATOM      5  C   UNL     1       8.765  14.362 -20.199  1.00  0.00    -0.000 C 
BRANCH   5   6
ATOM      6  C   UNL     1       7.495  14.950 -20.837  1.00  0.00    -0.000 C 
BRANCH   6   7
ATOM      7  C   UNL     1       6.656  13.898 -21.578  1.00  0.00    -0.000 C 
BRANCH   7   8
ATOM      8  C   UNL     1       5.428  14.538 -22.236  1.00  0.00    -0.000 C 
BRANCH   8   9
ATOM      9  C   UNL     1       4.577  13.483 -22.953  1.00  0.00    -0.000 C 
BRANCH   9  10
ATOM     10  C   UNL     1       3.192  13.362 -22.308  1.00  0.00    -0.000 C 
BRANCH  10  11
ATOM     11  C   UNL     1       3.025  14.374 -21.169  1.00  0.00    -0.003 C 
ATOM     12  C   UNL     1       2.066  13.855 -20.103  1.00  0.00     0.004 C 
ENDBRANCH  10  11
ENDBRANCH   9  10
ENDBRANCH   8   9
ENDBRANCH   7   8
ENDBRANCH   6   7
ENDBRANCH   5   6
ENDBRANCH   4   5
ENDBRANCH   3   4
ENDBRANCH   2   3
ENDBRANCH   1   2
BRANCH   1  13
ATOM     13  C   UNL     1      11.134  10.514 -17.518  1.00  0.00     0.000 C 
BRANCH  13  14
ATOM     14  C   UNL     1      10.763  10.172 -18.970  1.00  0.00     0.000 C 
BRANCH  14  15
ATOM     15  C   UNL     1      11.804   9.234 -19.598  1.00  0.00     0.000 C 
BRANCH  15  16
ATOM     16  C   UNL     1      12.203   8.075 -18.667  1.00  0.00     0.000 C 
BRANCH  16  17
ATOM     17  C   UNL     1      13.304   7.149 -19.219  1.00  0.00     0.000 C 
BRANCH  17  18
ATOM     18  C   UNL     1      13.762   7.466 -20.656  1.00  0.00     0.000 C 
BRANCH  18  19
ATOM     19  C   UNL     1      15.224   7.090 -20.972  1.00  0.00     0.000 C 
BRANCH  19  20
ATOM     20  C   UNL     1      16.207   8.273 -21.004  1.00  0.00     0.006 C 
BRANCH  20  21
ATOM     21  C   UNL     1      16.811   8.584 -19.627  1.00  0.00     0.053 C 
BRANCH  21  22
ATOM     22  C   UNL     1      17.937   9.563 -19.759  1.00  0.00     0.041 C 
ATOM     23  O   UNL     1      17.775  10.766 -19.419  1.00  0.00    -0.550 OA
ATOM     24  O   UNL     1      19.173   9.138 -20.230  1.00  0.00    -0.550 OA
ENDBRANCH  21  22
ENDBRANCH  20  21
ENDBRANCH  19  20
ENDBRANCH  18  19
ENDBRANCH  17  18
ENDBRANCH  16  17
ENDBRANCH  15  16
ENDBRANCH  14  15
ENDBRANCH  13  14
ENDBRANCH   1  13
TORSDOF 20
ENDMDL
MODEL 7
REMARK VINA RESULT:    -5.547      1.745      3.337
REMARK INTER + INTRA:         -13.335
REMARK INTER:                 -12.345
REMARK INTRA:                  -0.990
REMARK UNBOUND:                -1.302
REMARK SMILES CCCCCCCCCCCCCCCCCCCCCC(=O)[O-]
REMARK SMILES IDX 12 1 11 2 10 3 9 4 8 5 7 6 6 7 5 8 4 9 3 10 2 11 1 12 13 13
REMARK SMILES IDX 14 14 15 15 16 16 17 17 18 18 19 19 20 20 21 21 22 22 23 23
REMARK SMILES IDX 24 24
REMARK H PARENT
REMARK Flexibility Score: inf
ROOT
ATOM      1  C   UNL     1      10.524  11.634 -20.044  1.00  0.00     0.000 C 
ENDROOT
BRANCH   1   2
ATOM      2  C   UNL     1       9.241  12.411 -19.714  1.00  0.00     0.000 C 
BRANCH   2   3
ATOM      3  C   UNL     1       8.927  13.437 -20.812  1.00  0.00     0.000 C 
BRANCH   3   4
ATOM      4  C   UNL     1       7.432  13.485 -21.175  1.00  0.00    -0.000 C 
BRANCH   4   5
ATOM      5  C   UNL     1       6.888  14.885 -21.525  1.00  0.00    -0.000 C 
BRANCH   5   6
ATOM      6  C   UNL     1       5.368  14.954 -21.755  1.00  0.00    -0.000 C 
BRANCH   6   7
ATOM      7  C   UNL     1       4.823  13.737 -22.518  1.00  0.00    -0.000 C 
BRANCH   7   8
ATOM      8  C   UNL     1       3.317  13.571 -22.283  1.00  0.00    -0.000 C 
BRANCH   8   9
ATOM      9  C   UNL     1       2.853  14.406 -21.084  1.00  0.00    -0.000 C 
BRANCH   9  10
ATOM     10  C   UNL     1       1.565  13.836 -20.480  1.00  0.00    -0.000 C 
BRANCH  10  11
ATOM     11  C   UNL     1       1.872  12.668 -19.535  1.00  0.00    -0.003 C 
ATOM     12  C   UNL     1       1.878  13.123 -18.079  1.00  0.00     0.004 C 
ENDBRANCH  10  11
ENDBRANCH   9  10
ENDBRANCH   8   9
ENDBRANCH   7   8
ENDBRANCH   6   7
ENDBRANCH   5   6
ENDBRANCH   4   5
ENDBRANCH   3   4
ENDBRANCH   2   3
ENDBRANCH   1   2
BRANCH   1  13
ATOM     13  C   UNL     1      10.772  10.460 -19.083  1.00  0.00     0.000 C 
BRANCH  13  14
ATOM     14  C   UNL     1      11.525   9.297 -19.748  1.00  0.00     0.000 C 
BRANCH  14  15
ATOM     15  C   UNL     1      11.919   8.233 -18.713  1.00  0.00     0.000 C 
BRANCH  15  16
ATOM     16  C   UNL     1      13.327   7.658 -18.954  1.00  0.00     0.000 C 
BRANCH  16  17
ATOM     17  C   UNL     1      13.501   6.908 -20.289  1.00  0.00     0.000 C 
BRANCH  17  18
ATOM     18  C   UNL     1      14.963   6.679 -20.722  1.00  0.00     0.000 C 
BRANCH  18  19
ATOM     19  C   UNL     1      15.516   7.716 -21.720  1.00  0.00     0.000 C 
BRANCH  19  20
ATOM     20  C   UNL     1      16.648   8.605 -21.173  1.00  0.00     0.006 C 
BRANCH  20  21
ATOM     21  C   UNL     1      16.758   8.557 -19.643  1.00  0.00     0.053 C 
BRANCH  21  22
ATOM     22  C   UNL     1      17.898   9.406 -19.174  1.00  0.00     0.041 C 
ATOM     23  O   UNL     1      18.913   8.873 -18.649  1.00  0.00    -0.550 OA
ATOM     24  O   UNL     1      17.852  10.785 -19.343  1.00  0.00    -0.550 OA
ENDBRANCH  21  22
ENDBRANCH  20  21
ENDBRANCH  19  20
ENDBRANCH  18  19
ENDBRANCH  17  18
ENDBRANCH  16  17
ENDBRANCH  15  16
ENDBRANCH  14  15
ENDBRANCH  13  14
ENDBRANCH   1  13
TORSDOF 20
ENDMDL
MODEL 8
REMARK VINA RESULT:    -5.535      3.373      9.613
REMARK INTER + INTRA:         -13.308
REMARK INTER:                 -11.724
REMARK INTRA:                  -1.584
REMARK UNBOUND:                -1.302
REMARK SMILES CCCCCCCCCCCCCCCCCCCCCC(=O)[O-]
REMARK SMILES IDX 12 1 11 2 10 3 9 4 8 5 7 6 6 7 5 8 4 9 3 10 2 11 1 12 13 13
REMARK SMILES IDX 14 14 15 15 16 16 17 17 18 18 19 19 20 20 21 21 22 22 23 23
REMARK SMILES IDX 24 24
REMARK H PARENT
REMARK Flexibility Score: inf
ROOT
ATOM      1  C   UNL     1      13.007   7.484 -18.656  1.00  0.00     0.000 C 
ENDROOT
BRANCH   1   2
ATOM      2  C   UNL     1      13.327   7.451 -20.158  1.00  0.00     0.000 C 
BRANCH   2   3
ATOM      3  C   UNL     1      14.331   6.333 -20.477  1.00  0.00     0.000 C 
BRANCH   3   4
ATOM      4  C   UNL     1      15.479   6.803 -21.388  1.00  0.00    -0.000 C 
BRANCH   4   5
ATOM      5  C   UNL     1      15.295   8.205 -22.003  1.00  0.00    -0.000 C 
BRANCH   5   6
ATOM      6  C   UNL     1      16.411   9.212 -21.675  1.00  0.00    -0.000 C 
BRANCH   6   7
ATOM      7  C   UNL     1      17.131   8.897 -20.355  1.00  0.00    -0.000 C 
BRANCH   7   8
ATOM      8  C   UNL     1      18.058  10.048 -19.947  1.00  0.00    -0.000 C 
BRANCH   8   9
ATOM      9  C   UNL     1      19.435   9.904 -20.606  1.00  0.00    -0.000 C 
BRANCH   9  10
ATOM     10  C   UNL     1      19.860  11.211 -21.286  1.00  0.00    -0.000 C 
BRANCH  10  11
ATOM     11  C   UNL     1      18.698  11.821 -22.077  1.00  0.00    -0.003 C 
ATOM     12  C   UNL     1      18.994  11.833 -23.573  1.00  0.00     0.004 C 
ENDBRANCH  10  11
ENDBRANCH   9  10
ENDBRANCH   8   9
ENDBRANCH   7   8
ENDBRANCH   6   7
ENDBRANCH   5   6
ENDBRANCH   4   5
ENDBRANCH   3   4
ENDBRANCH   2   3
ENDBRANCH   1   2
BRANCH   1  13
ATOM     13  C   UNL     1      11.978   8.565 -18.292  1.00  0.00     0.000 C 
BRANCH  13  14
ATOM     14  C   UNL     1      11.410   9.285 -19.526  1.00  0.00     0.000 C 
BRANCH  14  15
ATOM     15  C   UNL     1      10.672  10.570 -19.122  1.00  0.00     0.000 C 
BRANCH  15  16
ATOM     16  C   UNL     1      10.899  10.953 -17.649  1.00  0.00     0.000 C 
BRANCH  16  17
ATOM     17  C   UNL     1      10.258  12.286 -17.218  1.00  0.00     0.000 C 
BRANCH  17  18
ATOM     18  C   UNL     1      10.323  13.410 -18.272  1.00  0.00     0.000 C 
BRANCH  18  19
ATOM     19  C   UNL     1       9.213  14.475 -18.157  1.00  0.00     0.000 C 
BRANCH  19  20
ATOM     20  C   UNL     1       8.808  15.137 -19.486  1.00  0.00     0.006 C 
BRANCH  20  21
ATOM     21  C   UNL     1       9.089  14.248 -20.706  1.00  0.00     0.053 C 
BRANCH  21  22
ATOM     22  C   UNL     1       7.911  13.368 -20.993  1.00  0.00     0.041 C 
ATOM     23  O   UNL     1       6.806  13.875 -21.325  1.00  0.00    -0.550 OA
ATOM     24  O   UNL     1       8.044  11.987 -20.923  1.00  0.00    -0.550 OA
ENDBRANCH  21  22
ENDBRANCH  20  21
ENDBRANCH  19  20
ENDBRANCH  18  19
ENDBRANCH  17  18
ENDBRANCH  16  17
ENDBRANCH  15  16
ENDBRANCH  14  15
ENDBRANCH  13  14
ENDBRANCH   1  13
TORSDOF 20
ENDMDL
MODEL 9
REMARK VINA RESULT:    -5.490      1.655      2.509
REMARK INTER + INTRA:         -13.212
REMARK INTER:                 -12.315
REMARK INTRA:                  -0.896
REMARK UNBOUND:                -1.302
REMARK SMILES CCCCCCCCCCCCCCCCCCCCCC(=O)[O-]
REMARK SMILES IDX 12 1 11 2 10 3 9 4 8 5 7 6 6 7 5 8 4 9 3 10 2 11 1 12 13 13
REMARK SMILES IDX 14 14 15 15 16 16 17 17 18 18 19 19 20 20 21 21 22 22 23 23
REMARK SMILES IDX 24 24
REMARK H PARENT
REMARK Flexibility Score: inf
ROOT
ATOM      1  C   UNL     1      11.515   9.301 -19.470  1.00  0.00     0.000 C 
ENDROOT
BRANCH   1   2
ATOM      2  C   UNL     1      10.603  10.450 -19.014  1.00  0.00     0.000 C 
BRANCH   2   3
ATOM      3  C   UNL     1      10.503  11.530 -20.100  1.00  0.00     0.000 C 
BRANCH   3   4
ATOM      4  C   UNL     1       9.729  12.777 -19.633  1.00  0.00    -0.000 C 
BRANCH   4   5
ATOM      5  C   UNL     1       8.581  13.221 -20.562  1.00  0.00    -0.000 C 
BRANCH   5   6
ATOM      6  C   UNL     1       8.208  14.711 -20.470  1.00  0.00    -0.000 C 
BRANCH   6   7
ATOM      7  C   UNL     1       6.995  15.078 -21.338  1.00  0.00    -0.000 C 
BRANCH   7   8
ATOM      8  C   UNL     1       6.214  13.824 -21.749  1.00  0.00    -0.000 C 
BRANCH   8   9
ATOM      9  C   UNL     1       4.998  14.191 -22.609  1.00  0.00    -0.000 C 
BRANCH   9  10
ATOM     10  C   UNL     1       3.771  13.365 -22.209  1.00  0.00    -0.000 C 
BRANCH  10  11
ATOM     11  C   UNL     1       2.799  14.197 -21.366  1.00  0.00    -0.003 C 
ATOM     12  C   UNL     1       1.987  13.314 -20.424  1.00  0.00     0.004 C 
ENDBRANCH  10  11
ENDBRANCH   9  10
ENDBRANCH   8   9
ENDBRANCH   7   8
ENDBRANCH   6   7
ENDBRANCH   5   6
ENDBRANCH   4   5
ENDBRANCH   3   4
ENDBRANCH   2   3
ENDBRANCH   1   2
BRANCH   1  13
ATOM     13  C   UNL     1      12.010   8.436 -18.301  1.00  0.00     0.000 C 
BRANCH  13  14
ATOM     14  C   UNL     1      13.129   7.465 -18.713  1.00  0.00     0.000 C 
BRANCH  14  15
ATOM     15  C   UNL     1      13.329   7.471 -20.236  1.00  0.00     0.000 C 
BRANCH  15  16
ATOM     16  C   UNL     1      14.705   6.925 -20.660  1.00  0.00     0.000 C 
BRANCH  16  17
ATOM     17  C   UNL     1      15.463   7.798 -21.679  1.00  0.00     0.000 C 
BRANCH  17  18
ATOM     18  C   UNL     1      16.721   8.498 -21.129  1.00  0.00     0.000 C 
BRANCH  18  19
ATOM     19  C   UNL     1      16.818  10.004 -21.443  1.00  0.00     0.000 C 
BRANCH  19  20
ATOM     20  C   UNL     1      18.132  10.677 -21.003  1.00  0.00     0.006 C 
BRANCH  20  21
ATOM     21  C   UNL     1      18.207  12.156 -21.403  1.00  0.00     0.053 C 
BRANCH  21  22
ATOM     22  C   UNL     1      18.007  13.032 -20.205  1.00  0.00     0.041 C 
ATOM     23  O   UNL     1      18.999  13.435 -19.540  1.00  0.00    -0.550 OA
ATOM     24  O   UNL     1      16.725  13.428 -19.841  1.00  0.00    -0.550 OA
ENDBRANCH  21  22
ENDBRANCH  20  21
ENDBRANCH  19  20
ENDBRANCH  18  19
ENDBRANCH  17  18
ENDBRANCH  16  17
ENDBRANCH  15  16
ENDBRANCH  14  15
ENDBRANCH  13  14
ENDBRANCH   1  13
TORSDOF 20
ENDMDL
