MODEL 1
REMARK VINA RESULT:    56.429      0.000      0.000
REMARK INTER + INTRA:          81.163
REMARK INTER:                  77.872
REMARK INTRA:                   3.291
REMARK UNBOUND:                 3.291
REMARK SMILES CC[C@@H](CC[C@H](C)[C@H]1CC[C@@H]2C3=CC[C@H]4C[C@@H](O)CC[C@]4(C)[C@H]3CC[C@@]21C)C(C)C
REMARK SMILES IDX 5 1 4 2 3 3 2 4 1 5 28 6 29 7 30 8 6 9 7 10 8 11 9 12 26 13
REMARK SMILES IDX 10 14 11 15 25 16 27 17 12 18 24 19 23 20 13 21 21 22 14 23
REMARK SMILES IDX 15 24 20 25 22 26 16 27 19 28 17 29 18 30
REMARK H PARENT 18 31
REMARK Flexibility Score: inf
ROOT
ATOM      1  C   UNL     1     -40.768  23.577   6.475  1.00  0.00     0.004 C 
ENDROOT
BRANCH   1   2
ATOM      2  C   UNL     1     -42.122  24.037   5.897  1.00  0.00     0.004 C 
BRANCH   2   3
ATOM      3  C   UNL     1     -41.959  24.942   4.635  1.00  0.00    -0.009 C 
BRANCH   3   4
ATOM      4  C   UNL     1     -40.625  24.613   3.908  1.00  0.00     0.000 C 
ATOM      5  C   UNL     1     -39.934  23.340   4.410  1.00  0.00     0.004 C 
ENDBRANCH   3   4
BRANCH   3   6
ATOM      6  C   UNL     1     -42.123  26.466   4.962  1.00  0.00    -0.014 C 
ATOM      7  C   UNL     1     -41.514  26.834   6.328  1.00  0.00     0.007 C 
ATOM      8  C   UNL     1     -41.482  27.360   3.885  1.00  0.00     0.007 C 
ENDBRANCH   3   6
ENDBRANCH   2   3
ENDBRANCH   1   2
BRANCH   1   9
ATOM      9  C   UNL     1     -40.697  23.698   8.022  1.00  0.00    -0.011 C 
ATOM     10  C   UNL     1     -41.695  24.766   8.530  1.00  0.00     0.008 C 
BRANCH   9  11
ATOM     11  C   UNL     1     -39.215  23.939   8.497  1.00  0.00    -0.002 C 
ATOM     12  C   UNL     1     -38.460  22.621   8.731  1.00  0.00     0.005 C 
ATOM     13  C   UNL     1     -38.283  24.805   7.566  1.00  0.00    -0.023 C 
ATOM     14  C   UNL     1     -37.526  22.420   7.548  1.00  0.00     0.009 C 
ATOM     15  C   UNL     1     -37.380  23.770   6.827  1.00  0.00     0.021 C 
ATOM     16  C   UNL     1     -37.437  25.817   8.420  1.00  0.00     0.008 C 
ATOM     17  C   UNL     1     -39.056  25.669   6.530  1.00  0.00     0.012 C 
ATOM     18  C   UNL     1     -35.921  24.198   6.751  1.00  0.00    -0.067 C 
ATOM     19  C   UNL     1     -36.194  25.203   9.077  1.00  0.00     0.009 C 
ATOM     20  C   UNL     1     -35.203  24.589   8.044  1.00  0.00     0.021 C 
ATOM     21  C   UNL     1     -35.261  24.101   5.575  1.00  0.00    -0.027 C 
ATOM     22  C   UNL     1     -33.911  25.449   7.792  1.00  0.00    -0.023 C 
ATOM     23  C   UNL     1     -33.841  24.561   5.377  1.00  0.00     0.031 C 
ATOM     24  C   UNL     1     -33.076  24.694   6.703  1.00  0.00     0.002 C 
ATOM     25  C   UNL     1     -33.074  25.581   9.122  1.00  0.00     0.010 C 
ATOM     26  C   UNL     1     -34.303  26.874   7.301  1.00  0.00     0.012 C 
ATOM     27  C   UNL     1     -31.682  25.319   6.478  1.00  0.00     0.036 C 
ATOM     28  C   UNL     1     -31.639  25.030   9.047  1.00  0.00     0.032 C 
ATOM     29  C   UNL     1     -30.879  25.501   7.791  1.00  0.00     0.114 C 
BRANCH  29  30
ATOM     30  O   UNL     1     -30.440  26.829   7.938  1.00  0.00    -0.393 OA
ATOM     31  H   UNL     1     -31.090  27.302   8.518  1.00  0.00     0.210 HD
ENDBRANCH  29  30
ENDBRANCH   9  11
ENDBRANCH   1   9
TORSDOF 7
ENDMDL
MODEL 2
REMARK VINA RESULT:    59.313      3.163      8.485
REMARK INTER + INTRA:          85.143
REMARK INTER:                  84.892
REMARK INTRA:                   0.250
REMARK UNBOUND:                 3.291
REMARK SMILES CC[C@@H](CC[C@H](C)[C@H]1CC[C@@H]2C3=CC[C@H]4C[C@@H](O)CC[C@]4(C)[C@H]3CC[C@@]21C)C(C)C
REMARK SMILES IDX 5 1 4 2 3 3 2 4 1 5 28 6 29 7 30 8 6 9 7 10 8 11 9 12 26 13
REMARK SMILES IDX 10 14 11 15 25 16 27 17 12 18 24 19 23 20 13 21 21 22 14 23
REMARK SMILES IDX 15 24 20 25 22 26 16 27 19 28 17 29 18 30
REMARK H PARENT 18 31
REMARK Flexibility Score: inf
ROOT
ATOM      1  C   UNL     1     -31.611  26.729   7.338  1.00  0.00     0.004 C 
ENDROOT
BRANCH   1   2
ATOM      2  C   UNL     1     -30.443  25.941   6.712  1.00  0.00     0.004 C 
BRANCH   2   3
ATOM      3  C   UNL     1     -29.582  26.811   5.743  1.00  0.00    -0.009 C 
BRANCH   3   4
ATOM      4  C   UNL     1     -28.407  27.471   6.517  1.00  0.00     0.000 C 
ATOM      5  C   UNL     1     -27.035  27.275   5.863  1.00  0.00     0.004 C 
ENDBRANCH   3   4
BRANCH   3   6
ATOM      6  C   UNL     1     -30.443  27.841   4.933  1.00  0.00    -0.014 C 
ATOM      7  C   UNL     1     -30.279  29.277   5.465  1.00  0.00     0.007 C 
ATOM      8  C   UNL     1     -30.093  27.833   3.434  1.00  0.00     0.007 C 
ENDBRANCH   3   6
ENDBRANCH   2   3
ENDBRANCH   1   2
BRANCH   1   9
ATOM      9  C   UNL     1     -32.873  26.765   6.433  1.00  0.00    -0.011 C 
ATOM     10  C   UNL     1     -33.470  28.191   6.389  1.00  0.00     0.008 C 
BRANCH   9  11
ATOM     11  C   UNL     1     -33.905  25.658   6.869  1.00  0.00    -0.002 C 
ATOM     12  C   UNL     1     -34.079  25.596   8.394  1.00  0.00     0.005 C 
ATOM     13  C   UNL     1     -35.363  25.750   6.277  1.00  0.00    -0.023 C 
ATOM     14  C   UNL     1     -35.404  26.264   8.725  1.00  0.00     0.009 C 
ATOM     15  C   UNL     1     -36.229  26.344   7.430  1.00  0.00     0.021 C 
ATOM     16  C   UNL     1     -35.870  24.329   5.836  1.00  0.00     0.008 C 
ATOM     17  C   UNL     1     -35.475  26.648   5.013  1.00  0.00     0.012 C 
ATOM     18  C   UNL     1     -37.572  25.646   7.589  1.00  0.00    -0.067 C 
ATOM     19  C   UNL     1     -36.401  23.464   6.987  1.00  0.00     0.009 C 
ATOM     20  C   UNL     1     -37.594  24.123   7.740  1.00  0.00     0.021 C 
ATOM     21  C   UNL     1     -38.694  26.387   7.722  1.00  0.00    -0.027 C 
ATOM     22  C   UNL     1     -38.998  23.494   7.413  1.00  0.00    -0.023 C 
ATOM     23  C   UNL     1     -40.077  25.797   7.815  1.00  0.00     0.031 C 
ATOM     24  C   UNL     1     -40.056  24.315   8.224  1.00  0.00     0.002 C 
ATOM     25  C   UNL     1     -39.034  21.980   7.851  1.00  0.00     0.010 C 
ATOM     26  C   UNL     1     -39.280  23.583   5.884  1.00  0.00     0.012 C 
ATOM     27  C   UNL     1     -41.471  23.702   8.154  1.00  0.00     0.036 C 
ATOM     28  C   UNL     1     -40.115  21.627   8.888  1.00  0.00     0.032 C 
ATOM     29  C   UNL     1     -41.501  22.199   8.530  1.00  0.00     0.114 C 
BRANCH  29  30
ATOM     30  O   UNL     1     -42.115  21.434   7.522  1.00  0.00    -0.393 OA
ATOM     31  H   UNL     1     -41.833  21.804   6.646  1.00  0.00     0.210 HD
ENDBRANCH  29  30
ENDBRANCH   9  11
ENDBRANCH   1   9
TORSDOF 7
ENDMDL
