MODEL 1
REMARK VINA RESULT:    26.887      0.000      0.000
REMARK INTER + INTRA:          29.877
REMARK INTER:                  29.245
REMARK INTRA:                   0.632
REMARK UNBOUND:                 0.632
REMARK SMILES C[C@H]1[C@H](C)CC[C@]2(C(=O)[O-])CC[C@]3(C)C(=CC[C@@H]4[C@]5(C)CC[C@@H](O)C(C)(C)[C@@H]5CC[C@]43C)[C@@H]12
REMARK SMILES IDX 7 1 6 2 11 3 33 4 5 5 12 6 15 7 2 8 3 9 13 10 16 11 1 12
REMARK SMILES IDX 4 13 14 14 31 15 17 16 18 17 30 18 32 19 19 20 29 21 28 22
REMARK SMILES IDX 21 23 20 24 25 25 22 26 23 27 26 28 27 29 8 30 9 31 10 32
REMARK SMILES IDX 24 33
REMARK H PARENT 24 34
REMARK Flexibility Score: inf
ROOT
ATOM      1  C   UNL     1       8.447 -33.593  13.075  1.00  0.00     0.017 C 
ATOM      2  C   UNL     1       8.706 -34.530  11.876  1.00  0.00     0.014 C 
ATOM      3  C   UNL     1       7.014 -32.997  13.015  1.00  0.00     0.014 C 
ATOM      4  C   UNL     1       9.420 -32.378  12.979  1.00  0.00     0.030 C 
ATOM      5  C   UNL     1      10.139 -35.125  11.897  1.00  0.00     0.004 C 
ATOM      6  C   UNL     1       6.734 -32.054  14.212  1.00  0.00     0.013 C 
ATOM      7  C   UNL     1       9.249 -31.512  14.237  1.00  0.00    -0.063 C 
ATOM      8  C   UNL     1      10.820 -32.698  12.316  1.00  0.00    -0.003 C 
ATOM      9  C   UNL     1      11.226 -34.182  12.501  1.00  0.00    -0.011 C 
ATOM     10  C   UNL     1       7.825 -30.933  14.496  1.00  0.00    -0.006 C 
ATOM     11  C   UNL     1      10.258 -31.368  15.129  1.00  0.00    -0.027 C 
ATOM     12  C   UNL     1      11.941 -31.672  12.577  1.00  0.00     0.008 C 
ATOM     13  C   UNL     1      12.592 -34.510  11.875  1.00  0.00     0.008 C 
ATOM     14  C   UNL     1       7.574 -29.807  13.436  1.00  0.00     0.017 C 
ATOM     15  C   UNL     1       7.710 -30.374  16.017  1.00  0.00    -0.020 C 
ATOM     16  C   UNL     1      10.221 -30.470  16.335  1.00  0.00     0.032 C 
ATOM     17  C   UNL     1       8.995 -29.521  16.340  1.00  0.00     0.006 C 
ATOM     18  C   UNL     1       6.469 -29.471  16.202  1.00  0.00     0.008 C 
ATOM     19  C   UNL     1       7.573 -31.578  17.014  1.00  0.00     0.012 C 
ATOM     20  C   UNL     1       8.985 -28.462  17.559  1.00  0.00    -0.025 C 
ATOM     21  C   UNL     1       6.412 -28.842  17.589  1.00  0.00     0.005 C 
ATOM     22  C   UNL     1       7.547 -27.803  17.786  1.00  0.00     0.003 C 
ATOM     23  C   UNL     1       9.515 -29.105  18.883  1.00  0.00     0.010 C 
ATOM     24  C   UNL     1       9.995 -27.338  17.142  1.00  0.00     0.012 C 
ATOM     25  C   UNL     1       7.375 -26.968  19.143  1.00  0.00    -0.006 C 
ATOM     26  C   UNL     1       9.393 -28.221  20.126  1.00  0.00     0.033 C 
ATOM     27  C   UNL     1       7.949 -27.763  20.353  1.00  0.00     0.120 C 
ATOM     28  C   UNL     1       8.044 -25.562  19.029  1.00  0.00     0.014 C 
ATOM     29  C   UNL     1       5.877 -26.674  19.448  1.00  0.00     0.014 C 
ENDROOT
BRANCH   1  30
ATOM     30  C   UNL     1       8.569 -34.429  14.352  1.00  0.00     0.048 C 
ATOM     31  O   UNL     1       9.661 -34.548  14.965  1.00  0.00    -0.550 OA
ATOM     32  O   UNL     1       7.458 -35.119  14.829  1.00  0.00    -0.550 OA
ENDBRANCH   1  30
BRANCH  27  33
ATOM     33  O   UNL     1       7.886 -26.979  21.521  1.00  0.00    -0.393 OA
ATOM     34  H   UNL     1       7.737 -27.601  22.282  1.00  0.00     0.210 HD
ENDBRANCH  27  33
TORSDOF 2
ENDMDL
