MODEL 1
REMARK VINA RESULT:    -4.890      0.000      0.000
REMARK INTER + INTRA:          -8.833
REMARK INTER:                  -8.320
REMARK INTRA:                  -0.513
REMARK UNBOUND:                -0.513
REMARK SMILES CCCCCCCCCCCCCC(=O)[O-]
REMARK SMILES IDX 8 1 9 2 10 3 11 4 12 5 13 6 14 7 15 8 16 9 7 10 6 11 5 12
REMARK SMILES IDX 4 13 3 14 2 15 1 16
REMARK H PARENT
REMARK Flexibility Score: inf
ROOT
ATOM      1  C   UNL     1       8.495  -9.408  -1.199  1.00  0.00     0.000 C 
ENDROOT
BRANCH   1   2
ATOM      2  C   UNL     1       8.684  -9.226   0.314  1.00  0.00     0.000 C 
BRANCH   2   3
ATOM      3  C   UNL     1       8.929 -10.553   1.054  1.00  0.00     0.000 C 
BRANCH   3   4
ATOM      4  C   UNL     1       7.803 -10.983   2.013  1.00  0.00     0.000 C 
BRANCH   4   5
ATOM      5  C   UNL     1       6.627  -9.990   2.039  1.00  0.00     0.006 C 
BRANCH   5   6
ATOM      6  C   UNL     1       5.287 -10.687   2.310  1.00  0.00     0.053 C 
BRANCH   6   7
ATOM      7  C   UNL     1       4.789 -10.419   3.697  1.00  0.00     0.041 C 
ATOM      8  O   UNL     1       5.279 -11.040   4.676  1.00  0.00    -0.550 OA
ATOM      9  O   UNL     1       3.762  -9.506   3.905  1.00  0.00    -0.550 OA
ENDBRANCH   6   7
ENDBRANCH   5   6
ENDBRANCH   4   5
ENDBRANCH   3   4
ENDBRANCH   2   3
ENDBRANCH   1   2
BRANCH   1  10
ATOM     10  C   UNL     1       7.747  -8.211  -1.806  1.00  0.00     0.000 C 
BRANCH  10  11
ATOM     11  C   UNL     1       8.690  -7.181  -2.451  1.00  0.00    -0.000 C 
BRANCH  11  12
ATOM     12  C   UNL     1       8.221  -6.625  -3.812  1.00  0.00    -0.000 C 
BRANCH  12  13
ATOM     13  C   UNL     1       8.671  -5.186  -4.123  1.00  0.00    -0.000 C 
BRANCH  13  14
ATOM     14  C   UNL     1       7.514  -4.288  -4.594  1.00  0.00    -0.000 C 
BRANCH  14  15
ATOM     15  C   UNL     1       7.708  -3.791  -6.036  1.00  0.00    -0.003 C 
ATOM     16  C   UNL     1       8.821  -4.531  -6.775  1.00  0.00     0.004 C 
ENDBRANCH  14  15
ENDBRANCH  13  14
ENDBRANCH  12  13
ENDBRANCH  11  12
ENDBRANCH  10  11
ENDBRANCH   1  10
TORSDOF 12
ENDMDL
MODEL 2
REMARK VINA RESULT:    -4.566      1.363      3.117
REMARK INTER + INTRA:          -8.282
REMARK INTER:                  -7.552
REMARK INTRA:                  -0.730
REMARK UNBOUND:                -0.513
REMARK SMILES CCCCCCCCCCCCCC(=O)[O-]
REMARK SMILES IDX 8 1 9 2 10 3 11 4 12 5 13 6 14 7 15 8 16 9 7 10 6 11 5 12
REMARK SMILES IDX 4 13 3 14 2 15 1 16
REMARK H PARENT
REMARK Flexibility Score: inf
ROOT
ATOM      1  C   UNL     1       8.103  -6.768  -3.898  1.00  0.00     0.000 C 
ENDROOT
BRANCH   1   2
ATOM      2  C   UNL     1       8.522  -8.045  -3.155  1.00  0.00     0.000 C 
BRANCH   2   3
ATOM      3  C   UNL     1       8.091  -8.050  -1.678  1.00  0.00     0.000 C 
BRANCH   3   4
ATOM      4  C   UNL     1       8.163  -9.422  -0.982  1.00  0.00     0.000 C 
BRANCH   4   5
ATOM      5  C   UNL     1       8.353  -9.313   0.541  1.00  0.00     0.006 C 
BRANCH   5   6
ATOM      6  C   UNL     1       7.745 -10.507   1.288  1.00  0.00     0.053 C 
BRANCH   6   7
ATOM      7  C   UNL     1       6.461 -10.144   1.970  1.00  0.00     0.041 C 
ATOM      8  O   UNL     1       5.435  -9.884   1.290  1.00  0.00    -0.550 OA
ATOM      9  O   UNL     1       6.407 -10.063   3.357  1.00  0.00    -0.550 OA
ENDBRANCH   6   7
ENDBRANCH   5   6
ENDBRANCH   4   5
ENDBRANCH   3   4
ENDBRANCH   2   3
ENDBRANCH   1   2
BRANCH   1  10
ATOM     10  C   UNL     1       8.926  -5.561  -3.421  1.00  0.00     0.000 C 
BRANCH  10  11
ATOM     11  C   UNL     1       8.374  -4.220  -3.938  1.00  0.00    -0.000 C 
BRANCH  11  12
ATOM     12  C   UNL     1       7.445  -4.324  -5.165  1.00  0.00    -0.000 C 
BRANCH  12  13
ATOM     13  C   UNL     1       7.988  -3.682  -6.455  1.00  0.00    -0.000 C 
BRANCH  13  14
ATOM     14  C   UNL     1       8.994  -4.584  -7.192  1.00  0.00    -0.000 C 
BRANCH  14  15
ATOM     15  C   UNL     1       8.485  -6.026  -7.347  1.00  0.00    -0.003 C 
ATOM     16  C   UNL     1       8.812  -6.626  -8.714  1.00  0.00     0.004 C 
ENDBRANCH  14  15
ENDBRANCH  13  14
ENDBRANCH  12  13
ENDBRANCH  11  12
ENDBRANCH  10  11
ENDBRANCH   1  10
TORSDOF 12
ENDMDL
MODEL 3
REMARK VINA RESULT:    -4.557      1.546      2.650
REMARK INTER + INTRA:          -8.266
REMARK INTER:                  -7.627
REMARK INTRA:                  -0.639
REMARK UNBOUND:                -0.513
REMARK SMILES CCCCCCCCCCCCCC(=O)[O-]
REMARK SMILES IDX 8 1 9 2 10 3 11 4 12 5 13 6 14 7 15 8 16 9 7 10 6 11 5 12
REMARK SMILES IDX 4 13 3 14 2 15 1 16
REMARK H PARENT
REMARK Flexibility Score: inf
ROOT
ATOM      1  C   UNL     1       7.701  -9.632   0.940  1.00  0.00     0.000 C 
ENDROOT
BRANCH   1   2
ATOM      2  C   UNL     1       6.183  -9.630   0.711  1.00  0.00     0.000 C 
BRANCH   2   3
ATOM      3  C   UNL     1       5.405 -10.349   1.828  1.00  0.00     0.000 C 
BRANCH   3   4
ATOM      4  C   UNL     1       6.154 -10.473   3.168  1.00  0.00     0.000 C 
BRANCH   4   5
ATOM      5  C   UNL     1       5.260 -10.174   4.384  1.00  0.00     0.006 C 
BRANCH   5   6
ATOM      6  C   UNL     1       3.771 -10.136   4.013  1.00  0.00     0.053 C 
BRANCH   6   7
ATOM      7  C   UNL     1       3.113  -8.871   4.471  1.00  0.00     0.041 C 
ATOM      8  O   UNL     1       2.682  -8.041   3.628  1.00  0.00    -0.550 OA
ATOM      9  O   UNL     1       3.003  -8.593   5.828  1.00  0.00    -0.550 OA
ENDBRANCH   6   7
ENDBRANCH   5   6
ENDBRANCH   4   5
ENDBRANCH   3   4
ENDBRANCH   2   3
ENDBRANCH   1   2
BRANCH   1  10
ATOM     10  C   UNL     1       8.452  -9.311  -0.362  1.00  0.00     0.000 C 
BRANCH  10  11
ATOM     11  C   UNL     1       7.595  -8.522  -1.368  1.00  0.00    -0.000 C 
BRANCH  11  12
ATOM     12  C   UNL     1       7.849  -8.861  -2.851  1.00  0.00    -0.000 C 
BRANCH  12  13
ATOM     13  C   UNL     1       8.596  -7.779  -3.652  1.00  0.00    -0.000 C 
BRANCH  13  14
ATOM     14  C   UNL     1       8.312  -6.356  -3.143  1.00  0.00    -0.000 C 
BRANCH  14  15
ATOM     15  C   UNL     1       8.427  -5.300  -4.255  1.00  0.00    -0.003 C 
ATOM     16  C   UNL     1       7.189  -4.410  -4.358  1.00  0.00     0.004 C 
ENDBRANCH  14  15
ENDBRANCH  13  14
ENDBRANCH  12  13
ENDBRANCH  11  12
ENDBRANCH  10  11
ENDBRANCH   1  10
TORSDOF 12
ENDMDL
MODEL 4
REMARK VINA RESULT:    -4.525      5.453      8.785
REMARK INTER + INTRA:          -8.213
REMARK INTER:                  -7.188
REMARK INTRA:                  -1.025
REMARK UNBOUND:                -0.513
REMARK SMILES CCCCCCCCCCCCCC(=O)[O-]
REMARK SMILES IDX 8 1 9 2 10 3 11 4 12 5 13 6 14 7 15 8 16 9 7 10 6 11 5 12
REMARK SMILES IDX 4 13 3 14 2 15 1 16
REMARK H PARENT
REMARK Flexibility Score: inf
ROOT
ATOM      1  C   UNL     1       7.756  -3.866  -6.366  1.00  0.00     0.000 C 
ENDROOT
BRANCH   1   2
ATOM      2  C   UNL     1       8.994  -4.642  -6.837  1.00  0.00     0.000 C 
BRANCH   2   3
ATOM      3  C   UNL     1       8.722  -6.144  -7.036  1.00  0.00     0.000 C 
BRANCH   3   4
ATOM      4  C   UNL     1       8.823  -6.638  -8.491  1.00  0.00     0.000 C 
BRANCH   4   5
ATOM      5  C   UNL     1       7.448  -6.867  -9.143  1.00  0.00     0.006 C 
BRANCH   5   6
ATOM      6  C   UNL     1       7.260  -8.317  -9.606  1.00  0.00     0.053 C 
BRANCH   6   7
ATOM      7  C   UNL     1       6.512  -9.134  -8.598  1.00  0.00     0.041 C 
ATOM      8  O   UNL     1       7.131  -9.709  -7.665  1.00  0.00    -0.550 OA
ATOM      9  O   UNL     1       5.135  -9.285  -8.706  1.00  0.00    -0.550 OA
ENDBRANCH   6   7
ENDBRANCH   5   6
ENDBRANCH   4   5
ENDBRANCH   3   4
ENDBRANCH   2   3
ENDBRANCH   1   2
BRANCH   1  10
ATOM     10  C   UNL     1       7.551  -4.028  -4.852  1.00  0.00     0.000 C 
BRANCH  10  11
ATOM     11  C   UNL     1       8.877  -4.090  -4.072  1.00  0.00    -0.000 C 
BRANCH  11  12
ATOM     12  C   UNL     1       8.954  -5.195  -2.999  1.00  0.00    -0.000 C 
BRANCH  12  13
ATOM     13  C   UNL     1       8.347  -6.550  -3.407  1.00  0.00    -0.000 C 
BRANCH  13  14
ATOM     14  C   UNL     1       8.328  -7.567  -2.253  1.00  0.00    -0.000 C 
BRANCH  14  15
ATOM     15  C   UNL     1       7.924  -8.976  -2.718  1.00  0.00    -0.003 C 
ATOM     16  C   UNL     1       7.512  -9.019  -4.189  1.00  0.00     0.004 C 
ENDBRANCH  14  15
ENDBRANCH  13  14
ENDBRANCH  12  13
ENDBRANCH  11  12
ENDBRANCH  10  11
ENDBRANCH   1  10
TORSDOF 12
ENDMDL
MODEL 5
REMARK VINA RESULT:    -4.454      5.828      8.896
REMARK INTER + INTRA:          -8.091
REMARK INTER:                  -6.876
REMARK INTRA:                  -1.215
REMARK UNBOUND:                -0.513
REMARK SMILES CCCCCCCCCCCCCC(=O)[O-]
REMARK SMILES IDX 8 1 9 2 10 3 11 4 12 5 13 6 14 7 15 8 16 9 7 10 6 11 5 12
REMARK SMILES IDX 4 13 3 14 2 15 1 16
REMARK H PARENT
REMARK Flexibility Score: inf
ROOT
ATOM      1  C   UNL     1       7.550  -4.245  -5.099  1.00  0.00     0.000 C 
ENDROOT
BRANCH   1   2
ATOM      2  C   UNL     1       7.860  -3.876  -6.557  1.00  0.00     0.000 C 
BRANCH   2   3
ATOM      3  C   UNL     1       8.991  -4.723  -7.165  1.00  0.00     0.000 C 
BRANCH   3   4
ATOM      4  C   UNL     1       8.748  -6.244  -7.148  1.00  0.00     0.000 C 
BRANCH   4   5
ATOM      5  C   UNL     1       8.780  -6.871  -8.553  1.00  0.00     0.006 C 
BRANCH   5   6
ATOM      6  C   UNL     1       7.372  -7.131  -9.104  1.00  0.00     0.053 C 
BRANCH   6   7
ATOM      7  C   UNL     1       6.987  -8.574  -8.997  1.00  0.00     0.041 C 
ATOM      8  O   UNL     1       5.778  -8.914  -9.078  1.00  0.00    -0.550 OA
ATOM      9  O   UNL     1       7.961  -9.541  -8.778  1.00  0.00    -0.550 OA
ENDBRANCH   6   7
ENDBRANCH   5   6
ENDBRANCH   4   5
ENDBRANCH   3   4
ENDBRANCH   2   3
ENDBRANCH   1   2
BRANCH   1  10
ATOM     10  C   UNL     1       8.776  -4.016  -4.202  1.00  0.00     0.000 C 
BRANCH  10  11
ATOM     11  C   UNL     1       8.952  -5.114  -3.138  1.00  0.00    -0.000 C 
BRANCH  11  12
ATOM     12  C   UNL     1       8.234  -6.445  -3.445  1.00  0.00    -0.000 C 
BRANCH  12  13
ATOM     13  C   UNL     1       8.401  -7.541  -2.377  1.00  0.00    -0.000 C 
BRANCH  13  14
ATOM     14  C   UNL     1       7.835  -8.900  -2.824  1.00  0.00    -0.000 C 
BRANCH  14  15
ATOM     15  C   UNL     1       7.425  -8.907  -4.305  1.00  0.00    -0.003 C 
ATOM     16  C   UNL     1       8.309  -9.812  -5.162  1.00  0.00     0.004 C 
ENDBRANCH  14  15
ENDBRANCH  13  14
ENDBRANCH  12  13
ENDBRANCH  11  12
ENDBRANCH  10  11
ENDBRANCH   1  10
TORSDOF 12
ENDMDL
MODEL 6
REMARK VINA RESULT:    -4.439      3.522      6.244
REMARK INTER + INTRA:          -8.066
REMARK INTER:                  -7.155
REMARK INTRA:                  -0.911
REMARK UNBOUND:                -0.513
REMARK SMILES CCCCCCCCCCCCCC(=O)[O-]
REMARK SMILES IDX 8 1 9 2 10 3 11 4 12 5 13 6 14 7 15 8 16 9 7 10 6 11 5 12
REMARK SMILES IDX 4 13 3 14 2 15 1 16
REMARK H PARENT
REMARK Flexibility Score: inf
ROOT
ATOM      1  C   UNL     1       7.659  -3.958  -5.219  1.00  0.00     0.000 C 
ENDROOT
BRANCH   1   2
ATOM      2  C   UNL     1       8.958  -3.797  -4.417  1.00  0.00     0.000 C 
BRANCH   2   3
ATOM      3  C   UNL     1       9.109  -4.844  -3.299  1.00  0.00     0.000 C 
BRANCH   3   4
ATOM      4  C   UNL     1       8.051  -5.963  -3.307  1.00  0.00     0.000 C 
BRANCH   4   5
ATOM      5  C   UNL     1       8.665  -7.369  -3.193  1.00  0.00     0.006 C 
BRANCH   5   6
ATOM      6  C   UNL     1       8.591  -7.920  -1.763  1.00  0.00     0.053 C 
BRANCH   6   7
ATOM      7  C   UNL     1       7.790  -9.184  -1.691  1.00  0.00     0.041 C 
ATOM      8  O   UNL     1       7.326  -9.578  -0.589  1.00  0.00    -0.550 OA
ATOM      9  O   UNL     1       7.582  -9.943  -2.837  1.00  0.00    -0.550 OA
ENDBRANCH   6   7
ENDBRANCH   5   6
ENDBRANCH   4   5
ENDBRANCH   3   4
ENDBRANCH   2   3
ENDBRANCH   1   2
BRANCH   1  10
ATOM     10  C   UNL     1       7.937  -3.916  -6.729  1.00  0.00     0.000 C 
BRANCH  10  11
ATOM     11  C   UNL     1       9.100  -4.833  -7.148  1.00  0.00    -0.000 C 
BRANCH  11  12
ATOM     12  C   UNL     1       8.736  -6.324  -7.303  1.00  0.00    -0.000 C 
BRANCH  12  13
ATOM     13  C   UNL     1       7.997  -6.687  -8.604  1.00  0.00    -0.000 C 
BRANCH  13  14
ATOM     14  C   UNL     1       7.748  -8.199  -8.747  1.00  0.00    -0.000 C 
BRANCH  14  15
ATOM     15  C   UNL     1       6.400  -8.510  -9.419  1.00  0.00    -0.003 C 
ATOM     16  C   UNL     1       5.561  -9.512  -8.628  1.00  0.00     0.004 C 
ENDBRANCH  14  15
ENDBRANCH  13  14
ENDBRANCH  12  13
ENDBRANCH  11  12
ENDBRANCH  10  11
ENDBRANCH   1  10
TORSDOF 12
ENDMDL
MODEL 7
REMARK VINA RESULT:    -4.311      4.660      8.901
REMARK INTER + INTRA:          -7.847
REMARK INTER:                  -7.223
REMARK INTRA:                  -0.624
REMARK UNBOUND:                -0.513
REMARK SMILES CCCCCCCCCCCCCC(=O)[O-]
REMARK SMILES IDX 8 1 9 2 10 3 11 4 12 5 13 6 14 7 15 8 16 9 7 10 6 11 5 12
REMARK SMILES IDX 4 13 3 14 2 15 1 16
REMARK H PARENT
REMARK Flexibility Score: inf
ROOT
ATOM      1  C   UNL     1       8.244  -9.430  -2.482  1.00  0.00     0.000 C 
ENDROOT
BRANCH   1   2
ATOM      2  C   UNL     1       9.058  -8.371  -3.238  1.00  0.00     0.000 C 
BRANCH   2   3
ATOM      3  C   UNL     1       8.186  -7.244  -3.819  1.00  0.00     0.000 C 
BRANCH   3   4
ATOM      4  C   UNL     1       8.444  -5.847  -3.225  1.00  0.00     0.000 C 
BRANCH   4   5
ATOM      5  C   UNL     1       7.700  -4.729  -3.976  1.00  0.00     0.006 C 
BRANCH   5   6
ATOM      6  C   UNL     1       8.595  -4.029  -5.008  1.00  0.00     0.053 C 
BRANCH   6   7
ATOM      7  C   UNL     1       8.087  -4.212  -6.404  1.00  0.00     0.041 C 
ATOM      8  O   UNL     1       8.309  -5.285  -7.024  1.00  0.00    -0.550 OA
ATOM      9  O   UNL     1       7.392  -3.185  -7.034  1.00  0.00    -0.550 OA
ENDBRANCH   6   7
ENDBRANCH   5   6
ENDBRANCH   4   5
ENDBRANCH   3   4
ENDBRANCH   2   3
ENDBRANCH   1   2
BRANCH   1  10
ATOM     10  C   UNL     1       7.602  -8.832  -1.221  1.00  0.00     0.000 C 
BRANCH  10  11
ATOM     11  C   UNL     1       8.488  -8.978   0.029  1.00  0.00    -0.000 C 
BRANCH  11  12
ATOM     12  C   UNL     1       8.664 -10.422   0.542  1.00  0.00    -0.000 C 
BRANCH  12  13
ATOM     13  C   UNL     1       8.037 -10.710   1.919  1.00  0.00    -0.000 C 
BRANCH  13  14
ATOM     14  C   UNL     1       6.615 -10.139   2.058  1.00  0.00    -0.000 C 
BRANCH  14  15
ATOM     15  C   UNL     1       6.080 -10.241   3.496  1.00  0.00    -0.003 C 
ATOM     16  C   UNL     1       4.572 -10.481   3.551  1.00  0.00     0.004 C 
ENDBRANCH  14  15
ENDBRANCH  13  14
ENDBRANCH  12  13
ENDBRANCH  11  12
ENDBRANCH  10  11
ENDBRANCH   1  10
TORSDOF 12
ENDMDL
MODEL 8
REMARK VINA RESULT:    -4.153      4.065      8.700
REMARK INTER + INTRA:          -7.579
REMARK INTER:                  -7.009
REMARK INTRA:                  -0.570
REMARK UNBOUND:                -0.513
REMARK SMILES CCCCCCCCCCCCCC(=O)[O-]
REMARK SMILES IDX 8 1 9 2 10 3 11 4 12 5 13 6 14 7 15 8 16 9 7 10 6 11 5 12
REMARK SMILES IDX 4 13 3 14 2 15 1 16
REMARK H PARENT
REMARK Flexibility Score: inf
ROOT
ATOM      1  C   UNL     1       8.160  -9.210   0.363  1.00  0.00     0.000 C 
ENDROOT
BRANCH   1   2
ATOM      2  C   UNL     1       8.188 -10.063  -0.913  1.00  0.00     0.000 C 
BRANCH   2   3
ATOM      3  C   UNL     1       7.994  -9.233  -2.195  1.00  0.00     0.000 C 
BRANCH   3   4
ATOM      4  C   UNL     1       8.161  -7.713  -2.019  1.00  0.00     0.000 C 
BRANCH   4   5
ATOM      5  C   UNL     1       8.424  -6.981  -3.347  1.00  0.00     0.006 C 
BRANCH   5   6
ATOM      6  C   UNL     1       8.220  -5.465  -3.224  1.00  0.00     0.053 C 
BRANCH   6   7
ATOM      7  C   UNL     1       7.839  -4.844  -4.533  1.00  0.00     0.041 C 
ATOM      8  O   UNL     1       6.692  -4.350  -4.688  1.00  0.00    -0.550 OA
ATOM      9  O   UNL     1       8.741  -4.839  -5.590  1.00  0.00    -0.550 OA
ENDBRANCH   6   7
ENDBRANCH   5   6
ENDBRANCH   4   5
ENDBRANCH   3   4
ENDBRANCH   2   3
ENDBRANCH   1   2
BRANCH   1  10
ATOM     10  C   UNL     1       6.975  -9.603   1.259  1.00  0.00     0.000 C 
BRANCH  10  11
ATOM     11  C   UNL     1       7.258 -10.852   2.111  1.00  0.00    -0.000 C 
BRANCH  11  12
ATOM     12  C   UNL     1       7.136 -10.647   3.636  1.00  0.00    -0.000 C 
BRANCH  12  13
ATOM     13  C   UNL     1       5.827  -9.986   4.106  1.00  0.00    -0.000 C 
BRANCH  13  14
ATOM     14  C   UNL     1       4.594 -10.877   3.878  1.00  0.00    -0.000 C 
BRANCH  14  15
ATOM     15  C   UNL     1       3.281 -10.077   3.893  1.00  0.00    -0.003 C 
ATOM     16  C   UNL     1       3.406  -8.748   4.634  1.00  0.00     0.004 C 
ENDBRANCH  14  15
ENDBRANCH  13  14
ENDBRANCH  12  13
ENDBRANCH  11  12
ENDBRANCH  10  11
ENDBRANCH   1  10
TORSDOF 12
ENDMDL
MODEL 9
REMARK VINA RESULT:    -3.959      4.592      7.599
REMARK INTER + INTRA:          -7.249
REMARK INTER:                  -6.526
REMARK INTRA:                  -0.723
REMARK UNBOUND:                -0.513
REMARK SMILES CCCCCCCCCCCCCC(=O)[O-]
REMARK SMILES IDX 8 1 9 2 10 3 11 4 12 5 13 6 14 7 15 8 16 9 7 10 6 11 5 12
REMARK SMILES IDX 4 13 3 14 2 15 1 16
REMARK H PARENT
REMARK Flexibility Score: inf
ROOT
ATOM      1  C   UNL     1       8.514  -5.319  -7.003  1.00  0.00     0.000 C 
ENDROOT
BRANCH   1   2
ATOM      2  C   UNL     1       7.948  -3.927  -6.688  1.00  0.00     0.000 C 
BRANCH   2   3
ATOM      3  C   UNL     1       7.951  -3.604  -5.183  1.00  0.00     0.000 C 
BRANCH   3   4
ATOM      4  C   UNL     1       7.351  -4.697  -4.280  1.00  0.00     0.000 C 
BRANCH   4   5
ATOM      5  C   UNL     1       8.376  -5.293  -3.299  1.00  0.00     0.006 C 
BRANCH   5   6
ATOM      6  C   UNL     1       8.665  -6.772  -3.589  1.00  0.00     0.053 C 
BRANCH   6   7
ATOM      7  C   UNL     1       8.468  -7.628  -2.376  1.00  0.00     0.041 C 
ATOM      8  O   UNL     1       9.124  -7.399  -1.326  1.00  0.00    -0.550 OA
ATOM      9  O   UNL     1       7.582  -8.698  -2.415  1.00  0.00    -0.550 OA
ENDBRANCH   6   7
ENDBRANCH   5   6
ENDBRANCH   4   5
ENDBRANCH   3   4
ENDBRANCH   2   3
ENDBRANCH   1   2
BRANCH   1  10
ATOM     10  C   UNL     1       7.799  -5.941  -8.213  1.00  0.00     0.000 C 
BRANCH  10  11
ATOM     11  C   UNL     1       8.342  -7.335  -8.576  1.00  0.00    -0.000 C 
BRANCH  11  12
ATOM     12  C   UNL     1       7.707  -7.979  -9.826  1.00  0.00    -0.000 C 
BRANCH  12  13
ATOM     13  C   UNL     1       7.112  -9.382  -9.610  1.00  0.00    -0.000 C 
BRANCH  13  14
ATOM     14  C   UNL     1       6.117  -9.435  -8.438  1.00  0.00    -0.000 C 
BRANCH  14  15
ATOM     15  C   UNL     1       4.665  -9.616  -8.909  1.00  0.00    -0.003 C 
ATOM     16  C   UNL     1       4.278 -11.083  -9.088  1.00  0.00     0.004 C 
ENDBRANCH  14  15
ENDBRANCH  13  14
ENDBRANCH  12  13
ENDBRANCH  11  12
ENDBRANCH  10  11
ENDBRANCH   1  10
TORSDOF 12
ENDMDL
