MODEL 1
REMARK VINA RESULT:    -4.138      0.000      0.000
REMARK INTER + INTRA:         -10.127
REMARK INTER:                  -8.008
REMARK INTRA:                  -2.119
REMARK UNBOUND:                -2.119
REMARK SMILES CCCCCCCCCCCCCCCCCC(=O)[O-]
REMARK SMILES IDX 10 1 11 2 12 3 13 4 14 5 15 6 16 7 17 8 18 9 19 10 20 11
REMARK SMILES IDX 9 12 8 13 7 14 6 15 5 16 4 17 3 18 2 19 1 20
REMARK H PARENT
REMARK Flexibility Score: inf
ROOT
ATOM      1  C   UNL     1      23.152 -15.362  -1.892  1.00  0.00     0.000 C 
ENDROOT
BRANCH   1   2
ATOM      2  C   UNL     1      23.234 -16.493  -2.933  1.00  0.00     0.000 C 
BRANCH   2   3
ATOM      3  C   UNL     1      24.277 -16.285  -4.048  1.00  0.00     0.000 C 
BRANCH   3   4
ATOM      4  C   UNL     1      25.588 -17.045  -3.788  1.00  0.00     0.000 C 
BRANCH   4   5
ATOM      5  C   UNL     1      26.813 -16.116  -3.699  1.00  0.00     0.000 C 
BRANCH   5   6
ATOM      6  C   UNL     1      27.838 -16.476  -2.603  1.00  0.00     0.000 C 
BRANCH   6   7
ATOM      7  C   UNL     1      29.315 -16.347  -3.020  1.00  0.00     0.006 C 
BRANCH   7   8
ATOM      8  C   UNL     1      30.243 -16.046  -1.837  1.00  0.00     0.053 C 
BRANCH   8   9
ATOM      9  C   UNL     1      30.392 -17.253  -0.967  1.00  0.00     0.041 C 
ATOM     10  O   UNL     1      30.402 -17.133   0.288  1.00  0.00    -0.550 OA
ATOM     11  O   UNL     1      30.569 -18.507  -1.539  1.00  0.00    -0.550 OA
ENDBRANCH   8   9
ENDBRANCH   7   8
ENDBRANCH   6   7
ENDBRANCH   5   6
ENDBRANCH   4   5
ENDBRANCH   3   4
ENDBRANCH   2   3
ENDBRANCH   1   2
BRANCH   1  12
ATOM     12  C   UNL     1      23.927 -14.104  -2.311  1.00  0.00     0.000 C 
BRANCH  12  13
ATOM     13  C   UNL     1      24.646 -13.476  -1.106  1.00  0.00    -0.000 C 
BRANCH  13  14
ATOM     14  C   UNL     1      26.168 -13.704  -1.128  1.00  0.00    -0.000 C 
BRANCH  14  15
ATOM     15  C   UNL     1      26.882 -13.470   0.217  1.00  0.00    -0.000 C 
BRANCH  15  16
ATOM     16  C   UNL     1      27.821 -14.623   0.604  1.00  0.00    -0.000 C 
BRANCH  16  17
ATOM     17  C   UNL     1      28.849 -14.224   1.678  1.00  0.00    -0.000 C 
BRANCH  17  18
ATOM     18  C   UNL     1      29.541 -12.874   1.401  1.00  0.00    -0.000 C 
BRANCH  18  19
ATOM     19  C   UNL     1      30.637 -12.994   0.331  1.00  0.00    -0.003 C 
ATOM     20  C   UNL     1      30.410 -12.003  -0.805  1.00  0.00     0.004 C 
ENDBRANCH  18  19
ENDBRANCH  17  18
ENDBRANCH  16  17
ENDBRANCH  15  16
ENDBRANCH  14  15
ENDBRANCH  13  14
ENDBRANCH  12  13
ENDBRANCH   1  12
TORSDOF 16
ENDMDL
MODEL 2
REMARK VINA RESULT:    -4.098      2.237      4.561
REMARK INTER + INTRA:         -10.049
REMARK INTER:                  -7.752
REMARK INTRA:                  -2.297
REMARK UNBOUND:                -2.119
REMARK SMILES CCCCCCCCCCCCCCCCCC(=O)[O-]
REMARK SMILES IDX 10 1 11 2 12 3 13 4 14 5 15 6 16 7 17 8 18 9 19 10 20 11
REMARK SMILES IDX 9 12 8 13 7 14 6 15 5 16 4 17 3 18 2 19 1 20
REMARK H PARENT
REMARK Flexibility Score: inf
ROOT
ATOM      1  C   UNL     1      23.053 -15.304  -2.074  1.00  0.00     0.000 C 
ENDROOT
BRANCH   1   2
ATOM      2  C   UNL     1      23.994 -14.113  -2.335  1.00  0.00     0.000 C 
BRANCH   2   3
ATOM      3  C   UNL     1      24.648 -13.507  -1.079  1.00  0.00     0.000 C 
BRANCH   3   4
ATOM      4  C   UNL     1      26.185 -13.539  -1.132  1.00  0.00     0.000 C 
BRANCH   4   5
ATOM      5  C   UNL     1      26.834 -13.520   0.264  1.00  0.00     0.000 C 
BRANCH   5   6
ATOM      6  C   UNL     1      27.784 -14.698   0.567  1.00  0.00     0.000 C 
BRANCH   6   7
ATOM      7  C   UNL     1      29.051 -14.330   1.362  1.00  0.00     0.006 C 
BRANCH   7   8
ATOM      8  C   UNL     1      29.904 -13.263   0.665  1.00  0.00     0.053 C 
BRANCH   8   9
ATOM      9  C   UNL     1      29.957 -12.015   1.489  1.00  0.00     0.041 C 
ATOM     10  O   UNL     1      29.610 -12.041   2.701  1.00  0.00    -0.550 OA
ATOM     11  O   UNL     1      30.342 -10.813   0.909  1.00  0.00    -0.550 OA
ENDBRANCH   8   9
ENDBRANCH   7   8
ENDBRANCH   6   7
ENDBRANCH   5   6
ENDBRANCH   4   5
ENDBRANCH   3   4
ENDBRANCH   2   3
ENDBRANCH   1   2
BRANCH   1  12
ATOM     12  C   UNL     1      23.378 -16.528  -2.944  1.00  0.00     0.000 C 
BRANCH  12  13
ATOM     13  C   UNL     1      24.430 -16.180  -4.009  1.00  0.00    -0.000 C 
BRANCH  13  14
ATOM     14  C   UNL     1      25.787 -16.863  -3.761  1.00  0.00    -0.000 C 
BRANCH  14  15
ATOM     15  C   UNL     1      26.992 -15.907  -3.671  1.00  0.00    -0.000 C 
BRANCH  15  16
ATOM     16  C   UNL     1      28.061 -16.386  -2.676  1.00  0.00    -0.000 C 
BRANCH  16  17
ATOM     17  C   UNL     1      29.346 -15.541  -2.726  1.00  0.00    -0.000 C 
BRANCH  17  18
ATOM     18  C   UNL     1      30.515 -16.143  -1.918  1.00  0.00    -0.000 C 
BRANCH  18  19
ATOM     19  C   UNL     1      30.047 -17.248  -0.960  1.00  0.00    -0.003 C 
ATOM     20  C   UNL     1      30.976 -17.365   0.243  1.00  0.00     0.004 C 
ENDBRANCH  18  19
ENDBRANCH  17  18
ENDBRANCH  16  17
ENDBRANCH  15  16
ENDBRANCH  14  15
ENDBRANCH  13  14
ENDBRANCH  12  13
ENDBRANCH   1  12
TORSDOF 16
ENDMDL
MODEL 3
REMARK VINA RESULT:    -3.862      1.437      2.589
REMARK INTER + INTRA:          -9.593
REMARK INTER:                  -7.560
REMARK INTRA:                  -2.033
REMARK UNBOUND:                -2.119
REMARK SMILES CCCCCCCCCCCCCCCCCC(=O)[O-]
REMARK SMILES IDX 10 1 11 2 12 3 13 4 14 5 15 6 16 7 17 8 18 9 19 10 20 11
REMARK SMILES IDX 9 12 8 13 7 14 6 15 5 16 4 17 3 18 2 19 1 20
REMARK H PARENT
REMARK Flexibility Score: inf
ROOT
ATOM      1  C   UNL     1      24.681 -13.501  -1.034  1.00  0.00     0.000 C 
ENDROOT
BRANCH   1   2
ATOM      2  C   UNL     1      23.855 -14.056  -2.209  1.00  0.00     0.000 C 
BRANCH   2   3
ATOM      3  C   UNL     1      23.130 -15.387  -1.930  1.00  0.00     0.000 C 
BRANCH   3   4
ATOM      4  C   UNL     1      23.292 -16.406  -3.071  1.00  0.00     0.000 C 
BRANCH   4   5
ATOM      5  C   UNL     1      24.519 -16.124  -3.957  1.00  0.00     0.000 C 
BRANCH   5   6
ATOM      6  C   UNL     1      25.809 -16.870  -3.559  1.00  0.00     0.000 C 
BRANCH   6   7
ATOM      7  C   UNL     1      27.116 -16.090  -3.790  1.00  0.00     0.006 C 
BRANCH   7   8
ATOM      8  C   UNL     1      28.188 -16.399  -2.737  1.00  0.00     0.053 C 
BRANCH   8   9
ATOM      9  C   UNL     1      29.287 -15.387  -2.797  1.00  0.00     0.041 C 
ATOM     10  O   UNL     1      30.438 -15.675  -2.370  1.00  0.00    -0.550 OA
ATOM     11  O   UNL     1      29.032 -14.108  -3.279  1.00  0.00    -0.550 OA
ENDBRANCH   8   9
ENDBRANCH   7   8
ENDBRANCH   6   7
ENDBRANCH   5   6
ENDBRANCH   4   5
ENDBRANCH   3   4
ENDBRANCH   2   3
ENDBRANCH   1   2
BRANCH   1  12
ATOM     12  C   UNL     1      26.193 -13.691  -1.220  1.00  0.00     0.000 C 
BRANCH  12  13
ATOM     13  C   UNL     1      26.941 -13.473   0.105  1.00  0.00    -0.000 C 
BRANCH  13  14
ATOM     14  C   UNL     1      27.852 -14.655   0.484  1.00  0.00    -0.000 C 
BRANCH  14  15
ATOM     15  C   UNL     1      28.873 -14.360   1.598  1.00  0.00    -0.000 C 
BRANCH  15  16
ATOM     16  C   UNL     1      28.821 -12.903   2.085  1.00  0.00    -0.000 C 
BRANCH  16  17
ATOM     17  C   UNL     1      30.188 -12.384   2.567  1.00  0.00    -0.000 C 
BRANCH  17  18
ATOM     18  C   UNL     1      31.125 -11.950   1.421  1.00  0.00    -0.000 C 
BRANCH  18  19
ATOM     19  C   UNL     1      30.354 -11.317   0.252  1.00  0.00    -0.003 C 
ATOM     20  C   UNL     1      30.704 -11.993  -1.069  1.00  0.00     0.004 C 
ENDBRANCH  18  19
ENDBRANCH  17  18
ENDBRANCH  16  17
ENDBRANCH  15  16
ENDBRANCH  14  15
ENDBRANCH  13  14
ENDBRANCH  12  13
ENDBRANCH   1  12
TORSDOF 16
ENDMDL
MODEL 4
REMARK VINA RESULT:    -3.741      1.343      5.112
REMARK INTER + INTRA:          -9.360
REMARK INTER:                  -7.192
REMARK INTRA:                  -2.168
REMARK UNBOUND:                -2.119
REMARK SMILES CCCCCCCCCCCCCCCCCC(=O)[O-]
REMARK SMILES IDX 10 1 11 2 12 3 13 4 14 5 15 6 16 7 17 8 18 9 19 10 20 11
REMARK SMILES IDX 9 12 8 13 7 14 6 15 5 16 4 17 3 18 2 19 1 20
REMARK H PARENT
REMARK Flexibility Score: inf
ROOT
ATOM      1  C   UNL     1      27.449 -15.528  -2.712  1.00  0.00     0.000 C 
ENDROOT
BRANCH   1   2
ATOM      2  C   UNL     1      28.968 -15.616  -2.950  1.00  0.00     0.000 C 
BRANCH   2   3
ATOM      3  C   UNL     1      29.599 -14.379  -3.617  1.00  0.00     0.000 C 
BRANCH   3   4
ATOM      4  C   UNL     1      30.889 -13.916  -2.919  1.00  0.00     0.000 C 
BRANCH   4   5
ATOM      5  C   UNL     1      30.821 -12.454  -2.442  1.00  0.00     0.000 C 
BRANCH   5   6
ATOM      6  C   UNL     1      30.701 -12.261  -0.916  1.00  0.00     0.000 C 
BRANCH   6   7
ATOM      7  C   UNL     1      29.447 -12.881  -0.273  1.00  0.00     0.006 C 
BRANCH   7   8
ATOM      8  C   UNL     1      29.766 -13.709   0.978  1.00  0.00     0.053 C 
BRANCH   8   9
ATOM      9  C   UNL     1      29.387 -15.141   0.768  1.00  0.00     0.041 C 
ATOM     10  O   UNL     1      28.173 -15.480   0.757  1.00  0.00    -0.550 OA
ATOM     11  O   UNL     1      30.374 -16.111   0.635  1.00  0.00    -0.550 OA
ENDBRANCH   8   9
ENDBRANCH   7   8
ENDBRANCH   6   7
ENDBRANCH   5   6
ENDBRANCH   4   5
ENDBRANCH   3   4
ENDBRANCH   2   3
ENDBRANCH   1   2
BRANCH   1  12
ATOM     12  C   UNL     1      26.626 -15.815  -3.976  1.00  0.00     0.000 C 
BRANCH  12  13
ATOM     13  C   UNL     1      25.678 -17.005  -3.755  1.00  0.00    -0.000 C 
BRANCH  13  14
ATOM     14  C   UNL     1      24.204 -16.661  -4.038  1.00  0.00    -0.000 C 
BRANCH  14  15
ATOM     15  C   UNL     1      23.251 -16.839  -2.841  1.00  0.00    -0.000 C 
BRANCH  15  16
ATOM     16  C   UNL     1      22.911 -15.512  -2.146  1.00  0.00    -0.000 C 
BRANCH  16  17
ATOM     17  C   UNL     1      23.255 -14.281  -3.004  1.00  0.00    -0.000 C 
BRANCH  17  18
ATOM     18  C   UNL     1      24.322 -13.364  -2.372  1.00  0.00    -0.000 C 
BRANCH  18  19
ATOM     19  C   UNL     1      24.417 -13.551  -0.850  1.00  0.00    -0.003 C 
ATOM     20  C   UNL     1      25.809 -13.198  -0.337  1.00  0.00     0.004 C 
ENDBRANCH  18  19
ENDBRANCH  17  18
ENDBRANCH  16  17
ENDBRANCH  15  16
ENDBRANCH  14  15
ENDBRANCH  13  14
ENDBRANCH  12  13
ENDBRANCH   1  12
TORSDOF 16
ENDMDL
MODEL 5
REMARK VINA RESULT:    -3.598      2.565      6.041
REMARK INTER + INTRA:          -9.082
REMARK INTER:                  -6.776
REMARK INTRA:                  -2.306
REMARK UNBOUND:                -2.119
REMARK SMILES CCCCCCCCCCCCCCCCCC(=O)[O-]
REMARK SMILES IDX 10 1 11 2 12 3 13 4 14 5 15 6 16 7 17 8 18 9 19 10 20 11
REMARK SMILES IDX 9 12 8 13 7 14 6 15 5 16 4 17 3 18 2 19 1 20
REMARK H PARENT
REMARK Flexibility Score: inf
ROOT
ATOM      1  C   UNL     1      28.880 -13.128   2.259  1.00  0.00     0.000 C 
ENDROOT
BRANCH   1   2
ATOM      2  C   UNL     1      29.066 -14.441   1.477  1.00  0.00     0.000 C 
BRANCH   2   3
ATOM      3  C   UNL     1      28.029 -14.696   0.366  1.00  0.00     0.000 C 
BRANCH   3   4
ATOM      4  C   UNL     1      27.070 -13.511   0.162  1.00  0.00     0.000 C 
BRANCH   4   5
ATOM      5  C   UNL     1      26.391 -13.520  -1.220  1.00  0.00     0.000 C 
BRANCH   5   6
ATOM      6  C   UNL     1      24.965 -14.110  -1.253  1.00  0.00     0.000 C 
BRANCH   6   7
ATOM      7  C   UNL     1      24.038 -13.523  -2.332  1.00  0.00     0.006 C 
BRANCH   7   8
ATOM      8  C   UNL     1      23.874 -14.448  -3.545  1.00  0.00     0.053 C 
BRANCH   8   9
ATOM      9  C   UNL     1      23.674 -15.862  -3.101  1.00  0.00     0.041 C 
ATOM     10  O   UNL     1      22.746 -16.148  -2.298  1.00  0.00    -0.550 OA
ATOM     11  O   UNL     1      24.541 -16.858  -3.535  1.00  0.00    -0.550 OA
ENDBRANCH   8   9
ENDBRANCH   7   8
ENDBRANCH   6   7
ENDBRANCH   5   6
ENDBRANCH   4   5
ENDBRANCH   3   4
ENDBRANCH   2   3
ENDBRANCH   1   2
BRANCH   1  12
ATOM     12  C   UNL     1      30.177 -12.317   2.389  1.00  0.00     0.000 C 
BRANCH  12  13
ATOM     13  C   UNL     1      30.997 -12.382   1.090  1.00  0.00    -0.000 C 
BRANCH  13  14
ATOM     14  C   UNL     1      30.693 -11.219   0.128  1.00  0.00    -0.000 C 
BRANCH  14  15
ATOM     15  C   UNL     1      30.686 -11.593  -1.366  1.00  0.00    -0.000 C 
BRANCH  15  16
ATOM     16  C   UNL     1      30.695 -13.112  -1.602  1.00  0.00    -0.000 C 
BRANCH  16  17
ATOM     17  C   UNL     1      29.895 -13.529  -2.848  1.00  0.00    -0.000 C 
BRANCH  17  18
ATOM     18  C   UNL     1      29.737 -15.056  -3.001  1.00  0.00    -0.000 C 
BRANCH  18  19
ATOM     19  C   UNL     1      28.325 -15.448  -3.462  1.00  0.00    -0.003 C 
ATOM     20  C   UNL     1      27.806 -16.653  -2.686  1.00  0.00     0.004 C 
ENDBRANCH  18  19
ENDBRANCH  17  18
ENDBRANCH  16  17
ENDBRANCH  15  16
ENDBRANCH  14  15
ENDBRANCH  13  14
ENDBRANCH  12  13
ENDBRANCH   1  12
TORSDOF 16
ENDMDL
MODEL 6
REMARK VINA RESULT:    -3.497      0.936      5.369
REMARK INTER + INTRA:          -8.888
REMARK INTER:                  -6.777
REMARK INTRA:                  -2.111
REMARK UNBOUND:                -2.119
REMARK SMILES CCCCCCCCCCCCCCCCCC(=O)[O-]
REMARK SMILES IDX 10 1 11 2 12 3 13 4 14 5 15 6 16 7 17 8 18 9 19 10 20 11
REMARK SMILES IDX 9 12 8 13 7 14 6 15 5 16 4 17 3 18 2 19 1 20
REMARK H PARENT
REMARK Flexibility Score: inf
ROOT
ATOM      1  C   UNL     1      28.043 -13.243   1.197  1.00  0.00     0.000 C 
ENDROOT
BRANCH   1   2
ATOM      2  C   UNL     1      29.462 -13.370   1.781  1.00  0.00     0.000 C 
BRANCH   2   3
ATOM      3  C   UNL     1      30.605 -13.269   0.753  1.00  0.00     0.000 C 
BRANCH   3   4
ATOM      4  C   UNL     1      30.387 -12.146  -0.275  1.00  0.00     0.000 C 
BRANCH   4   5
ATOM      5  C   UNL     1      30.922 -12.500  -1.674  1.00  0.00     0.000 C 
BRANCH   5   6
ATOM      6  C   UNL     1      30.201 -13.665  -2.383  1.00  0.00     0.000 C 
BRANCH   6   7
ATOM      7  C   UNL     1      30.904 -15.031  -2.281  1.00  0.00     0.006 C 
BRANCH   7   8
ATOM      8  C   UNL     1      29.919 -16.200  -2.151  1.00  0.00     0.053 C 
BRANCH   8   9
ATOM      9  C   UNL     1      30.343 -17.123  -1.052  1.00  0.00     0.041 C 
ATOM     10  O   UNL     1      30.309 -16.737   0.147  1.00  0.00    -0.550 OA
ATOM     11  O   UNL     1      30.824 -18.391  -1.354  1.00  0.00    -0.550 OA
ENDBRANCH   8   9
ENDBRANCH   7   8
ENDBRANCH   6   7
ENDBRANCH   5   6
ENDBRANCH   4   5
ENDBRANCH   3   4
ENDBRANCH   2   3
ENDBRANCH   1   2
BRANCH   1  12
ATOM     12  C   UNL     1      27.675 -14.399   0.254  1.00  0.00     0.000 C 
BRANCH  12  13
ATOM     13  C   UNL     1      26.916 -13.881  -0.978  1.00  0.00    -0.000 C 
BRANCH  13  14
ATOM     14  C   UNL     1      25.521 -13.326  -0.636  1.00  0.00    -0.000 C 
BRANCH  14  15
ATOM     15  C   UNL     1      24.469 -13.474  -1.751  1.00  0.00    -0.000 C 
BRANCH  15  16
ATOM     16  C   UNL     1      23.635 -14.758  -1.618  1.00  0.00    -0.000 C 
BRANCH  16  17
ATOM     17  C   UNL     1      23.151 -15.300  -2.975  1.00  0.00    -0.000 C 
BRANCH  17  18
ATOM     18  C   UNL     1      23.980 -16.490  -3.499  1.00  0.00    -0.000 C 
BRANCH  18  19
ATOM     19  C   UNL     1      25.309 -16.038  -4.125  1.00  0.00    -0.003 C 
ATOM     20  C   UNL     1      26.500 -16.633  -3.382  1.00  0.00     0.004 C 
ENDBRANCH  18  19
ENDBRANCH  17  18
ENDBRANCH  16  17
ENDBRANCH  15  16
ENDBRANCH  14  15
ENDBRANCH  13  14
ENDBRANCH  12  13
ENDBRANCH   1  12
TORSDOF 16
ENDMDL
MODEL 7
REMARK VINA RESULT:    -3.466      2.443      5.189
REMARK INTER + INTRA:          -8.826
REMARK INTER:                  -6.871
REMARK INTRA:                  -1.956
REMARK UNBOUND:                -2.119
REMARK SMILES CCCCCCCCCCCCCCCCCC(=O)[O-]
REMARK SMILES IDX 10 1 11 2 12 3 13 4 14 5 15 6 16 7 17 8 18 9 19 10 20 11
REMARK SMILES IDX 9 12 8 13 7 14 6 15 5 16 4 17 3 18 2 19 1 20
REMARK H PARENT
REMARK Flexibility Score: inf
ROOT
ATOM      1  C   UNL     1      24.016 -13.917  -1.232  1.00  0.00     0.000 C 
ENDROOT
BRANCH   1   2
ATOM      2  C   UNL     1      25.354 -13.173  -1.395  1.00  0.00     0.000 C 
BRANCH   2   3
ATOM      3  C   UNL     1      26.487 -13.650  -0.467  1.00  0.00     0.000 C 
BRANCH   3   4
ATOM      4  C   UNL     1      27.880 -13.506  -1.103  1.00  0.00     0.000 C 
BRANCH   4   5
ATOM      5  C   UNL     1      29.025 -13.741  -0.101  1.00  0.00     0.000 C 
BRANCH   5   6
ATOM      6  C   UNL     1      30.428 -13.325  -0.589  1.00  0.00     0.000 C 
BRANCH   6   7
ATOM      7  C   UNL     1      31.125 -12.247   0.261  1.00  0.00     0.006 C 
BRANCH   7   8
ATOM      8  C   UNL     1      30.152 -11.188   0.795  1.00  0.00     0.053 C 
BRANCH   8   9
ATOM      9  C   UNL     1      30.157 -11.181   2.291  1.00  0.00     0.041 C 
ATOM     10  O   UNL     1      30.950 -10.428   2.919  1.00  0.00    -0.550 OA
ATOM     11  O   UNL     1      29.321 -12.040   2.995  1.00  0.00    -0.550 OA
ENDBRANCH   8   9
ENDBRANCH   7   8
ENDBRANCH   6   7
ENDBRANCH   5   6
ENDBRANCH   4   5
ENDBRANCH   3   4
ENDBRANCH   2   3
ENDBRANCH   1   2
BRANCH   1  12
ATOM     12  C   UNL     1      23.419 -14.379  -2.569  1.00  0.00     0.000 C 
BRANCH  12  13
ATOM     13  C   UNL     1      23.316 -15.911  -2.625  1.00  0.00    -0.000 C 
BRANCH  13  14
ATOM     14  C   UNL     1      23.981 -16.515  -3.876  1.00  0.00    -0.000 C 
BRANCH  14  15
ATOM     15  C   UNL     1      25.474 -16.859  -3.719  1.00  0.00    -0.000 C 
BRANCH  15  16
ATOM     16  C   UNL     1      26.399 -15.688  -4.088  1.00  0.00    -0.000 C 
BRANCH  16  17
ATOM     17  C   UNL     1      27.861 -15.927  -3.672  1.00  0.00    -0.000 C 
BRANCH  17  18
ATOM     18  C   UNL     1      28.011 -16.764  -2.385  1.00  0.00    -0.000 C 
BRANCH  18  19
ATOM     19  C   UNL     1      29.479 -16.904  -1.954  1.00  0.00    -0.003 C 
ATOM     20  C   UNL     1      30.422 -16.705  -3.136  1.00  0.00     0.004 C 
ENDBRANCH  18  19
ENDBRANCH  17  18
ENDBRANCH  16  17
ENDBRANCH  15  16
ENDBRANCH  14  15
ENDBRANCH  13  14
ENDBRANCH  12  13
ENDBRANCH   1  12
TORSDOF 16
ENDMDL
MODEL 8
REMARK VINA RESULT:    -3.351      2.586      5.346
REMARK INTER + INTRA:          -8.604
REMARK INTER:                  -6.306
REMARK INTRA:                  -2.298
REMARK UNBOUND:                -2.119
REMARK SMILES CCCCCCCCCCCCCCCCCC(=O)[O-]
REMARK SMILES IDX 10 1 11 2 12 3 13 4 14 5 15 6 16 7 17 8 18 9 19 10 20 11
REMARK SMILES IDX 9 12 8 13 7 14 6 15 5 16 4 17 3 18 2 19 1 20
REMARK H PARENT
REMARK Flexibility Score: inf
ROOT
ATOM      1  C   UNL     1      29.095 -13.913  -2.852  1.00  0.00     0.000 C 
ENDROOT
BRANCH   1   2
ATOM      2  C   UNL     1      27.777 -14.707  -2.917  1.00  0.00     0.000 C 
BRANCH   2   3
ATOM      3  C   UNL     1      27.010 -14.814  -1.585  1.00  0.00     0.000 C 
BRANCH   3   4
ATOM      4  C   UNL     1      26.729 -13.444  -0.946  1.00  0.00     0.000 C 
BRANCH   4   5
ATOM      5  C   UNL     1      25.240 -13.055  -0.992  1.00  0.00     0.000 C 
BRANCH   5   6
ATOM      6  C   UNL     1      24.285 -14.154  -1.504  1.00  0.00     0.000 C 
BRANCH   6   7
ATOM      7  C   UNL     1      23.662 -13.889  -2.887  1.00  0.00     0.006 C 
BRANCH   7   8
ATOM      8  C   UNL     1      24.212 -14.819  -3.976  1.00  0.00     0.053 C 
BRANCH   8   9
ATOM      9  C   UNL     1      24.086 -16.249  -3.555  1.00  0.00     0.041 C 
ATOM     10  O   UNL     1      23.020 -16.662  -3.023  1.00  0.00    -0.550 OA
ATOM     11  O   UNL     1      25.162 -17.117  -3.704  1.00  0.00    -0.550 OA
ENDBRANCH   8   9
ENDBRANCH   7   8
ENDBRANCH   6   7
ENDBRANCH   5   6
ENDBRANCH   4   5
ENDBRANCH   3   4
ENDBRANCH   2   3
ENDBRANCH   1   2
BRANCH   1  12
ATOM     12  C   UNL     1      30.206 -14.522  -3.720  1.00  0.00     0.000 C 
BRANCH  12  13
ATOM     13  C   UNL     1      31.111 -15.443  -2.886  1.00  0.00    -0.000 C 
BRANCH  13  14
ATOM     14  C   UNL     1      30.687 -16.921  -2.948  1.00  0.00    -0.000 C 
BRANCH  14  15
ATOM     15  C   UNL     1      30.089 -17.484  -1.645  1.00  0.00    -0.000 C 
BRANCH  15  16
ATOM     16  C   UNL     1      31.113 -17.560  -0.502  1.00  0.00    -0.000 C 
BRANCH  16  17
ATOM     17  C   UNL     1      30.744 -16.664   0.694  1.00  0.00    -0.000 C 
BRANCH  17  18
ATOM     18  C   UNL     1      29.576 -15.698   0.407  1.00  0.00    -0.000 C 
BRANCH  18  19
ATOM     19  C   UNL     1      29.526 -14.536   1.412  1.00  0.00    -0.003 C 
ATOM     20  C   UNL     1      29.970 -13.228   0.766  1.00  0.00     0.004 C 
ENDBRANCH  18  19
ENDBRANCH  17  18
ENDBRANCH  16  17
ENDBRANCH  15  16
ENDBRANCH  14  15
ENDBRANCH  13  14
ENDBRANCH  12  13
ENDBRANCH   1  12
TORSDOF 16
ENDMDL
MODEL 9
REMARK VINA RESULT:    -3.226      1.156      5.337
REMARK INTER + INTRA:          -8.362
REMARK INTER:                  -5.895
REMARK INTRA:                  -2.467
REMARK UNBOUND:                -2.119
REMARK SMILES CCCCCCCCCCCCCCCCCC(=O)[O-]
REMARK SMILES IDX 10 1 11 2 12 3 13 4 14 5 15 6 16 7 17 8 18 9 19 10 20 11
REMARK SMILES IDX 9 12 8 13 7 14 6 15 5 16 4 17 3 18 2 19 1 20
REMARK H PARENT
REMARK Flexibility Score: inf
ROOT
ATOM      1  C   UNL     1      26.595 -13.467   0.416  1.00  0.00     0.000 C 
ENDROOT
BRANCH   1   2
ATOM      2  C   UNL     1      27.829 -14.096   1.090  1.00  0.00     0.000 C 
BRANCH   2   3
ATOM      3  C   UNL     1      28.846 -13.092   1.665  1.00  0.00     0.000 C 
BRANCH   3   4
ATOM      4  C   UNL     1      30.252 -13.255   1.063  1.00  0.00     0.000 C 
BRANCH   4   5
ATOM      5  C   UNL     1      30.265 -13.139  -0.472  1.00  0.00     0.000 C 
BRANCH   5   6
ATOM      6  C   UNL     1      31.108 -14.201  -1.209  1.00  0.00     0.000 C 
BRANCH   6   7
ATOM      7  C   UNL     1      31.100 -15.602  -0.571  1.00  0.00     0.006 C 
BRANCH   7   8
ATOM      8  C   UNL     1      30.900 -16.724  -1.598  1.00  0.00     0.053 C 
BRANCH   8   9
ATOM      9  C   UNL     1      30.771 -18.046  -0.910  1.00  0.00     0.041 C 
ATOM     10  O   UNL     1      30.547 -19.090  -1.581  1.00  0.00    -0.550 OA
ATOM     11  O   UNL     1      30.847 -18.122   0.475  1.00  0.00    -0.550 OA
ENDBRANCH   8   9
ENDBRANCH   7   8
ENDBRANCH   6   7
ENDBRANCH   5   6
ENDBRANCH   4   5
ENDBRANCH   3   4
ENDBRANCH   2   3
ENDBRANCH   1   2
BRANCH   1  12
ATOM     12  C   UNL     1      26.647 -13.537  -1.117  1.00  0.00     0.000 C 
BRANCH  12  13
ATOM     13  C   UNL     1      27.248 -14.872  -1.585  1.00  0.00    -0.000 C 
BRANCH  13  14
ATOM     14  C   UNL     1      27.819 -14.807  -3.013  1.00  0.00    -0.000 C 
BRANCH  14  15
ATOM     15  C   UNL     1      27.533 -16.043  -3.887  1.00  0.00    -0.000 C 
BRANCH  15  16
ATOM     16  C   UNL     1      26.388 -16.909  -3.340  1.00  0.00    -0.000 C 
BRANCH  16  17
ATOM     17  C   UNL     1      25.070 -16.715  -4.110  1.00  0.00    -0.000 C 
BRANCH  17  18
ATOM     18  C   UNL     1      24.091 -15.738  -3.426  1.00  0.00    -0.000 C 
BRANCH  18  19
ATOM     19  C   UNL     1      24.059 -14.370  -4.124  1.00  0.00    -0.003 C 
ATOM     20  C   UNL     1      23.333 -13.333  -3.274  1.00  0.00     0.004 C 
ENDBRANCH  18  19
ENDBRANCH  17  18
ENDBRANCH  16  17
ENDBRANCH  15  16
ENDBRANCH  14  15
ENDBRANCH  13  14
ENDBRANCH  12  13
ENDBRANCH   1  12
TORSDOF 16
ENDMDL
