MODEL 1
REMARK VINA RESULT:    -2.057      0.000      0.000
REMARK INTER + INTRA:          -4.850
REMARK INTER:                  -3.982
REMARK INTRA:                  -0.868
REMARK UNBOUND:                -0.868
REMARK SMILES CCCCCCCCCCCCCCCCCC(=O)[O-]
REMARK SMILES IDX 10 1 11 2 12 3 13 4 14 5 15 6 16 7 17 8 18 9 19 10 20 11
REMARK SMILES IDX 9 12 8 13 7 14 6 15 5 16 4 17 3 18 2 19 1 20
REMARK H PARENT
REMARK Flexibility Score: inf
ROOT
ATOM      1  C   UNL     1       4.324 -33.729  22.536  1.00  0.00     0.000 C 
ENDROOT
BRANCH   1   2
ATOM      2  C   UNL     1       4.566 -34.967  21.659  1.00  0.00     0.000 C 
BRANCH   2   3
ATOM      3  C   UNL     1       5.798 -34.817  20.754  1.00  0.00     0.000 C 
BRANCH   3   4
ATOM      4  C   UNL     1       5.656 -35.668  19.487  1.00  0.00     0.000 C 
BRANCH   4   5
ATOM      5  C   UNL     1       4.346 -36.471  19.508  1.00  0.00     0.000 C 
BRANCH   5   6
ATOM      6  C   UNL     1       3.842 -36.835  18.100  1.00  0.00     0.000 C 
BRANCH   6   7
ATOM      7  C   UNL     1       2.318 -36.709  17.899  1.00  0.00     0.006 C 
BRANCH   7   8
ATOM      8  C   UNL     1       1.894 -36.259  16.493  1.00  0.00     0.053 C 
BRANCH   8   9
ATOM      9  C   UNL     1       3.066 -35.839  15.660  1.00  0.00     0.041 C 
ATOM     10  O   UNL     1       3.620 -34.726  15.862  1.00  0.00    -0.550 OA
ATOM     11  O   UNL     1       3.525 -36.660  14.638  1.00  0.00    -0.550 OA
ENDBRANCH   8   9
ENDBRANCH   7   8
ENDBRANCH   6   7
ENDBRANCH   5   6
ENDBRANCH   4   5
ENDBRANCH   3   4
ENDBRANCH   2   3
ENDBRANCH   1   2
BRANCH   1  12
ATOM     12  C   UNL     1       5.288 -33.656  23.734  1.00  0.00     0.000 C 
BRANCH  12  13
ATOM     13  C   UNL     1       6.124 -34.936  23.895  1.00  0.00    -0.000 C 
BRANCH  13  14
ATOM     14  C   UNL     1       5.990 -35.554  25.298  1.00  0.00    -0.000 C 
BRANCH  14  15
ATOM     15  C   UNL     1       4.830 -36.558  25.393  1.00  0.00    -0.000 C 
BRANCH  15  16
ATOM     16  C   UNL     1       5.303 -37.971  25.762  1.00  0.00    -0.000 C 
BRANCH  16  17
ATOM     17  C   UNL     1       5.232 -38.909  24.549  1.00  0.00    -0.000 C 
BRANCH  17  18
ATOM     18  C   UNL     1       5.381 -38.167  23.210  1.00  0.00    -0.000 C 
BRANCH  18  19
ATOM     19  C   UNL     1       5.763 -39.087  22.031  1.00  0.00    -0.003 C 
ATOM     20  C   UNL     1       6.067 -40.515  22.482  1.00  0.00     0.004 C 
ENDBRANCH  18  19
ENDBRANCH  17  18
ENDBRANCH  16  17
ENDBRANCH  15  16
ENDBRANCH  14  15
ENDBRANCH  13  14
ENDBRANCH  12  13
ENDBRANCH   1  12
TORSDOF 16
ENDMDL
MODEL 2
REMARK VINA RESULT:    -1.978      1.182      3.413
REMARK INTER + INTRA:          -4.697
REMARK INTER:                  -3.737
REMARK INTRA:                  -0.960
REMARK UNBOUND:                -0.868
REMARK SMILES CCCCCCCCCCCCCCCCCC(=O)[O-]
REMARK SMILES IDX 10 1 11 2 12 3 13 4 14 5 15 6 16 7 17 8 18 9 19 10 20 11
REMARK SMILES IDX 9 12 8 13 7 14 6 15 5 16 4 17 3 18 2 19 1 20
REMARK H PARENT
REMARK Flexibility Score: inf
ROOT
ATOM      1  C   UNL     1       5.860 -36.814  21.219  1.00  0.00     0.000 C 
ENDROOT
BRANCH   1   2
ATOM      2  C   UNL     1       5.100 -35.908  20.237  1.00  0.00     0.000 C 
BRANCH   2   3
ATOM      3  C   UNL     1       4.500 -36.688  19.058  1.00  0.00     0.000 C 
BRANCH   3   4
ATOM      4  C   UNL     1       3.007 -36.956  19.279  1.00  0.00     0.000 C 
BRANCH   4   5
ATOM      5  C   UNL     1       2.244 -36.952  17.946  1.00  0.00     0.000 C 
BRANCH   5   6
ATOM      6  C   UNL     1       3.069 -36.370  16.784  1.00  0.00     0.000 C 
BRANCH   6   7
ATOM      7  C   UNL     1       2.246 -35.667  15.685  1.00  0.00     0.006 C 
BRANCH   7   8
ATOM      8  C   UNL     1       2.673 -36.010  14.249  1.00  0.00     0.053 C 
BRANCH   8   9
ATOM      9  C   UNL     1       4.028 -36.646  14.203  1.00  0.00     0.041 C 
ATOM     10  O   UNL     1       5.036 -35.964  13.876  1.00  0.00    -0.550 OA
ATOM     11  O   UNL     1       4.175 -37.997  14.485  1.00  0.00    -0.550 OA
ENDBRANCH   8   9
ENDBRANCH   7   8
ENDBRANCH   6   7
ENDBRANCH   5   6
ENDBRANCH   4   5
ENDBRANCH   3   4
ENDBRANCH   2   3
ENDBRANCH   1   2
BRANCH   1  12
ATOM     12  C   UNL     1       5.900 -38.282  20.759  1.00  0.00     0.000 C 
BRANCH  12  13
ATOM     13  C   UNL     1       5.984 -39.266  21.937  1.00  0.00    -0.000 C 
BRANCH  13  14
ATOM     14  C   UNL     1       4.730 -39.226  22.828  1.00  0.00    -0.000 C 
BRANCH  14  15
ATOM     15  C   UNL     1       5.070 -39.233  24.327  1.00  0.00    -0.000 C 
BRANCH  15  16
ATOM     16  C   UNL     1       5.788 -37.952  24.775  1.00  0.00    -0.000 C 
BRANCH  16  17
ATOM     17  C   UNL     1       4.837 -37.031  25.551  1.00  0.00    -0.000 C 
BRANCH  17  18
ATOM     18  C   UNL     1       5.160 -35.539  25.359  1.00  0.00    -0.000 C 
BRANCH  18  19
ATOM     19  C   UNL     1       5.785 -35.212  23.986  1.00  0.00    -0.003 C 
ATOM     20  C   UNL     1       5.298 -33.874  23.430  1.00  0.00     0.004 C 
ENDBRANCH  18  19
ENDBRANCH  17  18
ENDBRANCH  16  17
ENDBRANCH  15  16
ENDBRANCH  14  15
ENDBRANCH  13  14
ENDBRANCH  12  13
ENDBRANCH   1  12
TORSDOF 16
ENDMDL
MODEL 3
REMARK VINA RESULT:    -1.869      3.784      8.199
REMARK INTER + INTRA:          -4.485
REMARK INTER:                  -3.591
REMARK INTRA:                  -0.893
REMARK UNBOUND:                -0.868
REMARK SMILES CCCCCCCCCCCCCCCCCC(=O)[O-]
REMARK SMILES IDX 10 1 11 2 12 3 13 4 14 5 15 6 16 7 17 8 18 9 19 10 20 11
REMARK SMILES IDX 9 12 8 13 7 14 6 15 5 16 4 17 3 18 2 19 1 20
REMARK H PARENT
REMARK Flexibility Score: inf
ROOT
ATOM      1  C   UNL     1       5.577 -36.405  20.020  1.00  0.00     0.000 C 
ENDROOT
BRANCH   1   2
ATOM      2  C   UNL     1       5.491 -34.975  19.464  1.00  0.00     0.000 C 
BRANCH   2   3
ATOM      3  C   UNL     1       5.697 -33.906  20.548  1.00  0.00     0.000 C 
BRANCH   3   4
ATOM      4  C   UNL     1       5.988 -34.551  21.907  1.00  0.00     0.000 C 
BRANCH   4   5
ATOM      5  C   UNL     1       5.314 -33.768  23.044  1.00  0.00     0.000 C 
BRANCH   5   6
ATOM      6  C   UNL     1       5.819 -34.180  24.439  1.00  0.00     0.000 C 
BRANCH   6   7
ATOM      7  C   UNL     1       5.941 -35.701  24.665  1.00  0.00     0.006 C 
BRANCH   7   8
ATOM      8  C   UNL     1       5.165 -36.230  25.881  1.00  0.00     0.053 C 
BRANCH   8   9
ATOM      9  C   UNL     1       5.359 -37.703  26.074  1.00  0.00     0.041 C 
ATOM     10  O   UNL     1       5.613 -38.163  27.218  1.00  0.00    -0.550 OA
ATOM     11  O   UNL     1       5.294 -38.563  24.986  1.00  0.00    -0.550 OA
ENDBRANCH   8   9
ENDBRANCH   7   8
ENDBRANCH   6   7
ENDBRANCH   5   6
ENDBRANCH   4   5
ENDBRANCH   3   4
ENDBRANCH   2   3
ENDBRANCH   1   2
BRANCH   1  12
ATOM     12  C   UNL     1       4.703 -37.398  19.235  1.00  0.00     0.000 C 
BRANCH  12  13
ATOM     13  C   UNL     1       3.429 -36.746  18.674  1.00  0.00    -0.000 C 
BRANCH  13  14
ATOM     14  C   UNL     1       3.309 -36.904  17.148  1.00  0.00    -0.000 C 
BRANCH  14  15
ATOM     15  C   UNL     1       2.187 -36.040  16.551  1.00  0.00    -0.000 C 
BRANCH  15  16
ATOM     16  C   UNL     1       2.340 -35.838  15.037  1.00  0.00    -0.000 C 
BRANCH  16  17
ATOM     17  C   UNL     1       3.748 -35.337  14.688  1.00  0.00    -0.000 C 
BRANCH  17  18
ATOM     18  C   UNL     1       4.562 -36.357  13.875  1.00  0.00    -0.000 C 
BRANCH  18  19
ATOM     19  C   UNL     1       4.032 -37.802  13.984  1.00  0.00    -0.003 C 
ATOM     20  C   UNL     1       5.159 -38.833  14.045  1.00  0.00     0.004 C 
ENDBRANCH  18  19
ENDBRANCH  17  18
ENDBRANCH  16  17
ENDBRANCH  15  16
ENDBRANCH  14  15
ENDBRANCH  13  14
ENDBRANCH  12  13
ENDBRANCH   1  12
TORSDOF 16
ENDMDL
MODEL 4
REMARK VINA RESULT:    -1.463      1.033      1.577
REMARK INTER + INTRA:          -3.700
REMARK INTER:                  -3.805
REMARK INTRA:                   0.105
REMARK UNBOUND:                -0.868
REMARK SMILES CCCCCCCCCCCCCCCCCC(=O)[O-]
REMARK SMILES IDX 10 1 11 2 12 3 13 4 14 5 15 6 16 7 17 8 18 9 19 10 20 11
REMARK SMILES IDX 9 12 8 13 7 14 6 15 5 16 4 17 3 18 2 19 1 20
REMARK H PARENT
REMARK Flexibility Score: inf
ROOT
ATOM      1  C   UNL     1       5.033 -34.609  23.113  1.00  0.00     0.000 C 
ENDROOT
BRANCH   1   2
ATOM      2  C   UNL     1       5.874 -34.824  21.845  1.00  0.00     0.000 C 
BRANCH   2   3
ATOM      3  C   UNL     1       5.632 -36.198  21.202  1.00  0.00     0.000 C 
BRANCH   3   4
ATOM      4  C   UNL     1       4.918 -36.055  19.853  1.00  0.00     0.000 C 
BRANCH   4   5
ATOM      5  C   UNL     1       3.534 -36.722  19.890  1.00  0.00     0.000 C 
BRANCH   5   6
ATOM      6  C   UNL     1       2.935 -36.937  18.488  1.00  0.00     0.000 C 
BRANCH   6   7
ATOM      7  C   UNL     1       3.823 -36.464  17.319  1.00  0.00     0.006 C 
BRANCH   7   8
ATOM      8  C   UNL     1       3.368 -36.952  15.934  1.00  0.00     0.053 C 
BRANCH   8   9
ATOM      9  C   UNL     1       2.645 -35.884  15.172  1.00  0.00     0.041 C 
ATOM     10  O   UNL     1       2.957 -35.639  13.976  1.00  0.00    -0.550 OA
ATOM     11  O   UNL     1       1.653 -35.136  15.791  1.00  0.00    -0.550 OA
ENDBRANCH   8   9
ENDBRANCH   7   8
ENDBRANCH   6   7
ENDBRANCH   5   6
ENDBRANCH   4   5
ENDBRANCH   3   4
ENDBRANCH   2   3
ENDBRANCH   1   2
BRANCH   1  12
ATOM     12  C   UNL     1       5.832 -34.861  24.403  1.00  0.00     0.000 C 
BRANCH  12  13
ATOM     13  C   UNL     1       5.089 -35.781  25.386  1.00  0.00    -0.000 C 
BRANCH  13  14
ATOM     14  C   UNL     1       5.961 -36.954  25.869  1.00  0.00    -0.000 C 
BRANCH  14  15
ATOM     15  C   UNL     1       5.193 -38.285  25.907  1.00  0.00    -0.000 C 
BRANCH  15  16
ATOM     16  C   UNL     1       5.605 -39.236  24.775  1.00  0.00    -0.000 C 
BRANCH  16  17
ATOM     17  C   UNL     1       4.987 -38.802  23.439  1.00  0.00    -0.000 C 
BRANCH  17  18
ATOM     18  C   UNL     1       5.796 -39.281  22.221  1.00  0.00    -0.000 C 
BRANCH  18  19
ATOM     19  C   UNL     1       6.125 -40.789  22.250  1.00  0.00    -0.003 C 
ATOM     20  C   UNL     1       5.582 -41.479  23.501  1.00  0.00     0.004 C 
ENDBRANCH  18  19
ENDBRANCH  17  18
ENDBRANCH  16  17
ENDBRANCH  15  16
ENDBRANCH  14  15
ENDBRANCH  13  14
ENDBRANCH  12  13
ENDBRANCH   1  12
TORSDOF 16
ENDMDL
MODEL 5
REMARK VINA RESULT:    -1.358      1.140      3.855
REMARK INTER + INTRA:          -3.497
REMARK INTER:                  -2.437
REMARK INTRA:                  -1.060
REMARK UNBOUND:                -0.868
REMARK SMILES CCCCCCCCCCCCCCCCCC(=O)[O-]
REMARK SMILES IDX 10 1 11 2 12 3 13 4 14 5 15 6 16 7 17 8 18 9 19 10 20 11
REMARK SMILES IDX 9 12 8 13 7 14 6 15 5 16 4 17 3 18 2 19 1 20
REMARK H PARENT
REMARK Flexibility Score: inf
ROOT
ATOM      1  C   UNL     1       5.668 -38.631  24.008  1.00  0.00     0.000 C 
ENDROOT
BRANCH   1   2
ATOM      2  C   UNL     1       5.368 -39.709  22.955  1.00  0.00     0.000 C 
BRANCH   2   3
ATOM      3  C   UNL     1       5.870 -39.324  21.556  1.00  0.00     0.000 C 
BRANCH   3   4
ATOM      4  C   UNL     1       5.771 -37.810  21.335  1.00  0.00     0.000 C 
BRANCH   4   5
ATOM      5  C   UNL     1       5.611 -37.481  19.842  1.00  0.00     0.000 C 
BRANCH   5   6
ATOM      6  C   UNL     1       4.140 -37.320  19.417  1.00  0.00     0.000 C 
BRANCH   6   7
ATOM      7  C   UNL     1       3.910 -36.410  18.193  1.00  0.00     0.006 C 
BRANCH   7   8
ATOM      8  C   UNL     1       2.631 -36.718  17.400  1.00  0.00     0.053 C 
BRANCH   8   9
ATOM      9  C   UNL     1       2.658 -36.110  16.032  1.00  0.00     0.041 C 
ATOM     10  O   UNL     1       3.623 -36.340  15.256  1.00  0.00    -0.550 OA
ATOM     11  O   UNL     1       1.637 -35.261  15.625  1.00  0.00    -0.550 OA
ENDBRANCH   8   9
ENDBRANCH   7   8
ENDBRANCH   6   7
ENDBRANCH   5   6
ENDBRANCH   4   5
ENDBRANCH   3   4
ENDBRANCH   2   3
ENDBRANCH   1   2
BRANCH   1  12
ATOM     12  C   UNL     1       4.612 -38.588  25.127  1.00  0.00     0.000 C 
BRANCH  12  13
ATOM     13  C   UNL     1       4.513 -37.204  25.790  1.00  0.00    -0.000 C 
BRANCH  13  14
ATOM     14  C   UNL     1       5.811 -36.389  25.648  1.00  0.00    -0.000 C 
BRANCH  14  15
ATOM     15  C   UNL     1       5.633 -35.144  24.764  1.00  0.00    -0.000 C 
BRANCH  15  16
ATOM     16  C   UNL     1       6.123 -35.366  23.327  1.00  0.00    -0.000 C 
BRANCH  16  17
ATOM     17  C   UNL     1       5.269 -34.575  22.326  1.00  0.00    -0.000 C 
BRANCH  17  18
ATOM     18  C   UNL     1       6.010 -34.274  21.013  1.00  0.00    -0.000 C 
BRANCH  18  19
ATOM     19  C   UNL     1       5.103 -33.690  19.909  1.00  0.00    -0.003 C 
ATOM     20  C   UNL     1       5.805 -33.626  18.553  1.00  0.00     0.004 C 
ENDBRANCH  18  19
ENDBRANCH  17  18
ENDBRANCH  16  17
ENDBRANCH  15  16
ENDBRANCH  14  15
ENDBRANCH  13  14
ENDBRANCH  12  13
ENDBRANCH   1  12
TORSDOF 16
ENDMDL
MODEL 6
REMARK VINA RESULT:    -1.184      1.808      3.956
REMARK INTER + INTRA:          -3.160
REMARK INTER:                  -2.021
REMARK INTRA:                  -1.139
REMARK UNBOUND:                -0.868
REMARK SMILES CCCCCCCCCCCCCCCCCC(=O)[O-]
REMARK SMILES IDX 10 1 11 2 12 3 13 4 14 5 15 6 16 7 17 8 18 9 19 10 20 11
REMARK SMILES IDX 9 12 8 13 7 14 6 15 5 16 4 17 3 18 2 19 1 20
REMARK H PARENT
REMARK Flexibility Score: inf
ROOT
ATOM      1  C   UNL     1       3.371 -36.971  20.479  1.00  0.00     0.000 C 
ENDROOT
BRANCH   1   2
ATOM      2  C   UNL     1       2.745 -37.346  19.126  1.00  0.00     0.000 C 
BRANCH   2   3
ATOM      3  C   UNL     1       1.213 -37.224  19.130  1.00  0.00     0.000 C 
BRANCH   3   4
ATOM      4  C   UNL     1       0.709 -36.602  17.823  1.00  0.00     0.000 C 
BRANCH   4   5
ATOM      5  C   UNL     1       1.749 -36.756  16.703  1.00  0.00     0.000 C 
BRANCH   5   6
ATOM      6  C   UNL     1       1.866 -35.503  15.816  1.00  0.00     0.000 C 
BRANCH   6   7
ATOM      7  C   UNL     1       3.278 -35.223  15.264  1.00  0.00     0.006 C 
BRANCH   7   8
ATOM      8  C   UNL     1       3.565 -35.858  13.894  1.00  0.00     0.053 C 
BRANCH   8   9
ATOM      9  C   UNL     1       4.559 -36.974  13.989  1.00  0.00     0.041 C 
ATOM     10  O   UNL     1       5.791 -36.735  13.876  1.00  0.00    -0.550 OA
ATOM     11  O   UNL     1       4.125 -38.281  14.165  1.00  0.00    -0.550 OA
ENDBRANCH   8   9
ENDBRANCH   7   8
ENDBRANCH   6   7
ENDBRANCH   5   6
ENDBRANCH   4   5
ENDBRANCH   3   4
ENDBRANCH   2   3
ENDBRANCH   1   2
BRANCH   1  12
ATOM     12  C   UNL     1       4.867 -36.633  20.363  1.00  0.00     0.000 C 
BRANCH  12  13
ATOM     13  C   UNL     1       5.110 -35.193  19.884  1.00  0.00    -0.000 C 
BRANCH  13  14
ATOM     14  C   UNL     1       6.081 -34.424  20.798  1.00  0.00    -0.000 C 
BRANCH  14  15
ATOM     15  C   UNL     1       6.125 -34.993  22.225  1.00  0.00    -0.000 C 
BRANCH  15  16
ATOM     16  C   UNL     1       5.738 -33.954  23.287  1.00  0.00    -0.000 C 
BRANCH  16  17
ATOM     17  C   UNL     1       5.526 -34.618  24.654  1.00  0.00    -0.000 C 
BRANCH  17  18
ATOM     18  C   UNL     1       5.673 -36.148  24.607  1.00  0.00    -0.000 C 
BRANCH  18  19
ATOM     19  C   UNL     1       5.178 -36.858  25.885  1.00  0.00    -0.003 C 
ATOM     20  C   UNL     1       5.396 -38.370  25.831  1.00  0.00     0.004 C 
ENDBRANCH  18  19
ENDBRANCH  17  18
ENDBRANCH  16  17
ENDBRANCH  15  16
ENDBRANCH  14  15
ENDBRANCH  13  14
ENDBRANCH  12  13
ENDBRANCH   1  12
TORSDOF 16
ENDMDL
MODEL 7
REMARK VINA RESULT:    -1.143      2.752      6.786
REMARK INTER + INTRA:          -3.080
REMARK INTER:                  -1.869
REMARK INTRA:                  -1.211
REMARK UNBOUND:                -0.868
REMARK SMILES CCCCCCCCCCCCCCCCCC(=O)[O-]
REMARK SMILES IDX 10 1 11 2 12 3 13 4 14 5 15 6 16 7 17 8 18 9 19 10 20 11
REMARK SMILES IDX 9 12 8 13 7 14 6 15 5 16 4 17 3 18 2 19 1 20
REMARK H PARENT
REMARK Flexibility Score: inf
ROOT
ATOM      1  C   UNL     1       4.715 -34.965  21.094  1.00  0.00     0.000 C 
ENDROOT
BRANCH   1   2
ATOM      2  C   UNL     1       5.109 -34.274  22.409  1.00  0.00     0.000 C 
BRANCH   2   3
ATOM      3  C   UNL     1       6.125 -35.089  23.223  1.00  0.00     0.000 C 
BRANCH   3   4
ATOM      4  C   UNL     1       5.940 -34.852  24.727  1.00  0.00     0.000 C 
BRANCH   4   5
ATOM      5  C   UNL     1       4.949 -35.863  25.324  1.00  0.00     0.000 C 
BRANCH   5   6
ATOM      6  C   UNL     1       5.491 -37.304  25.330  1.00  0.00     0.000 C 
BRANCH   6   7
ATOM      7  C   UNL     1       4.620 -38.332  24.581  1.00  0.00     0.006 C 
BRANCH   7   8
ATOM      8  C   UNL     1       5.404 -39.489  23.943  1.00  0.00     0.053 C 
BRANCH   8   9
ATOM      9  C   UNL     1       5.776 -39.200  22.522  1.00  0.00     0.041 C 
ATOM     10  O   UNL     1       5.744 -38.018  22.088  1.00  0.00    -0.550 OA
ATOM     11  O   UNL     1       6.123 -40.237  21.666  1.00  0.00    -0.550 OA
ENDBRANCH   8   9
ENDBRANCH   7   8
ENDBRANCH   6   7
ENDBRANCH   5   6
ENDBRANCH   4   5
ENDBRANCH   3   4
ENDBRANCH   2   3
ENDBRANCH   1   2
BRANCH   1  12
ATOM     12  C   UNL     1       5.831 -34.901  20.036  1.00  0.00     0.000 C 
BRANCH  12  13
ATOM     13  C   UNL     1       5.821 -33.580  19.250  1.00  0.00    -0.000 C 
BRANCH  13  14
ATOM     14  C   UNL     1       4.906 -33.637  18.014  1.00  0.00    -0.000 C 
BRANCH  14  15
ATOM     15  C   UNL     1       4.633 -35.076  17.547  1.00  0.00    -0.000 C 
BRANCH  15  16
ATOM     16  C   UNL     1       3.585 -35.144  16.427  1.00  0.00    -0.000 C 
BRANCH  16  17
ATOM     17  C   UNL     1       2.755 -36.430  16.528  1.00  0.00    -0.000 C 
BRANCH  17  18
ATOM     18  C   UNL     1       2.879 -37.117  17.899  1.00  0.00    -0.000 C 
BRANCH  18  19
ATOM     19  C   UNL     1       1.524 -37.353  18.599  1.00  0.00    -0.003 C 
ATOM     20  C   UNL     1       0.405 -36.499  18.003  1.00  0.00     0.004 C 
ENDBRANCH  18  19
ENDBRANCH  17  18
ENDBRANCH  16  17
ENDBRANCH  15  16
ENDBRANCH  14  15
ENDBRANCH  13  14
ENDBRANCH  12  13
ENDBRANCH   1  12
TORSDOF 16
ENDMDL
MODEL 8
REMARK VINA RESULT:    -0.836      1.109      3.602
REMARK INTER + INTRA:          -2.487
REMARK INTER:                  -1.325
REMARK INTRA:                  -1.162
REMARK UNBOUND:                -0.868
REMARK SMILES CCCCCCCCCCCCCCCCCC(=O)[O-]
REMARK SMILES IDX 10 1 11 2 12 3 13 4 14 5 15 6 16 7 17 8 18 9 19 10 20 11
REMARK SMILES IDX 9 12 8 13 7 14 6 15 5 16 4 17 3 18 2 19 1 20
REMARK H PARENT
REMARK Flexibility Score: inf
ROOT
ATOM      1  C   UNL     1       4.755 -38.909  22.777  1.00  0.00     0.000 C 
ENDROOT
BRANCH   1   2
ATOM      2  C   UNL     1       5.873 -38.613  21.765  1.00  0.00     0.000 C 
BRANCH   2   3
ATOM      3  C   UNL     1       5.331 -38.127  20.412  1.00  0.00     0.000 C 
BRANCH   3   4
ATOM      4  C   UNL     1       5.583 -36.627  20.227  1.00  0.00     0.000 C 
BRANCH   4   5
ATOM      5  C   UNL     1       4.665 -36.044  19.141  1.00  0.00     0.000 C 
BRANCH   5   6
ATOM      6  C   UNL     1       3.441 -36.933  18.850  1.00  0.00     0.000 C 
BRANCH   6   7
ATOM      7  C   UNL     1       2.743 -36.663  17.502  1.00  0.00     0.006 C 
BRANCH   7   8
ATOM      8  C   UNL     1       3.531 -35.754  16.546  1.00  0.00     0.053 C 
BRANCH   8   9
ATOM      9  C   UNL     1       3.602 -36.321  15.162  1.00  0.00     0.041 C 
ATOM     10  O   UNL     1       3.340 -35.596  14.166  1.00  0.00    -0.550 OA
ATOM     11  O   UNL     1       3.922 -37.659  14.972  1.00  0.00    -0.550 OA
ENDBRANCH   8   9
ENDBRANCH   7   8
ENDBRANCH   6   7
ENDBRANCH   5   6
ENDBRANCH   4   5
ENDBRANCH   3   4
ENDBRANCH   2   3
ENDBRANCH   1   2
BRANCH   1  12
ATOM     12  C   UNL     1       5.299 -39.398  24.131  1.00  0.00     0.000 C 
BRANCH  12  13
ATOM     13  C   UNL     1       5.306 -38.290  25.197  1.00  0.00    -0.000 C 
BRANCH  13  14
ATOM     14  C   UNL     1       5.740 -36.928  24.627  1.00  0.00    -0.000 C 
BRANCH  14  15
ATOM     15  C   UNL     1       5.929 -35.864  25.720  1.00  0.00    -0.000 C 
BRANCH  15  16
ATOM     16  C   UNL     1       6.113 -34.453  25.144  1.00  0.00    -0.000 C 
BRANCH  16  17
ATOM     17  C   UNL     1       6.125 -34.482  23.609  1.00  0.00    -0.000 C 
BRANCH  17  18
ATOM     18  C   UNL     1       5.117 -33.504  22.984  1.00  0.00    -0.000 C 
BRANCH  18  19
ATOM     19  C   UNL     1       4.138 -34.171  21.994  1.00  0.00    -0.003 C 
ATOM     20  C   UNL     1       2.759 -33.512  22.007  1.00  0.00     0.004 C 
ENDBRANCH  18  19
ENDBRANCH  17  18
ENDBRANCH  16  17
ENDBRANCH  15  16
ENDBRANCH  14  15
ENDBRANCH  13  14
ENDBRANCH  12  13
ENDBRANCH   1  12
TORSDOF 16
ENDMDL
