MODEL 1
REMARK VINA RESULT:    -3.227      0.000      0.000
REMARK INTER + INTRA:          -8.302
REMARK INTER:                  -5.869
REMARK INTRA:                  -2.434
REMARK UNBOUND:                -2.434
REMARK SMILES CCCCCCCCCCCCCCCC(=O)[O-]
REMARK SMILES IDX 9 1 10 2 11 3 12 4 13 5 14 6 15 7 16 8 17 9 18 10 8 11 7 12
REMARK SMILES IDX 6 13 5 14 4 15 3 16 2 17 1 18
REMARK H PARENT
REMARK Flexibility Score: inf
ROOT
ATOM      1  C   UNL     1      63.066  32.765  58.054  1.00  0.00     0.000 C 
ENDROOT
BRANCH   1   2
ATOM      2  C   UNL     1      61.534  32.773  57.880  1.00  0.00     0.000 C 
BRANCH   2   3
ATOM      3  C   UNL     1      60.822  31.932  58.961  1.00  0.00     0.000 C 
BRANCH   3   4
ATOM      4  C   UNL     1      61.553  31.933  60.316  1.00  0.00     0.000 C 
BRANCH   4   5
ATOM      5  C   UNL     1      61.176  30.738  61.204  1.00  0.00     0.000 C 
BRANCH   5   6
ATOM      6  C   UNL     1      62.391  29.838  61.474  1.00  0.00     0.006 C 
BRANCH   6   7
ATOM      7  C   UNL     1      63.712  30.519  61.082  1.00  0.00     0.053 C 
BRANCH   7   8
ATOM      8  C   UNL     1      64.537  29.656  60.177  1.00  0.00     0.041 C 
ATOM      9  O   UNL     1      65.778  29.556  60.357  1.00  0.00    -0.550 OA
ATOM     10  O   UNL     1      63.938  28.983  59.119  1.00  0.00    -0.550 OA
ENDBRANCH   7   8
ENDBRANCH   6   7
ENDBRANCH   5   6
ENDBRANCH   4   5
ENDBRANCH   3   4
ENDBRANCH   2   3
ENDBRANCH   1   2
BRANCH   1  11
ATOM     11  C   UNL     1      63.731  34.049  57.534  1.00  0.00     0.000 C 
BRANCH  11  12
ATOM     12  C   UNL     1      64.797  34.577  58.508  1.00  0.00    -0.000 C 
BRANCH  12  13
ATOM     13  C   UNL     1      64.740  33.838  59.851  1.00  0.00    -0.000 C 
BRANCH  13  14
ATOM     14  C   UNL     1      64.139  34.700  60.974  1.00  0.00    -0.000 C 
BRANCH  14  15
ATOM     15  C   UNL     1      64.040  36.187  60.596  1.00  0.00    -0.000 C 
BRANCH  15  16
ATOM     16  C   UNL     1      62.589  36.681  60.695  1.00  0.00    -0.000 C 
BRANCH  16  17
ATOM     17  C   UNL     1      61.569  35.597  60.314  1.00  0.00    -0.003 C 
ATOM     18  C   UNL     1      60.529  36.091  59.307  1.00  0.00     0.004 C 
ENDBRANCH  16  17
ENDBRANCH  15  16
ENDBRANCH  14  15
ENDBRANCH  13  14
ENDBRANCH  12  13
ENDBRANCH  11  12
ENDBRANCH   1  11
TORSDOF 14
ENDMDL
MODEL 2
REMARK VINA RESULT:    -3.128     10.678     13.338
REMARK INTER + INTRA:          -8.123
REMARK INTER:                  -6.020
REMARK INTRA:                  -2.103
REMARK UNBOUND:                -2.434
REMARK SMILES CCCCCCCCCCCCCCCC(=O)[O-]
REMARK SMILES IDX 9 1 10 2 11 3 12 4 13 5 14 6 15 7 16 8 17 9 18 10 8 11 7 12
REMARK SMILES IDX 6 13 5 14 4 15 3 16 2 17 1 18
REMARK H PARENT
REMARK Flexibility Score: inf
ROOT
ATOM      1  C   UNL     1      54.378  29.991  50.495  1.00  0.00     0.000 C 
ENDROOT
BRANCH   1   2
ATOM      2  C   UNL     1      55.462  29.189  51.243  1.00  0.00     0.000 C 
BRANCH   2   3
ATOM      3  C   UNL     1      56.850  29.338  50.586  1.00  0.00     0.000 C 
BRANCH   3   4
ATOM      4  C   UNL     1      57.984  29.575  51.601  1.00  0.00     0.000 C 
BRANCH   4   5
ATOM      5  C   UNL     1      59.379  29.304  51.019  1.00  0.00     0.000 C 
BRANCH   5   6
ATOM      6  C   UNL     1      59.354  29.313  49.483  1.00  0.00     0.006 C 
BRANCH   6   7
ATOM      7  C   UNL     1      59.975  28.039  48.889  1.00  0.00     0.053 C 
BRANCH   7   8
ATOM      8  C   UNL     1      61.320  27.746  49.479  1.00  0.00     0.041 C 
ATOM      9  O   UNL     1      61.534  26.646  50.052  1.00  0.00    -0.550 OA
ATOM     10  O   UNL     1      62.331  28.699  49.418  1.00  0.00    -0.550 OA
ENDBRANCH   7   8
ENDBRANCH   6   7
ENDBRANCH   5   6
ENDBRANCH   4   5
ENDBRANCH   3   4
ENDBRANCH   2   3
ENDBRANCH   1   2
BRANCH   1  11
ATOM     11  C   UNL     1      53.380  29.092  49.749  1.00  0.00     0.000 C 
BRANCH  11  12
ATOM     12  C   UNL     1      53.471  27.628  50.210  1.00  0.00    -0.000 C 
BRANCH  12  13
ATOM     13  C   UNL     1      53.256  26.660  49.038  1.00  0.00    -0.000 C 
BRANCH  13  14
ATOM     14  C   UNL     1      54.520  25.852  48.701  1.00  0.00    -0.000 C 
BRANCH  14  15
ATOM     15  C   UNL     1      55.404  25.587  49.931  1.00  0.00    -0.000 C 
BRANCH  15  16
ATOM     16  C   UNL     1      56.844  26.059  49.682  1.00  0.00    -0.000 C 
BRANCH  16  17
ATOM     17  C   UNL     1      57.789  25.710  50.843  1.00  0.00    -0.003 C 
ATOM     18  C   UNL     1      57.174  25.998  52.213  1.00  0.00     0.004 C 
ENDBRANCH  16  17
ENDBRANCH  15  16
ENDBRANCH  14  15
ENDBRANCH  13  14
ENDBRANCH  12  13
ENDBRANCH  11  12
ENDBRANCH   1  11
TORSDOF 14
ENDMDL
MODEL 3
REMARK VINA RESULT:    -3.117      1.298      2.718
REMARK INTER + INTRA:          -8.101
REMARK INTER:                  -6.072
REMARK INTRA:                  -2.030
REMARK UNBOUND:                -2.434
REMARK SMILES CCCCCCCCCCCCCCCC(=O)[O-]
REMARK SMILES IDX 9 1 10 2 11 3 12 4 13 5 14 6 15 7 16 8 17 9 18 10 8 11 7 12
REMARK SMILES IDX 6 13 5 14 4 15 3 16 2 17 1 18
REMARK H PARENT
REMARK Flexibility Score: inf
ROOT
ATOM      1  C   UNL     1      61.102  35.377  60.023  1.00  0.00     0.000 C 
ENDROOT
BRANCH   1   2
ATOM      2  C   UNL     1      61.011  34.734  58.624  1.00  0.00     0.000 C 
BRANCH   2   3
ATOM      3  C   UNL     1      61.519  33.276  58.621  1.00  0.00     0.000 C 
BRANCH   3   4
ATOM      4  C   UNL     1      61.795  32.722  60.031  1.00  0.00     0.000 C 
BRANCH   4   5
ATOM      5  C   UNL     1      61.025  31.428  60.330  1.00  0.00     0.000 C 
BRANCH   5   6
ATOM      6  C   UNL     1      61.611  30.699  61.548  1.00  0.00     0.006 C 
BRANCH   6   7
ATOM      7  C   UNL     1      62.219  29.340  61.170  1.00  0.00     0.053 C 
BRANCH   7   8
ATOM      8  C   UNL     1      63.702  29.427  60.976  1.00  0.00     0.041 C 
ATOM      9  O   UNL     1      64.299  30.523  61.141  1.00  0.00    -0.550 OA
ATOM     10  O   UNL     1      64.421  28.302  60.587  1.00  0.00    -0.550 OA
ENDBRANCH   7   8
ENDBRANCH   6   7
ENDBRANCH   5   6
ENDBRANCH   4   5
ENDBRANCH   3   4
ENDBRANCH   2   3
ENDBRANCH   1   2
BRANCH   1  11
ATOM     11  C   UNL     1      61.707  36.789  59.991  1.00  0.00     0.000 C 
BRANCH  11  12
ATOM     12  C   UNL     1      62.896  36.925  60.956  1.00  0.00    -0.000 C 
BRANCH  12  13
ATOM     13  C   UNL     1      63.663  35.602  61.085  1.00  0.00    -0.000 C 
BRANCH  13  14
ATOM     14  C   UNL     1      65.186  35.806  61.140  1.00  0.00    -0.000 C 
BRANCH  14  15
ATOM     15  C   UNL     1      65.836  35.824  59.746  1.00  0.00    -0.000 C 
BRANCH  15  16
ATOM     16  C   UNL     1      65.153  34.815  58.811  1.00  0.00    -0.000 C 
BRANCH  16  17
ATOM     17  C   UNL     1      64.471  35.490  57.611  1.00  0.00    -0.003 C 
ATOM     18  C   UNL     1      64.771  36.986  57.524  1.00  0.00     0.004 C 
ENDBRANCH  16  17
ENDBRANCH  15  16
ENDBRANCH  14  15
ENDBRANCH  13  14
ENDBRANCH  12  13
ENDBRANCH  11  12
ENDBRANCH   1  11
TORSDOF 14
ENDMDL
MODEL 4
REMARK VINA RESULT:    -3.081     11.311     13.288
REMARK INTER + INTRA:          -8.036
REMARK INTER:                  -5.758
REMARK INTRA:                  -2.278
REMARK UNBOUND:                -2.434
REMARK SMILES CCCCCCCCCCCCCCCC(=O)[O-]
REMARK SMILES IDX 9 1 10 2 11 3 12 4 13 5 14 6 15 7 16 8 17 9 18 10 8 11 7 12
REMARK SMILES IDX 6 13 5 14 4 15 3 16 2 17 1 18
REMARK H PARENT
REMARK Flexibility Score: inf
ROOT
ATOM      1  C   UNL     1      56.690  25.975  50.704  1.00  0.00     0.000 C 
ENDROOT
BRANCH   1   2
ATOM      2  C   UNL     1      57.267  27.291  51.263  1.00  0.00     0.000 C 
BRANCH   2   3
ATOM      3  C   UNL     1      57.212  28.434  50.228  1.00  0.00     0.000 C 
BRANCH   3   4
ATOM      4  C   UNL     1      58.468  29.325  50.235  1.00  0.00     0.000 C 
BRANCH   4   5
ATOM      5  C   UNL     1      59.437  29.009  49.087  1.00  0.00     0.000 C 
BRANCH   5   6
ATOM      6  C   UNL     1      60.767  28.454  49.616  1.00  0.00     0.006 C 
BRANCH   6   7
ATOM      7  C   UNL     1      60.946  26.965  49.283  1.00  0.00     0.053 C 
BRANCH   7   8
ATOM      8  C   UNL     1      60.500  26.084  50.409  1.00  0.00     0.041 C 
ATOM      9  O   UNL     1      59.919  24.993  50.168  1.00  0.00    -0.550 OA
ATOM     10  O   UNL     1      60.703  26.479  51.726  1.00  0.00    -0.550 OA
ENDBRANCH   7   8
ENDBRANCH   6   7
ENDBRANCH   5   6
ENDBRANCH   4   5
ENDBRANCH   3   4
ENDBRANCH   2   3
ENDBRANCH   1   2
BRANCH   1  11
ATOM     11  C   UNL     1      55.893  26.177  49.406  1.00  0.00     0.000 C 
BRANCH  11  12
ATOM     12  C   UNL     1      54.555  25.421  49.430  1.00  0.00    -0.000 C 
BRANCH  12  13
ATOM     13  C   UNL     1      53.380  26.357  49.118  1.00  0.00    -0.000 C 
BRANCH  13  14
ATOM     14  C   UNL     1      53.727  27.837  49.350  1.00  0.00    -0.000 C 
BRANCH  14  15
ATOM     15  C   UNL     1      52.960  28.450  50.534  1.00  0.00    -0.000 C 
BRANCH  15  16
ATOM     16  C   UNL     1      53.876  28.609  51.756  1.00  0.00    -0.000 C 
BRANCH  16  17
ATOM     17  C   UNL     1      53.351  27.856  52.989  1.00  0.00    -0.003 C 
ATOM     18  C   UNL     1      53.891  26.429  53.085  1.00  0.00     0.004 C 
ENDBRANCH  16  17
ENDBRANCH  15  16
ENDBRANCH  14  15
ENDBRANCH  13  14
ENDBRANCH  12  13
ENDBRANCH  11  12
ENDBRANCH   1  11
TORSDOF 14
ENDMDL
MODEL 5
REMARK VINA RESULT:    -3.073      1.885      2.661
REMARK INTER + INTRA:          -8.021
REMARK INTER:                  -5.169
REMARK INTRA:                  -2.852
REMARK UNBOUND:                -2.434
REMARK SMILES CCCCCCCCCCCCCCCC(=O)[O-]
REMARK SMILES IDX 9 1 10 2 11 3 12 4 13 5 14 6 15 7 16 8 17 9 18 10 8 11 7 12
REMARK SMILES IDX 6 13 5 14 4 15 3 16 2 17 1 18
REMARK H PARENT
REMARK Flexibility Score: inf
ROOT
ATOM      1  C   UNL     1      61.727  31.312  57.196  1.00  0.00     0.000 C 
ENDROOT
BRANCH   1   2
ATOM      2  C   UNL     1      60.654  31.618  58.261  1.00  0.00     0.000 C 
BRANCH   2   3
ATOM      3  C   UNL     1      60.664  30.586  59.408  1.00  0.00     0.000 C 
BRANCH   3   4
ATOM      4  C   UNL     1      60.998  31.199  60.780  1.00  0.00     0.000 C 
BRANCH   4   5
ATOM      5  C   UNL     1      62.076  30.415  61.542  1.00  0.00     0.000 C 
BRANCH   5   6
ATOM      6  C   UNL     1      62.166  28.964  61.048  1.00  0.00     0.006 C 
BRANCH   6   7
ATOM      7  C   UNL     1      63.616  28.538  60.771  1.00  0.00     0.053 C 
BRANCH   7   8
ATOM      8  C   UNL     1      63.722  27.071  60.487  1.00  0.00     0.041 C 
ATOM      9  O   UNL     1      64.575  26.645  59.666  1.00  0.00    -0.550 OA
ATOM     10  O   UNL     1      62.859  26.176  61.111  1.00  0.00    -0.550 OA
ENDBRANCH   7   8
ENDBRANCH   6   7
ENDBRANCH   5   6
ENDBRANCH   4   5
ENDBRANCH   3   4
ENDBRANCH   2   3
ENDBRANCH   1   2
BRANCH   1  11
ATOM     11  C   UNL     1      62.560  30.065  57.531  1.00  0.00     0.000 C 
BRANCH  11  12
ATOM     12  C   UNL     1      64.069  30.354  57.486  1.00  0.00    -0.000 C 
BRANCH  12  13
ATOM     13  C   UNL     1      64.385  31.752  58.034  1.00  0.00    -0.000 C 
BRANCH  13  14
ATOM     14  C   UNL     1      64.829  31.722  59.506  1.00  0.00    -0.000 C 
BRANCH  14  15
ATOM     15  C   UNL     1      64.406  32.980  60.283  1.00  0.00    -0.000 C 
BRANCH  15  16
ATOM     16  C   UNL     1      63.393  33.805  59.477  1.00  0.00    -0.000 C 
BRANCH  16  17
ATOM     17  C   UNL     1      62.626  34.812  60.348  1.00  0.00    -0.003 C 
ATOM     18  C   UNL     1      61.179  35.007  59.893  1.00  0.00     0.004 C 
ENDBRANCH  16  17
ENDBRANCH  15  16
ENDBRANCH  14  15
ENDBRANCH  13  14
ENDBRANCH  12  13
ENDBRANCH  11  12
ENDBRANCH   1  11
TORSDOF 14
ENDMDL
MODEL 6
REMARK VINA RESULT:    -3.056     10.212     12.765
REMARK INTER + INTRA:          -7.990
REMARK INTER:                  -6.072
REMARK INTRA:                  -1.918
REMARK UNBOUND:                -2.434
REMARK SMILES CCCCCCCCCCCCCCCC(=O)[O-]
REMARK SMILES IDX 9 1 10 2 11 3 12 4 13 5 14 6 15 7 16 8 17 9 18 10 8 11 7 12
REMARK SMILES IDX 6 13 5 14 4 15 3 16 2 17 1 18
REMARK H PARENT
REMARK Flexibility Score: inf
ROOT
ATOM      1  C   UNL     1      59.079  25.816  49.749  1.00  0.00     0.000 C 
ENDROOT
BRANCH   1   2
ATOM      2  C   UNL     1      60.581  26.161  49.698  1.00  0.00     0.000 C 
BRANCH   2   3
ATOM      3  C   UNL     1      60.830  27.682  49.783  1.00  0.00     0.000 C 
BRANCH   3   4
ATOM      4  C   UNL     1      59.875  28.508  48.903  1.00  0.00     0.000 C 
BRANCH   4   5
ATOM      5  C   UNL     1      58.853  29.316  49.717  1.00  0.00     0.000 C 
BRANCH   5   6
ATOM      6  C   UNL     1      59.382  29.626  51.125  1.00  0.00     0.006 C 
BRANCH   6   7
ATOM      7  C   UNL     1      58.274  30.134  52.060  1.00  0.00     0.053 C 
BRANCH   7   8
ATOM      8  C   UNL     1      58.637  31.438  52.700  1.00  0.00     0.041 C 
ATOM      9  O   UNL     1      59.845  31.740  52.879  1.00  0.00    -0.550 OA
ATOM     10  O   UNL     1      57.639  32.310  53.121  1.00  0.00    -0.550 OA
ENDBRANCH   7   8
ENDBRANCH   6   7
ENDBRANCH   5   6
ENDBRANCH   4   5
ENDBRANCH   3   4
ENDBRANCH   2   3
ENDBRANCH   1   2
BRANCH   1  11
ATOM     11  C   UNL     1      58.506  25.860  51.175  1.00  0.00     0.000 C 
BRANCH  11  12
ATOM     12  C   UNL     1      57.024  26.266  51.185  1.00  0.00    -0.000 C 
BRANCH  12  13
ATOM     13  C   UNL     1      56.479  26.421  49.758  1.00  0.00    -0.000 C 
BRANCH  13  14
ATOM     14  C   UNL     1      55.119  25.729  49.568  1.00  0.00    -0.000 C 
BRANCH  14  15
ATOM     15  C   UNL     1      54.029  26.686  49.055  1.00  0.00    -0.000 C 
BRANCH  15  16
ATOM     16  C   UNL     1      53.480  27.552  50.198  1.00  0.00    -0.000 C 
BRANCH  16  17
ATOM     17  C   UNL     1      53.664  29.056  49.938  1.00  0.00    -0.003 C 
ATOM     18  C   UNL     1      54.959  29.605  50.536  1.00  0.00     0.004 C 
ENDBRANCH  16  17
ENDBRANCH  15  16
ENDBRANCH  14  15
ENDBRANCH  13  14
ENDBRANCH  12  13
ENDBRANCH  11  12
ENDBRANCH   1  11
TORSDOF 14
ENDMDL
MODEL 7
REMARK VINA RESULT:    -3.053     11.140     12.943
REMARK INTER + INTRA:          -7.984
REMARK INTER:                  -6.075
REMARK INTRA:                  -1.910
REMARK UNBOUND:                -2.434
REMARK SMILES CCCCCCCCCCCCCCCC(=O)[O-]
REMARK SMILES IDX 9 1 10 2 11 3 12 4 13 5 14 6 15 7 16 8 17 9 18 10 8 11 7 12
REMARK SMILES IDX 6 13 5 14 4 15 3 16 2 17 1 18
REMARK H PARENT
REMARK Flexibility Score: inf
ROOT
ATOM      1  C   UNL     1      57.728  27.301  51.116  1.00  0.00     0.000 C 
ENDROOT
BRANCH   1   2
ATOM      2  C   UNL     1      57.544  28.472  50.130  1.00  0.00     0.000 C 
BRANCH   2   3
ATOM      3  C   UNL     1      58.873  29.199  49.836  1.00  0.00     0.000 C 
BRANCH   3   4
ATOM      4  C   UNL     1      59.892  28.328  49.079  1.00  0.00     0.000 C 
BRANCH   4   5
ATOM      5  C   UNL     1      61.275  28.301  49.746  1.00  0.00     0.000 C 
BRANCH   5   6
ATOM      6  C   UNL     1      61.914  26.909  49.648  1.00  0.00     0.006 C 
BRANCH   6   7
ATOM      7  C   UNL     1      60.862  25.789  49.646  1.00  0.00     0.053 C 
BRANCH   7   8
ATOM      8  C   UNL     1      60.791  25.087  50.967  1.00  0.00     0.041 C 
ATOM      9  O   UNL     1      61.654  25.318  51.853  1.00  0.00    -0.550 OA
ATOM     10  O   UNL     1      59.785  24.159  51.210  1.00  0.00    -0.550 OA
ENDBRANCH   7   8
ENDBRANCH   6   7
ENDBRANCH   5   6
ENDBRANCH   4   5
ENDBRANCH   3   4
ENDBRANCH   2   3
ENDBRANCH   1   2
BRANCH   1  11
ATOM     11  C   UNL     1      56.854  26.086  50.769  1.00  0.00     0.000 C 
BRANCH  11  12
ATOM     12  C   UNL     1      56.140  26.261  49.419  1.00  0.00    -0.000 C 
BRANCH  12  13
ATOM     13  C   UNL     1      54.794  25.524  49.401  1.00  0.00    -0.000 C 
BRANCH  13  14
ATOM     14  C   UNL     1      53.602  26.468  49.632  1.00  0.00    -0.000 C 
BRANCH  14  15
ATOM     15  C   UNL     1      53.960  27.947  49.407  1.00  0.00    -0.000 C 
BRANCH  15  16
ATOM     16  C   UNL     1      53.527  28.803  50.606  1.00  0.00    -0.000 C 
BRANCH  16  17
ATOM     17  C   UNL     1      54.297  30.130  50.692  1.00  0.00    -0.003 C 
ATOM     18  C   UNL     1      55.037  30.300  52.019  1.00  0.00     0.004 C 
ENDBRANCH  16  17
ENDBRANCH  15  16
ENDBRANCH  14  15
ENDBRANCH  13  14
ENDBRANCH  12  13
ENDBRANCH  11  12
ENDBRANCH   1  11
TORSDOF 14
ENDMDL
MODEL 8
REMARK VINA RESULT:    -3.019      2.736      5.979
REMARK INTER + INTRA:          -7.923
REMARK INTER:                  -5.756
REMARK INTRA:                  -2.167
REMARK UNBOUND:                -2.434
REMARK SMILES CCCCCCCCCCCCCCCC(=O)[O-]
REMARK SMILES IDX 9 1 10 2 11 3 12 4 13 5 14 6 15 7 16 8 17 9 18 10 8 11 7 12
REMARK SMILES IDX 6 13 5 14 4 15 3 16 2 17 1 18
REMARK H PARENT
REMARK Flexibility Score: inf
ROOT
ATOM      1  C   UNL     1      64.467  33.360  60.337  1.00  0.00     0.000 C 
ENDROOT
BRANCH   1   2
ATOM      2  C   UNL     1      64.881  34.727  60.918  1.00  0.00     0.000 C 
BRANCH   2   3
ATOM      3  C   UNL     1      64.145  35.897  60.230  1.00  0.00     0.000 C 
BRANCH   3   4
ATOM      4  C   UNL     1      62.914  36.390  61.013  1.00  0.00     0.000 C 
BRANCH   4   5
ATOM      5  C   UNL     1      61.814  36.962  60.107  1.00  0.00     0.000 C 
BRANCH   5   6
ATOM      6  C   UNL     1      60.695  35.937  59.873  1.00  0.00     0.006 C 
BRANCH   6   7
ATOM      7  C   UNL     1      59.791  36.328  58.694  1.00  0.00     0.053 C 
BRANCH   7   8
ATOM      8  C   UNL     1      59.902  35.356  57.559  1.00  0.00     0.041 C 
ATOM      9  O   UNL     1      59.422  34.198  57.669  1.00  0.00    -0.550 OA
ATOM     10  O   UNL     1      60.558  35.721  56.389  1.00  0.00    -0.550 OA
ENDBRANCH   7   8
ENDBRANCH   6   7
ENDBRANCH   5   6
ENDBRANCH   4   5
ENDBRANCH   3   4
ENDBRANCH   2   3
ENDBRANCH   1   2
BRANCH   1  11
ATOM     11  C   UNL     1      63.874  33.468  58.924  1.00  0.00     0.000 C 
BRANCH  11  12
ATOM     12  C   UNL     1      62.476  32.835  58.838  1.00  0.00    -0.000 C 
BRANCH  12  13
ATOM     13  C   UNL     1      61.887  32.595  60.235  1.00  0.00    -0.000 C 
BRANCH  13  14
ATOM     14  C   UNL     1      61.071  31.295  60.316  1.00  0.00    -0.000 C 
BRANCH  14  15
ATOM     15  C   UNL     1      61.554  30.356  61.434  1.00  0.00    -0.000 C 
BRANCH  15  16
ATOM     16  C   UNL     1      63.060  30.084  61.307  1.00  0.00    -0.000 C 
BRANCH  16  17
ATOM     17  C   UNL     1      63.387  29.083  60.189  1.00  0.00    -0.003 C 
ATOM     18  C   UNL     1      64.360  29.649  59.153  1.00  0.00     0.004 C 
ENDBRANCH  16  17
ENDBRANCH  15  16
ENDBRANCH  14  15
ENDBRANCH  13  14
ENDBRANCH  12  13
ENDBRANCH  11  12
ENDBRANCH   1  11
TORSDOF 14
ENDMDL
MODEL 9
REMARK VINA RESULT:    -2.956      9.654     12.060
REMARK INTER + INTRA:          -7.808
REMARK INTER:                  -5.330
REMARK INTRA:                  -2.478
REMARK UNBOUND:                -2.434
REMARK SMILES CCCCCCCCCCCCCCCC(=O)[O-]
REMARK SMILES IDX 9 1 10 2 11 3 12 4 13 5 14 6 15 7 16 8 17 9 18 10 8 11 7 12
REMARK SMILES IDX 6 13 5 14 4 15 3 16 2 17 1 18
REMARK H PARENT
REMARK Flexibility Score: inf
ROOT
ATOM      1  C   UNL     1      59.527  28.135  53.028  1.00  0.00     0.000 C 
ENDROOT
BRANCH   1   2
ATOM      2  C   UNL     1      58.626  29.164  52.315  1.00  0.00     0.000 C 
BRANCH   2   3
ATOM      3  C   UNL     1      59.335  29.823  51.113  1.00  0.00     0.000 C 
BRANCH   3   4
ATOM      4  C   UNL     1      58.849  29.295  49.751  1.00  0.00     0.000 C 
BRANCH   4   5
ATOM      5  C   UNL     1      59.931  28.520  48.985  1.00  0.00     0.000 C 
BRANCH   5   6
ATOM      6  C   UNL     1      61.276  28.562  49.724  1.00  0.00     0.006 C 
BRANCH   6   7
ATOM      7  C   UNL     1      62.159  27.352  49.384  1.00  0.00     0.053 C 
BRANCH   7   8
ATOM      8  C   UNL     1      63.041  26.965  50.531  1.00  0.00     0.041 C 
ATOM      9  O   UNL     1      62.918  27.537  51.645  1.00  0.00    -0.550 OA
ATOM     10  O   UNL     1      64.017  25.990  50.362  1.00  0.00    -0.550 OA
ENDBRANCH   7   8
ENDBRANCH   6   7
ENDBRANCH   5   6
ENDBRANCH   4   5
ENDBRANCH   3   4
ENDBRANCH   2   3
ENDBRANCH   1   2
BRANCH   1  11
ATOM     11  C   UNL     1      58.987  26.700  52.927  1.00  0.00     0.000 C 
BRANCH  11  12
ATOM     12  C   UNL     1      59.745  25.875  51.874  1.00  0.00    -0.000 C 
BRANCH  12  13
ATOM     13  C   UNL     1      58.827  25.483  50.708  1.00  0.00    -0.000 C 
BRANCH  13  14
ATOM     14  C   UNL     1      57.360  25.869  50.957  1.00  0.00    -0.000 C 
BRANCH  14  15
ATOM     15  C   UNL     1      56.657  26.390  49.692  1.00  0.00    -0.000 C 
BRANCH  15  16
ATOM     16  C   UNL     1      55.132  26.390  49.874  1.00  0.00    -0.000 C 
BRANCH  16  17
ATOM     17  C   UNL     1      54.505  27.767  49.605  1.00  0.00    -0.003 C 
ATOM     18  C   UNL     1      55.208  28.895  50.361  1.00  0.00     0.004 C 
ENDBRANCH  16  17
ENDBRANCH  15  16
ENDBRANCH  14  15
ENDBRANCH  13  14
ENDBRANCH  12  13
ENDBRANCH  11  12
ENDBRANCH   1  11
TORSDOF 14
ENDMDL
