MODEL 1
REMARK VINA RESULT:    -4.715      0.000      0.000
REMARK INTER + INTRA:         -11.686
REMARK INTER:                  -9.124
REMARK INTRA:                  -2.562
REMARK UNBOUND:                -2.562
REMARK SMILES CCCCCCCCCCCCCCCCCC(=O)[O-]
REMARK SMILES IDX 10 1 11 2 12 3 13 4 14 5 15 6 16 7 17 8 18 9 19 10 20 11
REMARK SMILES IDX 9 12 8 13 7 14 6 15 5 16 4 17 3 18 2 19 1 20
REMARK H PARENT
REMARK Flexibility Score: inf
ROOT
ATOM      1  C   UNL     1      24.289   8.370   9.892  1.00  0.00     0.000 C 
ENDROOT
BRANCH   1   2
ATOM      2  C   UNL     1      24.541   9.633  10.723  1.00  0.00     0.000 C 
BRANCH   2   3
ATOM      3  C   UNL     1      25.085   9.278  12.113  1.00  0.00     0.000 C 
BRANCH   3   4
ATOM      4  C   UNL     1      24.022   9.516  13.196  1.00  0.00     0.000 C 
BRANCH   4   5
ATOM      5  C   UNL     1      23.398   8.207  13.704  1.00  0.00     0.000 C 
BRANCH   5   6
ATOM      6  C   UNL     1      24.361   7.012  13.584  1.00  0.00     0.000 C 
BRANCH   6   7
ATOM      7  C   UNL     1      23.712   5.792  12.904  1.00  0.00     0.006 C 
BRANCH   7   8
ATOM      8  C   UNL     1      23.637   4.540  13.794  1.00  0.00     0.053 C 
BRANCH   8   9
ATOM      9  C   UNL     1      24.787   3.612  13.555  1.00  0.00     0.041 C 
ATOM     10  O   UNL     1      24.979   2.632  14.322  1.00  0.00    -0.550 OA
ATOM     11  O   UNL     1      25.615   3.797  12.455  1.00  0.00    -0.550 OA
ENDBRANCH   8   9
ENDBRANCH   7   8
ENDBRANCH   6   7
ENDBRANCH   5   6
ENDBRANCH   4   5
ENDBRANCH   3   4
ENDBRANCH   2   3
ENDBRANCH   1   2
BRANCH   1  12
ATOM     12  C   UNL     1      22.806   7.967   9.939  1.00  0.00     0.000 C 
BRANCH  12  13
ATOM     13  C   UNL     1      21.875   9.156  10.234  1.00  0.00    -0.000 C 
BRANCH  13  14
ATOM     14  C   UNL     1      20.627   8.748  11.037  1.00  0.00    -0.000 C 
BRANCH  14  15
ATOM     15  C   UNL     1      20.585   7.238  11.326  1.00  0.00    -0.000 C 
BRANCH  15  16
ATOM     16  C   UNL     1      19.207   6.620  11.030  1.00  0.00    -0.000 C 
BRANCH  16  17
ATOM     17  C   UNL     1      19.221   5.726   9.780  1.00  0.00    -0.000 C 
BRANCH  17  18
ATOM     18  C   UNL     1      19.995   6.360   8.610  1.00  0.00    -0.000 C 
BRANCH  18  19
ATOM     19  C   UNL     1      19.066   7.034   7.589  1.00  0.00    -0.003 C 
ATOM     20  C   UNL     1      19.541   8.431   7.192  1.00  0.00     0.004 C 
ENDBRANCH  18  19
ENDBRANCH  17  18
ENDBRANCH  16  17
ENDBRANCH  15  16
ENDBRANCH  14  15
ENDBRANCH  13  14
ENDBRANCH  12  13
ENDBRANCH   1  12
TORSDOF 16
ENDMDL
MODEL 2
REMARK VINA RESULT:    -4.605      3.285      6.493
REMARK INTER + INTRA:         -11.474
REMARK INTER:                  -9.069
REMARK INTRA:                  -2.404
REMARK UNBOUND:                -2.562
REMARK SMILES CCCCCCCCCCCCCCCCCC(=O)[O-]
REMARK SMILES IDX 10 1 11 2 12 3 13 4 14 5 15 6 16 7 17 8 18 9 19 10 20 11
REMARK SMILES IDX 9 12 8 13 7 14 6 15 5 16 4 17 3 18 2 19 1 20
REMARK H PARENT
REMARK Flexibility Score: inf
ROOT
ATOM      1  C   UNL     1      22.654   8.092  10.103  1.00  0.00     0.000 C 
ENDROOT
BRANCH   1   2
ATOM      2  C   UNL     1      21.587   9.126  10.482  1.00  0.00     0.000 C 
BRANCH   2   3
ATOM      3  C   UNL     1      20.498   8.497  11.361  1.00  0.00     0.000 C 
BRANCH   3   4
ATOM      4  C   UNL     1      20.644   6.969  11.408  1.00  0.00     0.000 C 
BRANCH   4   5
ATOM      5  C   UNL     1      19.326   6.243  11.095  1.00  0.00     0.000 C 
BRANCH   5   6
ATOM      6  C   UNL     1      19.352   5.547   9.722  1.00  0.00     0.000 C 
BRANCH   6   7
ATOM      7  C   UNL     1      18.964   6.492   8.570  1.00  0.00     0.006 C 
BRANCH   7   8
ATOM      8  C   UNL     1      20.162   7.092   7.816  1.00  0.00     0.053 C 
BRANCH   8   9
ATOM      9  C   UNL     1      19.776   8.295   7.013  1.00  0.00     0.041 C 
ATOM     10  O   UNL     1      18.563   8.607   6.884  1.00  0.00    -0.550 OA
ATOM     11  O   UNL     1      20.757   9.102   6.450  1.00  0.00    -0.550 OA
ENDBRANCH   8   9
ENDBRANCH   7   8
ENDBRANCH   6   7
ENDBRANCH   5   6
ENDBRANCH   4   5
ENDBRANCH   3   4
ENDBRANCH   2   3
ENDBRANCH   1   2
BRANCH   1  12
ATOM     12  C   UNL     1      24.038   8.750   9.982  1.00  0.00     0.000 C 
BRANCH  12  13
ATOM     13  C   UNL     1      24.208   9.957  10.921  1.00  0.00    -0.000 C 
BRANCH  13  14
ATOM     14  C   UNL     1      25.051   9.627  12.165  1.00  0.00    -0.000 C 
BRANCH  14  15
ATOM     15  C   UNL     1      24.236   9.724  13.466  1.00  0.00    -0.000 C 
BRANCH  15  16
ATOM     16  C   UNL     1      23.380   8.470  13.720  1.00  0.00    -0.000 C 
BRANCH  16  17
ATOM     17  C   UNL     1      24.234   7.209  13.923  1.00  0.00    -0.000 C 
BRANCH  17  18
ATOM     18  C   UNL     1      24.046   6.181  12.793  1.00  0.00    -0.000 C 
BRANCH  18  19
ATOM     19  C   UNL     1      24.601   4.797  13.160  1.00  0.00    -0.003 C 
ATOM     20  C   UNL     1      23.708   4.046  14.147  1.00  0.00     0.004 C 
ENDBRANCH  18  19
ENDBRANCH  17  18
ENDBRANCH  16  17
ENDBRANCH  15  16
ENDBRANCH  14  15
ENDBRANCH  13  14
ENDBRANCH  12  13
ENDBRANCH   1  12
TORSDOF 16
ENDMDL
MODEL 3
REMARK VINA RESULT:    -4.537      2.340      3.256
REMARK INTER + INTRA:         -11.342
REMARK INTER:                  -9.115
REMARK INTRA:                  -2.227
REMARK UNBOUND:                -2.562
REMARK SMILES CCCCCCCCCCCCCCCCCC(=O)[O-]
REMARK SMILES IDX 10 1 11 2 12 3 13 4 14 5 15 6 16 7 17 8 18 9 19 10 20 11
REMARK SMILES IDX 9 12 8 13 7 14 6 15 5 16 4 17 3 18 2 19 1 20
REMARK H PARENT
REMARK Flexibility Score: inf
ROOT
ATOM      1  C   UNL     1      22.682   8.093  10.083  1.00  0.00     0.000 C 
ENDROOT
BRANCH   1   2
ATOM      2  C   UNL     1      23.877   8.844   9.484  1.00  0.00     0.000 C 
BRANCH   2   3
ATOM      3  C   UNL     1      25.187   8.088   9.736  1.00  0.00     0.000 C 
BRANCH   3   4
ATOM      4  C   UNL     1      24.913   6.686  10.301  1.00  0.00     0.000 C 
BRANCH   4   5
ATOM      5  C   UNL     1      25.834   6.339  11.481  1.00  0.00     0.000 C 
BRANCH   5   6
ATOM      6  C   UNL     1      25.050   5.850  12.713  1.00  0.00     0.000 C 
BRANCH   6   7
ATOM      7  C   UNL     1      23.886   6.788  13.086  1.00  0.00     0.006 C 
BRANCH   7   8
ATOM      8  C   UNL     1      24.166   7.686  14.302  1.00  0.00     0.053 C 
BRANCH   8   9
ATOM      9  C   UNL     1      24.082   9.141  13.958  1.00  0.00     0.041 C 
ATOM     10  O   UNL     1      24.461   9.546  12.828  1.00  0.00    -0.550 OA
ATOM     11  O   UNL     1      23.535  10.041  14.863  1.00  0.00    -0.550 OA
ENDBRANCH   8   9
ENDBRANCH   7   8
ENDBRANCH   6   7
ENDBRANCH   5   6
ENDBRANCH   4   5
ENDBRANCH   3   4
ENDBRANCH   2   3
ENDBRANCH   1   2
BRANCH   1  12
ATOM     12  C   UNL     1      21.674   9.071  10.707  1.00  0.00     0.000 C 
BRANCH  12  13
ATOM     13  C   UNL     1      20.734   8.394  11.719  1.00  0.00    -0.000 C 
BRANCH  13  14
ATOM     14  C   UNL     1      19.445   7.861  11.068  1.00  0.00    -0.000 C 
BRANCH  14  15
ATOM     15  C   UNL     1      19.367   6.326  11.097  1.00  0.00    -0.000 C 
BRANCH  15  16
ATOM     16  C   UNL     1      19.333   5.711   9.686  1.00  0.00    -0.000 C 
BRANCH  16  17
ATOM     17  C   UNL     1      19.934   6.646   8.625  1.00  0.00    -0.000 C 
BRANCH  17  18
ATOM     18  C   UNL     1      18.950   6.951   7.482  1.00  0.00    -0.000 C 
BRANCH  18  19
ATOM     19  C   UNL     1      19.141   8.362   6.904  1.00  0.00    -0.003 C 
ATOM     20  C   UNL     1      20.597   8.826   6.952  1.00  0.00     0.004 C 
ENDBRANCH  18  19
ENDBRANCH  17  18
ENDBRANCH  16  17
ENDBRANCH  15  16
ENDBRANCH  14  15
ENDBRANCH  13  14
ENDBRANCH  12  13
ENDBRANCH   1  12
TORSDOF 16
ENDMDL
MODEL 4
REMARK VINA RESULT:    -4.493      2.585      3.374
REMARK INTER + INTRA:         -11.258
REMARK INTER:                  -8.838
REMARK INTRA:                  -2.420
REMARK UNBOUND:                -2.562
REMARK SMILES CCCCCCCCCCCCCCCCCC(=O)[O-]
REMARK SMILES IDX 10 1 11 2 12 3 13 4 14 5 15 6 16 7 17 8 18 9 19 10 20 11
REMARK SMILES IDX 9 12 8 13 7 14 6 15 5 16 4 17 3 18 2 19 1 20
REMARK H PARENT
REMARK Flexibility Score: inf
ROOT
ATOM      1  C   UNL     1      23.938   8.929   9.677  1.00  0.00     0.000 C 
ENDROOT
BRANCH   1   2
ATOM      2  C   UNL     1      25.060   7.905   9.469  1.00  0.00     0.000 C 
BRANCH   2   3
ATOM      3  C   UNL     1      25.786   7.606  10.787  1.00  0.00     0.000 C 
BRANCH   3   4
ATOM      4  C   UNL     1      25.414   6.213  11.315  1.00  0.00     0.000 C 
BRANCH   4   5
ATOM      5  C   UNL     1      25.228   6.193  12.840  1.00  0.00     0.000 C 
BRANCH   5   6
ATOM      6  C   UNL     1      23.863   6.757  13.273  1.00  0.00     0.000 C 
BRANCH   6   7
ATOM      7  C   UNL     1      23.990   7.882  14.317  1.00  0.00     0.006 C 
BRANCH   7   8
ATOM      8  C   UNL     1      23.532   9.262  13.815  1.00  0.00     0.053 C 
BRANCH   8   9
ATOM      9  C   UNL     1      24.688  10.172  13.541  1.00  0.00     0.041 C 
ATOM     10  O   UNL     1      24.795  10.739  12.422  1.00  0.00    -0.550 OA
ATOM     11  O   UNL     1      25.619  10.437  14.538  1.00  0.00    -0.550 OA
ENDBRANCH   8   9
ENDBRANCH   7   8
ENDBRANCH   6   7
ENDBRANCH   5   6
ENDBRANCH   4   5
ENDBRANCH   3   4
ENDBRANCH   2   3
ENDBRANCH   1   2
BRANCH   1  12
ATOM     12  C   UNL     1      22.622   8.232  10.060  1.00  0.00     0.000 C 
BRANCH  12  13
ATOM     13  C   UNL     1      21.657   9.157  10.820  1.00  0.00    -0.000 C 
BRANCH  13  14
ATOM     14  C   UNL     1      20.647   8.381  11.684  1.00  0.00    -0.000 C 
BRANCH  14  15
ATOM     15  C   UNL     1      20.632   6.878  11.358  1.00  0.00    -0.000 C 
BRANCH  15  16
ATOM     16  C   UNL     1      19.235   6.378  10.949  1.00  0.00    -0.000 C 
BRANCH  16  17
ATOM     17  C   UNL     1      19.233   5.712   9.565  1.00  0.00    -0.000 C 
BRANCH  17  18
ATOM     18  C   UNL     1      20.029   6.516   8.522  1.00  0.00    -0.000 C 
BRANCH  18  19
ATOM     19  C   UNL     1      19.358   7.855   8.176  1.00  0.00    -0.003 C 
ATOM     20  C   UNL     1      19.363   8.146   6.676  1.00  0.00     0.004 C 
ENDBRANCH  18  19
ENDBRANCH  17  18
ENDBRANCH  16  17
ENDBRANCH  15  16
ENDBRANCH  14  15
ENDBRANCH  13  14
ENDBRANCH  12  13
ENDBRANCH   1  12
TORSDOF 16
ENDMDL
MODEL 5
REMARK VINA RESULT:    -4.474      1.125      2.049
REMARK INTER + INTRA:         -11.221
REMARK INTER:                  -8.759
REMARK INTRA:                  -2.461
REMARK UNBOUND:                -2.562
REMARK SMILES CCCCCCCCCCCCCCCCCC(=O)[O-]
REMARK SMILES IDX 10 1 11 2 12 3 13 4 14 5 15 6 16 7 17 8 18 9 19 10 20 11
REMARK SMILES IDX 9 12 8 13 7 14 6 15 5 16 4 17 3 18 2 19 1 20
REMARK H PARENT
REMARK Flexibility Score: inf
ROOT
ATOM      1  C   UNL     1      25.727  10.030  11.397  1.00  0.00     0.000 C 
ENDROOT
BRANCH   1   2
ATOM      2  C   UNL     1      25.799   9.778  12.907  1.00  0.00     0.000 C 
BRANCH   2   3
ATOM      3  C   UNL     1      24.474  10.139  13.591  1.00  0.00     0.000 C 
BRANCH   3   4
ATOM      4  C   UNL     1      23.805   8.891  14.185  1.00  0.00     0.000 C 
BRANCH   4   5
ATOM      5  C   UNL     1      22.747   8.290  13.247  1.00  0.00     0.000 C 
BRANCH   5   6
ATOM      6  C   UNL     1      23.085   6.847  12.829  1.00  0.00     0.000 C 
BRANCH   6   7
ATOM      7  C   UNL     1      24.409   6.348  13.439  1.00  0.00     0.006 C 
BRANCH   7   8
ATOM      8  C   UNL     1      24.886   4.995  12.886  1.00  0.00     0.053 C 
BRANCH   8   9
ATOM      9  C   UNL     1      24.440   3.849  13.742  1.00  0.00     0.041 C 
ATOM     10  O   UNL     1      23.864   4.066  14.839  1.00  0.00    -0.550 OA
ATOM     11  O   UNL     1      24.612   2.543  13.302  1.00  0.00    -0.550 OA
ENDBRANCH   8   9
ENDBRANCH   7   8
ENDBRANCH   6   7
ENDBRANCH   5   6
ENDBRANCH   4   5
ENDBRANCH   3   4
ENDBRANCH   2   3
ENDBRANCH   1   2
BRANCH   1  12
ATOM     12  C   UNL     1      25.826   8.711  10.614  1.00  0.00     0.000 C 
BRANCH  12  13
ATOM     13  C   UNL     1      24.496   8.307   9.956  1.00  0.00    -0.000 C 
BRANCH  13  14
ATOM     14  C   UNL     1      23.467   9.452   9.945  1.00  0.00    -0.000 C 
BRANCH  14  15
ATOM     15  C   UNL     1      22.148   9.045   9.267  1.00  0.00    -0.000 C 
BRANCH  15  16
ATOM     16  C   UNL     1      20.980   8.943  10.264  1.00  0.00    -0.000 C 
BRANCH  16  17
ATOM     17  C   UNL     1      20.170   7.649  10.088  1.00  0.00    -0.000 C 
BRANCH  17  18
ATOM     18  C   UNL     1      20.526   6.903   8.790  1.00  0.00    -0.000 C 
BRANCH  18  19
ATOM     19  C   UNL     1      19.385   6.938   7.761  1.00  0.00    -0.003 C 
ATOM     20  C   UNL     1      19.314   8.265   7.007  1.00  0.00     0.004 C 
ENDBRANCH  18  19
ENDBRANCH  17  18
ENDBRANCH  16  17
ENDBRANCH  15  16
ENDBRANCH  14  15
ENDBRANCH  13  14
ENDBRANCH  12  13
ENDBRANCH   1  12
TORSDOF 16
ENDMDL
MODEL 6
REMARK VINA RESULT:    -4.398      3.443      6.407
REMARK INTER + INTRA:         -11.074
REMARK INTER:                  -8.641
REMARK INTRA:                  -2.432
REMARK UNBOUND:                -2.562
REMARK SMILES CCCCCCCCCCCCCCCCCC(=O)[O-]
REMARK SMILES IDX 10 1 11 2 12 3 13 4 14 5 15 6 16 7 17 8 18 9 19 10 20 11
REMARK SMILES IDX 9 12 8 13 7 14 6 15 5 16 4 17 3 18 2 19 1 20
REMARK H PARENT
REMARK Flexibility Score: inf
ROOT
ATOM      1  C   UNL     1      23.657   6.262  12.916  1.00  0.00     0.000 C 
ENDROOT
BRANCH   1   2
ATOM      2  C   UNL     1      22.632   7.402  12.872  1.00  0.00     0.000 C 
BRANCH   2   3
ATOM      3  C   UNL     1      21.655   7.220  11.704  1.00  0.00     0.000 C 
BRANCH   3   4
ATOM      4  C   UNL     1      20.581   8.319  11.709  1.00  0.00     0.000 C 
BRANCH   4   5
ATOM      5  C   UNL     1      19.272   7.864  11.046  1.00  0.00     0.000 C 
BRANCH   5   6
ATOM      6  C   UNL     1      19.384   6.458  10.430  1.00  0.00     0.000 C 
BRANCH   6   7
ATOM      7  C   UNL     1      19.279   6.473   8.893  1.00  0.00     0.006 C 
BRANCH   7   8
ATOM      8  C   UNL     1      20.399   7.261   8.193  1.00  0.00     0.053 C 
BRANCH   8   9
ATOM      9  C   UNL     1      19.860   8.226   7.183  1.00  0.00     0.041 C 
ATOM     10  O   UNL     1      18.618   8.319   6.996  1.00  0.00    -0.550 OA
ATOM     11  O   UNL     1      20.724   9.060   6.485  1.00  0.00    -0.550 OA
ENDBRANCH   8   9
ENDBRANCH   7   8
ENDBRANCH   6   7
ENDBRANCH   5   6
ENDBRANCH   4   5
ENDBRANCH   3   4
ENDBRANCH   2   3
ENDBRANCH   1   2
BRANCH   1  12
ATOM     12  C   UNL     1      24.769   6.562  13.932  1.00  0.00     0.000 C 
BRANCH  12  13
ATOM     13  C   UNL     1      24.692   7.991  14.497  1.00  0.00    -0.000 C 
BRANCH  13  14
ATOM     14  C   UNL     1      26.051   8.713  14.475  1.00  0.00    -0.000 C 
BRANCH  14  15
ATOM     15  C   UNL     1      26.099   9.836  13.425  1.00  0.00    -0.000 C 
BRANCH  15  16
ATOM     16  C   UNL     1      24.711  10.159  12.844  1.00  0.00    -0.000 C 
BRANCH  16  17
ATOM     17  C   UNL     1      24.738  10.314  11.315  1.00  0.00    -0.000 C 
BRANCH  17  18
ATOM     18  C   UNL     1      25.069   8.996  10.594  1.00  0.00    -0.000 C 
BRANCH  18  19
ATOM     19  C   UNL     1      24.030   8.637   9.520  1.00  0.00    -0.003 C 
ATOM     20  C   UNL     1      22.955   9.711   9.358  1.00  0.00     0.004 C 
ENDBRANCH  18  19
ENDBRANCH  17  18
ENDBRANCH  16  17
ENDBRANCH  15  16
ENDBRANCH  14  15
ENDBRANCH  13  14
ENDBRANCH  12  13
ENDBRANCH   1  12
TORSDOF 16
ENDMDL
MODEL 7
REMARK VINA RESULT:    -4.391      2.685      5.103
REMARK INTER + INTRA:         -11.059
REMARK INTER:                  -8.690
REMARK INTRA:                  -2.369
REMARK UNBOUND:                -2.562
REMARK SMILES CCCCCCCCCCCCCCCCCC(=O)[O-]
REMARK SMILES IDX 10 1 11 2 12 3 13 4 14 5 15 6 16 7 17 8 18 9 19 10 20 11
REMARK SMILES IDX 9 12 8 13 7 14 6 15 5 16 4 17 3 18 2 19 1 20
REMARK H PARENT
REMARK Flexibility Score: inf
ROOT
ATOM      1  C   UNL     1      20.177   8.556   7.200  1.00  0.00     0.000 C 
ENDROOT
BRANCH   1   2
ATOM      2  C   UNL     1      20.831   9.096   8.478  1.00  0.00     0.000 C 
BRANCH   2   3
ATOM      3  C   UNL     1      22.285   9.510   8.220  1.00  0.00     0.000 C 
BRANCH   3   4
ATOM      4  C   UNL     1      23.089   9.534   9.528  1.00  0.00     0.000 C 
BRANCH   4   5
ATOM      5  C   UNL     1      24.126   8.402   9.601  1.00  0.00     0.000 C 
BRANCH   5   6
ATOM      6  C   UNL     1      25.375   8.801  10.408  1.00  0.00     0.000 C 
BRANCH   6   7
ATOM      7  C   UNL     1      25.142  10.044  11.287  1.00  0.00     0.006 C 
BRANCH   7   8
ATOM      8  C   UNL     1      25.528   9.853  12.763  1.00  0.00     0.053 C 
BRANCH   8   9
ATOM      9  C   UNL     1      24.794  10.799  13.662  1.00  0.00     0.041 C 
ATOM     10  O   UNL     1      24.133  10.360  14.639  1.00  0.00    -0.550 OA
ATOM     11  O   UNL     1      24.885  12.170  13.454  1.00  0.00    -0.550 OA
ENDBRANCH   8   9
ENDBRANCH   7   8
ENDBRANCH   6   7
ENDBRANCH   5   6
ENDBRANCH   4   5
ENDBRANCH   3   4
ENDBRANCH   2   3
ENDBRANCH   1   2
BRANCH   1  12
ATOM     12  C   UNL     1      19.432   7.241   7.479  1.00  0.00     0.000 C 
BRANCH  12  13
ATOM     13  C   UNL     1      20.059   6.431   8.626  1.00  0.00    -0.000 C 
BRANCH  13  14
ATOM     14  C   UNL     1      19.006   5.752   9.519  1.00  0.00    -0.000 C 
BRANCH  14  15
ATOM     15  C   UNL     1      19.118   6.188  10.990  1.00  0.00    -0.000 C 
BRANCH  15  16
ATOM     16  C   UNL     1      19.063   7.717  11.156  1.00  0.00    -0.000 C 
BRANCH  16  17
ATOM     17  C   UNL     1      20.359   8.289  11.751  1.00  0.00    -0.000 C 
BRANCH  17  18
ATOM     18  C   UNL     1      21.482   7.239  11.836  1.00  0.00    -0.000 C 
BRANCH  18  19
ATOM     19  C   UNL     1      22.566   7.621  12.856  1.00  0.00    -0.003 C 
ATOM     20  C   UNL     1      23.683   6.582  12.945  1.00  0.00     0.004 C 
ENDBRANCH  18  19
ENDBRANCH  17  18
ENDBRANCH  16  17
ENDBRANCH  15  16
ENDBRANCH  14  15
ENDBRANCH  13  14
ENDBRANCH  12  13
ENDBRANCH   1  12
TORSDOF 16
ENDMDL
MODEL 8
REMARK VINA RESULT:    -4.377      1.412      2.206
REMARK INTER + INTRA:         -11.032
REMARK INTER:                  -9.160
REMARK INTRA:                  -1.872
REMARK UNBOUND:                -2.562
REMARK SMILES CCCCCCCCCCCCCCCCCC(=O)[O-]
REMARK SMILES IDX 10 1 11 2 12 3 13 4 14 5 15 6 16 7 17 8 18 9 19 10 20 11
REMARK SMILES IDX 9 12 8 13 7 14 6 15 5 16 4 17 3 18 2 19 1 20
REMARK H PARENT
REMARK Flexibility Score: inf
ROOT
ATOM      1  C   UNL     1      22.337   9.381  10.373  1.00  0.00     0.000 C 
ENDROOT
BRANCH   1   2
ATOM      2  C   UNL     1      23.475   9.087   9.390  1.00  0.00     0.000 C 
BRANCH   2   3
ATOM      3  C   UNL     1      24.685   8.480  10.112  1.00  0.00     0.000 C 
BRANCH   3   4
ATOM      4  C   UNL     1      25.146   7.188   9.422  1.00  0.00     0.000 C 
BRANCH   4   5
ATOM      5  C   UNL     1      25.749   6.177  10.410  1.00  0.00     0.000 C 
BRANCH   5   6
ATOM      6  C   UNL     1      25.224   6.374  11.844  1.00  0.00     0.000 C 
BRANCH   6   7
ATOM      7  C   UNL     1      25.896   5.428  12.857  1.00  0.00     0.006 C 
BRANCH   7   8
ATOM      8  C   UNL     1      25.567   3.941  12.646  1.00  0.00     0.053 C 
BRANCH   8   9
ATOM      9  C   UNL     1      24.644   3.415  13.700  1.00  0.00     0.041 C 
ATOM     10  O   UNL     1      24.960   2.396  14.367  1.00  0.00    -0.550 OA
ATOM     11  O   UNL     1      23.457   4.081  13.983  1.00  0.00    -0.550 OA
ENDBRANCH   8   9
ENDBRANCH   7   8
ENDBRANCH   6   7
ENDBRANCH   5   6
ENDBRANCH   4   5
ENDBRANCH   3   4
ENDBRANCH   2   3
ENDBRANCH   1   2
BRANCH   1  12
ATOM     12  C   UNL     1      22.428   8.469  11.608  1.00  0.00     0.000 C 
BRANCH  12  13
ATOM     13  C   UNL     1      21.048   8.105  12.183  1.00  0.00    -0.000 C 
BRANCH  13  14
ATOM     14  C   UNL     1      19.928   8.177  11.130  1.00  0.00    -0.000 C 
BRANCH  14  15
ATOM     15  C   UNL     1      19.093   6.887  11.075  1.00  0.00    -0.000 C 
BRANCH  15  16
ATOM     16  C   UNL     1      19.596   5.905  10.002  1.00  0.00    -0.000 C 
BRANCH  16  17
ATOM     17  C   UNL     1      20.151   6.625   8.763  1.00  0.00    -0.000 C 
BRANCH  17  18
ATOM     18  C   UNL     1      19.087   6.817   7.667  1.00  0.00    -0.000 C 
BRANCH  18  19
ATOM     19  C   UNL     1      19.104   8.234   7.074  1.00  0.00    -0.003 C 
ATOM     20  C   UNL     1      20.504   8.847   7.052  1.00  0.00     0.004 C 
ENDBRANCH  18  19
ENDBRANCH  17  18
ENDBRANCH  16  17
ENDBRANCH  15  16
ENDBRANCH  14  15
ENDBRANCH  13  14
ENDBRANCH  12  13
ENDBRANCH   1  12
TORSDOF 16
ENDMDL
MODEL 9
REMARK VINA RESULT:    -4.342      3.228      6.635
REMARK INTER + INTRA:         -10.965
REMARK INTER:                  -9.205
REMARK INTRA:                  -1.760
REMARK UNBOUND:                -2.562
REMARK SMILES CCCCCCCCCCCCCCCCCC(=O)[O-]
REMARK SMILES IDX 10 1 11 2 12 3 13 4 14 5 15 6 16 7 17 8 18 9 19 10 20 11
REMARK SMILES IDX 9 12 8 13 7 14 6 15 5 16 4 17 3 18 2 19 1 20
REMARK H PARENT
REMARK Flexibility Score: inf
ROOT
ATOM      1  C   UNL     1      22.773   8.168  10.131  1.00  0.00     0.000 C 
ENDROOT
BRANCH   1   2
ATOM      2  C   UNL     1      22.580   7.689  11.574  1.00  0.00     0.000 C 
BRANCH   2   3
ATOM      3  C   UNL     1      21.224   8.145  12.130  1.00  0.00     0.000 C 
BRANCH   3   4
ATOM      4  C   UNL     1      20.147   8.124  11.037  1.00  0.00     0.000 C 
BRANCH   4   5
ATOM      5  C   UNL     1      19.047   7.087  11.315  1.00  0.00     0.000 C 
BRANCH   5   6
ATOM      6  C   UNL     1      19.098   5.900  10.335  1.00  0.00     0.000 C 
BRANCH   6   7
ATOM      7  C   UNL     1      19.910   6.214   9.065  1.00  0.00     0.006 C 
BRANCH   7   8
ATOM      8  C   UNL     1      19.055   6.629   7.857  1.00  0.00     0.053 C 
BRANCH   8   9
ATOM      9  C   UNL     1      19.416   7.992   7.354  1.00  0.00     0.041 C 
ATOM     10  O   UNL     1      18.545   8.715   6.804  1.00  0.00    -0.550 OA
ATOM     11  O   UNL     1      20.701   8.487   7.542  1.00  0.00    -0.550 OA
ENDBRANCH   8   9
ENDBRANCH   7   8
ENDBRANCH   6   7
ENDBRANCH   5   6
ENDBRANCH   4   5
ENDBRANCH   3   4
ENDBRANCH   2   3
ENDBRANCH   1   2
BRANCH   1  12
ATOM     12  C   UNL     1      23.951   9.149  10.030  1.00  0.00     0.000 C 
BRANCH  12  13
ATOM     13  C   UNL     1      25.312   8.473  10.267  1.00  0.00    -0.000 C 
BRANCH  13  14
ATOM     14  C   UNL     1      25.534   7.251   9.358  1.00  0.00    -0.000 C 
BRANCH  14  15
ATOM     15  C   UNL     1      25.784   5.963  10.160  1.00  0.00    -0.000 C 
BRANCH  15  16
ATOM     16  C   UNL     1      25.829   6.213  11.678  1.00  0.00    -0.000 C 
BRANCH  16  17
ATOM     17  C   UNL     1      25.491   4.953  12.491  1.00  0.00    -0.000 C 
BRANCH  17  18
ATOM     18  C   UNL     1      24.282   5.157  13.420  1.00  0.00    -0.000 C 
BRANCH  18  19
ATOM     19  C   UNL     1      23.854   3.859  14.121  1.00  0.00    -0.003 C 
ATOM     20  C   UNL     1      24.614   2.635  13.608  1.00  0.00     0.004 C 
ENDBRANCH  18  19
ENDBRANCH  17  18
ENDBRANCH  16  17
ENDBRANCH  15  16
ENDBRANCH  14  15
ENDBRANCH  13  14
ENDBRANCH  12  13
ENDBRANCH   1  12
TORSDOF 16
ENDMDL
