MODEL 1
REMARK VINA RESULT:    -6.542      0.000      0.000
REMARK INTER + INTRA:          -8.096
REMARK INTER:                  -7.880
REMARK INTRA:                  -0.216
REMARK UNBOUND:                -0.216
REMARK SMILES O=c1c(O)c(-c2ccc(O)c(O)c2)oc2cc(O)cc(O)c12
REMARK SMILES IDX 5 1 3 2 2 3 1 4 22 5 20 6 19 7 17 8 16 9 15 10 14 11 6 12
REMARK SMILES IDX 7 13 8 14 9 15 13 16 11 17 10 18 12 20 4 22 21 24 18 26
REMARK H PARENT 10 19 12 21 4 23 21 25 18 27
REMARK Flexibility Score: inf
ROOT
ATOM      1  C   UNL     1     -27.325   9.390 -23.387  1.00  0.00     0.180 A 
ATOM      2  C   UNL     1     -26.848   8.094 -23.656  1.00  0.00     0.208 A 
ATOM      3  C   UNL     1     -26.912   7.122 -22.646  1.00  0.00     0.238 A 
ATOM      4  O   UNL     1     -26.434   5.981 -22.874  1.00  0.00    -0.285 OA
ATOM      5  C   UNL     1     -27.467   7.451 -21.385  1.00  0.00     0.111 A 
ATOM      6  C   UNL     1     -27.619   6.533 -20.302  1.00  0.00     0.134 A 
ATOM      7  C   UNL     1     -28.061   7.001 -19.058  1.00  0.00     0.093 A 
ATOM      8  C   UNL     1     -28.417   8.336 -18.876  1.00  0.00     0.123 A 
ATOM      9  C   UNL     1     -28.329   9.229 -19.945  1.00  0.00     0.094 A 
ATOM     10  C   UNL     1     -27.858   8.801 -21.188  1.00  0.00     0.146 A 
ATOM     11  O   UNL     1     -27.779   9.685 -22.175  1.00  0.00    -0.452 OA
ENDROOT
BRANCH   1  12
ATOM     12  C   UNL     1     -27.313  10.461 -24.410  1.00  0.00     0.025 A 
ATOM     13  C   UNL     1     -28.125  10.389 -25.555  1.00  0.00     0.016 A 
ATOM     14  C   UNL     1     -28.116  11.424 -26.494  1.00  0.00     0.051 A 
ATOM     15  C   UNL     1     -27.307  12.550 -26.296  1.00  0.00     0.157 A 
ATOM     16  C   UNL     1     -26.520  11.602 -24.206  1.00  0.00     0.062 A 
ATOM     17  C   UNL     1     -26.507  12.640 -25.145  1.00  0.00     0.158 A 
BRANCH  15  18
ATOM     18  O   UNL     1     -27.299  13.580 -27.236  1.00  0.00    -0.504 OA
ATOM     19  H   UNL     1     -26.453  14.095 -27.451  1.00  0.00     0.293 HD
ENDBRANCH  15  18
BRANCH  17  20
ATOM     20  O   UNL     1     -25.696  13.751 -24.915  1.00  0.00    -0.504 OA
ATOM     21  H   UNL     1     -25.764  14.591 -25.476  1.00  0.00     0.293 HD
ENDBRANCH  17  20
ENDBRANCH   1  12
BRANCH   2  22
ATOM     22  O   UNL     1     -26.284   7.798 -24.900  1.00  0.00    -0.502 OA
ATOM     23  H   UNL     1     -25.573   8.379 -25.327  1.00  0.00     0.293 HD
ENDBRANCH   2  22
BRANCH   6  24
ATOM     24  O   UNL     1     -27.379   5.160 -20.404  1.00  0.00    -0.507 OA
ATOM     25  H   UNL     1     -26.518   4.706 -20.141  1.00  0.00     0.293 HD
ENDBRANCH   6  24
BRANCH   8  26
ATOM     26  O   UNL     1     -28.868   8.763 -17.629  1.00  0.00    -0.508 OA
ATOM     27  H   UNL     1     -28.309   9.373 -17.044  1.00  0.00     0.293 HD
ENDBRANCH   8  26
TORSDOF 6
ENDMDL
MODEL 2
REMARK VINA RESULT:    -6.496     17.207     19.857
REMARK INTER + INTRA:          -8.041
REMARK INTER:                  -7.868
REMARK INTRA:                  -0.173
REMARK UNBOUND:                -0.216
REMARK SMILES O=c1c(O)c(-c2ccc(O)c(O)c2)oc2cc(O)cc(O)c12
REMARK SMILES IDX 5 1 3 2 2 3 1 4 22 5 20 6 19 7 17 8 16 9 15 10 14 11 6 12
REMARK SMILES IDX 7 13 8 14 9 15 13 16 11 17 10 18 12 20 4 22 21 24 18 26
REMARK H PARENT 10 19 12 21 4 23 21 25 18 27
REMARK Flexibility Score: inf
ROOT
ATOM      1  C   UNL     1     -13.803   2.160 -11.679  1.00  0.00     0.180 A 
ATOM      2  C   UNL     1     -13.236   1.405 -10.636  1.00  0.00     0.208 A 
ATOM      3  C   UNL     1     -11.867   1.098 -10.685  1.00  0.00     0.238 A 
ATOM      4  O   UNL     1     -11.377   0.377  -9.777  1.00  0.00    -0.285 OA
ATOM      5  C   UNL     1     -11.079   1.562 -11.765  1.00  0.00     0.111 A 
ATOM      6  C   UNL     1      -9.674   1.343 -11.896  1.00  0.00     0.134 A 
ATOM      7  C   UNL     1      -9.021   1.734 -13.071  1.00  0.00     0.093 A 
ATOM      8  C   UNL     1      -9.706   2.393 -14.091  1.00  0.00     0.123 A 
ATOM      9  C   UNL     1     -11.067   2.665 -13.947  1.00  0.00     0.094 A 
ATOM     10  C   UNL     1     -11.754   2.255 -12.803  1.00  0.00     0.146 A 
ATOM     11  O   UNL     1     -13.051   2.524 -12.711  1.00  0.00    -0.452 OA
ENDROOT
BRANCH   1  12
ATOM     12  C   UNL     1     -15.233   2.545 -11.685  1.00  0.00     0.025 A 
ATOM     13  C   UNL     1     -15.772   3.374 -10.687  1.00  0.00     0.016 A 
ATOM     14  C   UNL     1     -17.119   3.744 -10.727  1.00  0.00     0.051 A 
ATOM     15  C   UNL     1     -17.942   3.303 -11.771  1.00  0.00     0.157 A 
ATOM     16  C   UNL     1     -16.058   2.123 -12.741  1.00  0.00     0.062 A 
ATOM     17  C   UNL     1     -17.407   2.490 -12.783  1.00  0.00     0.158 A 
BRANCH  15  18
ATOM     18  O   UNL     1     -19.286   3.673 -11.807  1.00  0.00    -0.504 OA
ATOM     19  H   UNL     1     -19.583   4.557 -12.204  1.00  0.00     0.293 HD
ENDBRANCH  15  18
BRANCH  17  20
ATOM     20  O   UNL     1     -18.198   2.040 -13.840  1.00  0.00    -0.504 OA
ATOM     21  H   UNL     1     -19.075   1.555 -13.687  1.00  0.00     0.293 HD
ENDBRANCH  17  20
ENDBRANCH   1  12
BRANCH   2  22
ATOM     22  O   UNL     1     -14.037   0.940  -9.590  1.00  0.00    -0.502 OA
ATOM     23  H   UNL     1     -15.011   0.693  -9.720  1.00  0.00     0.293 HD
ENDBRANCH   2  22
BRANCH   6  24
ATOM     24  O   UNL     1      -8.877   0.776 -10.897  1.00  0.00    -0.507 OA
ATOM     25  H   UNL     1      -9.158   0.655  -9.936  1.00  0.00     0.293 HD
ENDBRANCH   6  24
BRANCH   8  26
ATOM     26  O   UNL     1      -9.021   2.783 -15.239  1.00  0.00    -0.508 OA
ATOM     27  H   UNL     1      -8.012   2.707 -15.306  1.00  0.00     0.293 HD
ENDBRANCH   8  26
TORSDOF 6
ENDMDL
MODEL 3
REMARK VINA RESULT:    -6.319      1.537      3.422
REMARK INTER + INTRA:          -7.827
REMARK INTER:                  -7.497
REMARK INTRA:                  -0.331
REMARK UNBOUND:                -0.216
REMARK SMILES O=c1c(O)c(-c2ccc(O)c(O)c2)oc2cc(O)cc(O)c12
REMARK SMILES IDX 5 1 3 2 2 3 1 4 22 5 20 6 19 7 17 8 16 9 15 10 14 11 6 12
REMARK SMILES IDX 7 13 8 14 9 15 13 16 11 17 10 18 12 20 4 22 21 24 18 26
REMARK H PARENT 10 19 12 21 4 23 21 25 18 27
REMARK Flexibility Score: inf
ROOT
ATOM      1  C   UNL     1     -27.445  10.839 -23.745  1.00  0.00     0.180 A 
ATOM      2  C   UNL     1     -28.156  11.184 -22.582  1.00  0.00     0.208 A 
ATOM      3  C   UNL     1     -28.290  10.233 -21.558  1.00  0.00     0.238 A 
ATOM      4  O   UNL     1     -28.973  10.529 -20.544  1.00  0.00    -0.285 OA
ATOM      5  C   UNL     1     -27.697   8.955 -21.702  1.00  0.00     0.111 A 
ATOM      6  C   UNL     1     -27.736   7.928 -20.711  1.00  0.00     0.134 A 
ATOM      7  C   UNL     1     -27.229   6.658 -21.013  1.00  0.00     0.093 A 
ATOM      8  C   UNL     1     -26.627   6.397 -22.243  1.00  0.00     0.123 A 
ATOM      9  C   UNL     1     -26.531   7.411 -23.197  1.00  0.00     0.094 A 
ATOM     10  C   UNL     1     -27.060   8.677 -22.939  1.00  0.00     0.146 A 
ATOM     11  O   UNL     1     -26.958   9.610 -23.877  1.00  0.00    -0.452 OA
ENDROOT
BRANCH   1  12
ATOM     12  C   UNL     1     -27.241  11.796 -24.857  1.00  0.00     0.025 A 
ATOM     13  C   UNL     1     -26.171  12.707 -24.851  1.00  0.00     0.016 A 
ATOM     14  C   UNL     1     -25.984  13.584 -25.922  1.00  0.00     0.051 A 
ATOM     15  C   UNL     1     -26.853  13.554 -27.020  1.00  0.00     0.157 A 
ATOM     16  C   UNL     1     -28.097  11.755 -25.970  1.00  0.00     0.062 A 
ATOM     17  C   UNL     1     -27.913  12.633 -27.044  1.00  0.00     0.158 A 
BRANCH  15  18
ATOM     18  O   UNL     1     -26.664  14.432 -28.087  1.00  0.00    -0.504 OA
ATOM     19  H   UNL     1     -26.912  15.412 -28.018  1.00  0.00     0.293 HD
ENDBRANCH  15  18
BRANCH  17  20
ATOM     20  O   UNL     1     -28.792  12.573 -28.125  1.00  0.00    -0.504 OA
ATOM     21  H   UNL     1     -28.785  11.800 -28.781  1.00  0.00     0.293 HD
ENDBRANCH  17  20
ENDBRANCH   1  12
BRANCH   2  22
ATOM     22  O   UNL     1     -28.751  12.443 -22.471  1.00  0.00    -0.502 OA
ATOM     23  H   UNL     1     -29.186  12.911 -23.257  1.00  0.00     0.293 HD
ENDBRANCH   2  22
BRANCH   6  24
ATOM     24  O   UNL     1     -28.231   8.112 -19.416  1.00  0.00    -0.507 OA
ATOM     25  H   UNL     1     -29.209   8.129 -19.172  1.00  0.00     0.293 HD
ENDBRANCH   6  24
BRANCH   8  26
ATOM     26  O   UNL     1     -26.119   5.126 -22.503  1.00  0.00    -0.508 OA
ATOM     27  H   UNL     1     -26.725   4.354 -22.756  1.00  0.00     0.293 HD
ENDBRANCH   8  26
TORSDOF 6
ENDMDL
MODEL 4
REMARK VINA RESULT:    -6.252      1.367      3.002
REMARK INTER + INTRA:          -7.747
REMARK INTER:                  -7.446
REMARK INTRA:                  -0.302
REMARK UNBOUND:                -0.216
REMARK SMILES O=c1c(O)c(-c2ccc(O)c(O)c2)oc2cc(O)cc(O)c12
REMARK SMILES IDX 5 1 3 2 2 3 1 4 22 5 20 6 19 7 17 8 16 9 15 10 14 11 6 12
REMARK SMILES IDX 7 13 8 14 9 15 13 16 11 17 10 18 12 20 4 22 21 24 18 26
REMARK H PARENT 10 19 12 21 4 23 21 25 18 27
REMARK Flexibility Score: inf
ROOT
ATOM      1  C   UNL     1     -27.499  10.334 -23.566  1.00  0.00     0.180 A 
ATOM      2  C   UNL     1     -28.081  10.642 -22.324  1.00  0.00     0.208 A 
ATOM      3  C   UNL     1     -28.156   9.642 -21.342  1.00  0.00     0.238 A 
ATOM      4  O   UNL     1     -28.728   9.906 -20.252  1.00  0.00    -0.285 OA
ATOM      5  C   UNL     1     -27.634   8.352 -21.607  1.00  0.00     0.111 A 
ATOM      6  C   UNL     1     -27.621   7.275 -20.670  1.00  0.00     0.134 A 
ATOM      7  C   UNL     1     -27.198   6.006 -21.084  1.00  0.00     0.093 A 
ATOM      8  C   UNL     1     -26.728   5.790 -22.378  1.00  0.00     0.123 A 
ATOM      9  C   UNL     1     -26.681   6.850 -23.284  1.00  0.00     0.094 A 
ATOM     10  C   UNL     1     -27.129   8.120 -22.912  1.00  0.00     0.146 A 
ATOM     11  O   UNL     1     -27.078   9.098 -23.807  1.00  0.00    -0.452 OA
ENDROOT
BRANCH   1  12
ATOM     12  C   UNL     1     -27.361  11.342 -24.642  1.00  0.00     0.025 A 
ATOM     13  C   UNL     1     -28.299  11.434 -25.685  1.00  0.00     0.016 A 
ATOM     14  C   UNL     1     -28.162  12.409 -26.676  1.00  0.00     0.051 A 
ATOM     15  C   UNL     1     -27.094  13.315 -26.633  1.00  0.00     0.157 A 
ATOM     16  C   UNL     1     -26.305  12.267 -24.592  1.00  0.00     0.062 A 
ATOM     17  C   UNL     1     -26.163  13.244 -25.584  1.00  0.00     0.158 A 
BRANCH  15  18
ATOM     18  O   UNL     1     -26.959  14.286 -27.624  1.00  0.00    -0.504 OA
ATOM     19  H   UNL     1     -26.193  14.949 -27.616  1.00  0.00     0.293 HD
ENDBRANCH  15  18
BRANCH  17  20
ATOM     20  O   UNL     1     -25.094  14.135 -25.507  1.00  0.00    -0.504 OA
ATOM     21  H   UNL     1     -25.192  15.060 -25.105  1.00  0.00     0.293 HD
ENDBRANCH  17  20
ENDBRANCH   1  12
BRANCH   2  22
ATOM     22  O   UNL     1     -28.610  11.914 -22.092  1.00  0.00    -0.502 OA
ATOM     23  H   UNL     1     -29.204  12.119 -21.298  1.00  0.00     0.293 HD
ENDBRANCH   2  22
BRANCH   6  24
ATOM     24  O   UNL     1     -27.983   7.406 -19.326  1.00  0.00    -0.507 OA
ATOM     25  H   UNL     1     -27.395   7.159 -18.545  1.00  0.00     0.293 HD
ENDBRANCH   6  24
BRANCH   8  26
ATOM     26  O   UNL     1     -26.300   4.518 -22.750  1.00  0.00    -0.508 OA
ATOM     27  H   UNL     1     -26.837   3.944 -23.390  1.00  0.00     0.293 HD
ENDBRANCH   8  26
TORSDOF 6
ENDMDL
MODEL 5
REMARK VINA RESULT:    -6.064     18.212     20.101
REMARK INTER + INTRA:          -7.521
REMARK INTER:                  -7.248
REMARK INTRA:                  -0.273
REMARK UNBOUND:                -0.216
REMARK SMILES O=c1c(O)c(-c2ccc(O)c(O)c2)oc2cc(O)cc(O)c12
REMARK SMILES IDX 5 1 3 2 2 3 1 4 22 5 20 6 19 7 17 8 16 9 15 10 14 11 6 12
REMARK SMILES IDX 7 13 8 14 9 15 13 16 11 17 10 18 12 20 4 22 21 24 18 26
REMARK H PARENT 10 19 12 21 4 23 21 25 18 27
REMARK Flexibility Score: inf
ROOT
ATOM      1  C   UNL     1     -11.796   2.518 -12.339  1.00  0.00     0.180 A 
ATOM      2  C   UNL     1     -10.678   2.013 -11.651  1.00  0.00     0.208 A 
ATOM      3  C   UNL     1     -10.881   1.168 -10.549  1.00  0.00     0.238 A 
ATOM      4  O   UNL     1      -9.879   0.764  -9.904  1.00  0.00    -0.285 OA
ATOM      5  C   UNL     1     -12.198   0.825 -10.157  1.00  0.00     0.111 A 
ATOM      6  C   UNL     1     -12.519  -0.056  -9.081  1.00  0.00     0.134 A 
ATOM      7  C   UNL     1     -13.857  -0.221  -8.700  1.00  0.00     0.093 A 
ATOM      8  C   UNL     1     -14.887   0.409  -9.396  1.00  0.00     0.123 A 
ATOM      9  C   UNL     1     -14.587   1.225 -10.488  1.00  0.00     0.094 A 
ATOM     10  C   UNL     1     -13.261   1.438 -10.869  1.00  0.00     0.146 A 
ATOM     11  O   UNL     1     -13.019   2.230 -11.907  1.00  0.00    -0.452 OA
ENDROOT
BRANCH   1  12
ATOM     12  C   UNL     1     -11.662   3.394 -13.525  1.00  0.00     0.025 A 
ATOM     13  C   UNL     1     -11.316   4.751 -13.398  1.00  0.00     0.016 A 
ATOM     14  C   UNL     1     -11.171   5.552 -14.533  1.00  0.00     0.051 A 
ATOM     15  C   UNL     1     -11.356   5.008 -15.811  1.00  0.00     0.157 A 
ATOM     16  C   UNL     1     -11.825   2.848 -14.809  1.00  0.00     0.062 A 
ATOM     17  C   UNL     1     -11.682   3.649 -15.948  1.00  0.00     0.158 A 
BRANCH  15  18
ATOM     18  O   UNL     1     -11.212   5.810 -16.942  1.00  0.00    -0.504 OA
ATOM     19  H   UNL     1     -10.660   5.513 -17.737  1.00  0.00     0.293 HD
ENDBRANCH  15  18
BRANCH  17  20
ATOM     20  O   UNL     1     -11.865   3.074 -17.206  1.00  0.00    -0.504 OA
ATOM     21  H   UNL     1     -11.204   2.413 -17.597  1.00  0.00     0.293 HD
ENDBRANCH  17  20
ENDBRANCH   1  12
BRANCH   2  22
ATOM     22  O   UNL     1      -9.388   2.383 -12.041  1.00  0.00    -0.502 OA
ATOM     23  H   UNL     1      -8.842   1.839 -12.698  1.00  0.00     0.293 HD
ENDBRANCH   2  22
BRANCH   6  24
ATOM     24  O   UNL     1     -11.572  -0.806  -8.377  1.00  0.00    -0.507 OA
ATOM     25  H   UNL     1     -10.573  -0.714  -8.481  1.00  0.00     0.293 HD
ENDBRANCH   6  24
BRANCH   8  26
ATOM     26  O   UNL     1     -16.207   0.209  -8.999  1.00  0.00    -0.508 OA
ATOM     27  H   UNL     1     -16.818   0.987  -8.781  1.00  0.00     0.293 HD
ENDBRANCH   8  26
TORSDOF 6
ENDMDL
MODEL 6
REMARK VINA RESULT:    -5.898      2.164      4.001
REMARK INTER + INTRA:          -7.321
REMARK INTER:                  -7.002
REMARK INTRA:                  -0.319
REMARK UNBOUND:                -0.216
REMARK SMILES O=c1c(O)c(-c2ccc(O)c(O)c2)oc2cc(O)cc(O)c12
REMARK SMILES IDX 5 1 3 2 2 3 1 4 22 5 20 6 19 7 17 8 16 9 15 10 14 11 6 12
REMARK SMILES IDX 7 13 8 14 9 15 13 16 11 17 10 18 12 20 4 22 21 24 18 26
REMARK H PARENT 10 19 12 21 4 23 21 25 18 27
REMARK Flexibility Score: inf
ROOT
ATOM      1  C   UNL     1     -27.939   7.888 -21.284  1.00  0.00     0.180 A 
ATOM      2  C   UNL     1     -28.068   8.004 -19.888  1.00  0.00     0.208 A 
ATOM      3  C   UNL     1     -28.163   6.836 -19.114  1.00  0.00     0.238 A 
ATOM      4  O   UNL     1     -28.333   6.947 -17.872  1.00  0.00    -0.285 OA
ATOM      5  C   UNL     1     -28.112   5.568 -19.742  1.00  0.00     0.111 A 
ATOM      6  C   UNL     1     -28.158   4.320 -19.051  1.00  0.00     0.134 A 
ATOM      7  C   UNL     1     -28.232   3.128 -19.783  1.00  0.00     0.093 A 
ATOM      8  C   UNL     1     -28.195   3.136 -21.177  1.00  0.00     0.123 A 
ATOM      9  C   UNL     1     -28.088   4.347 -21.860  1.00  0.00     0.094 A 
ATOM     10  C   UNL     1     -28.050   5.555 -21.159  1.00  0.00     0.146 A 
ATOM     11  O   UNL     1     -27.960   6.685 -21.849  1.00  0.00    -0.452 OA
ENDROOT
BRANCH   1  12
ATOM     12  C   UNL     1     -27.808   9.071 -22.164  1.00  0.00     0.025 A 
ATOM     13  C   UNL     1     -28.938   9.753 -22.648  1.00  0.00     0.016 A 
ATOM     14  C   UNL     1     -28.790  10.882 -23.457  1.00  0.00     0.051 A 
ATOM     15  C   UNL     1     -27.512  11.355 -23.783  1.00  0.00     0.157 A 
ATOM     16  C   UNL     1     -26.530   9.562 -22.476  1.00  0.00     0.062 A 
ATOM     17  C   UNL     1     -26.377  10.692 -23.288  1.00  0.00     0.158 A 
BRANCH  15  18
ATOM     18  O   UNL     1     -27.367  12.481 -24.592  1.00  0.00    -0.504 OA
ATOM     19  H   UNL     1     -27.007  12.413 -25.536  1.00  0.00     0.293 HD
ENDBRANCH  15  18
BRANCH  17  20
ATOM     20  O   UNL     1     -25.092  11.141 -23.588  1.00  0.00    -0.504 OA
ATOM     21  H   UNL     1     -24.349  10.506 -23.855  1.00  0.00     0.293 HD
ENDBRANCH  17  20
ENDBRANCH   1  12
BRANCH   2  22
ATOM     22  O   UNL     1     -28.139   9.265 -19.292  1.00  0.00    -0.502 OA
ATOM     23  H   UNL     1     -28.322  10.108 -19.823  1.00  0.00     0.293 HD
ENDBRANCH   2  22
BRANCH   6  24
ATOM     24  O   UNL     1     -28.107   4.196 -17.659  1.00  0.00    -0.507 OA
ATOM     25  H   UNL     1     -28.071   3.320 -17.161  1.00  0.00     0.293 HD
ENDBRANCH   6  24
BRANCH   8  26
ATOM     26  O   UNL     1     -28.254   1.930 -21.872  1.00  0.00    -0.508 OA
ATOM     27  H   UNL     1     -29.085   1.351 -21.859  1.00  0.00     0.293 HD
ENDBRANCH   8  26
TORSDOF 6
ENDMDL
MODEL 7
REMARK VINA RESULT:    -5.891     18.542     20.517
REMARK INTER + INTRA:          -7.312
REMARK INTER:                  -7.014
REMARK INTRA:                  -0.299
REMARK UNBOUND:                -0.216
REMARK SMILES O=c1c(O)c(-c2ccc(O)c(O)c2)oc2cc(O)cc(O)c12
REMARK SMILES IDX 5 1 3 2 2 3 1 4 22 5 20 6 19 7 17 8 16 9 15 10 14 11 6 12
REMARK SMILES IDX 7 13 8 14 9 15 13 16 11 17 10 18 12 20 4 22 21 24 18 26
REMARK H PARENT 10 19 12 21 4 23 21 25 18 27
REMARK Flexibility Score: inf
ROOT
ATOM      1  C   UNL     1     -12.072   2.410 -12.230  1.00  0.00     0.180 A 
ATOM      2  C   UNL     1     -13.346   2.261 -11.652  1.00  0.00     0.208 A 
ATOM      3  C   UNL     1     -13.484   1.458 -10.509  1.00  0.00     0.238 A 
ATOM      4  O   UNL     1     -14.635   1.284 -10.029  1.00  0.00    -0.285 OA
ATOM      5  C   UNL     1     -12.348   0.828  -9.948  1.00  0.00     0.111 A 
ATOM      6  C   UNL     1     -12.366   0.025  -8.767  1.00  0.00     0.134 A 
ATOM      7  C   UNL     1     -11.206  -0.655  -8.377  1.00  0.00     0.093 A 
ATOM      8  C   UNL     1     -10.014  -0.511  -9.085  1.00  0.00     0.123 A 
ATOM      9  C   UNL     1      -9.970   0.319 -10.206  1.00  0.00     0.094 A 
ATOM     10  C   UNL     1     -11.119   0.982 -10.641  1.00  0.00     0.146 A 
ATOM     11  O   UNL     1     -11.037   1.753 -11.718  1.00  0.00    -0.452 OA
ENDROOT
BRANCH   1  12
ATOM     12  C   UNL     1     -11.842   3.260 -13.421  1.00  0.00     0.025 A 
ATOM     13  C   UNL     1     -11.309   4.555 -13.304  1.00  0.00     0.016 A 
ATOM     14  C   UNL     1     -11.078   5.329 -14.444  1.00  0.00     0.051 A 
ATOM     15  C   UNL     1     -11.362   4.816 -15.716  1.00  0.00     0.157 A 
ATOM     16  C   UNL     1     -12.106   2.742 -14.700  1.00  0.00     0.062 A 
ATOM     17  C   UNL     1     -11.876   3.516 -15.844  1.00  0.00     0.158 A 
BRANCH  15  18
ATOM     18  O   UNL     1     -11.132   5.592 -16.851  1.00  0.00    -0.504 OA
ATOM     19  H   UNL     1     -10.733   5.195 -17.694  1.00  0.00     0.293 HD
ENDBRANCH  15  18
BRANCH  17  20
ATOM     20  O   UNL     1     -12.164   2.973 -17.096  1.00  0.00    -0.504 OA
ATOM     21  H   UNL     1     -11.545   2.312 -17.550  1.00  0.00     0.293 HD
ENDBRANCH  17  20
ENDBRANCH   1  12
BRANCH   2  22
ATOM     22  O   UNL     1     -14.457   2.873 -12.236  1.00  0.00    -0.502 OA
ATOM     23  H   UNL     1     -15.403   2.548 -12.077  1.00  0.00     0.293 HD
ENDBRANCH   2  22
BRANCH   6  24
ATOM     24  O   UNL     1     -13.481  -0.113  -7.935  1.00  0.00    -0.507 OA
ATOM     25  H   UNL     1     -13.864  -0.994  -7.628  1.00  0.00     0.293 HD
ENDBRANCH   6  24
BRANCH   8  26
ATOM     26  O   UNL     1      -8.875  -1.190  -8.658  1.00  0.00    -0.508 OA
ATOM     27  H   UNL     1      -8.699  -1.366  -7.676  1.00  0.00     0.293 HD
ENDBRANCH   8  26
TORSDOF 6
ENDMDL
MODEL 8
REMARK VINA RESULT:    -5.859      3.032      4.493
REMARK INTER + INTRA:          -7.273
REMARK INTER:                  -6.946
REMARK INTRA:                  -0.327
REMARK UNBOUND:                -0.216
REMARK SMILES O=c1c(O)c(-c2ccc(O)c(O)c2)oc2cc(O)cc(O)c12
REMARK SMILES IDX 5 1 3 2 2 3 1 4 22 5 20 6 19 7 17 8 16 9 15 10 14 11 6 12
REMARK SMILES IDX 7 13 8 14 9 15 13 16 11 17 10 18 12 20 4 22 21 24 18 26
REMARK H PARENT 10 19 12 21 4 23 21 25 18 27
REMARK Flexibility Score: inf
ROOT
ATOM      1  C   UNL     1     -27.515   5.671 -22.074  1.00  0.00     0.180 A 
ATOM      2  C   UNL     1     -27.317   4.607 -22.972  1.00  0.00     0.208 A 
ATOM      3  C   UNL     1     -27.521   3.292 -22.525  1.00  0.00     0.238 A 
ATOM      4  O   UNL     1     -27.290   2.342 -23.317  1.00  0.00    -0.285 OA
ATOM      5  C   UNL     1     -27.937   3.057 -21.192  1.00  0.00     0.111 A 
ATOM      6  C   UNL     1     -28.213   1.768 -20.645  1.00  0.00     0.134 A 
ATOM      7  C   UNL     1     -28.491   1.644 -19.278  1.00  0.00     0.093 A 
ATOM      8  C   UNL     1     -28.568   2.765 -18.453  1.00  0.00     0.123 A 
ATOM      9  C   UNL     1     -28.359   4.036 -18.991  1.00  0.00     0.094 A 
ATOM     10  C   UNL     1     -28.044   4.189 -20.343  1.00  0.00     0.146 A 
ATOM     11  O   UNL     1     -27.841   5.414 -20.812  1.00  0.00    -0.452 OA
ENDROOT
BRANCH   1  12
ATOM     12  C   UNL     1     -27.343   7.085 -22.478  1.00  0.00     0.025 A 
ATOM     13  C   UNL     1     -28.427   7.851 -22.943  1.00  0.00     0.016 A 
ATOM     14  C   UNL     1     -28.246   9.190 -23.295  1.00  0.00     0.051 A 
ATOM     15  C   UNL     1     -26.985   9.789 -23.175  1.00  0.00     0.157 A 
ATOM     16  C   UNL     1     -26.086   7.696 -22.340  1.00  0.00     0.062 A 
ATOM     17  C   UNL     1     -25.901   9.037 -22.693  1.00  0.00     0.158 A 
BRANCH  15  18
ATOM     18  O   UNL     1     -26.807  11.125 -23.530  1.00  0.00    -0.504 OA
ATOM     19  H   UNL     1     -27.204  11.506 -24.381  1.00  0.00     0.293 HD
ENDBRANCH  15  18
BRANCH  17  20
ATOM     20  O   UNL     1     -24.634   9.604 -22.555  1.00  0.00    -0.504 OA
ATOM     21  H   UNL     1     -23.798   9.039 -22.475  1.00  0.00     0.293 HD
ENDBRANCH  17  20
ENDBRANCH   1  12
BRANCH   2  22
ATOM     22  O   UNL     1     -26.885   4.861 -24.276  1.00  0.00    -0.502 OA
ATOM     23  H   UNL     1     -27.499   4.781 -25.077  1.00  0.00     0.293 HD
ENDBRANCH   2  22
BRANCH   6  24
ATOM     24  O   UNL     1     -28.254   0.592 -21.400  1.00  0.00    -0.507 OA
ATOM     25  H   UNL     1     -28.377  -0.333 -21.017  1.00  0.00     0.293 HD
ENDBRANCH   6  24
BRANCH   8  26
ATOM     26  O   UNL     1     -28.862   2.605 -17.101  1.00  0.00    -0.508 OA
ATOM     27  H   UNL     1     -28.269   2.056 -16.491  1.00  0.00     0.293 HD
ENDBRANCH   8  26
TORSDOF 6
ENDMDL
MODEL 9
REMARK VINA RESULT:    -5.785      1.622      6.957
REMARK INTER + INTRA:          -7.185
REMARK INTER:                  -6.935
REMARK INTRA:                  -0.250
REMARK UNBOUND:                -0.216
REMARK SMILES O=c1c(O)c(-c2ccc(O)c(O)c2)oc2cc(O)cc(O)c12
REMARK SMILES IDX 5 1 3 2 2 3 1 4 22 5 20 6 19 7 17 8 16 9 15 10 14 11 6 12
REMARK SMILES IDX 7 13 8 14 9 15 13 16 11 17 10 18 12 20 4 22 21 24 18 26
REMARK H PARENT 10 19 12 21 4 23 21 25 18 27
REMARK Flexibility Score: inf
ROOT
ATOM      1  C   UNL     1     -27.325   9.656 -23.817  1.00  0.00     0.180 A 
ATOM      2  C   UNL     1     -28.196   9.685 -24.920  1.00  0.00     0.208 A 
ATOM      3  C   UNL     1     -28.160  10.787 -25.788  1.00  0.00     0.238 A 
ATOM      4  O   UNL     1     -28.980  10.833 -26.741  1.00  0.00    -0.285 OA
ATOM      5  C   UNL     1     -27.243  11.840 -25.552  1.00  0.00     0.111 A 
ATOM      6  C   UNL     1     -27.092  12.986 -26.389  1.00  0.00     0.134 A 
ATOM      7  C   UNL     1     -26.246  14.027 -25.989  1.00  0.00     0.093 A 
ATOM      8  C   UNL     1     -25.495  13.935 -24.817  1.00  0.00     0.123 A 
ATOM      9  C   UNL     1     -25.590  12.792 -24.022  1.00  0.00     0.094 A 
ATOM     10  C   UNL     1     -26.453  11.753 -24.376  1.00  0.00     0.146 A 
ATOM     11  O   UNL     1     -26.522  10.689 -23.586  1.00  0.00    -0.452 OA
ENDROOT
BRANCH   1  12
ATOM     12  C   UNL     1     -27.287   8.516 -22.872  1.00  0.00     0.025 A 
ATOM     13  C   UNL     1     -27.860   8.606 -21.592  1.00  0.00     0.016 A 
ATOM     14  C   UNL     1     -27.834   7.510 -20.727  1.00  0.00     0.051 A 
ATOM     15  C   UNL     1     -27.247   6.304 -21.132  1.00  0.00     0.157 A 
ATOM     16  C   UNL     1     -26.718   7.298 -23.281  1.00  0.00     0.062 A 
ATOM     17  C   UNL     1     -26.689   6.198 -22.417  1.00  0.00     0.158 A 
BRANCH  15  18
ATOM     18  O   UNL     1     -27.221   5.212 -20.266  1.00  0.00    -0.504 OA
ATOM     19  H   UNL     1     -27.479   5.302 -19.290  1.00  0.00     0.293 HD
ENDBRANCH  15  18
BRANCH  17  20
ATOM     20  O   UNL     1     -26.104   5.010 -22.853  1.00  0.00    -0.504 OA
ATOM     21  H   UNL     1     -25.104   4.923 -22.994  1.00  0.00     0.293 HD
ENDBRANCH  17  20
ENDBRANCH   1  12
BRANCH   2  22
ATOM     22  O   UNL     1     -29.109   8.646 -25.121  1.00  0.00    -0.502 OA
ATOM     23  H   UNL     1     -29.609   8.522 -25.993  1.00  0.00     0.293 HD
ENDBRANCH   2  22
BRANCH   6  24
ATOM     24  O   UNL     1     -27.725  13.137 -27.627  1.00  0.00    -0.507 OA
ATOM     25  H   UNL     1     -27.593  13.920 -28.249  1.00  0.00     0.293 HD
ENDBRANCH   6  24
BRANCH   8  26
ATOM     26  O   UNL     1     -24.651  14.983 -24.458  1.00  0.00    -0.508 OA
ATOM     27  H   UNL     1     -24.694  15.407 -23.539  1.00  0.00     0.293 HD
ENDBRANCH   8  26
TORSDOF 6
ENDMDL
