MODEL 1
REMARK VINA RESULT:    -3.394      0.000      0.000
REMARK INTER + INTRA:         -13.963
REMARK INTER:                  -8.554
REMARK INTRA:                  -5.410
REMARK UNBOUND:                -5.410
REMARK SMILES CCCCCCCCCCCCCCCCCCCCCCCCCCCC(=O)[O-]
REMARK SMILES IDX 15 1 16 2 17 3 18 4 19 5 20 6 21 7 22 8 23 9 24 10 25 11
REMARK SMILES IDX 26 12 27 13 28 14 29 15 30 16 14 17 13 18 12 19 11 20 10 21
REMARK SMILES IDX 9 22 8 23 7 24 6 25 5 26 4 27 3 28 2 29 1 30
REMARK H PARENT
REMARK Flexibility Score: inf
ROOT
ATOM      1  C   UNL     1      -2.419   5.356  39.056  1.00  0.00     0.000 C 
ENDROOT
BRANCH   1   2
ATOM      2  C   UNL     1      -1.557   5.868  37.889  1.00  0.00     0.000 C 
BRANCH   2   3
ATOM      3  C   UNL     1      -1.531   4.893  36.702  1.00  0.00     0.000 C 
BRANCH   3   4
ATOM      4  C   UNL     1      -0.135   4.755  36.076  1.00  0.00     0.000 C 
BRANCH   4   5
ATOM      5  C   UNL     1       0.086   3.335  35.530  1.00  0.00     0.000 C 
BRANCH   5   6
ATOM      6  C   UNL     1       1.172   2.569  36.303  1.00  0.00     0.000 C 
BRANCH   6   7
ATOM      7  C   UNL     1       2.083   3.502  37.119  1.00  0.00     0.000 C 
BRANCH   7   8
ATOM      8  C   UNL     1       3.557   3.410  36.693  1.00  0.00     0.000 C 
BRANCH   8   9
ATOM      9  C   UNL     1       4.020   4.634  35.884  1.00  0.00     0.000 C 
BRANCH   9  10
ATOM     10  C   UNL     1       4.427   4.278  34.443  1.00  0.00     0.000 C 
BRANCH  10  11
ATOM     11  C   UNL     1       3.264   4.250  33.432  1.00  0.00     0.000 C 
BRANCH  11  12
ATOM     12  C   UNL     1       2.508   5.583  33.354  1.00  0.00     0.006 C 
BRANCH  12  13
ATOM     13  C   UNL     1       1.174   5.414  32.617  1.00  0.00     0.053 C 
BRANCH  13  14
ATOM     14  C   UNL     1       1.282   4.415  31.504  1.00  0.00     0.041 C 
ATOM     15  O   UNL     1       0.774   3.269  31.638  1.00  0.00    -0.550 OA
ATOM     16  O   UNL     1       2.003   4.714  30.353  1.00  0.00    -0.550 OA
ENDBRANCH  13  14
ENDBRANCH  12  13
ENDBRANCH  11  12
ENDBRANCH  10  11
ENDBRANCH   9  10
ENDBRANCH   8   9
ENDBRANCH   7   8
ENDBRANCH   6   7
ENDBRANCH   5   6
ENDBRANCH   4   5
ENDBRANCH   3   4
ENDBRANCH   2   3
ENDBRANCH   1   2
BRANCH   1  17
ATOM     17  C   UNL     1      -2.520   6.365  40.214  1.00  0.00     0.000 C 
BRANCH  17  18
ATOM     18  C   UNL     1      -2.561   7.846  39.796  1.00  0.00     0.000 C 
BRANCH  18  19
ATOM     19  C   UNL     1      -1.269   8.604  40.151  1.00  0.00     0.000 C 
BRANCH  19  20
ATOM     20  C   UNL     1      -0.812   9.564  39.038  1.00  0.00     0.000 C 
BRANCH  20  21
ATOM     21  C   UNL     1      -1.819   9.763  37.886  1.00  0.00     0.000 C 
BRANCH  21  22
ATOM     22  C   UNL     1      -1.263   9.502  36.471  1.00  0.00    -0.000 C 
BRANCH  22  23
ATOM     23  C   UNL     1       0.250   9.739  36.308  1.00  0.00    -0.000 C 
BRANCH  23  24
ATOM     24  C   UNL     1       0.916   8.720  35.368  1.00  0.00    -0.000 C 
BRANCH  24  25
ATOM     25  C   UNL     1       1.737   7.657  36.122  1.00  0.00    -0.000 C 
BRANCH  25  26
ATOM     26  C   UNL     1       2.110   8.026  37.569  1.00  0.00    -0.000 C 
BRANCH  26  27
ATOM     27  C   UNL     1       2.389   6.794  38.448  1.00  0.00    -0.000 C 
BRANCH  27  28
ATOM     28  C   UNL     1       1.534   6.776  39.724  1.00  0.00    -0.000 C 
BRANCH  28  29
ATOM     29  C   UNL     1       1.213   5.348  40.193  1.00  0.00    -0.003 C 
ATOM     30  C   UNL     1       0.752   5.340  41.648  1.00  0.00     0.004 C 
ENDBRANCH  28  29
ENDBRANCH  27  28
ENDBRANCH  26  27
ENDBRANCH  25  26
ENDBRANCH  24  25
ENDBRANCH  23  24
ENDBRANCH  22  23
ENDBRANCH  21  22
ENDBRANCH  20  21
ENDBRANCH  19  20
ENDBRANCH  18  19
ENDBRANCH  17  18
ENDBRANCH   1  17
TORSDOF 26
ENDMDL
MODEL 2
REMARK VINA RESULT:    -3.220      1.761      3.887
REMARK INTER + INTRA:         -13.524
REMARK INTER:                  -8.527
REMARK INTRA:                  -4.997
REMARK UNBOUND:                -5.410
REMARK SMILES CCCCCCCCCCCCCCCCCCCCCCCCCCCC(=O)[O-]
REMARK SMILES IDX 15 1 16 2 17 3 18 4 19 5 20 6 21 7 22 8 23 9 24 10 25 11
REMARK SMILES IDX 26 12 27 13 28 14 29 15 30 16 14 17 13 18 12 19 11 20 10 21
REMARK SMILES IDX 9 22 8 23 7 24 6 25 5 26 4 27 3 28 2 29 1 30
REMARK H PARENT
REMARK Flexibility Score: inf
ROOT
ATOM      1  C   UNL     1      -2.812   6.225  39.603  1.00  0.00     0.000 C 
ENDROOT
BRANCH   1   2
ATOM      2  C   UNL     1      -2.726   5.203  40.749  1.00  0.00     0.000 C 
BRANCH   2   3
ATOM      3  C   UNL     1      -2.189   5.819  42.050  1.00  0.00     0.000 C 
BRANCH   3   4
ATOM      4  C   UNL     1      -0.818   5.254  42.454  1.00  0.00     0.000 C 
BRANCH   4   5
ATOM      5  C   UNL     1       0.321   6.122  41.897  1.00  0.00     0.000 C 
BRANCH   5   6
ATOM      6  C   UNL     1       0.773   5.674  40.497  1.00  0.00     0.000 C 
BRANCH   6   7
ATOM      7  C   UNL     1       1.106   4.174  40.439  1.00  0.00     0.000 C 
BRANCH   7   8
ATOM      8  C   UNL     1       0.114   3.382  39.571  1.00  0.00     0.000 C 
BRANCH   8   9
ATOM      9  C   UNL     1       0.329   3.606  38.065  1.00  0.00     0.000 C 
BRANCH   9  10
ATOM     10  C   UNL     1      -0.945   4.085  37.345  1.00  0.00     0.000 C 
BRANCH  10  11
ATOM     11  C   UNL     1      -0.866   4.058  35.807  1.00  0.00     0.000 C 
BRANCH  11  12
ATOM     12  C   UNL     1       0.551   4.313  35.277  1.00  0.00     0.006 C 
BRANCH  12  13
ATOM     13  C   UNL     1       0.554   4.418  33.747  1.00  0.00     0.053 C 
BRANCH  13  14
ATOM     14  C   UNL     1       1.649   5.318  33.258  1.00  0.00     0.041 C 
ATOM     15  O   UNL     1       2.837   4.898  33.220  1.00  0.00    -0.550 OA
ATOM     16  O   UNL     1       1.379   6.639  32.915  1.00  0.00    -0.550 OA
ENDBRANCH  13  14
ENDBRANCH  12  13
ENDBRANCH  11  12
ENDBRANCH  10  11
ENDBRANCH   9  10
ENDBRANCH   8   9
ENDBRANCH   7   8
ENDBRANCH   6   7
ENDBRANCH   5   6
ENDBRANCH   4   5
ENDBRANCH   3   4
ENDBRANCH   2   3
ENDBRANCH   1   2
BRANCH   1  17
ATOM     17  C   UNL     1      -2.619   7.676  40.078  1.00  0.00     0.000 C 
BRANCH  17  18
ATOM     18  C   UNL     1      -1.827   8.584  39.120  1.00  0.00     0.000 C 
BRANCH  18  19
ATOM     19  C   UNL     1      -1.119   7.801  38.001  1.00  0.00     0.000 C 
BRANCH  19  20
ATOM     20  C   UNL     1      -0.844   8.657  36.750  1.00  0.00     0.000 C 
BRANCH  20  21
ATOM     21  C   UNL     1       0.137   9.829  36.958  1.00  0.00     0.000 C 
BRANCH  21  22
ATOM     22  C   UNL     1       1.633   9.461  36.869  1.00  0.00    -0.000 C 
BRANCH  22  23
ATOM     23  C   UNL     1       2.327   9.211  38.221  1.00  0.00    -0.000 C 
BRANCH  23  24
ATOM     24  C   UNL     1       2.617   7.722  38.477  1.00  0.00    -0.000 C 
BRANCH  24  25
ATOM     25  C   UNL     1       2.289   6.831  37.264  1.00  0.00    -0.000 C 
BRANCH  25  26
ATOM     26  C   UNL     1       3.311   5.715  36.979  1.00  0.00    -0.000 C 
BRANCH  26  27
ATOM     27  C   UNL     1       3.870   5.075  38.262  1.00  0.00    -0.000 C 
BRANCH  27  28
ATOM     28  C   UNL     1       4.043   3.554  38.134  1.00  0.00    -0.000 C 
BRANCH  28  29
ATOM     29  C   UNL     1       5.279   3.040  38.889  1.00  0.00    -0.003 C 
ATOM     30  C   UNL     1       6.352   4.122  38.986  1.00  0.00     0.004 C 
ENDBRANCH  28  29
ENDBRANCH  27  28
ENDBRANCH  26  27
ENDBRANCH  25  26
ENDBRANCH  24  25
ENDBRANCH  23  24
ENDBRANCH  22  23
ENDBRANCH  21  22
ENDBRANCH  20  21
ENDBRANCH  19  20
ENDBRANCH  18  19
ENDBRANCH  17  18
ENDBRANCH   1  17
TORSDOF 26
ENDMDL
MODEL 3
REMARK VINA RESULT:    -3.148      1.406      4.286
REMARK INTER + INTRA:         -13.342
REMARK INTER:                  -8.599
REMARK INTRA:                  -4.743
REMARK UNBOUND:                -5.410
REMARK SMILES CCCCCCCCCCCCCCCCCCCCCCCCCCCC(=O)[O-]
REMARK SMILES IDX 15 1 16 2 17 3 18 4 19 5 20 6 21 7 22 8 23 9 24 10 25 11
REMARK SMILES IDX 26 12 27 13 28 14 29 15 30 16 14 17 13 18 12 19 11 20 10 21
REMARK SMILES IDX 9 22 8 23 7 24 6 25 5 26 4 27 3 28 2 29 1 30
REMARK H PARENT
REMARK Flexibility Score: inf
ROOT
ATOM      1  C   UNL     1      -0.609  10.123  37.603  1.00  0.00     0.000 C 
ENDROOT
BRANCH   1   2
ATOM      2  C   UNL     1      -0.197   9.411  36.304  1.00  0.00     0.000 C 
BRANCH   2   3
ATOM      3  C   UNL     1       1.108   8.613  36.456  1.00  0.00     0.000 C 
BRANCH   3   4
ATOM      4  C   UNL     1       2.050   9.209  37.513  1.00  0.00     0.000 C 
BRANCH   4   5
ATOM      5  C   UNL     1       2.272   8.223  38.671  1.00  0.00     0.000 C 
BRANCH   5   6
ATOM      6  C   UNL     1       1.828   6.793  38.321  1.00  0.00     0.000 C 
BRANCH   6   7
ATOM      7  C   UNL     1       2.874   5.738  38.721  1.00  0.00     0.000 C 
BRANCH   7   8
ATOM      8  C   UNL     1       3.716   5.258  37.528  1.00  0.00     0.000 C 
BRANCH   8   9
ATOM      9  C   UNL     1       3.033   5.519  36.174  1.00  0.00     0.000 C 
BRANCH   9  10
ATOM     10  C   UNL     1       2.987   4.268  35.278  1.00  0.00     0.000 C 
BRANCH  10  11
ATOM     11  C   UNL     1       3.598   4.454  33.877  1.00  0.00     0.000 C 
BRANCH  11  12
ATOM     12  C   UNL     1       3.169   3.362  32.888  1.00  0.00     0.006 C 
BRANCH  12  13
ATOM     13  C   UNL     1       2.439   3.968  31.683  1.00  0.00     0.053 C 
BRANCH  13  14
ATOM     14  C   UNL     1       1.243   4.767  32.109  1.00  0.00     0.041 C 
ATOM     15  O   UNL     1       0.188   4.177  32.464  1.00  0.00    -0.550 OA
ATOM     16  O   UNL     1       1.261   6.157  32.044  1.00  0.00    -0.550 OA
ENDBRANCH  13  14
ENDBRANCH  12  13
ENDBRANCH  11  12
ENDBRANCH  10  11
ENDBRANCH   9  10
ENDBRANCH   8   9
ENDBRANCH   7   8
ENDBRANCH   6   7
ENDBRANCH   5   6
ENDBRANCH   4   5
ENDBRANCH   3   4
ENDBRANCH   2   3
ENDBRANCH   1   2
BRANCH   1  17
ATOM     17  C   UNL     1      -1.860   9.507  38.253  1.00  0.00     0.000 C 
BRANCH  17  18
ATOM     18  C   UNL     1      -1.664   8.108  38.866  1.00  0.00     0.000 C 
BRANCH  18  19
ATOM     19  C   UNL     1      -2.580   7.850  40.074  1.00  0.00     0.000 C 
BRANCH  19  20
ATOM     20  C   UNL     1      -1.818   7.832  41.412  1.00  0.00     0.000 C 
BRANCH  20  21
ATOM     21  C   UNL     1      -0.297   8.068  41.306  1.00  0.00     0.000 C 
BRANCH  21  22
ATOM     22  C   UNL     1       0.573   7.200  42.239  1.00  0.00    -0.000 C 
BRANCH  22  23
ATOM     23  C   UNL     1       0.751   5.737  41.794  1.00  0.00    -0.000 C 
BRANCH  23  24
ATOM     24  C   UNL     1      -0.411   4.833  42.236  1.00  0.00    -0.000 C 
BRANCH  24  25
ATOM     25  C   UNL     1      -1.143   4.175  41.051  1.00  0.00    -0.000 C 
BRANCH  25  26
ATOM     26  C   UNL     1      -0.296   3.187  40.229  1.00  0.00    -0.000 C 
BRANCH  26  27
ATOM     27  C   UNL     1      -0.110   3.632  38.768  1.00  0.00    -0.000 C 
BRANCH  27  28
ATOM     28  C   UNL     1      -1.112   4.719  38.351  1.00  0.00    -0.000 C 
BRANCH  28  29
ATOM     29  C   UNL     1      -1.657   4.501  36.931  1.00  0.00    -0.003 C 
ATOM     30  C   UNL     1      -0.545   4.617  35.892  1.00  0.00     0.004 C 
ENDBRANCH  28  29
ENDBRANCH  27  28
ENDBRANCH  26  27
ENDBRANCH  25  26
ENDBRANCH  24  25
ENDBRANCH  23  24
ENDBRANCH  22  23
ENDBRANCH  21  22
ENDBRANCH  20  21
ENDBRANCH  19  20
ENDBRANCH  18  19
ENDBRANCH  17  18
ENDBRANCH   1  17
TORSDOF 26
ENDMDL
MODEL 4
REMARK VINA RESULT:    -3.107      2.597      4.974
REMARK INTER + INTRA:         -13.239
REMARK INTER:                  -8.315
REMARK INTRA:                  -4.924
REMARK UNBOUND:                -5.410
REMARK SMILES CCCCCCCCCCCCCCCCCCCCCCCCCCCC(=O)[O-]
REMARK SMILES IDX 15 1 16 2 17 3 18 4 19 5 20 6 21 7 22 8 23 9 24 10 25 11
REMARK SMILES IDX 26 12 27 13 28 14 29 15 30 16 14 17 13 18 12 19 11 20 10 21
REMARK SMILES IDX 9 22 8 23 7 24 6 25 5 26 4 27 3 28 2 29 1 30
REMARK H PARENT
REMARK Flexibility Score: inf
ROOT
ATOM      1  C   UNL     1      -1.408   9.385  36.738  1.00  0.00     0.000 C 
ENDROOT
BRANCH   1   2
ATOM      2  C   UNL     1      -0.095  10.056  36.299  1.00  0.00     0.000 C 
BRANCH   2   3
ATOM      3  C   UNL     1       0.155   9.931  34.788  1.00  0.00     0.000 C 
BRANCH   3   4
ATOM      4  C   UNL     1       1.527   9.323  34.461  1.00  0.00     0.000 C 
BRANCH   4   5
ATOM      5  C   UNL     1       1.403   8.228  33.390  1.00  0.00     0.000 C 
BRANCH   5   6
ATOM      6  C   UNL     1       2.161   6.944  33.770  1.00  0.00     0.000 C 
BRANCH   6   7
ATOM      7  C   UNL     1       1.397   5.670  33.372  1.00  0.00     0.000 C 
BRANCH   7   8
ATOM      8  C   UNL     1       2.258   4.698  32.549  1.00  0.00     0.000 C 
BRANCH   8   9
ATOM      9  C   UNL     1       2.956   3.638  33.418  1.00  0.00     0.000 C 
BRANCH   9  10
ATOM     10  C   UNL     1       2.072   3.140  34.577  1.00  0.00     0.000 C 
BRANCH  10  11
ATOM     11  C   UNL     1       2.718   3.239  35.971  1.00  0.00     0.000 C 
BRANCH  11  12
ATOM     12  C   UNL     1       4.171   3.732  35.922  1.00  0.00     0.006 C 
BRANCH  12  13
ATOM     13  C   UNL     1       4.557   4.433  37.231  1.00  0.00     0.053 C 
BRANCH  13  14
ATOM     14  C   UNL     1       5.465   3.580  38.065  1.00  0.00     0.041 C 
ATOM     15  O   UNL     1       5.239   2.345  38.176  1.00  0.00    -0.550 OA
ATOM     16  O   UNL     1       6.511   4.152  38.781  1.00  0.00    -0.550 OA
ENDBRANCH  13  14
ENDBRANCH  12  13
ENDBRANCH  11  12
ENDBRANCH  10  11
ENDBRANCH   9  10
ENDBRANCH   8   9
ENDBRANCH   7   8
ENDBRANCH   6   7
ENDBRANCH   5   6
ENDBRANCH   4   5
ENDBRANCH   3   4
ENDBRANCH   2   3
ENDBRANCH   1   2
BRANCH   1  17
ATOM     17  C   UNL     1      -1.834   9.777  38.164  1.00  0.00     0.000 C 
BRANCH  17  18
ATOM     18  C   UNL     1      -1.393   8.807  39.275  1.00  0.00     0.000 C 
BRANCH  18  19
ATOM     19  C   UNL     1      -2.545   7.933  39.799  1.00  0.00     0.000 C 
BRANCH  19  20
ATOM     20  C   UNL     1      -2.246   7.306  41.173  1.00  0.00     0.000 C 
BRANCH  20  21
ATOM     21  C   UNL     1      -0.753   7.058  41.472  1.00  0.00     0.000 C 
BRANCH  21  22
ATOM     22  C   UNL     1      -0.298   5.586  41.383  1.00  0.00    -0.000 C 
BRANCH  22  23
ATOM     23  C   UNL     1      -1.301   4.630  40.712  1.00  0.00    -0.000 C 
BRANCH  23  24
ATOM     24  C   UNL     1      -0.821   4.128  39.340  1.00  0.00    -0.000 C 
BRANCH  24  25
ATOM     25  C   UNL     1      -1.377   4.959  38.169  1.00  0.00    -0.000 C 
BRANCH  25  26
ATOM     26  C   UNL     1      -0.437   5.091  36.957  1.00  0.00    -0.000 C 
BRANCH  26  27
ATOM     27  C   UNL     1       0.206   6.484  36.847  1.00  0.00    -0.000 C 
BRANCH  27  28
ATOM     28  C   UNL     1       1.673   6.493  37.303  1.00  0.00    -0.000 C 
BRANCH  28  29
ATOM     29  C   UNL     1       1.830   6.955  38.760  1.00  0.00    -0.003 C 
ATOM     30  C   UNL     1       2.170   8.442  38.831  1.00  0.00     0.004 C 
ENDBRANCH  28  29
ENDBRANCH  27  28
ENDBRANCH  26  27
ENDBRANCH  25  26
ENDBRANCH  24  25
ENDBRANCH  23  24
ENDBRANCH  22  23
ENDBRANCH  21  22
ENDBRANCH  20  21
ENDBRANCH  19  20
ENDBRANCH  18  19
ENDBRANCH  17  18
ENDBRANCH   1  17
TORSDOF 26
ENDMDL
MODEL 5
REMARK VINA RESULT:    -3.105      2.267      6.482
REMARK INTER + INTRA:         -13.233
REMARK INTER:                  -8.728
REMARK INTRA:                  -4.504
REMARK UNBOUND:                -5.410
REMARK SMILES CCCCCCCCCCCCCCCCCCCCCCCCCCCC(=O)[O-]
REMARK SMILES IDX 15 1 16 2 17 3 18 4 19 5 20 6 21 7 22 8 23 9 24 10 25 11
REMARK SMILES IDX 26 12 27 13 28 14 29 15 30 16 14 17 13 18 12 19 11 20 10 21
REMARK SMILES IDX 9 22 8 23 7 24 6 25 5 26 4 27 3 28 2 29 1 30
REMARK H PARENT
REMARK Flexibility Score: inf
ROOT
ATOM      1  C   UNL     1      -2.318   5.282  39.908  1.00  0.00     0.000 C 
ENDROOT
BRANCH   1   2
ATOM      2  C   UNL     1      -2.537   6.794  40.087  1.00  0.00     0.000 C 
BRANCH   2   3
ATOM      3  C   UNL     1      -1.292   7.510  40.635  1.00  0.00     0.000 C 
BRANCH   3   4
ATOM      4  C   UNL     1      -0.901   8.742  39.806  1.00  0.00     0.000 C 
BRANCH   4   5
ATOM      5  C   UNL     1      -1.915   8.991  38.677  1.00  0.00     0.000 C 
BRANCH   5   6
ATOM      6  C   UNL     1      -1.300   9.752  37.490  1.00  0.00     0.000 C 
BRANCH   6   7
ATOM      7  C   UNL     1      -0.679   8.809  36.445  1.00  0.00     0.000 C 
BRANCH   7   8
ATOM      8  C   UNL     1       0.755   9.214  36.063  1.00  0.00     0.000 C 
BRANCH   8   9
ATOM      9  C   UNL     1       1.805   8.187  36.520  1.00  0.00     0.000 C 
BRANCH   9  10
ATOM     10  C   UNL     1       2.094   8.261  38.030  1.00  0.00     0.000 C 
BRANCH  10  11
ATOM     11  C   UNL     1       2.415   6.909  38.694  1.00  0.00     0.000 C 
BRANCH  11  12
ATOM     12  C   UNL     1       3.008   5.888  37.713  1.00  0.00     0.006 C 
BRANCH  12  13
ATOM     13  C   UNL     1       3.794   4.803  38.460  1.00  0.00     0.053 C 
BRANCH  13  14
ATOM     14  C   UNL     1       4.697   4.042  37.536  1.00  0.00     0.041 C 
ATOM     15  O   UNL     1       5.346   3.051  37.967  1.00  0.00    -0.550 OA
ATOM     16  O   UNL     1       4.884   4.464  36.223  1.00  0.00    -0.550 OA
ENDBRANCH  13  14
ENDBRANCH  12  13
ENDBRANCH  11  12
ENDBRANCH  10  11
ENDBRANCH   9  10
ENDBRANCH   8   9
ENDBRANCH   7   8
ENDBRANCH   6   7
ENDBRANCH   5   6
ENDBRANCH   4   5
ENDBRANCH   3   4
ENDBRANCH   2   3
ENDBRANCH   1   2
BRANCH   1  17
ATOM     17  C   UNL     1      -0.960   4.944  39.268  1.00  0.00     0.000 C 
BRANCH  17  18
ATOM     18  C   UNL     1      -0.763   5.460  37.830  1.00  0.00     0.000 C 
BRANCH  18  19
ATOM     19  C   UNL     1      -1.482   4.595  36.780  1.00  0.00     0.000 C 
BRANCH  19  20
ATOM     20  C   UNL     1      -0.532   4.056  35.694  1.00  0.00     0.000 C 
BRANCH  20  21
ATOM     21  C   UNL     1       0.551   5.046  35.217  1.00  0.00     0.000 C 
BRANCH  21  22
ATOM     22  C   UNL     1       1.717   4.418  34.427  1.00  0.00    -0.000 C 
BRANCH  22  23
ATOM     23  C   UNL     1       2.666   5.423  33.750  1.00  0.00    -0.000 C 
BRANCH  23  24
ATOM     24  C   UNL     1       1.922   6.599  33.096  1.00  0.00    -0.000 C 
BRANCH  24  25
ATOM     25  C   UNL     1       1.263   6.221  31.756  1.00  0.00    -0.000 C 
BRANCH  25  26
ATOM     26  C   UNL     1       2.021   5.165  30.931  1.00  0.00    -0.000 C 
BRANCH  26  27
ATOM     27  C   UNL     1       1.167   3.924  30.619  1.00  0.00    -0.000 C 
BRANCH  27  28
ATOM     28  C   UNL     1      -0.273   4.054  31.138  1.00  0.00    -0.000 C 
BRANCH  28  29
ATOM     29  C   UNL     1      -1.315   3.870  30.024  1.00  0.00    -0.003 C 
ATOM     30  C   UNL     1      -0.669   3.980  28.645  1.00  0.00     0.004 C 
ENDBRANCH  28  29
ENDBRANCH  27  28
ENDBRANCH  26  27
ENDBRANCH  25  26
ENDBRANCH  24  25
ENDBRANCH  23  24
ENDBRANCH  22  23
ENDBRANCH  21  22
ENDBRANCH  20  21
ENDBRANCH  19  20
ENDBRANCH  18  19
ENDBRANCH  17  18
ENDBRANCH   1  17
TORSDOF 26
ENDMDL
MODEL 6
REMARK VINA RESULT:    -3.069      3.358      6.911
REMARK INTER + INTRA:         -13.142
REMARK INTER:                  -9.965
REMARK INTRA:                  -3.177
REMARK UNBOUND:                -5.410
REMARK SMILES CCCCCCCCCCCCCCCCCCCCCCCCCCCC(=O)[O-]
REMARK SMILES IDX 15 1 16 2 17 3 18 4 19 5 20 6 21 7 22 8 23 9 24 10 25 11
REMARK SMILES IDX 26 12 27 13 28 14 29 15 30 16 14 17 13 18 12 19 11 20 10 21
REMARK SMILES IDX 9 22 8 23 7 24 6 25 5 26 4 27 3 28 2 29 1 30
REMARK H PARENT
REMARK Flexibility Score: inf
ROOT
ATOM      1  C   UNL     1       2.034   8.044  30.541  1.00  0.00     0.000 C 
ENDROOT
BRANCH   1   2
ATOM      2  C   UNL     1       2.455   9.224  29.649  1.00  0.00     0.000 C 
BRANCH   2   3
ATOM      3  C   UNL     1       3.720   8.922  28.829  1.00  0.00     0.000 C 
BRANCH   3   4
ATOM      4  C   UNL     1       3.480   9.007  27.314  1.00  0.00     0.000 C 
BRANCH   4   5
ATOM      5  C   UNL     1       1.988   9.205  27.002  1.00  0.00     0.000 C 
BRANCH   5   6
ATOM      6  C   UNL     1       1.370   7.993  26.285  1.00  0.00     0.000 C 
BRANCH   6   7
ATOM      7  C   UNL     1       2.334   6.797  26.214  1.00  0.00     0.000 C 
BRANCH   7   8
ATOM      8  C   UNL     1       1.659   5.470  26.601  1.00  0.00     0.000 C 
BRANCH   8   9
ATOM      9  C   UNL     1       1.463   5.323  28.120  1.00  0.00     0.000 C 
BRANCH   9  10
ATOM     10  C   UNL     1       2.765   4.964  28.857  1.00  0.00     0.000 C 
BRANCH  10  11
ATOM     11  C   UNL     1       3.017   3.453  29.023  1.00  0.00     0.000 C 
BRANCH  11  12
ATOM     12  C   UNL     1       2.432   2.889  30.325  1.00  0.00     0.006 C 
BRANCH  12  13
ATOM     13  C   UNL     1       2.243   3.999  31.367  1.00  0.00     0.053 C 
BRANCH  13  14
ATOM     14  C   UNL     1       2.952   3.677  32.649  1.00  0.00     0.041 C 
ATOM     15  O   UNL     1       4.056   3.071  32.621  1.00  0.00    -0.550 OA
ATOM     16  O   UNL     1       2.365   3.975  33.875  1.00  0.00    -0.550 OA
ENDBRANCH  13  14
ENDBRANCH  12  13
ENDBRANCH  11  12
ENDBRANCH  10  11
ENDBRANCH   9  10
ENDBRANCH   8   9
ENDBRANCH   7   8
ENDBRANCH   6   7
ENDBRANCH   5   6
ENDBRANCH   4   5
ENDBRANCH   3   4
ENDBRANCH   2   3
ENDBRANCH   1   2
BRANCH   1  17
ATOM     17  C   UNL     1       1.874   8.438  32.020  1.00  0.00     0.000 C 
BRANCH  17  18
ATOM     18  C   UNL     1       1.587   7.273  32.986  1.00  0.00     0.000 C 
BRANCH  18  19
ATOM     19  C   UNL     1       1.377   7.737  34.437  1.00  0.00     0.000 C 
BRANCH  19  20
ATOM     20  C   UNL     1       1.506   9.262  34.605  1.00  0.00     0.000 C 
BRANCH  20  21
ATOM     21  C   UNL     1       0.812   9.848  35.852  1.00  0.00     0.000 C 
BRANCH  21  22
ATOM     22  C   UNL     1      -0.084   8.864  36.632  1.00  0.00    -0.000 C 
BRANCH  22  23
ATOM     23  C   UNL     1      -1.494   9.385  36.964  1.00  0.00    -0.000 C 
BRANCH  23  24
ATOM     24  C   UNL     1      -1.667   9.735  38.451  1.00  0.00    -0.000 C 
BRANCH  24  25
ATOM     25  C   UNL     1      -0.616   9.061  39.352  1.00  0.00    -0.000 C 
BRANCH  25  26
ATOM     26  C   UNL     1      -1.160   7.959  40.278  1.00  0.00    -0.000 C 
BRANCH  26  27
ATOM     27  C   UNL     1      -2.614   7.572  39.956  1.00  0.00    -0.000 C 
BRANCH  27  28
ATOM     28  C   UNL     1      -2.737   6.138  39.419  1.00  0.00    -0.000 C 
BRANCH  28  29
ATOM     29  C   UNL     1      -1.464   5.672  38.696  1.00  0.00    -0.003 C 
ATOM     30  C   UNL     1      -1.766   5.279  37.252  1.00  0.00     0.004 C 
ENDBRANCH  28  29
ENDBRANCH  27  28
ENDBRANCH  26  27
ENDBRANCH  25  26
ENDBRANCH  24  25
ENDBRANCH  23  24
ENDBRANCH  22  23
ENDBRANCH  21  22
ENDBRANCH  20  21
ENDBRANCH  19  20
ENDBRANCH  18  19
ENDBRANCH  17  18
ENDBRANCH   1  17
TORSDOF 26
ENDMDL
MODEL 7
REMARK VINA RESULT:    -3.049      2.657      5.212
REMARK INTER + INTRA:         -13.093
REMARK INTER:                  -8.028
REMARK INTRA:                  -5.066
REMARK UNBOUND:                -5.410
REMARK SMILES CCCCCCCCCCCCCCCCCCCCCCCCCCCC(=O)[O-]
REMARK SMILES IDX 15 1 16 2 17 3 18 4 19 5 20 6 21 7 22 8 23 9 24 10 25 11
REMARK SMILES IDX 26 12 27 13 28 14 29 15 30 16 14 17 13 18 12 19 11 20 10 21
REMARK SMILES IDX 9 22 8 23 7 24 6 25 5 26 4 27 3 28 2 29 1 30
REMARK H PARENT
REMARK Flexibility Score: inf
ROOT
ATOM      1  C   UNL     1      -0.370   9.818  39.192  1.00  0.00     0.000 C 
ENDROOT
BRANCH   1   2
ATOM      2  C   UNL     1       0.636   9.098  40.107  1.00  0.00     0.000 C 
BRANCH   2   3
ATOM      3  C   UNL     1       1.859   8.572  39.340  1.00  0.00     0.000 C 
BRANCH   3   4
ATOM      4  C   UNL     1       2.314   9.522  38.221  1.00  0.00     0.000 C 
BRANCH   4   5
ATOM      5  C   UNL     1       2.002   8.932  36.837  1.00  0.00     0.000 C 
BRANCH   5   6
ATOM      6  C   UNL     1       1.414   7.513  36.920  1.00  0.00     0.000 C 
BRANCH   6   7
ATOM      7  C   UNL     1       2.386   6.442  36.397  1.00  0.00     0.000 C 
BRANCH   7   8
ATOM      8  C   UNL     1       1.954   5.863  35.040  1.00  0.00     0.000 C 
BRANCH   8   9
ATOM      9  C   UNL     1       2.536   4.464  34.777  1.00  0.00     0.000 C 
BRANCH   9  10
ATOM     10  C   UNL     1       3.803   4.499  33.904  1.00  0.00     0.000 C 
BRANCH  10  11
ATOM     11  C   UNL     1       4.968   3.634  34.420  1.00  0.00     0.000 C 
BRANCH  11  12
ATOM     12  C   UNL     1       5.478   4.081  35.797  1.00  0.00     0.006 C 
BRANCH  12  13
ATOM     13  C   UNL     1       5.235   2.994  36.851  1.00  0.00     0.053 C 
BRANCH  13  14
ATOM     14  C   UNL     1       5.195   3.568  38.236  1.00  0.00     0.041 C 
ATOM     15  O   UNL     1       5.562   2.866  39.217  1.00  0.00    -0.550 OA
ATOM     16  O   UNL     1       4.686   4.843  38.459  1.00  0.00    -0.550 OA
ENDBRANCH  13  14
ENDBRANCH  12  13
ENDBRANCH  11  12
ENDBRANCH  10  11
ENDBRANCH   9  10
ENDBRANCH   8   9
ENDBRANCH   7   8
ENDBRANCH   6   7
ENDBRANCH   5   6
ENDBRANCH   4   5
ENDBRANCH   3   4
ENDBRANCH   2   3
ENDBRANCH   1   2
BRANCH   1  17
ATOM     17  C   UNL     1      -1.583   8.943  38.830  1.00  0.00     0.000 C 
BRANCH  17  18
ATOM     18  C   UNL     1      -1.466   7.459  39.224  1.00  0.00     0.000 C 
BRANCH  18  19
ATOM     19  C   UNL     1      -2.645   6.974  40.086  1.00  0.00     0.000 C 
BRANCH  19  20
ATOM     20  C   UNL     1      -2.749   7.715  41.431  1.00  0.00     0.000 C 
BRANCH  20  21
ATOM     21  C   UNL     1      -1.705   7.304  42.491  1.00  0.00     0.000 C 
BRANCH  21  22
ATOM     22  C   UNL     1      -1.718   5.814  42.888  1.00  0.00    -0.000 C 
BRANCH  22  23
ATOM     23  C   UNL     1      -0.539   4.983  42.351  1.00  0.00    -0.000 C 
BRANCH  23  24
ATOM     24  C   UNL     1       0.646   5.851  41.896  1.00  0.00    -0.000 C 
BRANCH  24  25
ATOM     25  C   UNL     1       1.307   5.334  40.605  1.00  0.00    -0.000 C 
BRANCH  25  26
ATOM     26  C   UNL     1       0.578   4.162  39.922  1.00  0.00    -0.000 C 
BRANCH  26  27
ATOM     27  C   UNL     1       1.294   3.671  38.652  1.00  0.00    -0.000 C 
BRANCH  27  28
ATOM     28  C   UNL     1       0.328   3.457  37.477  1.00  0.00    -0.000 C 
BRANCH  28  29
ATOM     29  C   UNL     1      -1.022   4.158  37.694  1.00  0.00    -0.003 C 
ATOM     30  C   UNL     1      -1.406   4.998  36.477  1.00  0.00     0.004 C 
ENDBRANCH  28  29
ENDBRANCH  27  28
ENDBRANCH  26  27
ENDBRANCH  25  26
ENDBRANCH  24  25
ENDBRANCH  23  24
ENDBRANCH  22  23
ENDBRANCH  21  22
ENDBRANCH  20  21
ENDBRANCH  19  20
ENDBRANCH  18  19
ENDBRANCH  17  18
ENDBRANCH   1  17
TORSDOF 26
ENDMDL
MODEL 8
REMARK VINA RESULT:    -3.010      1.577      4.991
REMARK INTER + INTRA:         -12.994
REMARK INTER:                  -7.479
REMARK INTRA:                  -5.514
REMARK UNBOUND:                -5.410
REMARK SMILES CCCCCCCCCCCCCCCCCCCCCCCCCCCC(=O)[O-]
REMARK SMILES IDX 15 1 16 2 17 3 18 4 19 5 20 6 21 7 22 8 23 9 24 10 25 11
REMARK SMILES IDX 26 12 27 13 28 14 29 15 30 16 14 17 13 18 12 19 11 20 10 21
REMARK SMILES IDX 9 22 8 23 7 24 6 25 5 26 4 27 3 28 2 29 1 30
REMARK H PARENT
REMARK Flexibility Score: inf
ROOT
ATOM      1  C   UNL     1      -0.780   9.422  39.078  1.00  0.00     0.000 C 
ENDROOT
BRANCH   1   2
ATOM      2  C   UNL     1      -1.806   9.519  37.936  1.00  0.00     0.000 C 
BRANCH   2   3
ATOM      3  C   UNL     1      -1.163   9.910  36.597  1.00  0.00     0.000 C 
BRANCH   3   4
ATOM      4  C   UNL     1       0.351   9.648  36.564  1.00  0.00     0.000 C 
BRANCH   4   5
ATOM      5  C   UNL     1       0.736   8.798  35.343  1.00  0.00     0.000 C 
BRANCH   5   6
ATOM      6  C   UNL     1       1.155   7.369  35.728  1.00  0.00     0.000 C 
BRANCH   6   7
ATOM      7  C   UNL     1       1.558   7.252  37.208  1.00  0.00     0.000 C 
BRANCH   7   8
ATOM      8  C   UNL     1       0.768   6.163  37.951  1.00  0.00     0.000 C 
BRANCH   8   9
ATOM      9  C   UNL     1      -0.651   5.970  37.389  1.00  0.00     0.000 C 
BRANCH   9  10
ATOM     10  C   UNL     1      -1.045   4.487  37.263  1.00  0.00     0.000 C 
BRANCH  10  11
ATOM     11  C   UNL     1      -1.147   3.967  35.817  1.00  0.00     0.000 C 
BRANCH  11  12
ATOM     12  C   UNL     1       0.211   3.546  35.237  1.00  0.00     0.006 C 
BRANCH  12  13
ATOM     13  C   UNL     1       0.426   4.155  33.846  1.00  0.00     0.053 C 
BRANCH  13  14
ATOM     14  C   UNL     1       0.351   3.113  32.770  1.00  0.00     0.041 C 
ATOM     15  O   UNL     1      -0.113   1.971  33.034  1.00  0.00    -0.550 OA
ATOM     16  O   UNL     1       0.857   3.370  31.500  1.00  0.00    -0.550 OA
ENDBRANCH  13  14
ENDBRANCH  12  13
ENDBRANCH  11  12
ENDBRANCH  10  11
ENDBRANCH   9  10
ENDBRANCH   8   9
ENDBRANCH   7   8
ENDBRANCH   6   7
ENDBRANCH   5   6
ENDBRANCH   4   5
ENDBRANCH   3   4
ENDBRANCH   2   3
ENDBRANCH   1   2
BRANCH   1  17
ATOM     17  C   UNL     1      -1.172   8.390  40.150  1.00  0.00     0.000 C 
BRANCH  17  18
ATOM     18  C   UNL     1      -2.574   7.773  39.991  1.00  0.00     0.000 C 
BRANCH  18  19
ATOM     19  C   UNL     1      -2.629   6.296  40.416  1.00  0.00     0.000 C 
BRANCH  19  20
ATOM     20  C   UNL     1      -1.634   5.957  41.541  1.00  0.00     0.000 C 
BRANCH  20  21
ATOM     21  C   UNL     1      -0.589   4.877  41.191  1.00  0.00     0.000 C 
BRANCH  21  22
ATOM     22  C   UNL     1      -1.166   3.544  40.672  1.00  0.00    -0.000 C 
BRANCH  22  23
ATOM     23  C   UNL     1      -0.511   2.277  41.251  1.00  0.00    -0.000 C 
BRANCH  23  24
ATOM     24  C   UNL     1       0.987   2.174  40.920  1.00  0.00    -0.000 C 
BRANCH  24  25
ATOM     25  C   UNL     1       1.255   1.518  39.553  1.00  0.00    -0.000 C 
BRANCH  25  26
ATOM     26  C   UNL     1       1.649   2.492  38.428  1.00  0.00    -0.000 C 
BRANCH  26  27
ATOM     27  C   UNL     1       2.951   3.255  38.726  1.00  0.00    -0.000 C 
BRANCH  27  28
ATOM     28  C   UNL     1       3.925   3.245  37.538  1.00  0.00    -0.000 C 
BRANCH  28  29
ATOM     29  C   UNL     1       4.165   4.651  36.967  1.00  0.00    -0.003 C 
ATOM     30  C   UNL     1       3.775   4.719  35.492  1.00  0.00     0.004 C 
ENDBRANCH  28  29
ENDBRANCH  27  28
ENDBRANCH  26  27
ENDBRANCH  25  26
ENDBRANCH  24  25
ENDBRANCH  23  24
ENDBRANCH  22  23
ENDBRANCH  21  22
ENDBRANCH  20  21
ENDBRANCH  19  20
ENDBRANCH  18  19
ENDBRANCH  17  18
ENDBRANCH   1  17
TORSDOF 26
ENDMDL
MODEL 9
REMARK VINA RESULT:    -2.957      2.662      4.626
REMARK INTER + INTRA:         -12.860
REMARK INTER:                  -7.639
REMARK INTRA:                  -5.222
REMARK UNBOUND:                -5.410
REMARK SMILES CCCCCCCCCCCCCCCCCCCCCCCCCCCC(=O)[O-]
REMARK SMILES IDX 15 1 16 2 17 3 18 4 19 5 20 6 21 7 22 8 23 9 24 10 25 11
REMARK SMILES IDX 26 12 27 13 28 14 29 15 30 16 14 17 13 18 12 19 11 20 10 21
REMARK SMILES IDX 9 22 8 23 7 24 6 25 5 26 4 27 3 28 2 29 1 30
REMARK H PARENT
REMARK Flexibility Score: inf
ROOT
ATOM      1  C   UNL     1       2.679   6.529  37.697  1.00  0.00     0.000 C 
ENDROOT
BRANCH   1   2
ATOM      2  C   UNL     1       2.017   5.989  38.976  1.00  0.00     0.000 C 
BRANCH   2   3
ATOM      3  C   UNL     1       1.881   4.459  38.969  1.00  0.00     0.000 C 
BRANCH   3   4
ATOM      4  C   UNL     1       0.609   3.977  38.255  1.00  0.00     0.000 C 
BRANCH   4   5
ATOM      5  C   UNL     1       0.951   3.011  37.110  1.00  0.00     0.000 C 
BRANCH   5   6
ATOM      6  C   UNL     1       0.225   3.367  35.802  1.00  0.00     0.000 C 
BRANCH   6   7
ATOM      7  C   UNL     1       0.360   4.855  35.440  1.00  0.00     0.000 C 
BRANCH   7   8
ATOM      8  C   UNL     1       1.115   5.075  34.119  1.00  0.00     0.000 C 
BRANCH   8   9
ATOM      9  C   UNL     1       2.585   5.475  34.333  1.00  0.00     0.000 C 
BRANCH   9  10
ATOM     10  C   UNL     1       3.572   4.386  33.873  1.00  0.00     0.000 C 
BRANCH  10  11
ATOM     11  C   UNL     1       4.771   4.163  34.814  1.00  0.00     0.000 C 
BRANCH  11  12
ATOM     12  C   UNL     1       4.356   3.657  36.202  1.00  0.00     0.006 C 
BRANCH  12  13
ATOM     13  C   UNL     1       5.399   4.040  37.259  1.00  0.00     0.053 C 
BRANCH  13  14
ATOM     14  C   UNL     1       6.251   2.867  37.643  1.00  0.00     0.041 C 
ATOM     15  O   UNL     1       7.206   2.514  36.899  1.00  0.00    -0.550 OA
ATOM     16  O   UNL     1       5.951   2.115  38.774  1.00  0.00    -0.550 OA
ENDBRANCH  13  14
ENDBRANCH  12  13
ENDBRANCH  11  12
ENDBRANCH  10  11
ENDBRANCH   9  10
ENDBRANCH   8   9
ENDBRANCH   7   8
ENDBRANCH   6   7
ENDBRANCH   5   6
ENDBRANCH   4   5
ENDBRANCH   3   4
ENDBRANCH   2   3
ENDBRANCH   1   2
BRANCH   1  17
ATOM     17  C   UNL     1       2.276   7.980  37.380  1.00  0.00     0.000 C 
BRANCH  17  18
ATOM     18  C   UNL     1       2.182   8.920  38.596  1.00  0.00     0.000 C 
BRANCH  18  19
ATOM     19  C   UNL     1       1.257  10.124  38.352  1.00  0.00     0.000 C 
BRANCH  19  20
ATOM     20  C   UNL     1      -0.099   9.996  39.072  1.00  0.00     0.000 C 
BRANCH  20  21
ATOM     21  C   UNL     1      -1.275   9.542  38.183  1.00  0.00     0.000 C 
BRANCH  21  22
ATOM     22  C   UNL     1      -1.230   8.068  37.729  1.00  0.00    -0.000 C 
BRANCH  22  23
ATOM     23  C   UNL     1      -1.478   7.033  38.842  1.00  0.00    -0.000 C 
BRANCH  23  24
ATOM     24  C   UNL     1      -2.644   7.419  39.767  1.00  0.00    -0.000 C 
BRANCH  24  25
ATOM     25  C   UNL     1      -2.204   7.636  41.227  1.00  0.00    -0.000 C 
BRANCH  25  26
ATOM     26  C   UNL     1      -0.766   7.190  41.549  1.00  0.00    -0.000 C 
BRANCH  26  27
ATOM     27  C   UNL     1      -0.713   6.006  42.529  1.00  0.00    -0.000 C 
BRANCH  27  28
ATOM     28  C   UNL     1      -0.093   4.749  41.901  1.00  0.00    -0.000 C 
BRANCH  28  29
ATOM     29  C   UNL     1      -1.088   3.581  41.822  1.00  0.00    -0.003 C 
ATOM     30  C   UNL     1      -2.183   3.862  40.796  1.00  0.00     0.004 C 
ENDBRANCH  28  29
ENDBRANCH  27  28
ENDBRANCH  26  27
ENDBRANCH  25  26
ENDBRANCH  24  25
ENDBRANCH  23  24
ENDBRANCH  22  23
ENDBRANCH  21  22
ENDBRANCH  20  21
ENDBRANCH  19  20
ENDBRANCH  18  19
ENDBRANCH  17  18
ENDBRANCH   1  17
TORSDOF 26
ENDMDL
