MODEL 1
REMARK VINA RESULT:    69.308      0.000      0.000
REMARK INTER + INTRA:         100.384
REMARK INTER:                  99.696
REMARK INTRA:                   0.689
REMARK UNBOUND:                 0.689
REMARK SMILES O=c1c(O[C@H]2O[C@H](CO)[C@H](O)[C@@H](O)[C@@H]2O)c(-c2ccc(O)cc2)oc2cc(O)cc(O)c12
REMARK SMILES IDX 4 1 3 2 16 3 24 4 2 5 25 6 1 7 32 8 26 9 30 10 27 11 29 12
REMARK SMILES IDX 17 13 18 14 19 15 20 16 23 17 22 18 21 19 31 21 28 23 5 25
REMARK SMILES IDX 14 26 6 27 12 28 7 29 10 30 15 31 13 33 8 35 9 36 11 38
REMARK H PARENT 21 20 31 22 28 24 15 32 13 34 9 37 11 39
REMARK Flexibility Score: inf
ROOT
ATOM      1  O   UNL     1      -6.851  -6.069  20.365  1.00  0.00    -0.454 OA
ENDROOT
BRANCH   1   2
ATOM      2  C   UNL     1      -6.955  -4.884  21.102  1.00  0.00     0.214 A 
ATOM      3  C   UNL     1      -7.390  -4.885  22.441  1.00  0.00     0.180 A 
ATOM      4  O   UNL     1      -7.420  -3.747  23.124  1.00  0.00    -0.452 OA
ATOM      5  C   UNL     1      -6.618  -3.669  20.498  1.00  0.00     0.239 A 
ATOM      6  C   UNL     1      -7.074  -2.574  22.604  1.00  0.00     0.146 A 
ATOM      7  O   UNL     1      -6.322  -3.673  19.275  1.00  0.00    -0.285 OA
ATOM      8  C   UNL     1      -6.632  -2.474  21.258  1.00  0.00     0.111 A 
ATOM      9  C   UNL     1      -7.172  -1.435  23.406  1.00  0.00     0.094 A 
ATOM     10  C   UNL     1      -6.254  -1.190  20.760  1.00  0.00     0.134 A 
ATOM     11  C   UNL     1      -6.849  -0.178  22.893  1.00  0.00     0.123 A 
ATOM     12  C   UNL     1      -6.399  -0.063  21.579  1.00  0.00     0.093 A 
BRANCH   3  13
ATOM     13  C   UNL     1      -7.842  -6.118  23.123  1.00  0.00     0.021 A 
ATOM     14  C   UNL     1      -7.499  -6.335  24.466  1.00  0.00     0.016 A 
ATOM     15  C   UNL     1      -7.920  -7.495  25.125  1.00  0.00     0.047 A 
ATOM     16  C   UNL     1      -8.701  -8.443  24.451  1.00  0.00     0.115 A 
ATOM     17  C   UNL     1      -8.649  -7.062  22.461  1.00  0.00     0.016 A 
ATOM     18  C   UNL     1      -9.066  -8.221  23.120  1.00  0.00     0.047 A 
BRANCH  16  19
ATOM     19  O   UNL     1      -9.123  -9.604  25.096  1.00  0.00    -0.508 OA
ATOM     20  H   UNL     1     -10.106  -9.813  25.220  1.00  0.00     0.293 HD
ENDBRANCH  16  19
ENDBRANCH   3  13
BRANCH  10  21
ATOM     21  O   UNL     1      -5.711  -0.970  19.491  1.00  0.00    -0.507 OA
ATOM     22  H   UNL     1      -5.153  -1.634  18.976  1.00  0.00     0.293 HD
ENDBRANCH  10  21
BRANCH  11  23
ATOM     23  O   UNL     1      -6.965   0.962  23.683  1.00  0.00    -0.508 OA
ATOM     24  H   UNL     1      -6.328   1.144  24.450  1.00  0.00     0.293 HD
ENDBRANCH  11  23
ENDBRANCH   1   2
BRANCH   1  25
ATOM     25  C   UNL     1      -7.861  -6.502  19.447  1.00  0.00     0.339 C 
ATOM     26  C   UNL     1      -7.780  -8.024  19.215  1.00  0.00     0.214 C 
ATOM     27  O   UNL     1      -7.788  -5.777  18.230  1.00  0.00    -0.332 OA
ATOM     28  C   UNL     1      -6.572  -8.415  18.329  1.00  0.00     0.180 C 
ATOM     29  C   UNL     1      -6.540  -5.967  17.588  1.00  0.00     0.179 C 
ATOM     30  C   UNL     1      -6.370  -7.443  17.141  1.00  0.00     0.177 C 
BRANCH  26  31
ATOM     31  O   UNL     1      -8.976  -8.453  18.614  1.00  0.00    -0.384 OA
ATOM     32  H   UNL     1      -9.634  -7.718  18.720  1.00  0.00     0.211 HD
ENDBRANCH  26  31
BRANCH  28  33
ATOM     33  O   UNL     1      -5.400  -8.534  19.099  1.00  0.00    -0.387 OA
ATOM     34  H   UNL     1      -5.168  -9.494  19.171  1.00  0.00     0.211 HD
ENDBRANCH  28  33
BRANCH  29  35
ATOM     35  C   UNL     1      -6.453  -4.997  16.399  1.00  0.00     0.191 C 
BRANCH  35  36
ATOM     36  O   UNL     1      -5.118  -4.724  16.067  1.00  0.00    -0.394 OA
ATOM     37  H   UNL     1      -4.809  -4.015  16.690  1.00  0.00     0.210 HD
ENDBRANCH  35  36
ENDBRANCH  29  35
BRANCH  30  38
ATOM     38  O   UNL     1      -7.239  -7.770  16.082  1.00  0.00    -0.387 OA
ATOM     39  H   UNL     1      -7.252  -8.756  15.989  1.00  0.00     0.211 HD
ENDBRANCH  30  38
ENDBRANCH   1  25
TORSDOF 11
ENDMDL
