MODEL 1
REMARK VINA RESULT:    -2.163      0.000      0.000
REMARK INTER + INTRA:          -4.556
REMARK INTER:                  -3.681
REMARK INTRA:                  -0.876
REMARK UNBOUND:                -0.876
REMARK SMILES CCCCCCCCCCCCCC(=O)[O-]
REMARK SMILES IDX 8 1 9 2 10 3 11 4 12 5 13 6 14 7 15 8 16 9 7 10 6 11 5 12
REMARK SMILES IDX 4 13 3 14 2 15 1 16
REMARK H PARENT
REMARK Flexibility Score: inf
ROOT
ATOM      1  C   UNL     1      11.011  23.434  13.866  1.00  0.00     0.000 C 
ENDROOT
BRANCH   1   2
ATOM      2  C   UNL     1      10.376  23.112  12.504  1.00  0.00     0.000 C 
BRANCH   2   3
ATOM      3  C   UNL     1      10.561  24.280  11.523  1.00  0.00     0.000 C 
BRANCH   3   4
ATOM      4  C   UNL     1      11.122  23.830  10.165  1.00  0.00     0.000 C 
BRANCH   4   5
ATOM      5  C   UNL     1      11.091  22.303   9.987  1.00  0.00     0.006 C 
BRANCH   5   6
ATOM      6  C   UNL     1      10.417  21.887   8.673  1.00  0.00     0.053 C 
BRANCH   6   7
ATOM      7  C   UNL     1       9.606  20.638   8.835  1.00  0.00     0.041 C 
ATOM      8  O   UNL     1       9.438  20.134   9.976  1.00  0.00    -0.550 OA
ATOM      9  O   UNL     1       9.011  20.046   7.727  1.00  0.00    -0.550 OA
ENDBRANCH   6   7
ENDBRANCH   5   6
ENDBRANCH   4   5
ENDBRANCH   3   4
ENDBRANCH   2   3
ENDBRANCH   1   2
BRANCH   1  10
ATOM     10  C   UNL     1      10.780  22.324  14.904  1.00  0.00     0.000 C 
BRANCH  10  11
ATOM     11  C   UNL     1      11.002  20.918  14.326  1.00  0.00    -0.000 C 
BRANCH  11  12
ATOM     12  C   UNL     1       9.822  19.995  14.661  1.00  0.00    -0.000 C 
BRANCH  12  13
ATOM     13  C   UNL     1       8.484  20.665  14.313  1.00  0.00    -0.000 C 
BRANCH  13  14
ATOM     14  C   UNL     1       7.439  20.515  15.428  1.00  0.00    -0.000 C 
BRANCH  14  15
ATOM     15  C   UNL     1       6.018  20.854  14.955  1.00  0.00    -0.003 C 
ATOM     16  C   UNL     1       5.564  19.902  13.851  1.00  0.00     0.004 C 
ENDBRANCH  14  15
ENDBRANCH  13  14
ENDBRANCH  12  13
ENDBRANCH  11  12
ENDBRANCH  10  11
ENDBRANCH   1  10
TORSDOF 12
ENDMDL
MODEL 2
REMARK VINA RESULT:    -1.249      2.813      6.450
REMARK INTER + INTRA:          -3.001
REMARK INTER:                  -1.999
REMARK INTRA:                  -1.003
REMARK UNBOUND:                -0.876
REMARK SMILES CCCCCCCCCCCCCC(=O)[O-]
REMARK SMILES IDX 8 1 9 2 10 3 11 4 12 5 13 6 14 7 15 8 16 9 7 10 6 11 5 12
REMARK SMILES IDX 4 13 3 14 2 15 1 16
REMARK H PARENT
REMARK Flexibility Score: inf
ROOT
ATOM      1  C   UNL     1       8.595  19.876  10.189  1.00  0.00     0.000 C 
ENDROOT
BRANCH   1   2
ATOM      2  C   UNL     1       7.893  20.277  11.496  1.00  0.00     0.000 C 
BRANCH   2   3
ATOM      3  C   UNL     1       8.869  20.219  12.681  1.00  0.00     0.000 C 
BRANCH   3   4
ATOM      4  C   UNL     1       8.501  21.207  13.800  1.00  0.00     0.000 C 
BRANCH   4   5
ATOM      5  C   UNL     1       8.466  20.545  15.188  1.00  0.00     0.006 C 
BRANCH   5   6
ATOM      6  C   UNL     1       7.116  19.875  15.477  1.00  0.00     0.053 C 
BRANCH   6   7
ATOM      7  C   UNL     1       5.986  20.858  15.422  1.00  0.00     0.041 C 
ATOM      8  O   UNL     1       5.802  21.667  16.368  1.00  0.00    -0.550 OA
ATOM      9  O   UNL     1       5.152  20.897  14.310  1.00  0.00    -0.550 OA
ENDBRANCH   6   7
ENDBRANCH   5   6
ENDBRANCH   4   5
ENDBRANCH   3   4
ENDBRANCH   2   3
ENDBRANCH   1   2
BRANCH   1  10
ATOM     10  C   UNL     1       8.268  20.825   9.025  1.00  0.00     0.000 C 
BRANCH  10  11
ATOM     11  C   UNL     1       9.263  20.699   7.861  1.00  0.00    -0.000 C 
BRANCH  11  12
ATOM     12  C   UNL     1      10.709  20.682   8.374  1.00  0.00    -0.000 C 
BRANCH  12  13
ATOM     13  C   UNL     1      11.123  22.065   8.898  1.00  0.00    -0.000 C 
BRANCH  13  14
ATOM     14  C   UNL     1      11.044  22.168  10.428  1.00  0.00    -0.000 C 
BRANCH  14  15
ATOM     15  C   UNL     1      10.425  23.491  10.901  1.00  0.00    -0.003 C 
ATOM     16  C   UNL     1      11.092  23.981  12.184  1.00  0.00     0.004 C 
ENDBRANCH  14  15
ENDBRANCH  13  14
ENDBRANCH  12  13
ENDBRANCH  11  12
ENDBRANCH  10  11
ENDBRANCH   1  10
TORSDOF 12
ENDMDL
MODEL 3
REMARK VINA RESULT:    -0.771      2.300      6.196
REMARK INTER + INTRA:          -2.187
REMARK INTER:                  -1.277
REMARK INTRA:                  -0.910
REMARK UNBOUND:                -0.876
REMARK SMILES CCCCCCCCCCCCCC(=O)[O-]
REMARK SMILES IDX 8 1 9 2 10 3 11 4 12 5 13 6 14 7 15 8 16 9 7 10 6 11 5 12
REMARK SMILES IDX 4 13 3 14 2 15 1 16
REMARK H PARENT
REMARK Flexibility Score: inf
ROOT
ATOM      1  C   UNL     1       5.446  21.088  13.601  1.00  0.00     0.000 C 
ENDROOT
BRANCH   1   2
ATOM      2  C   UNL     1       5.175  20.041  14.693  1.00  0.00     0.000 C 
BRANCH   2   3
ATOM      3  C   UNL     1       6.387  19.898  15.627  1.00  0.00     0.000 C 
BRANCH   3   4
ATOM      4  C   UNL     1       7.439  20.996  15.406  1.00  0.00     0.000 C 
BRANCH   4   5
ATOM      5  C   UNL     1       8.864  20.432  15.266  1.00  0.00     0.006 C 
BRANCH   5   6
ATOM      6  C   UNL     1       9.496  20.786  13.913  1.00  0.00     0.053 C 
BRANCH   6   7
ATOM      7  C   UNL     1      10.452  21.933  14.029  1.00  0.00     0.041 C 
ATOM      8  O   UNL     1      10.705  22.653  13.027  1.00  0.00    -0.550 OA
ATOM      9  O   UNL     1      11.043  22.225  15.253  1.00  0.00    -0.550 OA
ENDBRANCH   6   7
ENDBRANCH   5   6
ENDBRANCH   4   5
ENDBRANCH   3   4
ENDBRANCH   2   3
ENDBRANCH   1   2
BRANCH   1  10
ATOM     10  C   UNL     1       5.614  20.461  12.207  1.00  0.00     0.000 C 
BRANCH  10  11
ATOM     11  C   UNL     1       7.016  19.875  11.986  1.00  0.00    -0.000 C 
BRANCH  11  12
ATOM     12  C   UNL     1       7.662  20.459  10.722  1.00  0.00    -0.000 C 
BRANCH  12  13
ATOM     13  C   UNL     1       9.072  19.888  10.512  1.00  0.00    -0.000 C 
BRANCH  13  14
ATOM     14  C   UNL     1       9.723  20.381   9.210  1.00  0.00    -0.000 C 
BRANCH  14  15
ATOM     15  C   UNL     1      11.019  21.166   9.458  1.00  0.00    -0.003 C 
ATOM     16  C   UNL     1      10.936  22.567   8.857  1.00  0.00     0.004 C 
ENDBRANCH  14  15
ENDBRANCH  13  14
ENDBRANCH  12  13
ENDBRANCH  11  12
ENDBRANCH  10  11
ENDBRANCH   1  10
TORSDOF 12
ENDMDL
MODEL 4
REMARK VINA RESULT:    -0.346      3.135      6.385
REMARK INTER + INTRA:          -1.464
REMARK INTER:                  -0.507
REMARK INTRA:                  -0.957
REMARK UNBOUND:                -0.876
REMARK SMILES CCCCCCCCCCCCCC(=O)[O-]
REMARK SMILES IDX 8 1 9 2 10 3 11 4 12 5 13 6 14 7 15 8 16 9 7 10 6 11 5 12
REMARK SMILES IDX 4 13 3 14 2 15 1 16
REMARK H PARENT
REMARK Flexibility Score: inf
ROOT
ATOM      1  C   UNL     1       9.234  20.688  10.082  1.00  0.00     0.000 C 
ENDROOT
BRANCH   1   2
ATOM      2  C   UNL     1       7.740  20.498  10.386  1.00  0.00     0.000 C 
BRANCH   2   3
ATOM      3  C   UNL     1       7.539  19.877  11.777  1.00  0.00     0.000 C 
BRANCH   3   4
ATOM      4  C   UNL     1       8.805  19.946  12.646  1.00  0.00     0.000 C 
BRANCH   4   5
ATOM      5  C   UNL     1       8.699  20.998  13.764  1.00  0.00     0.006 C 
BRANCH   5   6
ATOM      6  C   UNL     1       9.744  20.777  14.866  1.00  0.00     0.053 C 
BRANCH   6   7
ATOM      7  C   UNL     1       9.690  21.853  15.907  1.00  0.00     0.041 C 
ATOM      8  O   UNL     1       8.690  21.954  16.664  1.00  0.00    -0.550 OA
ATOM      9  O   UNL     1      10.760  22.728  16.059  1.00  0.00    -0.550 OA
ENDBRANCH   6   7
ENDBRANCH   5   6
ENDBRANCH   4   5
ENDBRANCH   3   4
ENDBRANCH   2   3
ENDBRANCH   1   2
BRANCH   1  10
ATOM     10  C   UNL     1       9.545  20.630   8.577  1.00  0.00     0.000 C 
BRANCH  10  11
ATOM     11  C   UNL     1      10.661  21.600   8.165  1.00  0.00    -0.000 C 
BRANCH  11  12
ATOM     12  C   UNL     1      10.298  23.044   8.535  1.00  0.00    -0.000 C 
BRANCH  12  13
ATOM     13  C   UNL     1      11.124  23.529   9.736  1.00  0.00    -0.000 C 
BRANCH  13  14
ATOM     14  C   UNL     1      10.510  24.759  10.421  1.00  0.00    -0.000 C 
BRANCH  14  15
ATOM     15  C   UNL     1      10.907  24.872  11.900  1.00  0.00    -0.003 C 
ATOM     16  C   UNL     1      11.017  23.493  12.546  1.00  0.00     0.004 C 
ENDBRANCH  14  15
ENDBRANCH  13  14
ENDBRANCH  12  13
ENDBRANCH  11  12
ENDBRANCH  10  11
ENDBRANCH   1  10
TORSDOF 12
ENDMDL
MODEL 5
REMARK VINA RESULT:     0.241      6.219      9.317
REMARK INTER + INTRA:          -0.465
REMARK INTER:                  -0.133
REMARK INTRA:                  -0.332
REMARK UNBOUND:                -0.876
REMARK SMILES CCCCCCCCCCCCCC(=O)[O-]
REMARK SMILES IDX 8 1 9 2 10 3 11 4 12 5 13 6 14 7 15 8 16 9 7 10 6 11 5 12
REMARK SMILES IDX 4 13 3 14 2 15 1 16
REMARK H PARENT
REMARK Flexibility Score: inf
ROOT
ATOM      1  C   UNL     1       1.769  20.779  15.828  1.00  0.00     0.000 C 
ENDROOT
BRANCH   1   2
ATOM      2  C   UNL     1       2.995  19.880  16.047  1.00  0.00     0.000 C 
BRANCH   2   3
ATOM      3  C   UNL     1       4.288  20.711  16.067  1.00  0.00     0.000 C 
BRANCH   3   4
ATOM      4  C   UNL     1       5.507  19.924  15.561  1.00  0.00     0.000 C 
BRANCH   4   5
ATOM      5  C   UNL     1       6.330  20.709  14.525  1.00  0.00     0.006 C 
BRANCH   5   6
ATOM      6  C   UNL     1       7.838  20.469  14.682  1.00  0.00     0.053 C 
BRANCH   6   7
ATOM      7  C   UNL     1       8.553  20.545  13.368  1.00  0.00     0.041 C 
ATOM      8  O   UNL     1       8.056  20.010  12.343  1.00  0.00    -0.550 OA
ATOM      9  O   UNL     1       9.756  21.234  13.270  1.00  0.00    -0.550 OA
ENDBRANCH   6   7
ENDBRANCH   5   6
ENDBRANCH   4   5
ENDBRANCH   3   4
ENDBRANCH   2   3
ENDBRANCH   1   2
BRANCH   1  10
ATOM     10  C   UNL     1       0.451  20.089  16.217  1.00  0.00     0.000 C 
BRANCH  10  11
ATOM     11  C   UNL     1      -0.606  21.079  16.730  1.00  0.00    -0.000 C 
BRANCH  11  12
ATOM     12  C   UNL     1      -1.907  20.958  15.925  1.00  0.00    -0.000 C 
BRANCH  12  13
ATOM     13  C   UNL     1      -2.822  19.875  16.517  1.00  0.00    -0.000 C 
BRANCH  13  14
ATOM     14  C   UNL     1      -4.312  20.171  16.292  1.00  0.00    -0.000 C 
BRANCH  14  15
ATOM     15  C   UNL     1      -4.578  20.887  14.960  1.00  0.00    -0.003 C 
ATOM     16  C   UNL     1      -6.026  20.697  14.513  1.00  0.00     0.004 C 
ENDBRANCH  14  15
ENDBRANCH  13  14
ENDBRANCH  12  13
ENDBRANCH  11  12
ENDBRANCH  10  11
ENDBRANCH   1  10
TORSDOF 12
ENDMDL
MODEL 6
REMARK VINA RESULT:     0.380      4.748      7.440
REMARK INTER + INTRA:          -0.229
REMARK INTER:                  -0.116
REMARK INTRA:                  -0.113
REMARK UNBOUND:                -0.876
REMARK SMILES CCCCCCCCCCCCCC(=O)[O-]
REMARK SMILES IDX 8 1 9 2 10 3 11 4 12 5 13 6 14 7 15 8 16 9 7 10 6 11 5 12
REMARK SMILES IDX 4 13 3 14 2 15 1 16
REMARK H PARENT
REMARK Flexibility Score: inf
ROOT
ATOM      1  C   UNL     1       4.734  20.623  15.710  1.00  0.00     0.000 C 
ENDROOT
BRANCH   1   2
ATOM      2  C   UNL     1       5.960  20.141  14.919  1.00  0.00     0.000 C 
BRANCH   2   3
ATOM      3  C   UNL     1       7.180  19.987  15.839  1.00  0.00     0.000 C 
BRANCH   3   4
ATOM      4  C   UNL     1       8.421  20.720  15.306  1.00  0.00     0.000 C 
BRANCH   4   5
ATOM      5  C   UNL     1       9.206  19.887  14.279  1.00  0.00     0.006 C 
BRANCH   5   6
ATOM      6  C   UNL     1      10.653  20.374  14.123  1.00  0.00     0.053 C 
BRANCH   6   7
ATOM      7  C   UNL     1      10.748  21.868  14.201  1.00  0.00     0.041 C 
ATOM      8  O   UNL     1      10.641  22.566  13.160  1.00  0.00    -0.550 OA
ATOM      9  O   UNL     1      10.927  22.489  15.432  1.00  0.00    -0.550 OA
ENDBRANCH   6   7
ENDBRANCH   5   6
ENDBRANCH   4   5
ENDBRANCH   3   4
ENDBRANCH   2   3
ENDBRANCH   1   2
BRANCH   1  10
ATOM     10  C   UNL     1       3.424  19.986  15.218  1.00  0.00     0.000 C 
BRANCH  10  11
ATOM     11  C   UNL     1       2.365  19.878  16.326  1.00  0.00    -0.000 C 
BRANCH  11  12
ATOM     12  C   UNL     1       1.139  20.740  15.999  1.00  0.00    -0.000 C 
BRANCH  12  13
ATOM     13  C   UNL     1      -0.162  20.002  16.350  1.00  0.00    -0.000 C 
BRANCH  13  14
ATOM     14  C   UNL     1      -1.073  20.817  17.280  1.00  0.00    -0.000 C 
BRANCH  14  15
ATOM     15  C   UNL     1      -2.463  20.185  17.448  1.00  0.00    -0.003 C 
ATOM     16  C   UNL     1      -3.093  19.875  16.092  1.00  0.00     0.004 C 
ENDBRANCH  14  15
ENDBRANCH  13  14
ENDBRANCH  12  13
ENDBRANCH  11  12
ENDBRANCH  10  11
ENDBRANCH   1  10
TORSDOF 12
ENDMDL
MODEL 7
REMARK VINA RESULT:     0.518      9.524     13.039
REMARK INTER + INTRA:           0.006
REMARK INTER:                   0.372
REMARK INTRA:                  -0.366
REMARK UNBOUND:                -0.876
REMARK SMILES CCCCCCCCCCCCCC(=O)[O-]
REMARK SMILES IDX 8 1 9 2 10 3 11 4 12 5 13 6 14 7 15 8 16 9 7 10 6 11 5 12
REMARK SMILES IDX 4 13 3 14 2 15 1 16
REMARK H PARENT
REMARK Flexibility Score: inf
ROOT
ATOM      1  C   UNL     1      -2.594  20.840  15.803  1.00  0.00     0.000 C 
ENDROOT
BRANCH   1   2
ATOM      2  C   UNL     1      -1.294  20.063  16.058  1.00  0.00     0.000 C 
BRANCH   2   3
ATOM      3  C   UNL     1      -0.096  21.019  16.168  1.00  0.00     0.000 C 
BRANCH   3   4
ATOM      4  C   UNL     1       1.211  20.293  16.523  1.00  0.00     0.000 C 
BRANCH   4   5
ATOM      5  C   UNL     1       2.409  20.790  15.695  1.00  0.00     0.006 C 
BRANCH   5   6
ATOM      6  C   UNL     1       3.632  19.875  15.840  1.00  0.00     0.053 C 
BRANCH   6   7
ATOM      7  C   UNL     1       4.880  20.530  15.330  1.00  0.00     0.041 C 
ATOM      8  O   UNL     1       5.053  20.689  14.093  1.00  0.00    -0.550 OA
ATOM      9  O   UNL     1       5.840  20.989  16.224  1.00  0.00    -0.550 OA
ENDBRANCH   6   7
ENDBRANCH   5   6
ENDBRANCH   4   5
ENDBRANCH   3   4
ENDBRANCH   2   3
ENDBRANCH   1   2
BRANCH   1  10
ATOM     10  C   UNL     1      -3.801  19.917  15.570  1.00  0.00     0.000 C 
BRANCH  10  11
ATOM     11  C   UNL     1      -5.136  20.582  15.937  1.00  0.00    -0.000 C 
BRANCH  11  12
ATOM     12  C   UNL     1      -6.042  20.711  14.706  1.00  0.00    -0.000 C 
BRANCH  12  13
ATOM     13  C   UNL     1      -7.503  20.940  15.120  1.00  0.00    -0.000 C 
BRANCH  13  14
ATOM     14  C   UNL     1      -7.714  20.827  16.637  1.00  0.00    -0.000 C 
BRANCH  14  15
ATOM     15  C   UNL     1      -8.795  21.786  17.157  1.00  0.00    -0.003 C 
ATOM     16  C   UNL     1      -8.544  22.157  18.617  1.00  0.00     0.004 C 
ENDBRANCH  14  15
ENDBRANCH  13  14
ENDBRANCH  12  13
ENDBRANCH  11  12
ENDBRANCH  10  11
ENDBRANCH   1  10
TORSDOF 12
ENDMDL
