MODEL 1
REMARK VINA RESULT:    -5.624      0.000      0.000
REMARK INTER + INTRA:          -6.935
REMARK INTER:                  -6.775
REMARK INTRA:                  -0.160
REMARK UNBOUND:                -0.160
REMARK SMILES O=c1c(O)c(-c2ccc(O)c(O)c2)oc2cc(O)cc(O)c12
REMARK SMILES IDX 5 1 3 2 2 3 1 4 22 5 20 6 19 7 17 8 16 9 15 10 14 11 6 12
REMARK SMILES IDX 7 13 8 14 9 15 13 16 11 17 10 18 12 20 4 22 21 24 18 26
REMARK H PARENT 10 19 12 21 4 23 21 25 18 27
REMARK Flexibility Score: inf
ROOT
ATOM      1  C   UNL     1     -23.294  -9.254  -7.695  1.00  0.00     0.180 A 
ATOM      2  C   UNL     1     -23.655  -8.642  -8.907  1.00  0.00     0.208 A 
ATOM      3  C   UNL     1     -24.366  -7.432  -8.874  1.00  0.00     0.238 A 
ATOM      4  O   UNL     1     -24.640  -6.861  -9.961  1.00  0.00    -0.285 OA
ATOM      5  C   UNL     1     -24.718  -6.857  -7.629  1.00  0.00     0.111 A 
ATOM      6  C   UNL     1     -25.472  -5.654  -7.477  1.00  0.00     0.134 A 
ATOM      7  C   UNL     1     -25.651  -5.108  -6.199  1.00  0.00     0.093 A 
ATOM      8  C   UNL     1     -25.161  -5.754  -5.065  1.00  0.00     0.123 A 
ATOM      9  C   UNL     1     -24.474  -6.961  -5.198  1.00  0.00     0.094 A 
ATOM     10  C   UNL     1     -24.249  -7.512  -6.461  1.00  0.00     0.146 A 
ATOM     11  O   UNL     1     -23.582  -8.657  -6.545  1.00  0.00    -0.452 OA
ENDROOT
BRANCH   1  12
ATOM     12  C   UNL     1     -22.566 -10.544  -7.650  1.00  0.00     0.025 A 
ATOM     13  C   UNL     1     -23.214 -11.685  -7.151  1.00  0.00     0.016 A 
ATOM     14  C   UNL     1     -22.554 -12.916  -7.119  1.00  0.00     0.051 A 
ATOM     15  C   UNL     1     -21.243 -13.027  -7.600  1.00  0.00     0.157 A 
ATOM     16  C   UNL     1     -21.258 -10.664  -8.152  1.00  0.00     0.062 A 
ATOM     17  C   UNL     1     -20.596 -11.901  -8.122  1.00  0.00     0.158 A 
BRANCH  15  18
ATOM     18  O   UNL     1     -20.581 -14.253  -7.569  1.00  0.00    -0.504 OA
ATOM     19  H   UNL     1     -19.611 -14.325  -7.283  1.00  0.00     0.293 HD
ENDBRANCH  15  18
BRANCH  17  20
ATOM     20  O   UNL     1     -19.296 -12.017  -8.612  1.00  0.00    -0.504 OA
ATOM     21  H   UNL     1     -19.005 -11.545  -9.461  1.00  0.00     0.293 HD
ENDBRANCH  17  20
ENDBRANCH   1  12
BRANCH   2  22
ATOM     22  O   UNL     1     -23.278  -9.215 -10.125  1.00  0.00    -0.502 OA
ATOM     23  H   UNL     1     -22.735 -10.068 -10.180  1.00  0.00     0.293 HD
ENDBRANCH   2  22
BRANCH   6  24
ATOM     24  O   UNL     1     -26.085  -4.978  -8.536  1.00  0.00    -0.507 OA
ATOM     25  H   UNL     1     -27.070  -5.013  -8.748  1.00  0.00     0.293 HD
ENDBRANCH   6  24
BRANCH   8  26
ATOM     26  O   UNL     1     -25.371  -5.190  -3.809  1.00  0.00    -0.508 OA
ATOM     27  H   UNL     1     -26.303  -5.077  -3.427  1.00  0.00     0.293 HD
ENDBRANCH   8  26
TORSDOF 6
ENDMDL
MODEL 2
REMARK VINA RESULT:    -5.268      1.564      7.144
REMARK INTER + INTRA:          -6.506
REMARK INTER:                  -6.315
REMARK INTRA:                  -0.191
REMARK UNBOUND:                -0.160
REMARK SMILES O=c1c(O)c(-c2ccc(O)c(O)c2)oc2cc(O)cc(O)c12
REMARK SMILES IDX 5 1 3 2 2 3 1 4 22 5 20 6 19 7 17 8 16 9 15 10 14 11 6 12
REMARK SMILES IDX 7 13 8 14 9 15 13 16 11 17 10 18 12 20 4 22 21 24 18 26
REMARK H PARENT 10 19 12 21 4 23 21 25 18 27
REMARK Flexibility Score: inf
ROOT
ATOM      1  C   UNL     1     -24.049  -9.214  -6.878  1.00  0.00     0.180 A 
ATOM      2  C   UNL     1     -24.900 -10.265  -6.496  1.00  0.00     0.208 A 
ATOM      3  C   UNL     1     -24.485 -11.590  -6.710  1.00  0.00     0.238 A 
ATOM      4  O   UNL     1     -25.228 -12.527  -6.318  1.00  0.00    -0.285 OA
ATOM      5  C   UNL     1     -23.231 -11.845  -7.315  1.00  0.00     0.111 A 
ATOM      6  C   UNL     1     -22.726 -13.147  -7.615  1.00  0.00     0.134 A 
ATOM      7  C   UNL     1     -21.418 -13.286  -8.095  1.00  0.00     0.093 A 
ATOM      8  C   UNL     1     -20.621 -12.171  -8.347  1.00  0.00     0.123 A 
ATOM      9  C   UNL     1     -21.125 -10.891  -8.113  1.00  0.00     0.094 A 
ATOM     10  C   UNL     1     -22.413 -10.721  -7.601  1.00  0.00     0.146 A 
ATOM     11  O   UNL     1     -22.852  -9.487  -7.382  1.00  0.00    -0.452 OA
ENDROOT
BRANCH   1  12
ATOM     12  C   UNL     1     -24.428  -7.793  -6.708  1.00  0.00     0.025 A 
ATOM     13  C   UNL     1     -24.720  -7.016  -7.840  1.00  0.00     0.016 A 
ATOM     14  C   UNL     1     -25.100  -5.678  -7.703  1.00  0.00     0.051 A 
ATOM     15  C   UNL     1     -25.210  -5.103  -6.429  1.00  0.00     0.157 A 
ATOM     16  C   UNL     1     -24.561  -7.218  -5.431  1.00  0.00     0.062 A 
ATOM     17  C   UNL     1     -24.945  -5.875  -5.292  1.00  0.00     0.158 A 
BRANCH  15  18
ATOM     18  O   UNL     1     -25.588  -3.769  -6.288  1.00  0.00    -0.504 OA
ATOM     19  H   UNL     1     -24.902  -3.025  -6.249  1.00  0.00     0.293 HD
ENDBRANCH  15  18
BRANCH  17  20
ATOM     20  O   UNL     1     -25.069  -5.305  -4.026  1.00  0.00    -0.504 OA
ATOM     21  H   UNL     1     -24.390  -4.637  -3.677  1.00  0.00     0.293 HD
ENDBRANCH  17  20
ENDBRANCH   1  12
BRANCH   2  22
ATOM     22  O   UNL     1     -26.125  -9.991  -5.880  1.00  0.00    -0.502 OA
ATOM     23  H   UNL     1     -26.908 -10.632  -5.917  1.00  0.00     0.293 HD
ENDBRANCH   2  22
BRANCH   6  24
ATOM     24  O   UNL     1     -23.473 -14.321  -7.488  1.00  0.00    -0.507 OA
ATOM     25  H   UNL     1     -23.114 -15.197  -7.140  1.00  0.00     0.293 HD
ENDBRANCH   6  24
BRANCH   8  26
ATOM     26  O   UNL     1     -19.329 -12.346  -8.838  1.00  0.00    -0.508 OA
ATOM     27  H   UNL     1     -18.595 -11.672  -8.654  1.00  0.00     0.293 HD
ENDBRANCH   8  26
TORSDOF 6
ENDMDL
MODEL 3
REMARK VINA RESULT:    -5.166      1.869      3.082
REMARK INTER + INTRA:          -6.382
REMARK INTER:                  -6.270
REMARK INTRA:                  -0.112
REMARK UNBOUND:                -0.160
REMARK SMILES O=c1c(O)c(-c2ccc(O)c(O)c2)oc2cc(O)cc(O)c12
REMARK SMILES IDX 5 1 3 2 2 3 1 4 22 5 20 6 19 7 17 8 16 9 15 10 14 11 6 12
REMARK SMILES IDX 7 13 8 14 9 15 13 16 11 17 10 18 12 20 4 22 21 24 18 26
REMARK H PARENT 10 19 12 21 4 23 21 25 18 27
REMARK Flexibility Score: inf
ROOT
ATOM      1  C   UNL     1     -23.116 -10.596  -7.049  1.00  0.00     0.180 A 
ATOM      2  C   UNL     1     -23.871 -11.025  -5.945  1.00  0.00     0.208 A 
ATOM      3  C   UNL     1     -24.638 -10.085  -5.237  1.00  0.00     0.238 A 
ATOM      4  O   UNL     1     -25.353 -10.483  -4.282  1.00  0.00    -0.285 OA
ATOM      5  C   UNL     1     -24.627  -8.726  -5.634  1.00  0.00     0.111 A 
ATOM      6  C   UNL     1     -25.334  -7.681  -4.966  1.00  0.00     0.134 A 
ATOM      7  C   UNL     1     -25.355  -6.396  -5.523  1.00  0.00     0.093 A 
ATOM      8  C   UNL     1     -24.644  -6.103  -6.685  1.00  0.00     0.123 A 
ATOM      9  C   UNL     1     -23.901  -7.103  -7.315  1.00  0.00     0.094 A 
ATOM     10  C   UNL     1     -23.889  -8.403  -6.803  1.00  0.00     0.146 A 
ATOM     11  O   UNL     1     -23.178  -9.328  -7.437  1.00  0.00    -0.452 OA
ENDROOT
BRANCH   1  12
ATOM     12  C   UNL     1     -22.264 -11.524  -7.829  1.00  0.00     0.025 A 
ATOM     13  C   UNL     1     -22.858 -12.596  -8.514  1.00  0.00     0.016 A 
ATOM     14  C   UNL     1     -22.077 -13.472  -9.272  1.00  0.00     0.051 A 
ATOM     15  C   UNL     1     -20.692 -13.278  -9.370  1.00  0.00     0.157 A 
ATOM     16  C   UNL     1     -20.878 -11.321  -7.947  1.00  0.00     0.062 A 
ATOM     17  C   UNL     1     -20.093 -12.198  -8.711  1.00  0.00     0.158 A 
BRANCH  15  18
ATOM     18  O   UNL     1     -19.909 -14.149 -10.125  1.00  0.00    -0.504 OA
ATOM     19  H   UNL     1     -19.870 -15.141  -9.919  1.00  0.00     0.293 HD
ENDBRANCH  15  18
BRANCH  17  20
ATOM     20  O   UNL     1     -18.717 -12.000  -8.821  1.00  0.00    -0.504 OA
ATOM     21  H   UNL     1     -18.303 -11.081  -8.709  1.00  0.00     0.293 HD
ENDBRANCH  17  20
ENDBRANCH   1  12
BRANCH   2  22
ATOM     22  O   UNL     1     -23.885 -12.375  -5.583  1.00  0.00    -0.502 OA
ATOM     23  H   UNL     1     -23.818 -13.121  -6.264  1.00  0.00     0.293 HD
ENDBRANCH   2  22
BRANCH   6  24
ATOM     24  O   UNL     1     -26.001  -7.845  -3.749  1.00  0.00    -0.507 OA
ATOM     25  H   UNL     1     -26.708  -7.222  -3.391  1.00  0.00     0.293 HD
ENDBRANCH   6  24
BRANCH   8  26
ATOM     26  O   UNL     1     -24.676  -4.810  -7.203  1.00  0.00    -0.508 OA
ATOM     27  H   UNL     1     -24.339  -4.604  -8.137  1.00  0.00     0.293 HD
ENDBRANCH   8  26
TORSDOF 6
ENDMDL
MODEL 4
REMARK VINA RESULT:    -5.111     14.122     17.660
REMARK INTER + INTRA:          -6.316
REMARK INTER:                  -6.097
REMARK INTRA:                  -0.220
REMARK UNBOUND:                -0.160
REMARK SMILES O=c1c(O)c(-c2ccc(O)c(O)c2)oc2cc(O)cc(O)c12
REMARK SMILES IDX 5 1 3 2 2 3 1 4 22 5 20 6 19 7 17 8 16 9 15 10 14 11 6 12
REMARK SMILES IDX 7 13 8 14 9 15 13 16 11 17 10 18 12 20 4 22 21 24 18 26
REMARK H PARENT 10 19 12 21 4 23 21 25 18 27
REMARK Flexibility Score: inf
ROOT
ATOM      1  C   UNL     1      -7.702 -14.380  -2.231  1.00  0.00     0.180 A 
ATOM      2  C   UNL     1      -7.370 -15.369  -3.173  1.00  0.00     0.208 A 
ATOM      3  C   UNL     1      -7.826 -15.231  -4.494  1.00  0.00     0.238 A 
ATOM      4  O   UNL     1      -7.481 -16.092  -5.345  1.00  0.00    -0.285 OA
ATOM      5  C   UNL     1      -8.619 -14.115  -4.852  1.00  0.00     0.111 A 
ATOM      6  C   UNL     1      -9.169 -13.895  -6.152  1.00  0.00     0.134 A 
ATOM      7  C   UNL     1      -9.830 -12.692  -6.428  1.00  0.00     0.093 A 
ATOM      8  C   UNL     1     -10.019 -11.730  -5.436  1.00  0.00     0.123 A 
ATOM      9  C   UNL     1      -9.537 -11.961  -4.146  1.00  0.00     0.094 A 
ATOM     10  C   UNL     1      -8.843 -13.136  -3.850  1.00  0.00     0.146 A 
ATOM     11  O   UNL     1      -8.392 -13.312  -2.613  1.00  0.00    -0.452 OA
ENDROOT
BRANCH   1  12
ATOM     12  C   UNL     1      -7.279 -14.468  -0.814  1.00  0.00     0.025 A 
ATOM     13  C   UNL     1      -6.394 -13.509  -0.297  1.00  0.00     0.016 A 
ATOM     14  C   UNL     1      -5.997 -13.561   1.042  1.00  0.00     0.051 A 
ATOM     15  C   UNL     1      -6.494 -14.562   1.887  1.00  0.00     0.157 A 
ATOM     16  C   UNL     1      -7.792 -15.458   0.043  1.00  0.00     0.062 A 
ATOM     17  C   UNL     1      -7.397 -15.509   1.388  1.00  0.00     0.158 A 
BRANCH  15  18
ATOM     18  O   UNL     1      -6.102 -14.618   3.223  1.00  0.00    -0.504 OA
ATOM     19  H   UNL     1      -5.216 -15.027   3.499  1.00  0.00     0.293 HD
ENDBRANCH  15  18
BRANCH  17  20
ATOM     20  O   UNL     1      -7.900 -16.496   2.234  1.00  0.00    -0.504 OA
ATOM     21  H   UNL     1      -8.255 -16.273   3.157  1.00  0.00     0.293 HD
ENDBRANCH  17  20
ENDBRANCH   1  12
BRANCH   2  22
ATOM     22  O   UNL     1      -6.567 -16.451  -2.803  1.00  0.00    -0.502 OA
ATOM     23  H   UNL     1      -6.290 -17.172  -3.458  1.00  0.00     0.293 HD
ENDBRANCH   2  22
BRANCH   6  24
ATOM     24  O   UNL     1      -9.118 -14.831  -7.189  1.00  0.00    -0.507 OA
ATOM     25  H   UNL     1      -9.918 -15.308  -7.574  1.00  0.00     0.293 HD
ENDBRANCH   6  24
BRANCH   8  26
ATOM     26  O   UNL     1     -10.694 -10.551  -5.742  1.00  0.00    -0.508 OA
ATOM     27  H   UNL     1     -10.732  -9.777  -5.088  1.00  0.00     0.293 HD
ENDBRANCH   8  26
TORSDOF 6
ENDMDL
MODEL 5
REMARK VINA RESULT:    -5.075     15.506     17.495
REMARK INTER + INTRA:          -6.273
REMARK INTER:                  -5.949
REMARK INTRA:                  -0.323
REMARK UNBOUND:                -0.160
REMARK SMILES O=c1c(O)c(-c2ccc(O)c(O)c2)oc2cc(O)cc(O)c12
REMARK SMILES IDX 5 1 3 2 2 3 1 4 22 5 20 6 19 7 17 8 16 9 15 10 14 11 6 12
REMARK SMILES IDX 7 13 8 14 9 15 13 16 11 17 10 18 12 20 4 22 21 24 18 26
REMARK H PARENT 10 19 12 21 4 23 21 25 18 27
REMARK Flexibility Score: inf
ROOT
ATOM      1  C   UNL     1      -8.301 -14.941  -2.453  1.00  0.00     0.180 A 
ATOM      2  C   UNL     1      -7.734 -15.790  -3.420  1.00  0.00     0.208 A 
ATOM      3  C   UNL     1      -7.528 -15.300  -4.719  1.00  0.00     0.238 A 
ATOM      4  O   UNL     1      -6.971 -16.046  -5.566  1.00  0.00    -0.285 OA
ATOM      5  C   UNL     1      -7.905 -13.974  -5.040  1.00  0.00     0.111 A 
ATOM      6  C   UNL     1      -7.780 -13.386  -6.335  1.00  0.00     0.134 A 
ATOM      7  C   UNL     1      -8.064 -12.025  -6.506  1.00  0.00     0.093 A 
ATOM      8  C   UNL     1      -8.531 -11.248  -5.447  1.00  0.00     0.123 A 
ATOM      9  C   UNL     1      -8.714 -11.827  -4.190  1.00  0.00     0.094 A 
ATOM     10  C   UNL     1      -8.405 -13.173  -3.980  1.00  0.00     0.146 A 
ATOM     11  O   UNL     1      -8.583 -13.683  -2.767  1.00  0.00    -0.452 OA
ENDROOT
BRANCH   1  12
ATOM     12  C   UNL     1      -8.571 -15.394  -1.069  1.00  0.00     0.025 A 
ATOM     13  C   UNL     1      -9.797 -16.011  -0.772  1.00  0.00     0.016 A 
ATOM     14  C   UNL     1     -10.066 -16.464   0.523  1.00  0.00     0.051 A 
ATOM     15  C   UNL     1      -9.106 -16.323   1.533  1.00  0.00     0.157 A 
ATOM     16  C   UNL     1      -7.603 -15.274  -0.057  1.00  0.00     0.062 A 
ATOM     17  C   UNL     1      -7.870 -15.732   1.242  1.00  0.00     0.158 A 
BRANCH  15  18
ATOM     18  O   UNL     1      -9.369 -16.774   2.825  1.00  0.00    -0.504 OA
ATOM     19  H   UNL     1      -9.109 -17.706   3.125  1.00  0.00     0.293 HD
ENDBRANCH  15  18
BRANCH  17  20
ATOM     20  O   UNL     1      -6.912 -15.605   2.246  1.00  0.00    -0.504 OA
ATOM     21  H   UNL     1      -6.082 -15.038   2.118  1.00  0.00     0.293 HD
ENDBRANCH  17  20
ENDBRANCH   1  12
BRANCH   2  22
ATOM     22  O   UNL     1      -7.348 -17.089  -3.076  1.00  0.00    -0.502 OA
ATOM     23  H   UNL     1      -8.002 -17.773  -2.718  1.00  0.00     0.293 HD
ENDBRANCH   2  22
BRANCH   6  24
ATOM     24  O   UNL     1      -7.411 -14.096  -7.481  1.00  0.00    -0.507 OA
ATOM     25  H   UNL     1      -7.221 -15.086  -7.509  1.00  0.00     0.293 HD
ENDBRANCH   6  24
BRANCH   8  26
ATOM     26  O   UNL     1      -8.818  -9.901  -5.657  1.00  0.00    -0.508 OA
ATOM     27  H   UNL     1      -8.222  -9.316  -6.231  1.00  0.00     0.293 HD
ENDBRANCH   8  26
TORSDOF 6
ENDMDL
MODEL 6
REMARK VINA RESULT:    -4.833      2.553      3.524
REMARK INTER + INTRA:          -5.981
REMARK INTER:                  -5.750
REMARK INTRA:                  -0.231
REMARK UNBOUND:                -0.160
REMARK SMILES O=c1c(O)c(-c2ccc(O)c(O)c2)oc2cc(O)cc(O)c12
REMARK SMILES IDX 5 1 3 2 2 3 1 4 22 5 20 6 19 7 17 8 16 9 15 10 14 11 6 12
REMARK SMILES IDX 7 13 8 14 9 15 13 16 11 17 10 18 12 20 4 22 21 24 18 26
REMARK H PARENT 10 19 12 21 4 23 21 25 18 27
REMARK Flexibility Score: inf
ROOT
ATOM      1  C   UNL     1     -22.932 -11.001  -7.085  1.00  0.00     0.180 A 
ATOM      2  C   UNL     1     -23.262  -9.701  -7.502  1.00  0.00     0.208 A 
ATOM      3  C   UNL     1     -24.109  -8.922  -6.698  1.00  0.00     0.238 A 
ATOM      4  O   UNL     1     -24.358  -7.739  -7.050  1.00  0.00    -0.285 OA
ATOM      5  C   UNL     1     -24.627  -9.458  -5.495  1.00  0.00     0.111 A 
ATOM      6  C   UNL     1     -25.527  -8.772  -4.623  1.00  0.00     0.134 A 
ATOM      7  C   UNL     1     -25.872  -9.350  -3.395  1.00  0.00     0.093 A 
ATOM      8  C   UNL     1     -25.405 -10.613  -3.036  1.00  0.00     0.123 A 
ATOM      9  C   UNL     1     -24.573 -11.318  -3.907  1.00  0.00     0.094 A 
ATOM     10  C   UNL     1     -24.182 -10.753  -5.124  1.00  0.00     0.146 A 
ATOM     11  O   UNL     1     -23.381 -11.452  -5.919  1.00  0.00    -0.452 OA
ENDROOT
BRANCH   1  12
ATOM     12  C   UNL     1     -22.065 -11.892  -7.891  1.00  0.00     0.025 A 
ATOM     13  C   UNL     1     -20.685 -11.641  -7.951  1.00  0.00     0.016 A 
ATOM     14  C   UNL     1     -19.845 -12.480  -8.689  1.00  0.00     0.051 A 
ATOM     15  C   UNL     1     -20.371 -13.590  -9.363  1.00  0.00     0.157 A 
ATOM     16  C   UNL     1     -22.585 -13.019  -8.551  1.00  0.00     0.062 A 
ATOM     17  C   UNL     1     -21.742 -13.863  -9.290  1.00  0.00     0.158 A 
BRANCH  15  18
ATOM     18  O   UNL     1     -19.537 -14.429 -10.100  1.00  0.00    -0.504 OA
ATOM     19  H   UNL     1     -19.811 -14.783 -11.009  1.00  0.00     0.293 HD
ENDBRANCH  15  18
BRANCH  17  20
ATOM     20  O   UNL     1     -22.261 -14.975  -9.950  1.00  0.00    -0.504 OA
ATOM     21  H   UNL     1     -22.234 -15.900  -9.534  1.00  0.00     0.293 HD
ENDBRANCH  17  20
ENDBRANCH   1  12
BRANCH   2  22
ATOM     22  O   UNL     1     -22.721  -9.183  -8.683  1.00  0.00    -0.502 OA
ATOM     23  H   UNL     1     -21.754  -8.892  -8.756  1.00  0.00     0.293 HD
ENDBRANCH   2  22
BRANCH   6  24
ATOM     24  O   UNL     1     -26.125  -7.546  -4.928  1.00  0.00    -0.507 OA
ATOM     25  H   UNL     1     -27.074  -7.433  -5.250  1.00  0.00     0.293 HD
ENDBRANCH   6  24
BRANCH   8  26
ATOM     26  O   UNL     1     -25.782 -11.163  -1.813  1.00  0.00    -0.508 OA
ATOM     27  H   UNL     1     -25.236 -11.010  -0.973  1.00  0.00     0.293 HD
ENDBRANCH   8  26
TORSDOF 6
ENDMDL
MODEL 7
REMARK VINA RESULT:    -4.664      2.016      7.163
REMARK INTER + INTRA:          -5.777
REMARK INTER:                  -5.816
REMARK INTRA:                   0.039
REMARK UNBOUND:                -0.160
REMARK SMILES O=c1c(O)c(-c2ccc(O)c(O)c2)oc2cc(O)cc(O)c12
REMARK SMILES IDX 5 1 3 2 2 3 1 4 22 5 20 6 19 7 17 8 16 9 15 10 14 11 6 12
REMARK SMILES IDX 7 13 8 14 9 15 13 16 11 17 10 18 12 20 4 22 21 24 18 26
REMARK H PARENT 10 19 12 21 4 23 21 25 18 27
REMARK Flexibility Score: inf
ROOT
ATOM      1  C   UNL     1     -23.449 -10.778  -7.143  1.00  0.00     0.180 A 
ATOM      2  C   UNL     1     -24.214 -11.946  -7.307  1.00  0.00     0.208 A 
ATOM      3  C   UNL     1     -23.656 -13.036  -7.993  1.00  0.00     0.238 A 
ATOM      4  O   UNL     1     -24.325 -14.097  -8.090  1.00  0.00    -0.285 OA
ATOM      5  C   UNL     1     -22.346 -12.939  -8.520  1.00  0.00     0.111 A 
ATOM      6  C   UNL     1     -21.695 -13.967  -9.267  1.00  0.00     0.134 A 
ATOM      7  C   UNL     1     -20.350 -13.813  -9.628  1.00  0.00     0.093 A 
ATOM      8  C   UNL     1     -19.653 -12.644  -9.327  1.00  0.00     0.123 A 
ATOM      9  C   UNL     1     -20.297 -11.608  -8.648  1.00  0.00     0.094 A 
ATOM     10  C   UNL     1     -21.627 -11.747  -8.244  1.00  0.00     0.146 A 
ATOM     11  O   UNL     1     -22.200 -10.742  -7.592  1.00  0.00    -0.452 OA
ENDROOT
BRANCH   1  12
ATOM     12  C   UNL     1     -23.979  -9.580  -6.453  1.00  0.00     0.025 A 
ATOM     13  C   UNL     1     -24.558  -9.715  -5.181  1.00  0.00     0.016 A 
ATOM     14  C   UNL     1     -25.046  -8.594  -4.503  1.00  0.00     0.051 A 
ATOM     15  C   UNL     1     -24.946  -7.321  -5.080  1.00  0.00     0.157 A 
ATOM     16  C   UNL     1     -23.862  -8.298  -7.019  1.00  0.00     0.062 A 
ATOM     17  C   UNL     1     -24.349  -7.172  -6.337  1.00  0.00     0.158 A 
BRANCH  15  18
ATOM     18  O   UNL     1     -25.431  -6.202  -4.407  1.00  0.00    -0.504 OA
ATOM     19  H   UNL     1     -26.246  -6.256  -3.806  1.00  0.00     0.293 HD
ENDBRANCH  15  18
BRANCH  17  20
ATOM     20  O   UNL     1     -24.239  -5.903  -6.903  1.00  0.00    -0.504 OA
ATOM     21  H   UNL     1     -23.366  -5.572  -7.299  1.00  0.00     0.293 HD
ENDBRANCH  17  20
ENDBRANCH   1  12
BRANCH   2  22
ATOM     22  O   UNL     1     -25.498 -12.028  -6.759  1.00  0.00    -0.502 OA
ATOM     23  H   UNL     1     -25.705 -12.585  -5.940  1.00  0.00     0.293 HD
ENDBRANCH   2  22
BRANCH   6  24
ATOM     24  O   UNL     1     -22.328 -15.136  -9.701  1.00  0.00    -0.507 OA
ATOM     25  H   UNL     1     -23.316 -15.319  -9.620  1.00  0.00     0.293 HD
ENDBRANCH   6  24
BRANCH   8  26
ATOM     26  O   UNL     1     -18.321 -12.519  -9.714  1.00  0.00    -0.508 OA
ATOM     27  H   UNL     1     -17.605 -12.222  -9.062  1.00  0.00     0.293 HD
ENDBRANCH   8  26
TORSDOF 6
ENDMDL
MODEL 8
REMARK VINA RESULT:    -4.610     14.703     17.848
REMARK INTER + INTRA:          -5.713
REMARK INTER:                  -5.393
REMARK INTRA:                  -0.320
REMARK UNBOUND:                -0.160
REMARK SMILES O=c1c(O)c(-c2ccc(O)c(O)c2)oc2cc(O)cc(O)c12
REMARK SMILES IDX 5 1 3 2 2 3 1 4 22 5 20 6 19 7 17 8 16 9 15 10 14 11 6 12
REMARK SMILES IDX 7 13 8 14 9 15 13 16 11 17 10 18 12 20 4 22 21 24 18 26
REMARK H PARENT 10 19 12 21 4 23 21 25 18 27
REMARK Flexibility Score: inf
ROOT
ATOM      1  C   UNL     1      -8.186 -14.590  -2.712  1.00  0.00     0.180 A 
ATOM      2  C   UNL     1      -7.105 -13.964  -2.069  1.00  0.00     0.208 A 
ATOM      3  C   UNL     1      -6.876 -14.226  -0.709  1.00  0.00     0.238 A 
ATOM      4  O   UNL     1      -5.875 -13.705  -0.152  1.00  0.00    -0.285 OA
ATOM      5  C   UNL     1      -7.742 -15.098  -0.005  1.00  0.00     0.111 A 
ATOM      6  C   UNL     1      -7.629 -15.404   1.385  1.00  0.00     0.134 A 
ATOM      7  C   UNL     1      -8.460 -16.380   1.948  1.00  0.00     0.093 A 
ATOM      8  C   UNL     1      -9.443 -17.013   1.188  1.00  0.00     0.123 A 
ATOM      9  C   UNL     1      -9.601 -16.679  -0.158  1.00  0.00     0.094 A 
ATOM     10  C   UNL     1      -8.763 -15.735  -0.756  1.00  0.00     0.146 A 
ATOM     11  O   UNL     1      -8.940 -15.453  -2.041  1.00  0.00    -0.452 OA
ENDROOT
BRANCH   1  12
ATOM     12  C   UNL     1      -8.505 -14.344  -4.137  1.00  0.00     0.025 A 
ATOM     13  C   UNL     1      -8.112 -15.283  -5.104  1.00  0.00     0.016 A 
ATOM     14  C   UNL     1      -8.420 -15.081  -6.452  1.00  0.00     0.051 A 
ATOM     15  C   UNL     1      -9.140 -13.947  -6.850  1.00  0.00     0.157 A 
ATOM     16  C   UNL     1      -9.246 -13.218  -4.538  1.00  0.00     0.062 A 
ATOM     17  C   UNL     1      -9.558 -13.017  -5.891  1.00  0.00     0.158 A 
BRANCH  15  18
ATOM     18  O   UNL     1      -9.449 -13.742  -8.194  1.00  0.00    -0.504 OA
ATOM     19  H   UNL     1      -9.051 -14.322  -8.924  1.00  0.00     0.293 HD
ENDBRANCH  15  18
BRANCH  17  20
ATOM     20  O   UNL     1     -10.285 -11.896  -6.288  1.00  0.00    -0.504 OA
ATOM     21  H   UNL     1     -11.242 -11.973  -6.615  1.00  0.00     0.293 HD
ENDBRANCH  17  20
ENDBRANCH   1  12
BRANCH   2  22
ATOM     22  O   UNL     1      -6.250 -13.124  -2.788  1.00  0.00    -0.502 OA
ATOM     23  H   UNL     1      -6.592 -12.409  -3.417  1.00  0.00     0.293 HD
ENDBRANCH   2  22
BRANCH   6  24
ATOM     24  O   UNL     1      -6.743 -14.762   2.256  1.00  0.00    -0.507 OA
ATOM     25  H   UNL     1      -5.887 -15.164   2.606  1.00  0.00     0.293 HD
ENDBRANCH   6  24
BRANCH   8  26
ATOM     26  O   UNL     1     -10.263 -17.969   1.783  1.00  0.00    -0.508 OA
ATOM     27  H   UNL     1     -10.092 -18.961   1.666  1.00  0.00     0.293 HD
ENDBRANCH   8  26
TORSDOF 6
ENDMDL
MODEL 9
REMARK VINA RESULT:    -4.605     14.049     15.664
REMARK INTER + INTRA:          -5.707
REMARK INTER:                  -5.415
REMARK INTRA:                  -0.292
REMARK UNBOUND:                -0.160
REMARK SMILES O=c1c(O)c(-c2ccc(O)c(O)c2)oc2cc(O)cc(O)c12
REMARK SMILES IDX 5 1 3 2 2 3 1 4 22 5 20 6 19 7 17 8 16 9 15 10 14 11 6 12
REMARK SMILES IDX 7 13 8 14 9 15 13 16 11 17 10 18 12 20 4 22 21 24 18 26
REMARK H PARENT 10 19 12 21 4 23 21 25 18 27
REMARK Flexibility Score: inf
ROOT
ATOM      1  C   UNL     1      -8.043 -10.327  -6.857  1.00  0.00     0.180 A 
ATOM      2  C   UNL     1      -7.476  -9.731  -7.996  1.00  0.00     0.208 A 
ATOM      3  C   UNL     1      -7.106  -8.378  -7.945  1.00  0.00     0.238 A 
ATOM      4  O   UNL     1      -6.550  -7.864  -8.950  1.00  0.00    -0.285 OA
ATOM      5  C   UNL     1      -7.323  -7.633  -6.760  1.00  0.00     0.111 A 
ATOM      6  C   UNL     1      -7.023  -6.245  -6.609  1.00  0.00     0.134 A 
ATOM      7  C   UNL     1      -7.157  -5.643  -5.352  1.00  0.00     0.093 A 
ATOM      8  C   UNL     1      -7.640  -6.359  -4.258  1.00  0.00     0.123 A 
ATOM      9  C   UNL     1      -7.992  -7.701  -4.408  1.00  0.00     0.094 A 
ATOM     10  C   UNL     1      -7.836  -8.340  -5.641  1.00  0.00     0.146 A 
ATOM     11  O   UNL     1      -8.172  -9.620  -5.740  1.00  0.00    -0.452 OA
ENDROOT
BRANCH   1  12
ATOM     12  C   UNL     1      -8.481 -11.742  -6.843  1.00  0.00     0.025 A 
ATOM     13  C   UNL     1      -7.530 -12.757  -6.646  1.00  0.00     0.016 A 
ATOM     14  C   UNL     1      -7.923 -14.097  -6.608  1.00  0.00     0.051 A 
ATOM     15  C   UNL     1      -9.274 -14.440  -6.750  1.00  0.00     0.157 A 
ATOM     16  C   UNL     1      -9.837 -12.090  -6.963  1.00  0.00     0.062 A 
ATOM     17  C   UNL     1     -10.233 -13.435  -6.923  1.00  0.00     0.158 A 
BRANCH  15  18
ATOM     18  O   UNL     1      -9.670 -15.776  -6.714  1.00  0.00    -0.504 OA
ATOM     19  H   UNL     1      -9.540 -16.346  -5.886  1.00  0.00     0.293 HD
ENDBRANCH  15  18
BRANCH  17  20
ATOM     20  O   UNL     1     -11.578 -13.779  -7.050  1.00  0.00    -0.504 OA
ATOM     21  H   UNL     1     -12.137 -13.455  -7.832  1.00  0.00     0.293 HD
ENDBRANCH  17  20
ENDBRANCH   1  12
BRANCH   2  22
ATOM     22  O   UNL     1      -7.251 -10.490  -9.148  1.00  0.00    -0.502 OA
ATOM     23  H   UNL     1      -7.990 -11.000  -9.616  1.00  0.00     0.293 HD
ENDBRANCH   2  22
BRANCH   6  24
ATOM     24  O   UNL     1      -6.622  -5.415  -7.660  1.00  0.00    -0.507 OA
ATOM     25  H   UNL     1      -5.766  -5.521  -8.182  1.00  0.00     0.293 HD
ENDBRANCH   6  24
BRANCH   8  26
ATOM     26  O   UNL     1      -7.775  -5.724  -3.025  1.00  0.00    -0.508 OA
ATOM     27  H   UNL     1      -7.907  -6.250  -2.170  1.00  0.00     0.293 HD
ENDBRANCH   8  26
TORSDOF 6
ENDMDL
