MODEL 1
REMARK VINA RESULT:    -1.897      0.000      0.000
REMARK INTER + INTRA:          -5.413
REMARK INTER:                  -4.114
REMARK INTRA:                  -1.299
REMARK UNBOUND:                -1.299
REMARK SMILES CCCCCCCCCCCCCCCCCCCCCC(=O)[O-]
REMARK SMILES IDX 12 1 11 2 10 3 9 4 8 5 7 6 6 7 5 8 4 9 3 10 2 11 1 12 13 13
REMARK SMILES IDX 14 14 15 15 16 16 17 17 18 18 19 19 20 20 21 21 22 22 23 23
REMARK SMILES IDX 24 24
REMARK H PARENT
REMARK Flexibility Score: inf
ROOT
ATOM      1  C   UNL     1      -4.142  37.628  20.540  1.00  0.00     0.000 C 
ENDROOT
BRANCH   1   2
ATOM      2  C   UNL     1      -2.736  37.138  20.166  1.00  0.00     0.000 C 
BRANCH   2   3
ATOM      3  C   UNL     1      -1.749  38.296  19.933  1.00  0.00     0.000 C 
BRANCH   3   4
ATOM      4  C   UNL     1      -1.635  38.686  18.449  1.00  0.00    -0.000 C 
BRANCH   4   5
ATOM      5  C   UNL     1      -2.547  37.830  17.543  1.00  0.00    -0.000 C 
BRANCH   5   6
ATOM      6  C   UNL     1      -1.803  36.708  16.794  1.00  0.00    -0.000 C 
BRANCH   6   7
ATOM      7  C   UNL     1      -1.298  37.095  15.393  1.00  0.00    -0.000 C 
BRANCH   7   8
ATOM      8  C   UNL     1      -2.310  36.757  14.286  1.00  0.00    -0.000 C 
BRANCH   8   9
ATOM      9  C   UNL     1      -3.762  37.027  14.710  1.00  0.00    -0.000 C 
BRANCH   9  10
ATOM     10  C   UNL     1      -4.423  38.134  13.875  1.00  0.00    -0.000 C 
BRANCH  10  11
ATOM     11  C   UNL     1      -4.061  39.521  14.419  1.00  0.00    -0.003 C 
ATOM     12  C   UNL     1      -5.069  40.573  13.963  1.00  0.00     0.004 C 
ENDBRANCH  10  11
ENDBRANCH   9  10
ENDBRANCH   8   9
ENDBRANCH   7   8
ENDBRANCH   6   7
ENDBRANCH   5   6
ENDBRANCH   4   5
ENDBRANCH   3   4
ENDBRANCH   2   3
ENDBRANCH   1   2
BRANCH   1  13
ATOM     13  C   UNL     1      -5.222  36.711  19.947  1.00  0.00     0.000 C 
BRANCH  13  14
ATOM     14  C   UNL     1      -6.030  35.967  21.026  1.00  0.00     0.000 C 
BRANCH  14  15
ATOM     15  C   UNL     1      -5.245  35.623  22.307  1.00  0.00     0.000 C 
BRANCH  15  16
ATOM     16  C   UNL     1      -6.068  35.658  23.611  1.00  0.00     0.000 C 
BRANCH  16  17
ATOM     17  C   UNL     1      -5.261  35.955  24.888  1.00  0.00     0.000 C 
BRANCH  17  18
ATOM     18  C   UNL     1      -5.742  37.219  25.617  1.00  0.00     0.000 C 
BRANCH  18  19
ATOM     19  C   UNL     1      -4.996  38.487  25.169  1.00  0.00     0.000 C 
BRANCH  19  20
ATOM     20  C   UNL     1      -5.626  39.173  23.938  1.00  0.00     0.006 C 
BRANCH  20  21
ATOM     21  C   UNL     1      -5.464  40.700  23.983  1.00  0.00     0.053 C 
BRANCH  21  22
ATOM     22  C   UNL     1      -5.733  41.296  22.638  1.00  0.00     0.041 C 
ATOM     23  O   UNL     1      -5.721  42.546  22.484  1.00  0.00    -0.550 OA
ATOM     24  O   UNL     1      -5.953  40.471  21.542  1.00  0.00    -0.550 OA
ENDBRANCH  21  22
ENDBRANCH  20  21
ENDBRANCH  19  20
ENDBRANCH  18  19
ENDBRANCH  17  18
ENDBRANCH  16  17
ENDBRANCH  15  16
ENDBRANCH  14  15
ENDBRANCH  13  14
ENDBRANCH   1  13
TORSDOF 20
ENDMDL
MODEL 2
REMARK VINA RESULT:    -1.716      2.135      4.652
REMARK INTER + INTRA:          -5.021
REMARK INTER:                  -2.708
REMARK INTRA:                  -2.312
REMARK UNBOUND:                -1.299
REMARK SMILES CCCCCCCCCCCCCCCCCCCCCC(=O)[O-]
REMARK SMILES IDX 12 1 11 2 10 3 9 4 8 5 7 6 6 7 5 8 4 9 3 10 2 11 1 12 13 13
REMARK SMILES IDX 14 14 15 15 16 16 17 17 18 18 19 19 20 20 21 21 22 22 23 23
REMARK SMILES IDX 24 24
REMARK H PARENT
REMARK Flexibility Score: inf
ROOT
ATOM      1  C   UNL     1      -6.125  36.696  23.675  1.00  0.00     0.000 C 
ENDROOT
BRANCH   1   2
ATOM      2  C   UNL     1      -5.859  35.311  23.066  1.00  0.00     0.000 C 
BRANCH   2   3
ATOM      3  C   UNL     1      -4.430  35.175  22.511  1.00  0.00     0.000 C 
BRANCH   3   4
ATOM      4  C   UNL     1      -4.366  35.388  20.988  1.00  0.00    -0.000 C 
BRANCH   4   5
ATOM      5  C   UNL     1      -5.756  35.657  20.371  1.00  0.00    -0.000 C 
BRANCH   5   6
ATOM      6  C   UNL     1      -5.725  35.902  18.851  1.00  0.00    -0.000 C 
BRANCH   6   7
ATOM      7  C   UNL     1      -4.942  34.850  18.046  1.00  0.00    -0.000 C 
BRANCH   7   8
ATOM      8  C   UNL     1      -3.562  35.359  17.595  1.00  0.00    -0.000 C 
BRANCH   8   9
ATOM      9  C   UNL     1      -3.654  36.612  16.711  1.00  0.00    -0.000 C 
BRANCH   9  10
ATOM     10  C   UNL     1      -2.400  36.820  15.850  1.00  0.00    -0.000 C 
BRANCH  10  11
ATOM     11  C   UNL     1      -2.771  36.983  14.371  1.00  0.00    -0.003 C 
ATOM     12  C   UNL     1      -3.821  38.074  14.182  1.00  0.00     0.004 C 
ENDBRANCH  10  11
ENDBRANCH   9  10
ENDBRANCH   8   9
ENDBRANCH   7   8
ENDBRANCH   6   7
ENDBRANCH   5   6
ENDBRANCH   4   5
ENDBRANCH   3   4
ENDBRANCH   2   3
ENDBRANCH   1   2
BRANCH   1  13
ATOM     13  C   UNL     1      -5.728  36.732  25.158  1.00  0.00     0.000 C 
BRANCH  13  14
ATOM     14  C   UNL     1      -5.309  38.137  25.629  1.00  0.00     0.000 C 
BRANCH  14  15
ATOM     15  C   UNL     1      -4.710  39.040  24.532  1.00  0.00     0.000 C 
BRANCH  15  16
ATOM     16  C   UNL     1      -5.617  40.196  24.067  1.00  0.00     0.000 C 
BRANCH  16  17
ATOM     17  C   UNL     1      -5.140  40.936  22.804  1.00  0.00     0.000 C 
BRANCH  17  18
ATOM     18  C   UNL     1      -5.920  40.529  21.544  1.00  0.00     0.000 C 
BRANCH  18  19
ATOM     19  C   UNL     1      -5.507  39.149  21.008  1.00  0.00     0.000 C 
BRANCH  19  20
ATOM     20  C   UNL     1      -3.977  38.943  20.940  1.00  0.00     0.006 C 
BRANCH  20  21
ATOM     21  C   UNL     1      -3.522  38.455  19.557  1.00  0.00     0.053 C 
BRANCH  21  22
ATOM     22  C   UNL     1      -2.057  38.155  19.562  1.00  0.00     0.041 C 
ATOM     23  O   UNL     1      -1.573  37.364  20.414  1.00  0.00    -0.550 OA
ATOM     24  O   UNL     1      -1.229  38.714  18.596  1.00  0.00    -0.550 OA
ENDBRANCH  21  22
ENDBRANCH  20  21
ENDBRANCH  19  20
ENDBRANCH  18  19
ENDBRANCH  17  18
ENDBRANCH  16  17
ENDBRANCH  15  16
ENDBRANCH  14  15
ENDBRANCH  13  14
ENDBRANCH   1  13
TORSDOF 20
ENDMDL
MODEL 3
REMARK VINA RESULT:    -1.692      2.679      6.569
REMARK INTER + INTRA:          -4.968
REMARK INTER:                  -4.091
REMARK INTRA:                  -0.878
REMARK UNBOUND:                -1.299
REMARK SMILES CCCCCCCCCCCCCCCCCCCCCC(=O)[O-]
REMARK SMILES IDX 12 1 11 2 10 3 9 4 8 5 7 6 6 7 5 8 4 9 3 10 2 11 1 12 13 13
REMARK SMILES IDX 14 14 15 15 16 16 17 17 18 18 19 19 20 20 21 21 22 22 23 23
REMARK SMILES IDX 24 24
REMARK H PARENT
REMARK Flexibility Score: inf
ROOT
ATOM      1  C   UNL     1      -5.822  36.550  25.152  1.00  0.00     0.000 C 
ENDROOT
BRANCH   1   2
ATOM      2  C   UNL     1      -5.305  37.989  25.296  1.00  0.00     0.000 C 
BRANCH   2   3
ATOM      3  C   UNL     1      -5.716  38.886  24.115  1.00  0.00     0.000 C 
BRANCH   3   4
ATOM      4  C   UNL     1      -5.070  40.281  24.180  1.00  0.00    -0.000 C 
BRANCH   4   5
ATOM      5  C   UNL     1      -5.706  41.272  23.181  1.00  0.00    -0.000 C 
BRANCH   5   6
ATOM      6  C   UNL     1      -6.009  40.655  21.802  1.00  0.00    -0.000 C 
BRANCH   6   7
ATOM      7  C   UNL     1      -5.127  39.451  21.428  1.00  0.00    -0.000 C 
BRANCH   7   8
ATOM      8  C   UNL     1      -5.325  39.004  19.970  1.00  0.00    -0.000 C 
BRANCH   8   9
ATOM      9  C   UNL     1      -4.053  38.395  19.361  1.00  0.00    -0.000 C 
BRANCH   9  10
ATOM     10  C   UNL     1      -2.970  38.118  20.414  1.00  0.00    -0.000 C 
BRANCH  10  11
ATOM     11  C   UNL     1      -1.661  37.670  19.751  1.00  0.00    -0.003 C 
ATOM     12  C   UNL     1      -1.208  38.671  18.691  1.00  0.00     0.004 C 
ENDBRANCH  10  11
ENDBRANCH   9  10
ENDBRANCH   8   9
ENDBRANCH   7   8
ENDBRANCH   6   7
ENDBRANCH   5   6
ENDBRANCH   4   5
ENDBRANCH   3   4
ENDBRANCH   2   3
ENDBRANCH   1   2
BRANCH   1  13
ATOM     13  C   UNL     1      -6.125  36.218  23.684  1.00  0.00     0.000 C 
BRANCH  13  14
ATOM     14  C   UNL     1      -5.558  34.853  23.252  1.00  0.00     0.000 C 
BRANCH  14  15
ATOM     15  C   UNL     1      -4.358  34.922  22.286  1.00  0.00     0.000 C 
BRANCH  15  16
ATOM     16  C   UNL     1      -4.610  35.708  20.983  1.00  0.00     0.000 C 
BRANCH  16  17
ATOM     17  C   UNL     1      -5.940  35.394  20.275  1.00  0.00     0.000 C 
BRANCH  17  18
ATOM     18  C   UNL     1      -5.749  34.955  18.814  1.00  0.00     0.000 C 
BRANCH  18  19
ATOM     19  C   UNL     1      -4.304  35.140  18.321  1.00  0.00     0.000 C 
BRANCH  19  20
ATOM     20  C   UNL     1      -4.141  36.290  17.303  1.00  0.00     0.006 C 
BRANCH  20  21
ATOM     21  C   UNL     1      -2.917  36.088  16.398  1.00  0.00     0.053 C 
BRANCH  21  22
ATOM     22  C   UNL     1      -2.847  37.164  15.361  1.00  0.00     0.041 C 
ATOM     23  O   UNL     1      -2.999  38.371  15.687  1.00  0.00    -0.550 OA
ATOM     24  O   UNL     1      -2.569  36.839  14.039  1.00  0.00    -0.550 OA
ENDBRANCH  21  22
ENDBRANCH  20  21
ENDBRANCH  19  20
ENDBRANCH  18  19
ENDBRANCH  17  18
ENDBRANCH  16  17
ENDBRANCH  15  16
ENDBRANCH  14  15
ENDBRANCH  13  14
ENDBRANCH   1  13
TORSDOF 20
ENDMDL
MODEL 4
REMARK VINA RESULT:    -1.202      1.389      2.298
REMARK INTER + INTRA:          -3.906
REMARK INTER:                  -2.669
REMARK INTRA:                  -1.237
REMARK UNBOUND:                -1.299
REMARK SMILES CCCCCCCCCCCCCCCCCCCCCC(=O)[O-]
REMARK SMILES IDX 12 1 11 2 10 3 9 4 8 5 7 6 6 7 5 8 4 9 3 10 2 11 1 12 13 13
REMARK SMILES IDX 14 14 15 15 16 16 17 17 18 18 19 19 20 20 21 21 22 22 23 23
REMARK SMILES IDX 24 24
REMARK H PARENT
REMARK Flexibility Score: inf
ROOT
ATOM      1  C   UNL     1      -4.419  37.864  21.151  1.00  0.00     0.000 C 
ENDROOT
BRANCH   1   2
ATOM      2  C   UNL     1      -3.484  38.159  19.969  1.00  0.00     0.000 C 
BRANCH   2   3
ATOM      3  C   UNL     1      -2.281  37.201  19.914  1.00  0.00     0.000 C 
BRANCH   3   4
ATOM      4  C   UNL     1      -0.936  37.931  20.077  1.00  0.00    -0.000 C 
BRANCH   4   5
ATOM      5  C   UNL     1      -0.264  38.238  18.721  1.00  0.00    -0.000 C 
BRANCH   5   6
ATOM      6  C   UNL     1      -1.197  38.051  17.509  1.00  0.00    -0.000 C 
BRANCH   6   7
ATOM      7  C   UNL     1      -0.918  36.792  16.671  1.00  0.00    -0.000 C 
BRANCH   7   8
ATOM      8  C   UNL     1      -1.842  36.680  15.447  1.00  0.00    -0.000 C 
BRANCH   8   9
ATOM      9  C   UNL     1      -3.174  37.421  15.643  1.00  0.00    -0.000 C 
BRANCH   9  10
ATOM     10  C   UNL     1      -3.936  36.943  16.886  1.00  0.00    -0.000 C 
BRANCH  10  11
ATOM     11  C   UNL     1      -3.734  35.439  17.109  1.00  0.00    -0.003 C 
ATOM     12  C   UNL     1      -4.727  34.894  18.132  1.00  0.00     0.004 C 
ENDBRANCH  10  11
ENDBRANCH   9  10
ENDBRANCH   8   9
ENDBRANCH   7   8
ENDBRANCH   6   7
ENDBRANCH   5   6
ENDBRANCH   4   5
ENDBRANCH   3   4
ENDBRANCH   2   3
ENDBRANCH   1   2
BRANCH   1  13
ATOM     13  C   UNL     1      -5.736  37.237  20.669  1.00  0.00     0.000 C 
BRANCH  13  14
ATOM     14  C   UNL     1      -5.925  35.792  21.167  1.00  0.00     0.000 C 
BRANCH  14  15
ATOM     15  C   UNL     1      -5.116  35.426  22.428  1.00  0.00     0.000 C 
BRANCH  15  16
ATOM     16  C   UNL     1      -5.959  34.992  23.644  1.00  0.00     0.000 C 
BRANCH  16  17
ATOM     17  C   UNL     1      -6.077  36.040  24.766  1.00  0.00     0.000 C 
BRANCH  17  18
ATOM     18  C   UNL     1      -5.046  37.172  24.637  1.00  0.00     0.000 C 
BRANCH  18  19
ATOM     19  C   UNL     1      -5.210  38.253  25.718  1.00  0.00     0.000 C 
BRANCH  19  20
ATOM     20  C   UNL     1      -4.917  39.683  25.213  1.00  0.00     0.006 C 
BRANCH  20  21
ATOM     21  C   UNL     1      -5.315  39.867  23.741  1.00  0.00     0.053 C 
BRANCH  21  22
ATOM     22  C   UNL     1      -5.653  41.298  23.464  1.00  0.00     0.041 C 
ATOM     23  O   UNL     1      -5.838  41.689  22.282  1.00  0.00    -0.550 OA
ATOM     24  O   UNL     1      -5.811  42.192  24.516  1.00  0.00    -0.550 OA
ENDBRANCH  21  22
ENDBRANCH  20  21
ENDBRANCH  19  20
ENDBRANCH  18  19
ENDBRANCH  17  18
ENDBRANCH  16  17
ENDBRANCH  15  16
ENDBRANCH  14  15
ENDBRANCH  13  14
ENDBRANCH   1  13
TORSDOF 20
ENDMDL
MODEL 5
REMARK VINA RESULT:    -0.892      2.495      7.739
REMARK INTER + INTRA:          -3.235
REMARK INTER:                  -1.176
REMARK INTRA:                  -2.059
REMARK UNBOUND:                -1.299
REMARK SMILES CCCCCCCCCCCCCCCCCCCCCC(=O)[O-]
REMARK SMILES IDX 12 1 11 2 10 3 9 4 8 5 7 6 6 7 5 8 4 9 3 10 2 11 1 12 13 13
REMARK SMILES IDX 14 14 15 15 16 16 17 17 18 18 19 19 20 20 21 21 22 22 23 23
REMARK SMILES IDX 24 24
REMARK H PARENT
REMARK Flexibility Score: inf
ROOT
ATOM      1  C   UNL     1      -6.125  36.010  21.038  1.00  0.00     0.000 C 
ENDROOT
BRANCH   1   2
ATOM      2  C   UNL     1      -5.838  34.737  21.849  1.00  0.00     0.000 C 
BRANCH   2   3
ATOM      3  C   UNL     1      -5.808  34.997  23.365  1.00  0.00     0.000 C 
BRANCH   3   4
ATOM      4  C   UNL     1      -6.118  36.462  23.720  1.00  0.00    -0.000 C 
BRANCH   4   5
ATOM      5  C   UNL     1      -4.846  37.268  24.062  1.00  0.00    -0.000 C 
BRANCH   5   6
ATOM      6  C   UNL     1      -4.961  38.088  25.361  1.00  0.00    -0.000 C 
BRANCH   6   7
ATOM      7  C   UNL     1      -4.734  39.600  25.190  1.00  0.00    -0.000 C 
BRANCH   7   8
ATOM      8  C   UNL     1      -5.858  40.278  24.388  1.00  0.00    -0.000 C 
BRANCH   8   9
ATOM      9  C   UNL     1      -5.348  41.443  23.526  1.00  0.00    -0.000 C 
BRANCH   9  10
ATOM     10  C   UNL     1      -5.750  41.304  22.051  1.00  0.00    -0.000 C 
BRANCH  10  11
ATOM     11  C   UNL     1      -5.697  39.838  21.604  1.00  0.00    -0.003 C 
ATOM     12  C   UNL     1      -5.857  39.716  20.091  1.00  0.00     0.004 C 
ENDBRANCH  10  11
ENDBRANCH   9  10
ENDBRANCH   8   9
ENDBRANCH   7   8
ENDBRANCH   6   7
ENDBRANCH   5   6
ENDBRANCH   4   5
ENDBRANCH   3   4
ENDBRANCH   2   3
ENDBRANCH   1   2
BRANCH   1  13
ATOM     13  C   UNL     1      -5.454  35.947  19.658  1.00  0.00     0.000 C 
BRANCH  13  14
ATOM     14  C   UNL     1      -3.919  35.864  19.745  1.00  0.00     0.000 C 
BRANCH  14  15
ATOM     15  C   UNL     1      -3.223  37.157  20.217  1.00  0.00     0.000 C 
BRANCH  15  16
ATOM     16  C   UNL     1      -2.813  38.129  19.093  1.00  0.00     0.000 C 
BRANCH  16  17
ATOM     17  C   UNL     1      -1.341  38.580  19.121  1.00  0.00     0.000 C 
BRANCH  17  18
ATOM     18  C   UNL     1      -0.443  37.740  18.198  1.00  0.00     0.000 C 
BRANCH  18  19
ATOM     19  C   UNL     1      -1.017  37.594  16.779  1.00  0.00     0.000 C 
BRANCH  19  20
ATOM     20  C   UNL     1      -1.629  36.204  16.500  1.00  0.00     0.006 C 
BRANCH  20  21
ATOM     21  C   UNL     1      -3.058  36.303  15.947  1.00  0.00     0.053 C 
BRANCH  21  22
ATOM     22  C   UNL     1      -3.228  37.560  15.153  1.00  0.00     0.041 C 
ATOM     23  O   UNL     1      -3.314  37.510  13.898  1.00  0.00    -0.550 OA
ATOM     24  O   UNL     1      -3.337  38.783  15.802  1.00  0.00    -0.550 OA
ENDBRANCH  21  22
ENDBRANCH  20  21
ENDBRANCH  19  20
ENDBRANCH  18  19
ENDBRANCH  17  18
ENDBRANCH  16  17
ENDBRANCH  15  16
ENDBRANCH  14  15
ENDBRANCH  13  14
ENDBRANCH   1  13
TORSDOF 20
ENDMDL
MODEL 6
REMARK VINA RESULT:    -0.805      2.442      4.584
REMARK INTER + INTRA:          -3.046
REMARK INTER:                  -0.849
REMARK INTRA:                  -2.197
REMARK UNBOUND:                -1.299
REMARK SMILES CCCCCCCCCCCCCCCCCCCCCC(=O)[O-]
REMARK SMILES IDX 12 1 11 2 10 3 9 4 8 5 7 6 6 7 5 8 4 9 3 10 2 11 1 12 13 13
REMARK SMILES IDX 14 14 15 15 16 16 17 17 18 18 19 19 20 20 21 21 22 22 23 23
REMARK SMILES IDX 24 24
REMARK H PARENT
REMARK Flexibility Score: inf
ROOT
ATOM      1  C   UNL     1      -4.903  38.922  20.643  1.00  0.00     0.000 C 
ENDROOT
BRANCH   1   2
ATOM      2  C   UNL     1      -4.974  37.873  19.523  1.00  0.00     0.000 C 
BRANCH   2   3
ATOM      3  C   UNL     1      -6.021  36.780  19.803  1.00  0.00     0.000 C 
BRANCH   3   4
ATOM      4  C   UNL     1      -5.671  35.440  19.133  1.00  0.00    -0.000 C 
BRANCH   4   5
ATOM      5  C   UNL     1      -4.159  35.301  18.851  1.00  0.00    -0.000 C 
BRANCH   5   6
ATOM      6  C   UNL     1      -3.817  35.150  17.356  1.00  0.00    -0.000 C 
BRANCH   6   7
ATOM      7  C   UNL     1      -3.586  36.477  16.612  1.00  0.00    -0.000 C 
BRANCH   7   8
ATOM      8  C   UNL     1      -2.215  36.534  15.918  1.00  0.00    -0.000 C 
BRANCH   8   9
ATOM      9  C   UNL     1      -1.366  37.727  16.384  1.00  0.00    -0.000 C 
BRANCH   9  10
ATOM     10  C   UNL     1      -1.773  38.232  17.776  1.00  0.00    -0.000 C 
BRANCH  10  11
ATOM     11  C   UNL     1      -0.627  38.054  18.780  1.00  0.00    -0.003 C 
ATOM     12  C   UNL     1      -1.152  37.616  20.145  1.00  0.00     0.004 C 
ENDBRANCH  10  11
ENDBRANCH   9  10
ENDBRANCH   8   9
ENDBRANCH   7   8
ENDBRANCH   6   7
ENDBRANCH   5   6
ENDBRANCH   4   5
ENDBRANCH   3   4
ENDBRANCH   2   3
ENDBRANCH   1   2
BRANCH   1  13
ATOM     13  C   UNL     1      -6.064  39.921  20.537  1.00  0.00     0.000 C 
BRANCH  13  14
ATOM     14  C   UNL     1      -6.120  40.899  21.725  1.00  0.00     0.000 C 
BRANCH  14  15
ATOM     15  C   UNL     1      -4.977  40.745  22.749  1.00  0.00     0.000 C 
BRANCH  15  16
ATOM     16  C   UNL     1      -5.360  40.024  24.057  1.00  0.00     0.000 C 
BRANCH  16  17
ATOM     17  C   UNL     1      -5.831  38.569  23.889  1.00  0.00     0.000 C 
BRANCH  17  18
ATOM     18  C   UNL     1      -5.602  37.718  25.147  1.00  0.00     0.000 C 
BRANCH  18  19
ATOM     19  C   UNL     1      -6.004  36.246  24.953  1.00  0.00     0.000 C 
BRANCH  19  20
ATOM     20  C   UNL     1      -5.966  35.784  23.480  1.00  0.00     0.006 C 
BRANCH  20  21
ATOM     21  C   UNL     1      -5.045  34.571  23.281  1.00  0.00     0.053 C 
BRANCH  21  22
ATOM     22  C   UNL     1      -3.919  34.913  22.357  1.00  0.00     0.041 C 
ATOM     23  O   UNL     1      -3.188  34.004  21.883  1.00  0.00    -0.550 OA
ATOM     24  O   UNL     1      -3.705  36.233  21.980  1.00  0.00    -0.550 OA
ENDBRANCH  21  22
ENDBRANCH  20  21
ENDBRANCH  19  20
ENDBRANCH  18  19
ENDBRANCH  17  18
ENDBRANCH  16  17
ENDBRANCH  15  16
ENDBRANCH  14  15
ENDBRANCH  13  14
ENDBRANCH   1  13
TORSDOF 20
ENDMDL
MODEL 7
REMARK VINA RESULT:    -0.621      2.333      7.984
REMARK INTER + INTRA:          -2.645
REMARK INTER:                  -1.458
REMARK INTRA:                  -1.187
REMARK UNBOUND:                -1.299
REMARK SMILES CCCCCCCCCCCCCCCCCCCCCC(=O)[O-]
REMARK SMILES IDX 12 1 11 2 10 3 9 4 8 5 7 6 6 7 5 8 4 9 3 10 2 11 1 12 13 13
REMARK SMILES IDX 14 14 15 15 16 16 17 17 18 18 19 19 20 20 21 21 22 22 23 23
REMARK SMILES IDX 24 24
REMARK H PARENT
REMARK Flexibility Score: inf
ROOT
ATOM      1  C   UNL     1      -2.563  36.336  21.352  1.00  0.00     0.000 C 
ENDROOT
BRANCH   1   2
ATOM      2  C   UNL     1      -3.684  35.345  21.698  1.00  0.00     0.000 C 
BRANCH   2   3
ATOM      3  C   UNL     1      -5.074  36.003  21.702  1.00  0.00     0.000 C 
BRANCH   3   4
ATOM      4  C   UNL     1      -6.105  35.202  22.518  1.00  0.00    -0.000 C 
BRANCH   4   5
ATOM      5  C   UNL     1      -5.895  35.350  24.040  1.00  0.00    -0.000 C 
BRANCH   5   6
ATOM      6  C   UNL     1      -6.125  36.782  24.562  1.00  0.00    -0.000 C 
BRANCH   6   7
ATOM      7  C   UNL     1      -5.029  37.306  25.506  1.00  0.00    -0.000 C 
BRANCH   7   8
ATOM      8  C   UNL     1      -4.934  38.841  25.506  1.00  0.00    -0.000 C 
BRANCH   8   9
ATOM      9  C   UNL     1      -4.857  39.428  24.088  1.00  0.00    -0.000 C 
BRANCH   9  10
ATOM     10  C   UNL     1      -5.425  40.852  24.007  1.00  0.00    -0.000 C 
BRANCH  10  11
ATOM     11  C   UNL     1      -5.751  41.232  22.557  1.00  0.00    -0.003 C 
ATOM     12  C   UNL     1      -5.738  40.005  21.649  1.00  0.00     0.004 C 
ENDBRANCH  10  11
ENDBRANCH   9  10
ENDBRANCH   8   9
ENDBRANCH   7   8
ENDBRANCH   6   7
ENDBRANCH   5   6
ENDBRANCH   4   5
ENDBRANCH   3   4
ENDBRANCH   2   3
ENDBRANCH   1   2
BRANCH   1  13
ATOM     13  C   UNL     1      -3.006  37.305  20.245  1.00  0.00     0.000 C 
BRANCH  13  14
ATOM     14  C   UNL     1      -1.951  38.383  19.939  1.00  0.00     0.000 C 
BRANCH  14  15
ATOM     15  C   UNL     1      -0.687  37.873  19.217  1.00  0.00     0.000 C 
BRANCH  15  16
ATOM     16  C   UNL     1      -0.690  38.052  17.686  1.00  0.00     0.000 C 
BRANCH  16  17
ATOM     17  C   UNL     1      -0.861  36.755  16.875  1.00  0.00     0.000 C 
BRANCH  17  18
ATOM     18  C   UNL     1      -1.832  36.913  15.694  1.00  0.00     0.000 C 
BRANCH  18  19
ATOM     19  C   UNL     1      -2.992  37.875  16.001  1.00  0.00     0.000 C 
BRANCH  19  20
ATOM     20  C   UNL     1      -3.971  37.341  17.069  1.00  0.00     0.006 C 
BRANCH  20  21
ATOM     21  C   UNL     1      -3.752  35.850  17.359  1.00  0.00     0.053 C 
BRANCH  21  22
ATOM     22  C   UNL     1      -4.926  35.278  18.090  1.00  0.00     0.041 C 
ATOM     23  O   UNL     1      -5.194  34.051  18.000  1.00  0.00    -0.550 OA
ATOM     24  O   UNL     1      -5.698  36.092  18.910  1.00  0.00    -0.550 OA
ENDBRANCH  21  22
ENDBRANCH  20  21
ENDBRANCH  19  20
ENDBRANCH  18  19
ENDBRANCH  17  18
ENDBRANCH  16  17
ENDBRANCH  15  16
ENDBRANCH  14  15
ENDBRANCH  13  14
ENDBRANCH   1  13
TORSDOF 20
ENDMDL
MODEL 8
REMARK VINA RESULT:    -0.025      2.451      5.182
REMARK INTER + INTRA:          -1.354
REMARK INTER:                  -0.102
REMARK INTRA:                  -1.253
REMARK UNBOUND:                -1.299
REMARK SMILES CCCCCCCCCCCCCCCCCCCCCC(=O)[O-]
REMARK SMILES IDX 12 1 11 2 10 3 9 4 8 5 7 6 6 7 5 8 4 9 3 10 2 11 1 12 13 13
REMARK SMILES IDX 14 14 15 15 16 16 17 17 18 18 19 19 20 20 21 21 22 22 23 23
REMARK SMILES IDX 24 24
REMARK H PARENT
REMARK Flexibility Score: inf
ROOT
ATOM      1  C   UNL     1      -1.131  38.696  19.008  1.00  0.00     0.000 C 
ENDROOT
BRANCH   1   2
ATOM      2  C   UNL     1      -0.721  37.796  17.833  1.00  0.00     0.000 C 
BRANCH   2   3
ATOM      3  C   UNL     1      -1.801  37.720  16.740  1.00  0.00     0.000 C 
BRANCH   3   4
ATOM      4  C   UNL     1      -1.814  36.362  16.015  1.00  0.00    -0.000 C 
BRANCH   4   5
ATOM      5  C   UNL     1      -3.152  35.612  16.194  1.00  0.00    -0.000 C 
BRANCH   5   6
ATOM      6  C   UNL     1      -4.042  36.186  17.314  1.00  0.00    -0.000 C 
BRANCH   6   7
ATOM      7  C   UNL     1      -4.404  35.185  18.424  1.00  0.00    -0.000 C 
BRANCH   7   8
ATOM      8  C   UNL     1      -5.896  35.228  18.794  1.00  0.00    -0.000 C 
BRANCH   8   9
ATOM      9  C   UNL     1      -6.125  35.392  20.305  1.00  0.00    -0.000 C 
BRANCH   9  10
ATOM     10  C   UNL     1      -4.816  35.352  21.107  1.00  0.00    -0.000 C 
BRANCH  10  11
ATOM     11  C   UNL     1      -5.065  35.700  22.580  1.00  0.00    -0.003 C 
ATOM     12  C   UNL     1      -5.930  34.643  23.260  1.00  0.00     0.004 C 
ENDBRANCH  10  11
ENDBRANCH   9  10
ENDBRANCH   8   9
ENDBRANCH   7   8
ENDBRANCH   6   7
ENDBRANCH   5   6
ENDBRANCH   4   5
ENDBRANCH   3   4
ENDBRANCH   2   3
ENDBRANCH   1   2
BRANCH   1  13
ATOM     13  C   UNL     1      -1.579  37.857  20.214  1.00  0.00     0.000 C 
BRANCH  13  14
ATOM     14  C   UNL     1      -3.104  37.648  20.261  1.00  0.00     0.000 C 
BRANCH  14  15
ATOM     15  C   UNL     1      -3.923  38.626  19.395  1.00  0.00     0.000 C 
BRANCH  15  16
ATOM     16  C   UNL     1      -5.355  38.903  19.894  1.00  0.00     0.000 C 
BRANCH  16  17
ATOM     17  C   UNL     1      -5.506  39.014  21.422  1.00  0.00     0.000 C 
BRANCH  17  18
ATOM     18  C   UNL     1      -5.730  40.458  21.897  1.00  0.00     0.000 C 
BRANCH  18  19
ATOM     19  C   UNL     1      -4.863  40.827  23.112  1.00  0.00     0.000 C 
BRANCH  19  20
ATOM     20  C   UNL     1      -5.324  40.159  24.426  1.00  0.00     0.006 C 
BRANCH  20  21
ATOM     21  C   UNL     1      -5.599  38.659  24.245  1.00  0.00     0.053 C 
BRANCH  21  22
ATOM     22  C   UNL     1      -5.240  37.906  25.487  1.00  0.00     0.041 C 
ATOM     23  O   UNL     1      -5.883  36.873  25.811  1.00  0.00    -0.550 OA
ATOM     24  O   UNL     1      -4.166  38.319  26.266  1.00  0.00    -0.550 OA
ENDBRANCH  21  22
ENDBRANCH  20  21
ENDBRANCH  19  20
ENDBRANCH  18  19
ENDBRANCH  17  18
ENDBRANCH  16  17
ENDBRANCH  15  16
ENDBRANCH  14  15
ENDBRANCH  13  14
ENDBRANCH   1  13
TORSDOF 20
ENDMDL
