MODEL 1
REMARK VINA RESULT:    -5.891      0.000      0.000
REMARK INTER + INTRA:         -19.820
REMARK INTER:                 -15.535
REMARK INTRA:                  -4.285
REMARK UNBOUND:                -4.285
REMARK SMILES CCCCCCCCCCCCCCCCCCCCCCCCCCCCCC(=O)[O-]
REMARK SMILES IDX 16 1 17 2 18 3 19 4 20 5 21 6 22 7 23 8 24 9 25 10 26 11
REMARK SMILES IDX 27 12 28 13 29 14 30 15 31 16 32 17 15 18 14 19 13 20 12 21
REMARK SMILES IDX 11 22 10 23 9 24 8 25 7 26 6 27 5 28 4 29 3 30 2 31 1 32
REMARK H PARENT
REMARK Flexibility Score: inf
ROOT
ATOM      1  C   UNL     1      53.165  14.515  -0.758  1.00  0.00     0.000 C 
ENDROOT
BRANCH   1   2
ATOM      2  C   UNL     1      53.620  15.525  -1.829  1.00  0.00     0.000 C 
BRANCH   2   3
ATOM      3  C   UNL     1      53.200  16.969  -1.501  1.00  0.00     0.000 C 
BRANCH   3   4
ATOM      4  C   UNL     1      54.386  17.852  -1.067  1.00  0.00     0.000 C 
BRANCH   4   5
ATOM      5  C   UNL     1      55.690  17.090  -0.777  1.00  0.00     0.000 C 
BRANCH   5   6
ATOM      6  C   UNL     1      56.108  17.164   0.702  1.00  0.00     0.000 C 
BRANCH   6   7
ATOM      7  C   UNL     1      55.079  17.897   1.576  1.00  0.00     0.000 C 
BRANCH   7   8
ATOM      8  C   UNL     1      54.328  16.948   2.527  1.00  0.00     0.000 C 
BRANCH   8   9
ATOM      9  C   UNL     1      52.856  16.759   2.129  1.00  0.00     0.000 C 
BRANCH   9  10
ATOM     10  C   UNL     1      52.080  18.088   2.076  1.00  0.00     0.000 C 
BRANCH  10  11
ATOM     11  C   UNL     1      50.576  17.903   2.325  1.00  0.00     0.000 C 
BRANCH  11  12
ATOM     12  C   UNL     1      49.716  18.425   1.163  1.00  0.00     0.000 C 
BRANCH  12  13
ATOM     13  C   UNL     1      50.516  18.437  -0.148  1.00  0.00     0.006 C 
BRANCH  13  14
ATOM     14  C   UNL     1      49.620  18.661  -1.374  1.00  0.00     0.053 C 
BRANCH  14  15
ATOM     15  C   UNL     1      49.476  20.117  -1.699  1.00  0.00     0.041 C 
ATOM     16  O   UNL     1      48.339  20.658  -1.693  1.00  0.00    -0.550 OA
ATOM     17  O   UNL     1      50.593  20.869  -2.040  1.00  0.00    -0.550 OA
ENDBRANCH  14  15
ENDBRANCH  13  14
ENDBRANCH  12  13
ENDBRANCH  11  12
ENDBRANCH  10  11
ENDBRANCH   9  10
ENDBRANCH   8   9
ENDBRANCH   7   8
ENDBRANCH   6   7
ENDBRANCH   5   6
ENDBRANCH   4   5
ENDBRANCH   3   4
ENDBRANCH   2   3
ENDBRANCH   1   2
BRANCH   1  18
ATOM     18  C   UNL     1      54.187  13.401  -0.457  1.00  0.00     0.000 C 
BRANCH  18  19
ATOM     19  C   UNL     1      55.152  13.774   0.683  1.00  0.00     0.000 C 
BRANCH  19  20
ATOM     20  C   UNL     1      56.612  13.366   0.384  1.00  0.00     0.000 C 
BRANCH  20  21
ATOM     21  C   UNL     1      56.893  11.862   0.565  1.00  0.00     0.000 C 
BRANCH  21  22
ATOM     22  C   UNL     1      57.367  11.122  -0.701  1.00  0.00     0.000 C 
BRANCH  22  23
ATOM     23  C   UNL     1      58.815  10.597  -0.649  1.00  0.00     0.000 C 
BRANCH  23  24
ATOM     24  C   UNL     1      59.283  10.146   0.747  1.00  0.00    -0.000 C 
BRANCH  24  25
ATOM     25  C   UNL     1      60.821  10.072   0.892  1.00  0.00    -0.000 C 
BRANCH  25  26
ATOM     26  C   UNL     1      61.581  10.887  -0.169  1.00  0.00    -0.000 C 
BRANCH  26  27
ATOM     27  C   UNL     1      62.672  11.777   0.453  1.00  0.00    -0.000 C 
BRANCH  27  28
ATOM     28  C   UNL     1      62.525  13.253   0.051  1.00  0.00    -0.000 C 
BRANCH  28  29
ATOM     29  C   UNL     1      61.286  13.916   0.674  1.00  0.00    -0.000 C 
BRANCH  29  30
ATOM     30  C   UNL     1      60.173  14.086  -0.370  1.00  0.00    -0.000 C 
BRANCH  30  31
ATOM     31  C   UNL     1      59.593  15.508  -0.391  1.00  0.00    -0.003 C 
ATOM     32  C   UNL     1      59.570  16.156   0.993  1.00  0.00     0.004 C 
ENDBRANCH  30  31
ENDBRANCH  29  30
ENDBRANCH  28  29
ENDBRANCH  27  28
ENDBRANCH  26  27
ENDBRANCH  25  26
ENDBRANCH  24  25
ENDBRANCH  23  24
ENDBRANCH  22  23
ENDBRANCH  21  22
ENDBRANCH  20  21
ENDBRANCH  19  20
ENDBRANCH  18  19
ENDBRANCH   1  18
TORSDOF 28
ENDMDL
MODEL 2
REMARK VINA RESULT:    -5.825      3.837     11.120
REMARK INTER + INTRA:         -19.646
REMARK INTER:                 -15.277
REMARK INTRA:                  -4.369
REMARK UNBOUND:                -4.285
REMARK SMILES CCCCCCCCCCCCCCCCCCCCCCCCCCCCCC(=O)[O-]
REMARK SMILES IDX 16 1 17 2 18 3 19 4 20 5 21 6 22 7 23 8 24 9 25 10 26 11
REMARK SMILES IDX 27 12 28 13 29 14 30 15 31 16 32 17 15 18 14 19 13 20 12 21
REMARK SMILES IDX 11 22 10 23 9 24 8 25 7 26 6 27 5 28 4 29 3 30 2 31 1 32
REMARK H PARENT
REMARK Flexibility Score: inf
ROOT
ATOM      1  C   UNL     1      51.992  17.516  -1.471  1.00  0.00     0.000 C 
ENDROOT
BRANCH   1   2
ATOM      2  C   UNL     1      52.835  16.712  -2.480  1.00  0.00     0.000 C 
BRANCH   2   3
ATOM      3  C   UNL     1      53.697  15.630  -1.806  1.00  0.00     0.000 C 
BRANCH   3   4
ATOM      4  C   UNL     1      52.878  14.690  -0.901  1.00  0.00     0.000 C 
BRANCH   4   5
ATOM      5  C   UNL     1      53.687  13.980   0.198  1.00  0.00     0.000 C 
BRANCH   5   6
ATOM      6  C   UNL     1      53.676  14.743   1.534  1.00  0.00     0.000 C 
BRANCH   6   7
ATOM      7  C   UNL     1      52.561  15.798   1.608  1.00  0.00     0.000 C 
BRANCH   7   8
ATOM      8  C   UNL     1      53.076  17.170   2.081  1.00  0.00     0.000 C 
BRANCH   8   9
ATOM      9  C   UNL     1      54.590  17.169   2.352  1.00  0.00     0.000 C 
BRANCH   9  10
ATOM     10  C   UNL     1      55.393  17.854   1.232  1.00  0.00     0.000 C 
BRANCH  10  11
ATOM     11  C   UNL     1      56.762  17.197   1.002  1.00  0.00     0.000 C 
BRANCH  11  12
ATOM     12  C   UNL     1      56.694  16.011   0.027  1.00  0.00     0.000 C 
BRANCH  12  13
ATOM     13  C   UNL     1      57.688  14.912   0.432  1.00  0.00     0.006 C 
BRANCH  13  14
ATOM     14  C   UNL     1      57.302  13.540  -0.137  1.00  0.00     0.053 C 
BRANCH  14  15
ATOM     15  C   UNL     1      58.034  12.427   0.548  1.00  0.00     0.041 C 
ATOM     16  O   UNL     1      59.285  12.330   0.439  1.00  0.00    -0.550 OA
ATOM     17  O   UNL     1      57.332  11.480   1.282  1.00  0.00    -0.550 OA
ENDBRANCH  14  15
ENDBRANCH  13  14
ENDBRANCH  12  13
ENDBRANCH  11  12
ENDBRANCH  10  11
ENDBRANCH   9  10
ENDBRANCH   8   9
ENDBRANCH   7   8
ENDBRANCH   6   7
ENDBRANCH   5   6
ENDBRANCH   4   5
ENDBRANCH   3   4
ENDBRANCH   2   3
ENDBRANCH   1   2
BRANCH   1  18
ATOM     18  C   UNL     1      51.049  18.553  -2.110  1.00  0.00     0.000 C 
BRANCH  18  19
ATOM     19  C   UNL     1      49.686  18.634  -1.397  1.00  0.00     0.000 C 
BRANCH  19  20
ATOM     20  C   UNL     1      49.776  18.263   0.100  1.00  0.00     0.000 C 
BRANCH  20  21
ATOM     21  C   UNL     1      50.144  19.443   1.019  1.00  0.00     0.000 C 
BRANCH  21  22
ATOM     22  C   UNL     1      49.749  19.276   2.499  1.00  0.00     0.000 C 
BRANCH  22  23
ATOM     23  C   UNL     1      48.595  18.288   2.760  1.00  0.00     0.000 C 
BRANCH  23  24
ATOM     24  C   UNL     1      47.193  18.841   2.444  1.00  0.00    -0.000 C 
BRANCH  24  25
ATOM     25  C   UNL     1      47.035  20.347   2.757  1.00  0.00    -0.000 C 
BRANCH  25  26
ATOM     26  C   UNL     1      46.110  21.088   1.777  1.00  0.00    -0.000 C 
BRANCH  26  27
ATOM     27  C   UNL     1      46.893  21.999   0.814  1.00  0.00    -0.000 C 
BRANCH  27  28
ATOM     28  C   UNL     1      47.257  21.290  -0.499  1.00  0.00    -0.000 C 
BRANCH  28  29
ATOM     29  C   UNL     1      46.135  20.372  -1.007  1.00  0.00    -0.000 C 
BRANCH  29  30
ATOM     30  C   UNL     1      45.784  20.693  -2.468  1.00  0.00    -0.000 C 
BRANCH  30  31
ATOM     31  C   UNL     1      44.993  22.002  -2.611  1.00  0.00    -0.003 C 
ATOM     32  C   UNL     1      45.734  23.051  -3.439  1.00  0.00     0.004 C 
ENDBRANCH  30  31
ENDBRANCH  29  30
ENDBRANCH  28  29
ENDBRANCH  27  28
ENDBRANCH  26  27
ENDBRANCH  25  26
ENDBRANCH  24  25
ENDBRANCH  23  24
ENDBRANCH  22  23
ENDBRANCH  21  22
ENDBRANCH  20  21
ENDBRANCH  19  20
ENDBRANCH  18  19
ENDBRANCH   1  18
TORSDOF 28
ENDMDL
MODEL 3
REMARK VINA RESULT:    -5.818      4.131     11.045
REMARK INTER + INTRA:         -19.626
REMARK INTER:                 -15.379
REMARK INTRA:                  -4.247
REMARK UNBOUND:                -4.285
REMARK SMILES CCCCCCCCCCCCCCCCCCCCCCCCCCCCCC(=O)[O-]
REMARK SMILES IDX 16 1 17 2 18 3 19 4 20 5 21 6 22 7 23 8 24 9 25 10 26 11
REMARK SMILES IDX 27 12 28 13 29 14 30 15 31 16 32 17 15 18 14 19 13 20 12 21
REMARK SMILES IDX 11 22 10 23 9 24 8 25 7 26 6 27 5 28 4 29 3 30 2 31 1 32
REMARK H PARENT
REMARK Flexibility Score: inf
ROOT
ATOM      1  C   UNL     1      53.616  15.649  -1.885  1.00  0.00     0.000 C 
ENDROOT
BRANCH   1   2
ATOM      2  C   UNL     1      53.171  14.486  -0.977  1.00  0.00     0.000 C 
BRANCH   2   3
ATOM      3  C   UNL     1      54.275  14.039  -0.001  1.00  0.00     0.000 C 
BRANCH   3   4
ATOM      4  C   UNL     1      53.977  14.432   1.459  1.00  0.00     0.000 C 
BRANCH   4   5
ATOM      5  C   UNL     1      52.760  15.353   1.648  1.00  0.00     0.000 C 
BRANCH   5   6
ATOM      6  C   UNL     1      53.116  16.679   2.342  1.00  0.00     0.000 C 
BRANCH   6   7
ATOM      7  C   UNL     1      54.627  16.960   2.349  1.00  0.00     0.000 C 
BRANCH   7   8
ATOM      8  C   UNL     1      55.055  17.923   1.228  1.00  0.00     0.000 C 
BRANCH   8   9
ATOM      9  C   UNL     1      55.982  17.256   0.200  1.00  0.00     0.000 C 
BRANCH   9  10
ATOM     10  C   UNL     1      57.180  16.546   0.855  1.00  0.00     0.000 C 
BRANCH  10  11
ATOM     11  C   UNL     1      57.970  15.681  -0.138  1.00  0.00     0.000 C 
BRANCH  11  12
ATOM     12  C   UNL     1      59.472  15.631   0.183  1.00  0.00     0.000 C 
BRANCH  12  13
ATOM     13  C   UNL     1      59.809  14.392   1.027  1.00  0.00     0.006 C 
BRANCH  13  14
ATOM     14  C   UNL     1      61.321  14.139   1.109  1.00  0.00     0.053 C 
BRANCH  14  15
ATOM     15  C   UNL     1      61.788  13.202   0.038  1.00  0.00     0.041 C 
ATOM     16  O   UNL     1      62.243  13.653  -1.045  1.00  0.00    -0.550 OA
ATOM     17  O   UNL     1      61.693  11.828   0.225  1.00  0.00    -0.550 OA
ENDBRANCH  14  15
ENDBRANCH  13  14
ENDBRANCH  12  13
ENDBRANCH  11  12
ENDBRANCH  10  11
ENDBRANCH   9  10
ENDBRANCH   8   9
ENDBRANCH   7   8
ENDBRANCH   6   7
ENDBRANCH   5   6
ENDBRANCH   4   5
ENDBRANCH   3   4
ENDBRANCH   2   3
ENDBRANCH   1   2
BRANCH   1  18
ATOM     18  C   UNL     1      52.501  16.660  -2.218  1.00  0.00     0.000 C 
BRANCH  18  19
ATOM     19  C   UNL     1      52.242  17.656  -1.072  1.00  0.00     0.000 C 
BRANCH  19  20
ATOM     20  C   UNL     1      51.582  18.965  -1.559  1.00  0.00     0.000 C 
BRANCH  20  21
ATOM     21  C   UNL     1      50.552  18.766  -2.687  1.00  0.00     0.000 C 
BRANCH  21  22
ATOM     22  C   UNL     1      49.091  18.601  -2.225  1.00  0.00     0.000 C 
BRANCH  22  23
ATOM     23  C   UNL     1      48.638  19.583  -1.126  1.00  0.00     0.000 C 
BRANCH  23  24
ATOM     24  C   UNL     1      48.410  21.027  -1.610  1.00  0.00    -0.000 C 
BRANCH  24  25
ATOM     25  C   UNL     1      47.225  21.735  -0.912  1.00  0.00    -0.000 C 
BRANCH  25  26
ATOM     26  C   UNL     1      46.174  20.765  -0.344  1.00  0.00    -0.000 C 
BRANCH  26  27
ATOM     27  C   UNL     1      46.121  20.801   1.194  1.00  0.00    -0.000 C 
BRANCH  27  28
ATOM     28  C   UNL     1      47.277  21.610   1.802  1.00  0.00    -0.000 C 
BRANCH  28  29
ATOM     29  C   UNL     1      48.228  20.743   2.642  1.00  0.00    -0.000 C 
BRANCH  29  30
ATOM     30  C   UNL     1      47.937  19.250   2.433  1.00  0.00    -0.000 C 
BRANCH  30  31
ATOM     31  C   UNL     1      49.217  18.410   2.304  1.00  0.00    -0.003 C 
ATOM     32  C   UNL     1      50.477  19.267   2.192  1.00  0.00     0.004 C 
ENDBRANCH  30  31
ENDBRANCH  29  30
ENDBRANCH  28  29
ENDBRANCH  27  28
ENDBRANCH  26  27
ENDBRANCH  25  26
ENDBRANCH  24  25
ENDBRANCH  23  24
ENDBRANCH  22  23
ENDBRANCH  21  22
ENDBRANCH  20  21
ENDBRANCH  19  20
ENDBRANCH  18  19
ENDBRANCH   1  18
TORSDOF 28
ENDMDL
MODEL 4
REMARK VINA RESULT:    -5.812      3.961     11.057
REMARK INTER + INTRA:         -19.611
REMARK INTER:                 -15.367
REMARK INTRA:                  -4.244
REMARK UNBOUND:                -4.285
REMARK SMILES CCCCCCCCCCCCCCCCCCCCCCCCCCCCCC(=O)[O-]
REMARK SMILES IDX 16 1 17 2 18 3 19 4 20 5 21 6 22 7 23 8 24 9 25 10 26 11
REMARK SMILES IDX 27 12 28 13 29 14 30 15 31 16 32 17 15 18 14 19 13 20 12 21
REMARK SMILES IDX 11 22 10 23 9 24 8 25 7 26 6 27 5 28 4 29 3 30 2 31 1 32
REMARK H PARENT
REMARK Flexibility Score: inf
ROOT
ATOM      1  C   UNL     1      51.909  17.805  -1.320  1.00  0.00     0.000 C 
ENDROOT
BRANCH   1   2
ATOM      2  C   UNL     1      52.320  16.764  -2.379  1.00  0.00     0.000 C 
BRANCH   2   3
ATOM      3  C   UNL     1      53.454  15.842  -1.896  1.00  0.00     0.000 C 
BRANCH   3   4
ATOM      4  C   UNL     1      52.939  14.619  -1.112  1.00  0.00     0.000 C 
BRANCH   4   5
ATOM      5  C   UNL     1      54.015  13.855  -0.322  1.00  0.00     0.000 C 
BRANCH   5   6
ATOM      6  C   UNL     1      54.158  14.354   1.126  1.00  0.00     0.000 C 
BRANCH   6   7
ATOM      7  C   UNL     1      52.870  14.993   1.667  1.00  0.00     0.000 C 
BRANCH   7   8
ATOM      8  C   UNL     1      52.921  16.532   1.647  1.00  0.00     0.000 C 
BRANCH   8   9
ATOM      9  C   UNL     1      53.888  17.102   2.697  1.00  0.00     0.000 C 
BRANCH   9  10
ATOM     10  C   UNL     1      55.196  17.624   2.077  1.00  0.00     0.000 C 
BRANCH  10  11
ATOM     11  C   UNL     1      55.092  17.816   0.556  1.00  0.00     0.000 C 
BRANCH  11  12
ATOM     12  C   UNL     1      56.223  17.111  -0.209  1.00  0.00     0.000 C 
BRANCH  12  13
ATOM     13  C   UNL     1      57.075  16.254   0.741  1.00  0.00     0.006 C 
BRANCH  13  14
ATOM     14  C   UNL     1      57.918  15.216  -0.011  1.00  0.00     0.053 C 
BRANCH  14  15
ATOM     15  C   UNL     1      59.376  15.560   0.012  1.00  0.00     0.041 C 
ATOM     16  O   UNL     1      59.918  15.951   1.079  1.00  0.00    -0.550 OA
ATOM     17  O   UNL     1      60.129  15.478  -1.152  1.00  0.00    -0.550 OA
ENDBRANCH  14  15
ENDBRANCH  13  14
ENDBRANCH  12  13
ENDBRANCH  11  12
ENDBRANCH  10  11
ENDBRANCH   9  10
ENDBRANCH   8   9
ENDBRANCH   7   8
ENDBRANCH   6   7
ENDBRANCH   5   6
ENDBRANCH   4   5
ENDBRANCH   3   4
ENDBRANCH   2   3
ENDBRANCH   1   2
BRANCH   1  18
ATOM     18  C   UNL     1      50.525  18.441  -1.555  1.00  0.00     0.000 C 
BRANCH  18  19
ATOM     19  C   UNL     1      50.600  19.965  -1.765  1.00  0.00     0.000 C 
BRANCH  19  20
ATOM     20  C   UNL     1      49.213  20.644  -1.703  1.00  0.00     0.000 C 
BRANCH  20  21
ATOM     21  C   UNL     1      48.030  19.663  -1.809  1.00  0.00     0.000 C 
BRANCH  21  22
ATOM     22  C   UNL     1      46.696  20.285  -2.266  1.00  0.00     0.000 C 
BRANCH  22  23
ATOM     23  C   UNL     1      45.709  20.622  -1.132  1.00  0.00     0.000 C 
BRANCH  23  24
ATOM     24  C   UNL     1      45.825  22.057  -0.585  1.00  0.00    -0.000 C 
BRANCH  24  25
ATOM     25  C   UNL     1      45.006  22.298   0.704  1.00  0.00    -0.000 C 
BRANCH  25  26
ATOM     26  C   UNL     1      45.854  22.276   1.987  1.00  0.00    -0.000 C 
BRANCH  26  27
ATOM     27  C   UNL     1      45.524  21.067   2.882  1.00  0.00    -0.000 C 
BRANCH  27  28
ATOM     28  C   UNL     1      46.587  19.961   2.790  1.00  0.00    -0.000 C 
BRANCH  28  29
ATOM     29  C   UNL     1      47.878  20.437   2.106  1.00  0.00    -0.000 C 
BRANCH  29  30
ATOM     30  C   UNL     1      48.772  19.245   1.733  1.00  0.00    -0.000 C 
BRANCH  30  31
ATOM     31  C   UNL     1      50.241  19.461   2.126  1.00  0.00    -0.003 C 
ATOM     32  C   UNL     1      50.609  18.773   3.440  1.00  0.00     0.004 C 
ENDBRANCH  30  31
ENDBRANCH  29  30
ENDBRANCH  28  29
ENDBRANCH  27  28
ENDBRANCH  26  27
ENDBRANCH  25  26
ENDBRANCH  24  25
ENDBRANCH  23  24
ENDBRANCH  22  23
ENDBRANCH  21  22
ENDBRANCH  20  21
ENDBRANCH  19  20
ENDBRANCH  18  19
ENDBRANCH   1  18
TORSDOF 28
ENDMDL
MODEL 5
REMARK VINA RESULT:    -5.800      4.112     11.119
REMARK INTER + INTRA:         -19.579
REMARK INTER:                 -15.254
REMARK INTRA:                  -4.325
REMARK UNBOUND:                -4.285
REMARK SMILES CCCCCCCCCCCCCCCCCCCCCCCCCCCCCC(=O)[O-]
REMARK SMILES IDX 16 1 17 2 18 3 19 4 20 5 21 6 22 7 23 8 24 9 25 10 26 11
REMARK SMILES IDX 27 12 28 13 29 14 30 15 31 16 32 17 15 18 14 19 13 20 12 21
REMARK SMILES IDX 11 22 10 23 9 24 8 25 7 26 6 27 5 28 4 29 3 30 2 31 1 32
REMARK H PARENT
REMARK Flexibility Score: inf
ROOT
ATOM      1  C   UNL     1      55.104  17.862   1.435  1.00  0.00     0.000 C 
ENDROOT
BRANCH   1   2
ATOM      2  C   UNL     1      56.038  17.146   0.442  1.00  0.00     0.000 C 
BRANCH   2   3
ATOM      3  C   UNL     1      55.561  17.267  -1.017  1.00  0.00     0.000 C 
BRANCH   3   4
ATOM      4  C   UNL     1      54.118  17.796  -1.131  1.00  0.00     0.000 C 
BRANCH   4   5
ATOM      5  C   UNL     1      53.051  16.720  -1.397  1.00  0.00     0.000 C 
BRANCH   5   6
ATOM      6  C   UNL     1      53.658  15.336  -1.682  1.00  0.00     0.000 C 
BRANCH   6   7
ATOM      7  C   UNL     1      53.161  14.256  -0.708  1.00  0.00     0.000 C 
BRANCH   7   8
ATOM      8  C   UNL     1      54.225  13.867   0.335  1.00  0.00     0.000 C 
BRANCH   8   9
ATOM      9  C   UNL     1      55.534  13.384  -0.310  1.00  0.00     0.000 C 
BRANCH   9  10
ATOM     10  C   UNL     1      56.744  13.518   0.631  1.00  0.00     0.000 C 
BRANCH  10  11
ATOM     11  C   UNL     1      57.928  14.239  -0.029  1.00  0.00     0.000 C 
BRANCH  11  12
ATOM     12  C   UNL     1      59.037  14.596   0.973  1.00  0.00     0.000 C 
BRANCH  12  13
ATOM     13  C   UNL     1      60.396  14.058   0.499  1.00  0.00     0.006 C 
BRANCH  13  14
ATOM     14  C   UNL     1      60.388  12.533   0.323  1.00  0.00     0.053 C 
BRANCH  14  15
ATOM     15  C   UNL     1      61.763  11.994   0.073  1.00  0.00     0.041 C 
ATOM     16  O   UNL     1      62.011  10.775   0.268  1.00  0.00    -0.550 OA
ATOM     17  O   UNL     1      62.778  12.844  -0.347  1.00  0.00    -0.550 OA
ENDBRANCH  14  15
ENDBRANCH  13  14
ENDBRANCH  12  13
ENDBRANCH  11  12
ENDBRANCH  10  11
ENDBRANCH   9  10
ENDBRANCH   8   9
ENDBRANCH   7   8
ENDBRANCH   6   7
ENDBRANCH   5   6
ENDBRANCH   4   5
ENDBRANCH   3   4
ENDBRANCH   2   3
ENDBRANCH   1   2
BRANCH   1  18
ATOM     18  C   UNL     1      54.253  16.916   2.306  1.00  0.00     0.000 C 
BRANCH  18  19
ATOM     19  C   UNL     1      52.946  17.571   2.789  1.00  0.00     0.000 C 
BRANCH  19  20
ATOM     20  C   UNL     1      51.762  17.315   1.830  1.00  0.00     0.000 C 
BRANCH  20  21
ATOM     21  C   UNL     1      50.939  18.575   1.499  1.00  0.00     0.000 C 
BRANCH  21  22
ATOM     22  C   UNL     1      49.420  18.450   1.729  1.00  0.00     0.000 C 
BRANCH  22  23
ATOM     23  C   UNL     1      48.656  19.787   1.785  1.00  0.00     0.000 C 
BRANCH  23  24
ATOM     24  C   UNL     1      47.174  19.662   2.187  1.00  0.00    -0.000 C 
BRANCH  24  25
ATOM     25  C   UNL     1      46.283  20.797   1.630  1.00  0.00    -0.000 C 
BRANCH  25  26
ATOM     26  C   UNL     1      46.698  21.276   0.229  1.00  0.00    -0.000 C 
BRANCH  26  27
ATOM     27  C   UNL     1      45.836  20.646  -0.880  1.00  0.00    -0.000 C 
BRANCH  27  28
ATOM     28  C   UNL     1      46.678  20.135  -2.060  1.00  0.00    -0.000 C 
BRANCH  28  29
ATOM     29  C   UNL     1      48.184  20.138  -1.756  1.00  0.00    -0.000 C 
BRANCH  29  30
ATOM     30  C   UNL     1      48.818  18.785  -2.110  1.00  0.00    -0.000 C 
BRANCH  30  31
ATOM     31  C   UNL     1      50.338  18.877  -2.312  1.00  0.00    -0.003 C 
ATOM     32  C   UNL     1      50.911  20.222  -1.869  1.00  0.00     0.004 C 
ENDBRANCH  30  31
ENDBRANCH  29  30
ENDBRANCH  28  29
ENDBRANCH  27  28
ENDBRANCH  26  27
ENDBRANCH  25  26
ENDBRANCH  24  25
ENDBRANCH  23  24
ENDBRANCH  22  23
ENDBRANCH  21  22
ENDBRANCH  20  21
ENDBRANCH  19  20
ENDBRANCH  18  19
ENDBRANCH   1  18
TORSDOF 28
ENDMDL
MODEL 6
REMARK VINA RESULT:    -5.752      3.262      7.440
REMARK INTER + INTRA:         -19.453
REMARK INTER:                 -15.657
REMARK INTRA:                  -3.796
REMARK UNBOUND:                -4.285
REMARK SMILES CCCCCCCCCCCCCCCCCCCCCCCCCCCCCC(=O)[O-]
REMARK SMILES IDX 16 1 17 2 18 3 19 4 20 5 21 6 22 7 23 8 24 9 25 10 26 11
REMARK SMILES IDX 27 12 28 13 29 14 30 15 31 16 32 17 15 18 14 19 13 20 12 21
REMARK SMILES IDX 11 22 10 23 9 24 8 25 7 26 6 27 5 28 4 29 3 30 2 31 1 32
REMARK H PARENT
REMARK Flexibility Score: inf
ROOT
ATOM      1  C   UNL     1      49.531  18.536  -1.762  1.00  0.00     0.000 C 
ENDROOT
BRANCH   1   2
ATOM      2  C   UNL     1      49.353  20.044  -1.504  1.00  0.00     0.000 C 
BRANCH   2   3
ATOM      3  C   UNL     1      47.906  20.417  -1.136  1.00  0.00     0.000 C 
BRANCH   3   4
ATOM      4  C   UNL     1      46.905  20.117  -2.268  1.00  0.00     0.000 C 
BRANCH   4   5
ATOM      5  C   UNL     1      45.424  20.303  -1.892  1.00  0.00     0.000 C 
BRANCH   5   6
ATOM      6  C   UNL     1      44.863  21.665  -2.335  1.00  0.00     0.000 C 
BRANCH   6   7
ATOM      7  C   UNL     1      44.202  22.439  -1.183  1.00  0.00     0.000 C 
BRANCH   7   8
ATOM      8  C   UNL     1      44.984  22.316   0.137  1.00  0.00     0.000 C 
BRANCH   8   9
ATOM      9  C   UNL     1      44.126  22.666   1.364  1.00  0.00     0.000 C 
BRANCH   9  10
ATOM     10  C   UNL     1      44.868  22.432   2.692  1.00  0.00     0.000 C 
BRANCH  10  11
ATOM     11  C   UNL     1      46.327  22.908   2.645  1.00  0.00     0.000 C 
BRANCH  11  12
ATOM     12  C   UNL     1      47.300  21.901   3.277  1.00  0.00     0.000 C 
BRANCH  12  13
ATOM     13  C   UNL     1      47.747  20.852   2.248  1.00  0.00     0.006 C 
BRANCH  13  14
ATOM     14  C   UNL     1      48.941  20.024   2.743  1.00  0.00     0.053 C 
BRANCH  14  15
ATOM     15  C   UNL     1      48.810  18.579   2.369  1.00  0.00     0.041 C 
ATOM     16  O   UNL     1      49.588  18.071   1.519  1.00  0.00    -0.550 OA
ATOM     17  O   UNL     1      47.808  17.801   2.935  1.00  0.00    -0.550 OA
ENDBRANCH  14  15
ENDBRANCH  13  14
ENDBRANCH  12  13
ENDBRANCH  11  12
ENDBRANCH  10  11
ENDBRANCH   9  10
ENDBRANCH   8   9
ENDBRANCH   7   8
ENDBRANCH   6   7
ENDBRANCH   5   6
ENDBRANCH   4   5
ENDBRANCH   3   4
ENDBRANCH   2   3
ENDBRANCH   1   2
BRANCH   1  18
ATOM     18  C   UNL     1      50.931  18.136  -2.267  1.00  0.00     0.000 C 
BRANCH  18  19
ATOM     19  C   UNL     1      51.800  17.499  -1.167  1.00  0.00     0.000 C 
BRANCH  19  20
ATOM     20  C   UNL     1      53.253  17.247  -1.627  1.00  0.00     0.000 C 
BRANCH  20  21
ATOM     21  C   UNL     1      53.576  15.767  -1.904  1.00  0.00     0.000 C 
BRANCH  21  22
ATOM     22  C   UNL     1      52.946  14.758  -0.924  1.00  0.00     0.000 C 
BRANCH  22  23
ATOM     23  C   UNL     1      53.928  14.116   0.076  1.00  0.00     0.000 C 
BRANCH  23  24
ATOM     24  C   UNL     1      53.744  14.569   1.536  1.00  0.00    -0.000 C 
BRANCH  24  25
ATOM     25  C   UNL     1      52.594  15.585   1.731  1.00  0.00    -0.000 C 
BRANCH  25  26
ATOM     26  C   UNL     1      53.059  16.944   2.282  1.00  0.00    -0.000 C 
BRANCH  26  27
ATOM     27  C   UNL     1      54.587  17.006   2.463  1.00  0.00    -0.000 C 
BRANCH  27  28
ATOM     28  C   UNL     1      55.272  17.847   1.374  1.00  0.00    -0.000 C 
BRANCH  28  29
ATOM     29  C   UNL     1      56.704  17.374   1.075  1.00  0.00    -0.000 C 
BRANCH  29  30
ATOM     30  C   UNL     1      56.713  16.335  -0.056  1.00  0.00    -0.000 C 
BRANCH  30  31
ATOM     31  C   UNL     1      57.475  15.056   0.322  1.00  0.00    -0.003 C 
ATOM     32  C   UNL     1      58.990  15.221   0.224  1.00  0.00     0.004 C 
ENDBRANCH  30  31
ENDBRANCH  29  30
ENDBRANCH  28  29
ENDBRANCH  27  28
ENDBRANCH  26  27
ENDBRANCH  25  26
ENDBRANCH  24  25
ENDBRANCH  23  24
ENDBRANCH  22  23
ENDBRANCH  21  22
ENDBRANCH  20  21
ENDBRANCH  19  20
ENDBRANCH  18  19
ENDBRANCH   1  18
TORSDOF 28
ENDMDL
MODEL 7
REMARK VINA RESULT:    -5.751      4.475     12.258
REMARK INTER + INTRA:         -19.449
REMARK INTER:                 -16.014
REMARK INTRA:                  -3.435
REMARK UNBOUND:                -4.285
REMARK SMILES CCCCCCCCCCCCCCCCCCCCCCCCCCCCCC(=O)[O-]
REMARK SMILES IDX 16 1 17 2 18 3 19 4 20 5 21 6 22 7 23 8 24 9 25 10 26 11
REMARK SMILES IDX 27 12 28 13 29 14 30 15 31 16 32 17 15 18 14 19 13 20 12 21
REMARK SMILES IDX 11 22 10 23 9 24 8 25 7 26 6 27 5 28 4 29 3 30 2 31 1 32
REMARK H PARENT
REMARK Flexibility Score: inf
ROOT
ATOM      1  C   UNL     1      52.004  17.778   1.856  1.00  0.00     0.000 C 
ENDROOT
BRANCH   1   2
ATOM      2  C   UNL     1      53.072  17.504   2.932  1.00  0.00     0.000 C 
BRANCH   2   3
ATOM      3  C   UNL     1      54.347  16.864   2.355  1.00  0.00     0.000 C 
BRANCH   3   4
ATOM      4  C   UNL     1      55.175  17.843   1.501  1.00  0.00     0.000 C 
BRANCH   4   5
ATOM      5  C   UNL     1      56.175  17.180   0.539  1.00  0.00     0.000 C 
BRANCH   5   6
ATOM      6  C   UNL     1      55.653  17.104  -0.906  1.00  0.00     0.000 C 
BRANCH   6   7
ATOM      7  C   UNL     1      54.387  17.946  -1.127  1.00  0.00     0.000 C 
BRANCH   7   8
ATOM      8  C   UNL     1      53.155  17.085  -1.458  1.00  0.00     0.000 C 
BRANCH   8   9
ATOM      9  C   UNL     1      53.533  15.671  -1.926  1.00  0.00     0.000 C 
BRANCH   9  10
ATOM     10  C   UNL     1      52.886  14.569  -1.068  1.00  0.00     0.000 C 
BRANCH  10  11
ATOM     11  C   UNL     1      53.771  14.146   0.114  1.00  0.00     0.000 C 
BRANCH  11  12
ATOM     12  C   UNL     1      55.035  13.393  -0.332  1.00  0.00     0.000 C 
BRANCH  12  13
ATOM     13  C   UNL     1      56.124  13.466   0.748  1.00  0.00     0.006 C 
BRANCH  13  14
ATOM     14  C   UNL     1      57.533  13.557   0.147  1.00  0.00     0.053 C 
BRANCH  14  15
ATOM     15  C   UNL     1      58.367  12.362   0.498  1.00  0.00     0.041 C 
ATOM     16  O   UNL     1      59.603  12.359   0.258  1.00  0.00    -0.550 OA
ATOM     17  O   UNL     1      57.773  11.240   1.063  1.00  0.00    -0.550 OA
ENDBRANCH  14  15
ENDBRANCH  13  14
ENDBRANCH  12  13
ENDBRANCH  11  12
ENDBRANCH  10  11
ENDBRANCH   9  10
ENDBRANCH   8   9
ENDBRANCH   7   8
ENDBRANCH   6   7
ENDBRANCH   5   6
ENDBRANCH   4   5
ENDBRANCH   3   4
ENDBRANCH   2   3
ENDBRANCH   1   2
BRANCH   1  18
ATOM     18  C   UNL     1      50.867  18.715   2.309  1.00  0.00     0.000 C 
BRANCH  18  19
ATOM     19  C   UNL     1      49.561  18.484   1.527  1.00  0.00     0.000 C 
BRANCH  19  20
ATOM     20  C   UNL     1      48.910  19.803   1.054  1.00  0.00     0.000 C 
BRANCH  20  21
ATOM     21  C   UNL     1      47.965  20.443   2.088  1.00  0.00     0.000 C 
BRANCH  21  22
ATOM     22  C   UNL     1      46.508  19.944   2.049  1.00  0.00     0.000 C 
BRANCH  22  23
ATOM     23  C   UNL     1      45.765  19.989   3.399  1.00  0.00     0.000 C 
BRANCH  23  24
ATOM     24  C   UNL     1      45.390  21.404   3.877  1.00  0.00    -0.000 C 
BRANCH  24  25
ATOM     25  C   UNL     1      44.168  22.004   3.143  1.00  0.00    -0.000 C 
BRANCH  25  26
ATOM     26  C   UNL     1      44.527  23.155   2.187  1.00  0.00    -0.000 C 
BRANCH  26  27
ATOM     27  C   UNL     1      43.889  22.976   0.797  1.00  0.00    -0.000 C 
BRANCH  27  28
ATOM     28  C   UNL     1      44.891  22.454  -0.245  1.00  0.00    -0.000 C 
BRANCH  28  29
ATOM     29  C   UNL     1      44.207  21.975  -1.535  1.00  0.00    -0.000 C 
BRANCH  29  30
ATOM     30  C   UNL     1      45.165  21.122  -2.379  1.00  0.00    -0.000 C 
BRANCH  30  31
ATOM     31  C   UNL     1      46.469  20.789  -1.639  1.00  0.00    -0.003 C 
ATOM     32  C   UNL     1      47.567  21.824  -1.881  1.00  0.00     0.004 C 
ENDBRANCH  30  31
ENDBRANCH  29  30
ENDBRANCH  28  29
ENDBRANCH  27  28
ENDBRANCH  26  27
ENDBRANCH  25  26
ENDBRANCH  24  25
ENDBRANCH  23  24
ENDBRANCH  22  23
ENDBRANCH  21  22
ENDBRANCH  20  21
ENDBRANCH  19  20
ENDBRANCH  18  19
ENDBRANCH   1  18
TORSDOF 28
ENDMDL
MODEL 8
REMARK VINA RESULT:    -5.729      4.105     10.908
REMARK INTER + INTRA:         -19.391
REMARK INTER:                 -15.327
REMARK INTRA:                  -4.064
REMARK UNBOUND:                -4.285
REMARK SMILES CCCCCCCCCCCCCCCCCCCCCCCCCCCCCC(=O)[O-]
REMARK SMILES IDX 16 1 17 2 18 3 19 4 20 5 21 6 22 7 23 8 24 9 25 10 26 11
REMARK SMILES IDX 27 12 28 13 29 14 30 15 31 16 32 17 15 18 14 19 13 20 12 21
REMARK SMILES IDX 11 22 10 23 9 24 8 25 7 26 6 27 5 28 4 29 3 30 2 31 1 32
REMARK H PARENT
REMARK Flexibility Score: inf
ROOT
ATOM      1  C   UNL     1      53.088  14.662  -1.087  1.00  0.00     0.000 C 
ENDROOT
BRANCH   1   2
ATOM      2  C   UNL     1      53.895  13.818  -0.082  1.00  0.00     0.000 C 
BRANCH   2   3
ATOM      3  C   UNL     1      54.050  14.509   1.285  1.00  0.00     0.000 C 
BRANCH   3   4
ATOM      4  C   UNL     1      52.848  15.404   1.642  1.00  0.00     0.000 C 
BRANCH   4   5
ATOM      5  C   UNL     1      53.205  16.854   2.011  1.00  0.00     0.000 C 
BRANCH   5   6
ATOM      6  C   UNL     1      54.688  17.026   2.385  1.00  0.00     0.000 C 
BRANCH   6   7
ATOM      7  C   UNL     1      55.494  17.760   1.302  1.00  0.00     0.000 C 
BRANCH   7   8
ATOM      8  C   UNL     1      56.897  17.159   1.102  1.00  0.00     0.000 C 
BRANCH   8   9
ATOM      9  C   UNL     1      56.930  16.096  -0.007  1.00  0.00     0.000 C 
BRANCH   9  10
ATOM     10  C   UNL     1      58.299  15.403  -0.124  1.00  0.00     0.000 C 
BRANCH  10  11
ATOM     11  C   UNL     1      58.367  14.092   0.673  1.00  0.00     0.000 C 
BRANCH  11  12
ATOM     12  C   UNL     1      57.486  12.986   0.070  1.00  0.00     0.000 C 
BRANCH  12  13
ATOM     13  C   UNL     1      57.822  11.621   0.690  1.00  0.00     0.006 C 
BRANCH  13  14
ATOM     14  C   UNL     1      58.672  10.751  -0.246  1.00  0.00     0.053 C 
BRANCH  14  15
ATOM     15  C   UNL     1      59.868  10.184   0.454  1.00  0.00     0.041 C 
ATOM     16  O   UNL     1      60.731  10.951   0.958  1.00  0.00    -0.550 OA
ATOM     17  O   UNL     1      60.047   8.808   0.525  1.00  0.00    -0.550 OA
ENDBRANCH  14  15
ENDBRANCH  13  14
ENDBRANCH  12  13
ENDBRANCH  11  12
ENDBRANCH  10  11
ENDBRANCH   9  10
ENDBRANCH   8   9
ENDBRANCH   7   8
ENDBRANCH   6   7
ENDBRANCH   5   6
ENDBRANCH   4   5
ENDBRANCH   3   4
ENDBRANCH   2   3
ENDBRANCH   1   2
BRANCH   1  18
ATOM     18  C   UNL     1      53.919  15.712  -1.850  1.00  0.00     0.000 C 
BRANCH  18  19
ATOM     19  C   UNL     1      53.383  17.144  -1.663  1.00  0.00     0.000 C 
BRANCH  19  20
ATOM     20  C   UNL     1      51.853  17.183  -1.455  1.00  0.00     0.000 C 
BRANCH  20  21
ATOM     21  C   UNL     1      51.326  18.530  -0.923  1.00  0.00     0.000 C 
BRANCH  21  22
ATOM     22  C   UNL     1      50.778  19.494  -1.993  1.00  0.00     0.000 C 
BRANCH  22  23
ATOM     23  C   UNL     1      49.535  20.300  -1.571  1.00  0.00     0.000 C 
BRANCH  23  24
ATOM     24  C   UNL     1      48.191  19.656  -1.958  1.00  0.00    -0.000 C 
BRANCH  24  25
ATOM     25  C   UNL     1      46.995  20.636  -1.905  1.00  0.00    -0.000 C 
BRANCH  25  26
ATOM     26  C   UNL     1      47.026  21.582  -0.693  1.00  0.00    -0.000 C 
BRANCH  26  27
ATOM     27  C   UNL     1      46.642  20.865   0.614  1.00  0.00    -0.000 C 
BRANCH  27  28
ATOM     28  C   UNL     1      47.243  21.543   1.855  1.00  0.00    -0.000 C 
BRANCH  28  29
ATOM     29  C   UNL     1      48.279  20.660   2.568  1.00  0.00    -0.000 C 
BRANCH  29  30
ATOM     30  C   UNL     1      48.570  19.391   1.755  1.00  0.00    -0.000 C 
BRANCH  30  31
ATOM     31  C   UNL     1      49.267  18.302   2.585  1.00  0.00    -0.003 C 
ATOM     32  C   UNL     1      50.515  18.816   3.302  1.00  0.00     0.004 C 
ENDBRANCH  30  31
ENDBRANCH  29  30
ENDBRANCH  28  29
ENDBRANCH  27  28
ENDBRANCH  26  27
ENDBRANCH  25  26
ENDBRANCH  24  25
ENDBRANCH  23  24
ENDBRANCH  22  23
ENDBRANCH  21  22
ENDBRANCH  20  21
ENDBRANCH  19  20
ENDBRANCH  18  19
ENDBRANCH   1  18
TORSDOF 28
ENDMDL
MODEL 9
REMARK VINA RESULT:    -5.675      1.840      4.183
REMARK INTER + INTRA:         -19.250
REMARK INTER:                 -15.161
REMARK INTRA:                  -4.089
REMARK UNBOUND:                -4.285
REMARK SMILES CCCCCCCCCCCCCCCCCCCCCCCCCCCCCC(=O)[O-]
REMARK SMILES IDX 16 1 17 2 18 3 19 4 20 5 21 6 22 7 23 8 24 9 25 10 26 11
REMARK SMILES IDX 27 12 28 13 29 14 30 15 31 16 32 17 15 18 14 19 13 20 12 21
REMARK SMILES IDX 11 22 10 23 9 24 8 25 7 26 6 27 5 28 4 29 3 30 2 31 1 32
REMARK H PARENT
REMARK Flexibility Score: inf
ROOT
ATOM      1  C   UNL     1      53.264  16.713   2.214  1.00  0.00     0.000 C 
ENDROOT
BRANCH   1   2
ATOM      2  C   UNL     1      52.792  15.370   1.623  1.00  0.00     0.000 C 
BRANCH   2   3
ATOM      3  C   UNL     1      53.961  14.431   1.275  1.00  0.00     0.000 C 
BRANCH   3   4
ATOM      4  C   UNL     1      54.030  14.093  -0.227  1.00  0.00     0.000 C 
BRANCH   4   5
ATOM      5  C   UNL     1      52.919  14.721  -1.085  1.00  0.00     0.000 C 
BRANCH   5   6
ATOM      6  C   UNL     1      53.406  15.932  -1.899  1.00  0.00     0.000 C 
BRANCH   6   7
ATOM      7  C   UNL     1      52.295  16.963  -2.155  1.00  0.00     0.000 C 
BRANCH   7   8
ATOM      8  C   UNL     1      52.006  17.840  -0.923  1.00  0.00     0.000 C 
BRANCH   8   9
ATOM      9  C   UNL     1      51.075  19.019  -1.245  1.00  0.00     0.000 C 
BRANCH   9  10
ATOM     10  C   UNL     1      50.094  19.329  -0.100  1.00  0.00     0.000 C 
BRANCH  10  11
ATOM     11  C   UNL     1      50.603  18.838   1.263  1.00  0.00     0.000 C 
BRANCH  11  12
ATOM     12  C   UNL     1      49.465  18.401   2.199  1.00  0.00     0.000 C 
BRANCH  12  13
ATOM     13  C   UNL     1      48.240  19.312   2.032  1.00  0.00     0.006 C 
BRANCH  13  14
ATOM     14  C   UNL     1      48.442  20.685   2.687  1.00  0.00     0.053 C 
BRANCH  14  15
ATOM     15  C   UNL     1      47.161  21.458   2.770  1.00  0.00     0.041 C 
ATOM     16  O   UNL     1      47.151  22.695   2.534  1.00  0.00    -0.550 OA
ATOM     17  O   UNL     1      45.984  20.818   3.136  1.00  0.00    -0.550 OA
ENDBRANCH  14  15
ENDBRANCH  13  14
ENDBRANCH  12  13
ENDBRANCH  11  12
ENDBRANCH  10  11
ENDBRANCH   9  10
ENDBRANCH   8   9
ENDBRANCH   7   8
ENDBRANCH   6   7
ENDBRANCH   5   6
ENDBRANCH   4   5
ENDBRANCH   3   4
ENDBRANCH   2   3
ENDBRANCH   1   2
BRANCH   1  18
ATOM     18  C   UNL     1      54.790  16.923   2.180  1.00  0.00     0.000 C 
BRANCH  18  19
ATOM     19  C   UNL     1      55.227  17.919   1.089  1.00  0.00     0.000 C 
BRANCH  19  20
ATOM     20  C   UNL     1      55.974  17.235  -0.077  1.00  0.00     0.000 C 
BRANCH  20  21
ATOM     21  C   UNL     1      57.024  16.200   0.371  1.00  0.00     0.000 C 
BRANCH  21  22
ATOM     22  C   UNL     1      58.242  16.777   1.118  1.00  0.00     0.000 C 
BRANCH  22  23
ATOM     23  C   UNL     1      59.590  16.107   0.786  1.00  0.00     0.000 C 
BRANCH  23  24
ATOM     24  C   UNL     1      59.608  15.326  -0.541  1.00  0.00    -0.000 C 
BRANCH  24  25
ATOM     25  C   UNL     1      60.868  14.448  -0.727  1.00  0.00    -0.000 C 
BRANCH  25  26
ATOM     26  C   UNL     1      61.007  13.337   0.328  1.00  0.00    -0.000 C 
BRANCH  26  27
ATOM     27  C   UNL     1      61.619  12.052  -0.258  1.00  0.00    -0.000 C 
BRANCH  27  28
ATOM     28  C   UNL     1      60.937  10.781   0.274  1.00  0.00    -0.000 C 
BRANCH  28  29
ATOM     29  C   UNL     1      59.466  11.013   0.652  1.00  0.00    -0.000 C 
BRANCH  29  30
ATOM     30  C   UNL     1      58.550  10.817  -0.565  1.00  0.00    -0.000 C 
BRANCH  30  31
ATOM     31  C   UNL     1      57.342  11.765  -0.555  1.00  0.00    -0.003 C 
ATOM     32  C   UNL     1      57.275  12.624   0.707  1.00  0.00     0.004 C 
ENDBRANCH  30  31
ENDBRANCH  29  30
ENDBRANCH  28  29
ENDBRANCH  27  28
ENDBRANCH  26  27
ENDBRANCH  25  26
ENDBRANCH  24  25
ENDBRANCH  23  24
ENDBRANCH  22  23
ENDBRANCH  21  22
ENDBRANCH  20  21
ENDBRANCH  19  20
ENDBRANCH  18  19
ENDBRANCH   1  18
TORSDOF 28
ENDMDL
