MODEL 1
REMARK VINA RESULT:    -4.480      0.000      0.000
REMARK INTER + INTRA:          -5.545
REMARK INTER:                  -5.266
REMARK INTRA:                  -0.279
REMARK UNBOUND:                -0.279
REMARK SMILES O=c1cc(-c2ccc(O)c(O)c2)oc2cc(O)cc(O)c12
REMARK SMILES IDX 4 1 3 2 2 3 1 4 21 5 19 6 18 7 16 8 15 9 14 10 13 11 5 12
REMARK SMILES IDX 6 13 7 14 8 15 12 16 10 17 9 18 11 20 20 22 17 24
REMARK H PARENT 9 19 11 21 20 23 17 25
REMARK Flexibility Score: inf
ROOT
ATOM      1  C   UNL     1     -31.711 -22.000 -33.850  1.00  0.00     0.138 A 
ATOM      2  C   UNL     1     -32.546 -20.924 -34.196  1.00  0.00     0.100 A 
ATOM      3  C   UNL     1     -33.081 -20.855 -35.484  1.00  0.00     0.197 A 
ATOM      4  O   UNL     1     -33.829 -19.886 -35.783  1.00  0.00    -0.289 OA
ATOM      5  C   UNL     1     -32.779 -21.867 -36.417  1.00  0.00     0.107 A 
ATOM      6  C   UNL     1     -33.277 -21.873 -37.741  1.00  0.00     0.134 A 
ATOM      7  C   UNL     1     -32.934 -22.920 -38.608  1.00  0.00     0.093 A 
ATOM      8  C   UNL     1     -32.105 -23.959 -38.178  1.00  0.00     0.123 A 
ATOM      9  C   UNL     1     -31.609 -23.959 -36.870  1.00  0.00     0.094 A 
ATOM     10  C   UNL     1     -31.939 -22.923 -35.990  1.00  0.00     0.146 A 
ATOM     11  O   UNL     1     -31.454 -22.944 -34.753  1.00  0.00    -0.456 OA
ENDROOT
BRANCH   1  12
ATOM     12  C   UNL     1     -31.115 -22.125 -32.496  1.00  0.00     0.021 A 
ATOM     13  C   UNL     1     -31.043 -23.363 -31.833  1.00  0.00     0.016 A 
ATOM     14  C   UNL     1     -30.484 -23.450 -30.557  1.00  0.00     0.051 A 
ATOM     15  C   UNL     1     -29.996 -22.311 -29.911  1.00  0.00     0.157 A 
ATOM     16  C   UNL     1     -30.635 -20.978 -31.842  1.00  0.00     0.062 A 
ATOM     17  C   UNL     1     -30.073 -21.057 -30.561  1.00  0.00     0.158 A 
BRANCH  15  18
ATOM     18  O   UNL     1     -29.448 -22.466 -28.635  1.00  0.00    -0.504 OA
ATOM     19  H   UNL     1     -29.983 -22.713 -27.817  1.00  0.00     0.293 HD
ENDBRANCH  15  18
BRANCH  17  20
ATOM     20  O   UNL     1     -29.611 -19.875 -29.979  1.00  0.00    -0.504 OA
ATOM     21  H   UNL     1     -29.618 -19.694 -28.986  1.00  0.00     0.293 HD
ENDBRANCH  17  20
ENDBRANCH   1  12
BRANCH   6  22
ATOM     22  O   UNL     1     -34.107 -20.849 -38.200  1.00  0.00    -0.507 OA
ATOM     23  H   UNL     1     -34.553 -20.198 -37.563  1.00  0.00     0.293 HD
ENDBRANCH   6  22
BRANCH   8  24
ATOM     24  O   UNL     1     -31.780 -24.988 -39.058  1.00  0.00    -0.508 OA
ATOM     25  H   UNL     1     -31.648 -25.940 -38.737  1.00  0.00     0.293 HD
ENDBRANCH   8  24
TORSDOF 5
ENDMDL
