MODEL 1
REMARK VINA RESULT:    -6.948      0.000      0.000
REMARK INTER + INTRA:          -8.430
REMARK INTER:                  -8.167
REMARK INTRA:                  -0.263
REMARK UNBOUND:                -0.263
REMARK SMILES O=c1cc(-c2ccc(O)c(O)c2)oc2cc(O)cc(O)c12
REMARK SMILES IDX 4 1 3 2 2 3 1 4 21 5 19 6 18 7 16 8 15 9 14 10 13 11 5 12
REMARK SMILES IDX 6 13 7 14 8 15 12 16 10 17 9 18 11 20 20 22 17 24
REMARK H PARENT 9 19 11 21 20 23 17 25
REMARK Flexibility Score: inf
ROOT
ATOM      1  C   UNL     1       9.782  11.357 -16.220  1.00  0.00     0.138 A 
ATOM      2  C   UNL     1      10.531  10.204 -16.495  1.00  0.00     0.100 A 
ATOM      3  C   UNL     1      10.234   9.013 -15.831  1.00  0.00     0.197 A 
ATOM      4  O   UNL     1      10.963   8.013 -16.053  1.00  0.00    -0.289 OA
ATOM      5  C   UNL     1       9.161   8.970 -14.909  1.00  0.00     0.107 A 
ATOM      6  C   UNL     1       8.742   7.803 -14.204  1.00  0.00     0.134 A 
ATOM      7  C   UNL     1       7.742   7.907 -13.230  1.00  0.00     0.093 A 
ATOM      8  C   UNL     1       7.105   9.125 -12.979  1.00  0.00     0.123 A 
ATOM      9  C   UNL     1       7.469  10.259 -13.700  1.00  0.00     0.094 A 
ATOM     10  C   UNL     1       8.488  10.195 -14.653  1.00  0.00     0.146 A 
ATOM     11  O   UNL     1       8.815  11.303 -15.310  1.00  0.00    -0.456 OA
ENDROOT
BRANCH   1  12
ATOM     12  C   UNL     1      10.053  12.650 -16.898  1.00  0.00     0.021 A 
ATOM     13  C   UNL     1      10.924  13.607 -16.343  1.00  0.00     0.016 A 
ATOM     14  C   UNL     1      11.170  14.811 -17.007  1.00  0.00     0.051 A 
ATOM     15  C   UNL     1      10.557  15.078 -18.238  1.00  0.00     0.157 A 
ATOM     16  C   UNL     1       9.452  12.921 -18.140  1.00  0.00     0.062 A 
ATOM     17  C   UNL     1       9.696  14.126 -18.807  1.00  0.00     0.158 A 
BRANCH  15  18
ATOM     18  O   UNL     1      10.803  16.282 -18.897  1.00  0.00    -0.504 OA
ATOM     19  H   UNL     1      11.554  16.374 -19.572  1.00  0.00     0.293 HD
ENDBRANCH  15  18
BRANCH  17  20
ATOM     20  O   UNL     1       9.073  14.361 -20.033  1.00  0.00    -0.504 OA
ATOM     21  H   UNL     1       8.228  13.875 -20.309  1.00  0.00     0.293 HD
ENDBRANCH  17  20
ENDBRANCH   1  12
BRANCH   6  22
ATOM     22  O   UNL     1       9.254   6.523 -14.438  1.00  0.00    -0.507 OA
ATOM     23  H   UNL     1       9.523   6.166 -15.343  1.00  0.00     0.293 HD
ENDBRANCH   6  22
BRANCH   8  24
ATOM     24  O   UNL     1       6.100   9.215 -12.017  1.00  0.00    -0.508 OA
ATOM     25  H   UNL     1       5.697  10.106 -11.753  1.00  0.00     0.293 HD
ENDBRANCH   8  24
TORSDOF 5
ENDMDL
MODEL 2
REMARK VINA RESULT:    -6.809      3.662      6.500
REMARK INTER + INTRA:          -8.266
REMARK INTER:                  -8.000
REMARK INTRA:                  -0.266
REMARK UNBOUND:                -0.263
REMARK SMILES O=c1cc(-c2ccc(O)c(O)c2)oc2cc(O)cc(O)c12
REMARK SMILES IDX 4 1 3 2 2 3 1 4 21 5 19 6 18 7 16 8 15 9 14 10 13 11 5 12
REMARK SMILES IDX 6 13 7 14 8 15 12 16 10 17 9 18 11 20 20 22 17 24
REMARK H PARENT 9 19 11 21 20 23 17 25
REMARK Flexibility Score: inf
ROOT
ATOM      1  C   UNL     1       8.398  16.126 -18.890  1.00  0.00     0.138 A 
ATOM      2  C   UNL     1       8.403  15.831 -20.260  1.00  0.00     0.100 A 
ATOM      3  C   UNL     1       8.756  14.551 -20.690  1.00  0.00     0.197 A 
ATOM      4  O   UNL     1       8.811  14.335 -21.928  1.00  0.00    -0.289 OA
ATOM      5  C   UNL     1       9.076  13.553 -19.739  1.00  0.00     0.107 A 
ATOM      6  C   UNL     1       9.411  12.204 -20.058  1.00  0.00     0.134 A 
ATOM      7  C   UNL     1       9.823  11.335 -19.040  1.00  0.00     0.093 A 
ATOM      8  C   UNL     1       9.853  11.751 -17.706  1.00  0.00     0.123 A 
ATOM      9  C   UNL     1       9.477  13.051 -17.377  1.00  0.00     0.094 A 
ATOM     10  C   UNL     1       9.094  13.951 -18.375  1.00  0.00     0.146 A 
ATOM     11  O   UNL     1       8.755  15.187 -18.020  1.00  0.00    -0.456 OA
ENDROOT
BRANCH   1  12
ATOM     12  C   UNL     1       8.029  17.470 -18.377  1.00  0.00     0.021 A 
ATOM     13  C   UNL     1       6.927  17.658 -17.521  1.00  0.00     0.016 A 
ATOM     14  C   UNL     1       6.609  18.932 -17.045  1.00  0.00     0.051 A 
ATOM     15  C   UNL     1       7.388  20.038 -17.409  1.00  0.00     0.157 A 
ATOM     16  C   UNL     1       8.813  18.584 -18.727  1.00  0.00     0.062 A 
ATOM     17  C   UNL     1       8.496  19.861 -18.253  1.00  0.00     0.158 A 
BRANCH  15  18
ATOM     18  O   UNL     1       7.066  21.309 -16.934  1.00  0.00    -0.504 OA
ATOM     19  H   UNL     1       7.674  21.806 -16.292  1.00  0.00     0.293 HD
ENDBRANCH  15  18
BRANCH  17  20
ATOM     20  O   UNL     1       9.293  20.942 -18.630  1.00  0.00    -0.504 OA
ATOM     21  H   UNL     1       9.416  21.208 -19.600  1.00  0.00     0.293 HD
ENDBRANCH  17  20
ENDBRANCH   1  12
BRANCH   6  22
ATOM     22  O   UNL     1       9.333  11.663 -21.345  1.00  0.00    -0.507 OA
ATOM     23  H   UNL     1       9.891  10.893 -21.681  1.00  0.00     0.293 HD
ENDBRANCH   6  22
BRANCH   8  24
ATOM     24  O   UNL     1      10.251  10.875 -16.698  1.00  0.00    -0.508 OA
ATOM     25  H   UNL     1       9.733  10.028 -16.497  1.00  0.00     0.293 HD
ENDBRANCH   8  24
TORSDOF 5
ENDMDL
MODEL 3
REMARK VINA RESULT:    -6.792      2.466      3.766
REMARK INTER + INTRA:          -8.246
REMARK INTER:                  -7.932
REMARK INTRA:                  -0.314
REMARK UNBOUND:                -0.263
REMARK SMILES O=c1cc(-c2ccc(O)c(O)c2)oc2cc(O)cc(O)c12
REMARK SMILES IDX 4 1 3 2 2 3 1 4 21 5 19 6 18 7 16 8 15 9 14 10 13 11 5 12
REMARK SMILES IDX 6 13 7 14 8 15 12 16 10 17 9 18 11 20 20 22 17 24
REMARK H PARENT 9 19 11 21 20 23 17 25
REMARK Flexibility Score: inf
ROOT
ATOM      1  C   UNL     1       9.033  13.179 -19.001  1.00  0.00     0.138 A 
ATOM      2  C   UNL     1       9.620  11.948 -19.325  1.00  0.00     0.100 A 
ATOM      3  C   UNL     1       9.781  10.977 -18.336  1.00  0.00     0.197 A 
ATOM      4  O   UNL     1      10.367   9.908 -18.644  1.00  0.00    -0.289 OA
ATOM      5  C   UNL     1       9.325  11.231 -17.021  1.00  0.00     0.107 A 
ATOM      6  C   UNL     1       9.399  10.301 -15.942  1.00  0.00     0.134 A 
ATOM      7  C   UNL     1       9.021  10.705 -14.655  1.00  0.00     0.093 A 
ATOM      8  C   UNL     1       8.514  11.986 -14.422  1.00  0.00     0.123 A 
ATOM      9  C   UNL     1       8.387  12.884 -15.479  1.00  0.00     0.094 A 
ATOM     10  C   UNL     1       8.788  12.522 -16.767  1.00  0.00     0.146 A 
ATOM     11  O   UNL     1       8.662  13.413 -17.746  1.00  0.00    -0.456 OA
ENDROOT
BRANCH   1  12
ATOM     12  C   UNL     1       8.836  14.247 -20.014  1.00  0.00     0.021 A 
ATOM     13  C   UNL     1       8.844  13.966 -21.394  1.00  0.00     0.016 A 
ATOM     14  C   UNL     1       8.646  14.988 -22.325  1.00  0.00     0.051 A 
ATOM     15  C   UNL     1       8.429  16.304 -21.897  1.00  0.00     0.157 A 
ATOM     16  C   UNL     1       8.605  15.568 -19.592  1.00  0.00     0.062 A 
ATOM     17  C   UNL     1       8.407  16.593 -20.523  1.00  0.00     0.158 A 
BRANCH  15  18
ATOM     18  O   UNL     1       8.234  17.322 -22.830  1.00  0.00    -0.504 OA
ATOM     19  H   UNL     1       7.699  18.154 -22.604  1.00  0.00     0.293 HD
ENDBRANCH  15  18
BRANCH  17  20
ATOM     20  O   UNL     1       8.190  17.893 -20.064  1.00  0.00    -0.504 OA
ATOM     21  H   UNL     1       7.264  18.238 -19.842  1.00  0.00     0.293 HD
ENDBRANCH  17  20
ENDBRANCH   1  12
BRANCH   6  22
ATOM     22  O   UNL     1       9.811   8.972 -16.082  1.00  0.00    -0.507 OA
ATOM     23  H   UNL     1      10.772   8.668 -16.123  1.00  0.00     0.293 HD
ENDBRANCH   6  22
BRANCH   8  24
ATOM     24  O   UNL     1       8.126  12.374 -13.141  1.00  0.00    -0.508 OA
ATOM     25  H   UNL     1       7.330  11.953 -12.677  1.00  0.00     0.293 HD
ENDBRANCH   8  24
TORSDOF 5
ENDMDL
MODEL 4
REMARK VINA RESULT:    -6.685      1.467      7.296
REMARK INTER + INTRA:          -8.120
REMARK INTER:                  -7.857
REMARK INTRA:                  -0.263
REMARK UNBOUND:                -0.263
REMARK SMILES O=c1cc(-c2ccc(O)c(O)c2)oc2cc(O)cc(O)c12
REMARK SMILES IDX 4 1 3 2 2 3 1 4 21 5 19 6 18 7 16 8 15 9 14 10 13 11 5 12
REMARK SMILES IDX 6 13 7 14 8 15 12 16 10 17 9 18 11 20 20 22 17 24
REMARK H PARENT 9 19 11 21 20 23 17 25
REMARK Flexibility Score: inf
ROOT
ATOM      1  C   UNL     1       9.854  11.893 -16.899  1.00  0.00     0.138 A 
ATOM      2  C   UNL     1      10.682  12.913 -16.410  1.00  0.00     0.100 A 
ATOM      3  C   UNL     1      10.786  14.114 -17.112  1.00  0.00     0.197 A 
ATOM      4  O   UNL     1      11.584  14.986 -16.682  1.00  0.00    -0.289 OA
ATOM      5  C   UNL     1      10.031  14.306 -18.294  1.00  0.00     0.107 A 
ATOM      6  C   UNL     1      10.026  15.504 -19.069  1.00  0.00     0.134 A 
ATOM      7  C   UNL     1       9.329  15.537 -20.283  1.00  0.00     0.093 A 
ATOM      8  C   UNL     1       8.589  14.435 -20.719  1.00  0.00     0.123 A 
ATOM      9  C   UNL     1       8.544  13.279 -19.943  1.00  0.00     0.094 A 
ATOM     10  C   UNL     1       9.256  13.204 -18.744  1.00  0.00     0.146 A 
ATOM     11  O   UNL     1       9.198  12.078 -18.040  1.00  0.00    -0.456 OA
ENDROOT
BRANCH   1  12
ATOM     12  C   UNL     1       9.705  10.595 -16.192  1.00  0.00     0.021 A 
ATOM     13  C   UNL     1      10.546   9.501 -16.472  1.00  0.00     0.016 A 
ATOM     14  C   UNL     1      10.392   8.295 -15.785  1.00  0.00     0.051 A 
ATOM     15  C   UNL     1       9.401   8.162 -14.803  1.00  0.00     0.157 A 
ATOM     16  C   UNL     1       8.722  10.457 -15.197  1.00  0.00     0.062 A 
ATOM     17  C   UNL     1       8.564   9.250 -14.507  1.00  0.00     0.158 A 
BRANCH  15  18
ATOM     18  O   UNL     1       9.248   6.955 -14.121  1.00  0.00    -0.504 OA
ATOM     19  H   UNL     1       8.485   6.321 -14.329  1.00  0.00     0.293 HD
ENDBRANCH  15  18
BRANCH  17  20
ATOM     20  O   UNL     1       7.571   9.150 -13.533  1.00  0.00    -0.504 OA
ATOM     21  H   UNL     1       6.606   8.950 -13.767  1.00  0.00     0.293 HD
ENDBRANCH  17  20
ENDBRANCH   1  12
BRANCH   6  22
ATOM     22  O   UNL     1      10.663  16.687 -18.683  1.00  0.00    -0.507 OA
ATOM     23  H   UNL     1      11.098  16.841 -17.786  1.00  0.00     0.293 HD
ENDBRANCH   6  22
BRANCH   8  24
ATOM     24  O   UNL     1       7.887  14.483 -21.922  1.00  0.00    -0.508 OA
ATOM     25  H   UNL     1       7.038  15.028 -22.020  1.00  0.00     0.293 HD
ENDBRANCH   8  24
TORSDOF 5
ENDMDL
MODEL 5
REMARK VINA RESULT:    -6.648      1.976      7.216
REMARK INTER + INTRA:          -8.077
REMARK INTER:                  -7.760
REMARK INTRA:                  -0.317
REMARK UNBOUND:                -0.263
REMARK SMILES O=c1cc(-c2ccc(O)c(O)c2)oc2cc(O)cc(O)c12
REMARK SMILES IDX 4 1 3 2 2 3 1 4 21 5 19 6 18 7 16 8 15 9 14 10 13 11 5 12
REMARK SMILES IDX 6 13 7 14 8 15 12 16 10 17 9 18 11 20 20 22 17 24
REMARK H PARENT 9 19 11 21 20 23 17 25
REMARK Flexibility Score: inf
ROOT
ATOM      1  C   UNL     1       8.165  10.787 -14.940  1.00  0.00     0.138 A 
ATOM      2  C   UNL     1       8.707  11.979 -14.439  1.00  0.00     0.100 A 
ATOM      3  C   UNL     1       9.246  12.917 -15.320  1.00  0.00     0.197 A 
ATOM      4  O   UNL     1       9.780  13.948 -14.836  1.00  0.00    -0.289 OA
ATOM      5  C   UNL     1       9.212  12.673 -16.714  1.00  0.00     0.107 A 
ATOM      6  C   UNL     1       9.694  13.576 -17.708  1.00  0.00     0.134 A 
ATOM      7  C   UNL     1       9.715  13.176 -19.051  1.00  0.00     0.093 A 
ATOM      8  C   UNL     1       9.215  11.931 -19.440  1.00  0.00     0.123 A 
ATOM      9  C   UNL     1       8.693  11.064 -18.483  1.00  0.00     0.094 A 
ATOM     10  C   UNL     1       8.691  11.420 -17.132  1.00  0.00     0.146 A 
ATOM     11  O   UNL     1       8.195  10.558 -16.249  1.00  0.00    -0.456 OA
ENDROOT
BRANCH   1  12
ATOM     12  C   UNL     1       7.579   9.755 -14.048  1.00  0.00     0.021 A 
ATOM     13  C   UNL     1       7.314  10.016 -12.690  1.00  0.00     0.016 A 
ATOM     14  C   UNL     1       6.752   9.030 -11.876  1.00  0.00     0.051 A 
ATOM     15  C   UNL     1       6.438   7.770 -12.403  1.00  0.00     0.157 A 
ATOM     16  C   UNL     1       7.249   8.493 -14.572  1.00  0.00     0.062 A 
ATOM     17  C   UNL     1       6.687   7.503 -13.759  1.00  0.00     0.158 A 
BRANCH  15  18
ATOM     18  O   UNL     1       5.879   6.788 -11.586  1.00  0.00    -0.504 OA
ATOM     19  H   UNL     1       6.080   5.804 -11.727  1.00  0.00     0.293 HD
ENDBRANCH  15  18
BRANCH  17  20
ATOM     20  O   UNL     1       6.382   6.261 -14.315  1.00  0.00    -0.504 OA
ATOM     21  H   UNL     1       6.081   6.161 -15.277  1.00  0.00     0.293 HD
ENDBRANCH  17  20
ENDBRANCH   1  12
BRANCH   6  22
ATOM     22  O   UNL     1      10.137  14.874 -17.437  1.00  0.00    -0.507 OA
ATOM     23  H   UNL     1      10.844  15.111 -16.758  1.00  0.00     0.293 HD
ENDBRANCH   6  22
BRANCH   8  24
ATOM     24  O   UNL     1       9.227  11.549 -20.780  1.00  0.00    -0.508 OA
ATOM     25  H   UNL     1       9.944  10.937 -21.151  1.00  0.00     0.293 HD
ENDBRANCH   8  24
TORSDOF 5
ENDMDL
MODEL 6
REMARK VINA RESULT:    -6.642      2.957      7.413
REMARK INTER + INTRA:          -8.070
REMARK INTER:                  -7.796
REMARK INTRA:                  -0.274
REMARK UNBOUND:                -0.263
REMARK SMILES O=c1cc(-c2ccc(O)c(O)c2)oc2cc(O)cc(O)c12
REMARK SMILES IDX 4 1 3 2 2 3 1 4 21 5 19 6 18 7 16 8 15 9 14 10 13 11 5 12
REMARK SMILES IDX 6 13 7 14 8 15 12 16 10 17 9 18 11 20 20 22 17 24
REMARK H PARENT 9 19 11 21 20 23 17 25
REMARK Flexibility Score: inf
ROOT
ATOM      1  C   UNL     1       7.603   7.987 -15.357  1.00  0.00     0.138 A 
ATOM      2  C   UNL     1       7.306   8.255 -14.014  1.00  0.00     0.100 A 
ATOM      3  C   UNL     1       7.625   9.500 -13.471  1.00  0.00     0.197 A 
ATOM      4  O   UNL     1       7.403   9.689 -12.248  1.00  0.00    -0.289 OA
ATOM      5  C   UNL     1       8.216  10.493 -14.288  1.00  0.00     0.107 A 
ATOM      6  C   UNL     1       8.547  11.811 -13.854  1.00  0.00     0.134 A 
ATOM      7  C   UNL     1       9.236  12.670 -14.720  1.00  0.00     0.093 A 
ATOM      8  C   UNL     1       9.551  12.278 -16.023  1.00  0.00     0.123 A 
ATOM      9  C   UNL     1       9.185  11.013 -16.474  1.00  0.00     0.094 A 
ATOM     10  C   UNL     1       8.528  10.121 -15.623  1.00  0.00     0.146 A 
ATOM     11  O   UNL     1       8.208   8.917 -16.089  1.00  0.00    -0.456 OA
ENDROOT
BRANCH   1  12
ATOM     12  C   UNL     1       7.285   6.680 -15.987  1.00  0.00     0.021 A 
ATOM     13  C   UNL     1       6.680   6.598 -17.256  1.00  0.00     0.016 A 
ATOM     14  C   UNL     1       6.401   5.356 -17.829  1.00  0.00     0.051 A 
ATOM     15  C   UNL     1       6.727   4.174 -17.150  1.00  0.00     0.157 A 
ATOM     16  C   UNL     1       7.619   5.490 -15.318  1.00  0.00     0.062 A 
ATOM     17  C   UNL     1       7.340   4.243 -15.889  1.00  0.00     0.158 A 
BRANCH  15  18
ATOM     18  O   UNL     1       6.445   2.935 -17.725  1.00  0.00    -0.504 OA
ATOM     19  H   UNL     1       5.615   2.788 -18.289  1.00  0.00     0.293 HD
ENDBRANCH  15  18
BRANCH  17  20
ATOM     20  O   UNL     1       7.680   3.085 -15.190  1.00  0.00    -0.504 OA
ATOM     21  H   UNL     1       7.022   2.327 -15.051  1.00  0.00     0.293 HD
ENDBRANCH  17  20
ENDBRANCH   1  12
BRANCH   6  22
ATOM     22  O   UNL     1       8.203  12.331 -12.602  1.00  0.00    -0.507 OA
ATOM     23  H   UNL     1       7.397  12.053 -12.065  1.00  0.00     0.293 HD
ENDBRANCH   6  22
BRANCH   8  24
ATOM     24  O   UNL     1      10.224  13.146 -16.882  1.00  0.00    -0.508 OA
ATOM     25  H   UNL     1      11.204  13.366 -16.752  1.00  0.00     0.293 HD
ENDBRANCH   8  24
TORSDOF 5
ENDMDL
MODEL 7
REMARK VINA RESULT:    -6.453      1.976      2.522
REMARK INTER + INTRA:          -7.848
REMARK INTER:                  -7.548
REMARK INTRA:                  -0.300
REMARK UNBOUND:                -0.263
REMARK SMILES O=c1cc(-c2ccc(O)c(O)c2)oc2cc(O)cc(O)c12
REMARK SMILES IDX 4 1 3 2 2 3 1 4 21 5 19 6 18 7 16 8 15 9 14 10 13 11 5 12
REMARK SMILES IDX 6 13 7 14 8 15 12 16 10 17 9 18 11 20 20 22 17 24
REMARK H PARENT 9 19 11 21 20 23 17 25
REMARK Flexibility Score: inf
ROOT
ATOM      1  C   UNL     1       8.855  10.392 -15.132  1.00  0.00     0.138 A 
ATOM      2  C   UNL     1       8.658   9.304 -15.993  1.00  0.00     0.100 A 
ATOM      3  C   UNL     1       7.942   8.191 -15.548  1.00  0.00     0.197 A 
ATOM      4  O   UNL     1       7.835   7.206 -16.322  1.00  0.00    -0.289 OA
ATOM      5  C   UNL     1       7.396   8.183 -14.243  1.00  0.00     0.107 A 
ATOM      6  C   UNL     1       6.614   7.122 -13.696  1.00  0.00     0.134 A 
ATOM      7  C   UNL     1       6.224   7.174 -12.352  1.00  0.00     0.093 A 
ATOM      8  C   UNL     1       6.536   8.277 -11.554  1.00  0.00     0.123 A 
ATOM      9  C   UNL     1       7.252   9.343 -12.093  1.00  0.00     0.094 A 
ATOM     10  C   UNL     1       7.685   9.305 -13.420  1.00  0.00     0.146 A 
ATOM     11  O   UNL     1       8.378  10.337 -13.893  1.00  0.00    -0.456 OA
ENDROOT
BRANCH   1  12
ATOM     12  C   UNL     1       9.607  11.601 -15.554  1.00  0.00     0.021 A 
ATOM     13  C   UNL     1      10.724  11.516 -16.408  1.00  0.00     0.016 A 
ATOM     14  C   UNL     1      11.406  12.671 -16.798  1.00  0.00     0.051 A 
ATOM     15  C   UNL     1      10.984  13.929 -16.348  1.00  0.00     0.157 A 
ATOM     16  C   UNL     1       9.182  12.868 -15.119  1.00  0.00     0.062 A 
ATOM     17  C   UNL     1       9.865  14.026 -15.506  1.00  0.00     0.158 A 
BRANCH  15  18
ATOM     18  O   UNL     1      11.670  15.079 -16.738  1.00  0.00    -0.504 OA
ATOM     19  H   UNL     1      11.255  16.000 -16.649  1.00  0.00     0.293 HD
ENDBRANCH  15  18
BRANCH  17  20
ATOM     20  O   UNL     1       9.417  15.264 -15.045  1.00  0.00    -0.504 OA
ATOM     21  H   UNL     1       9.476  15.528 -14.069  1.00  0.00     0.293 HD
ENDBRANCH  17  20
ENDBRANCH   1  12
BRANCH   6  22
ATOM     22  O   UNL     1       6.177   6.015 -14.430  1.00  0.00    -0.507 OA
ATOM     23  H   UNL     1       5.297   5.959 -14.919  1.00  0.00     0.293 HD
ENDBRANCH   6  22
BRANCH   8  24
ATOM     24  O   UNL     1       6.130   8.326 -10.221  1.00  0.00    -0.508 OA
ATOM     25  H   UNL     1       6.609   7.799  -9.501  1.00  0.00     0.293 HD
ENDBRANCH   8  24
TORSDOF 5
ENDMDL
MODEL 8
REMARK VINA RESULT:    -6.437      2.852      8.145
REMARK INTER + INTRA:          -7.829
REMARK INTER:                  -7.538
REMARK INTRA:                  -0.291
REMARK UNBOUND:                -0.263
REMARK SMILES O=c1cc(-c2ccc(O)c(O)c2)oc2cc(O)cc(O)c12
REMARK SMILES IDX 4 1 3 2 2 3 1 4 21 5 19 6 18 7 16 8 15 9 14 10 13 11 5 12
REMARK SMILES IDX 6 13 7 14 8 15 12 16 10 17 9 18 11 20 20 22 17 24
REMARK H PARENT 9 19 11 21 20 23 17 25
REMARK Flexibility Score: inf
ROOT
ATOM      1  C   UNL     1       9.354  13.334 -18.658  1.00  0.00     0.138 A 
ATOM      2  C   UNL     1       9.164  14.491 -17.890  1.00  0.00     0.100 A 
ATOM      3  C   UNL     1       8.885  15.703 -18.525  1.00  0.00     0.197 A 
ATOM      4  O   UNL     1       8.782  16.735 -17.813  1.00  0.00    -0.289 OA
ATOM      5  C   UNL     1       8.766  15.748 -19.934  1.00  0.00     0.107 A 
ATOM      6  C   UNL     1       8.445  16.917 -20.685  1.00  0.00     0.134 A 
ATOM      7  C   UNL     1       8.469  16.867 -22.085  1.00  0.00     0.093 A 
ATOM      8  C   UNL     1       8.743  15.674 -22.758  1.00  0.00     0.123 A 
ATOM      9  C   UNL     1       9.004  14.514 -22.033  1.00  0.00     0.094 A 
ATOM     10  C   UNL     1       9.023  14.540 -20.637  1.00  0.00     0.146 A 
ATOM     11  O   UNL     1       9.290  13.414 -19.983  1.00  0.00    -0.456 OA
ENDROOT
BRANCH   1  12
ATOM     12  C   UNL     1       9.651  12.018 -18.036  1.00  0.00     0.021 A 
ATOM     13  C   UNL     1      10.614  11.884 -17.016  1.00  0.00     0.016 A 
ATOM     14  C   UNL     1      10.866  10.637 -16.441  1.00  0.00     0.051 A 
ATOM     15  C   UNL     1      10.160   9.505 -16.867  1.00  0.00     0.157 A 
ATOM     16  C   UNL     1       8.938  10.880 -18.448  1.00  0.00     0.062 A 
ATOM     17  C   UNL     1       9.190   9.629 -17.874  1.00  0.00     0.158 A 
BRANCH  15  18
ATOM     18  O   UNL     1      10.417   8.260 -16.292  1.00  0.00    -0.504 OA
ATOM     19  H   UNL     1      11.364   7.932 -16.138  1.00  0.00     0.293 HD
ENDBRANCH  15  18
BRANCH  17  20
ATOM     20  O   UNL     1       8.467   8.521 -18.318  1.00  0.00    -0.504 OA
ATOM     21  H   UNL     1       7.983   8.516 -19.208  1.00  0.00     0.293 HD
ENDBRANCH  17  20
ENDBRANCH   1  12
BRANCH   6  22
ATOM     22  O   UNL     1       8.074  18.137 -20.111  1.00  0.00    -0.507 OA
ATOM     23  H   UNL     1       7.957  19.000 -20.619  1.00  0.00     0.293 HD
ENDBRANCH   6  22
BRANCH   8  24
ATOM     24  O   UNL     1       8.749  15.630 -24.151  1.00  0.00    -0.508 OA
ATOM     25  H   UNL     1       8.642  14.758 -24.655  1.00  0.00     0.293 HD
ENDBRANCH   8  24
TORSDOF 5
ENDMDL
MODEL 9
REMARK VINA RESULT:    -6.303      2.696      7.618
REMARK INTER + INTRA:          -7.671
REMARK INTER:                  -7.352
REMARK INTRA:                  -0.318
REMARK UNBOUND:                -0.263
REMARK SMILES O=c1cc(-c2ccc(O)c(O)c2)oc2cc(O)cc(O)c12
REMARK SMILES IDX 4 1 3 2 2 3 1 4 21 5 19 6 18 7 16 8 15 9 14 10 13 11 5 12
REMARK SMILES IDX 6 13 7 14 8 15 12 16 10 17 9 18 11 20 20 22 17 24
REMARK H PARENT 9 19 11 21 20 23 17 25
REMARK Flexibility Score: inf
ROOT
ATOM      1  C   UNL     1       7.812  12.840 -17.390  1.00  0.00     0.138 A 
ATOM      2  C   UNL     1       7.383  12.373 -18.640  1.00  0.00     0.100 A 
ATOM      3  C   UNL     1       7.529  13.183 -19.767  1.00  0.00     0.197 A 
ATOM      4  O   UNL     1       7.079  12.762 -20.863  1.00  0.00    -0.289 OA
ATOM      5  C   UNL     1       8.137  14.455 -19.645  1.00  0.00     0.107 A 
ATOM      6  C   UNL     1       8.375  15.349 -20.730  1.00  0.00     0.134 A 
ATOM      7  C   UNL     1       8.878  16.630 -20.472  1.00  0.00     0.093 A 
ATOM      8  C   UNL     1       9.208  17.026 -19.173  1.00  0.00     0.123 A 
ATOM      9  C   UNL     1       9.029  16.141 -18.112  1.00  0.00     0.094 A 
ATOM     10  C   UNL     1       8.497  14.869 -18.334  1.00  0.00     0.146 A 
ATOM     11  O   UNL     1       8.330  14.060 -17.293  1.00  0.00    -0.456 OA
ENDROOT
BRANCH   1  12
ATOM     12  C   UNL     1       7.681  12.020 -16.158  1.00  0.00     0.021 A 
ATOM     13  C   UNL     1       7.167  10.709 -16.194  1.00  0.00     0.016 A 
ATOM     14  C   UNL     1       7.065   9.956 -15.022  1.00  0.00     0.051 A 
ATOM     15  C   UNL     1       7.480  10.494 -13.797  1.00  0.00     0.157 A 
ATOM     16  C   UNL     1       8.107  12.547 -14.927  1.00  0.00     0.062 A 
ATOM     17  C   UNL     1       8.005  11.795 -13.751  1.00  0.00     0.158 A 
BRANCH  15  18
ATOM     18  O   UNL     1       7.374   9.740 -12.629  1.00  0.00    -0.504 OA
ATOM     19  H   UNL     1       6.480   9.585 -12.176  1.00  0.00     0.293 HD
ENDBRANCH  15  18
BRANCH  17  20
ATOM     20  O   UNL     1       8.429  12.358 -12.547  1.00  0.00    -0.504 OA
ATOM     21  H   UNL     1       7.913  12.236 -11.685  1.00  0.00     0.293 HD
ENDBRANCH  17  20
ENDBRANCH   1  12
BRANCH   6  22
ATOM     22  O   UNL     1       8.161  15.023 -22.073  1.00  0.00    -0.507 OA
ATOM     23  H   UNL     1       7.671  15.605 -22.736  1.00  0.00     0.293 HD
ENDBRANCH   6  22
BRANCH   8  24
ATOM     24  O   UNL     1       9.722  18.298 -18.927  1.00  0.00    -0.508 OA
ATOM     25  H   UNL     1       9.842  18.974 -19.672  1.00  0.00     0.293 HD
ENDBRANCH   8  24
TORSDOF 5
ENDMDL
