MODEL 1
REMARK VINA RESULT:    -6.598      0.000      0.000
REMARK INTER + INTRA:         -11.622
REMARK INTER:                  -9.684
REMARK INTRA:                  -1.939
REMARK UNBOUND:                -1.939
REMARK SMILES O=c1c(O[C@@H]2O[C@@H](CO)[C@H](O)[C@@H](O)[C@@H]2O)c(-c2ccc(O)c(O)c2)oc2cc(O)cc(O)c12
REMARK SMILES IDX 4 1 3 2 16 3 25 4 2 5 26 6 1 7 33 8 27 9 31 10 28 11 30 12
REMARK SMILES IDX 17 13 18 14 19 15 20 16 24 17 22 18 21 19 23 21 32 23 29 25
REMARK SMILES IDX 5 27 14 28 6 29 12 30 7 31 10 32 15 33 13 35 8 37 9 38 11 40
REMARK H PARENT 21 20 23 22 32 24 29 26 15 34 13 36 9 39 11 41
REMARK Flexibility Score: inf
ROOT
ATOM      1  O   UNL     1      29.451   9.285  26.849  1.00  0.00    -0.454 OA
ENDROOT
BRANCH   1   2
ATOM      2  C   UNL     1      29.717   9.325  28.228  1.00  0.00     0.214 A 
ATOM      3  C   UNL     1      29.519  10.519  28.943  1.00  0.00     0.180 A 
ATOM      4  O   UNL     1      29.881  10.595  30.217  1.00  0.00    -0.452 OA
ATOM      5  C   UNL     1      30.180   8.193  28.924  1.00  0.00     0.239 A 
ATOM      6  C   UNL     1      30.372   9.571  30.899  1.00  0.00     0.146 A 
ATOM      7  O   UNL     1      30.301   7.106  28.302  1.00  0.00    -0.285 OA
ATOM      8  C   UNL     1      30.501   8.291  30.300  1.00  0.00     0.111 A 
ATOM      9  C   UNL     1      30.757   9.777  32.225  1.00  0.00     0.094 A 
ATOM     10  C   UNL     1      30.969   7.208  31.107  1.00  0.00     0.134 A 
ATOM     11  C   UNL     1      31.266   8.727  32.985  1.00  0.00     0.123 A 
ATOM     12  C   UNL     1      31.373   7.453  32.424  1.00  0.00     0.093 A 
BRANCH   3  13
ATOM     13  C   UNL     1      28.950  11.725  28.305  1.00  0.00     0.025 A 
ATOM     14  C   UNL     1      27.577  11.814  28.017  1.00  0.00     0.016 A 
ATOM     15  C   UNL     1      27.063  12.944  27.375  1.00  0.00     0.051 A 
ATOM     16  C   UNL     1      27.912  14.002  27.023  1.00  0.00     0.157 A 
ATOM     17  C   UNL     1      29.792  12.799  27.977  1.00  0.00     0.062 A 
ATOM     18  C   UNL     1      29.278  13.931  27.329  1.00  0.00     0.158 A 
BRANCH  16  19
ATOM     19  O   UNL     1      27.407  15.124  26.369  1.00  0.00    -0.504 OA
ATOM     20  H   UNL     1      27.102  15.081  25.402  1.00  0.00     0.293 HD
ENDBRANCH  16  19
BRANCH  18  21
ATOM     21  O   UNL     1      30.119  14.986  26.977  1.00  0.00    -0.504 OA
ATOM     22  H   UNL     1      30.493  15.080  26.040  1.00  0.00     0.293 HD
ENDBRANCH  18  21
ENDBRANCH   3  13
BRANCH  10  23
ATOM     23  O   UNL     1      31.038   5.878  30.675  1.00  0.00    -0.507 OA
ATOM     24  H   UNL     1      31.127   5.584  29.714  1.00  0.00     0.293 HD
ENDBRANCH  10  23
BRANCH  11  25
ATOM     25  O   UNL     1      31.651   8.955  34.303  1.00  0.00    -0.508 OA
ATOM     26  H   UNL     1      32.338   8.366  34.764  1.00  0.00     0.293 HD
ENDBRANCH  11  25
ENDBRANCH   1   2
BRANCH   1  27
ATOM     27  C   UNL     1      30.464   9.383  25.839  1.00  0.00     0.339 C 
ATOM     28  C   UNL     1      30.301   8.269  24.785  1.00  0.00     0.214 C 
ATOM     29  O   UNL     1      30.472  10.669  25.237  1.00  0.00    -0.332 OA
ATOM     30  C   UNL     1      29.042   8.506  23.942  1.00  0.00     0.180 C 
ATOM     31  C   UNL     1      29.261  10.938  24.541  1.00  0.00     0.179 C 
ATOM     32  C   UNL     1      29.046   9.938  23.385  1.00  0.00     0.177 C 
BRANCH  28  33
ATOM     33  O   UNL     1      30.214   7.015  25.408  1.00  0.00    -0.384 OA
ATOM     34  H   UNL     1      31.134   6.636  25.411  1.00  0.00     0.211 HD
ENDBRANCH  28  33
BRANCH  30  35
ATOM     35  O   UNL     1      29.005   7.593  22.873  1.00  0.00    -0.387 OA
ATOM     36  H   UNL     1      29.696   6.908  23.054  1.00  0.00     0.211 HD
ENDBRANCH  30  35
BRANCH  31  37
ATOM     37  C   UNL     1      29.314  12.377  24.016  1.00  0.00     0.191 C 
BRANCH  37  38
ATOM     38  O   UNL     1      30.494  12.995  24.452  1.00  0.00    -0.394 OA
ATOM     39  H   UNL     1      30.213  13.759  25.017  1.00  0.00     0.210 HD
ENDBRANCH  37  38
ENDBRANCH  31  37
BRANCH  32  40
ATOM     40  O   UNL     1      27.815  10.199  22.758  1.00  0.00    -0.387 OA
ATOM     41  H   UNL     1      27.467  11.044  23.147  1.00  0.00     0.211 HD
ENDBRANCH  32  40
ENDBRANCH   1  27
TORSDOF 12
ENDMDL
MODEL 2
REMARK VINA RESULT:    -6.572      1.785      5.263
REMARK INTER + INTRA:         -11.584
REMARK INTER:                  -9.543
REMARK INTRA:                  -2.041
REMARK UNBOUND:                -1.939
REMARK SMILES O=c1c(O[C@@H]2O[C@@H](CO)[C@H](O)[C@@H](O)[C@@H]2O)c(-c2ccc(O)c(O)c2)oc2cc(O)cc(O)c12
REMARK SMILES IDX 4 1 3 2 16 3 25 4 2 5 26 6 1 7 33 8 27 9 31 10 28 11 30 12
REMARK SMILES IDX 17 13 18 14 19 15 20 16 24 17 22 18 21 19 23 21 32 23 29 25
REMARK SMILES IDX 5 27 14 28 6 29 12 30 7 31 10 32 15 33 13 35 8 37 9 38 11 40
REMARK H PARENT 21 20 23 22 32 24 29 26 15 34 13 36 9 39 11 41
REMARK Flexibility Score: inf
ROOT
ATOM      1  O   UNL     1      30.336  10.193  29.486  1.00  0.00    -0.454 OA
ENDROOT
BRANCH   1   2
ATOM      2  C   UNL     1      30.502   9.304  30.561  1.00  0.00     0.214 A 
ATOM      3  C   UNL     1      30.451   7.918  30.334  1.00  0.00     0.180 A 
ATOM      4  O   UNL     1      30.488   7.077  31.360  1.00  0.00    -0.452 OA
ATOM      5  C   UNL     1      30.723   9.764  31.873  1.00  0.00     0.239 A 
ATOM      6  C   UNL     1      30.640   7.467  32.617  1.00  0.00     0.146 A 
ATOM      7  O   UNL     1      30.831  11.000  32.072  1.00  0.00    -0.285 OA
ATOM      8  C   UNL     1      30.819   8.837  32.940  1.00  0.00     0.111 A 
ATOM      9  C   UNL     1      30.625   6.496  33.621  1.00  0.00     0.094 A 
ATOM     10  C   UNL     1      31.050   9.188  34.306  1.00  0.00     0.134 A 
ATOM     11  C   UNL     1      30.794   6.857  34.955  1.00  0.00     0.123 A 
ATOM     12  C   UNL     1      31.002   8.196  35.291  1.00  0.00     0.093 A 
BRANCH   3  13
ATOM     13  C   UNL     1      30.313   7.355  28.974  1.00  0.00     0.025 A 
ATOM     14  C   UNL     1      31.439   7.142  28.160  1.00  0.00     0.016 A 
ATOM     15  C   UNL     1      31.286   6.648  26.862  1.00  0.00     0.051 A 
ATOM     16  C   UNL     1      30.010   6.353  26.365  1.00  0.00     0.157 A 
ATOM     17  C   UNL     1      29.038   7.030  28.483  1.00  0.00     0.062 A 
ATOM     18  C   UNL     1      28.884   6.539  27.179  1.00  0.00     0.158 A 
BRANCH  16  19
ATOM     19  O   UNL     1      29.851   5.875  25.065  1.00  0.00    -0.504 OA
ATOM     20  H   UNL     1      30.421   5.117  24.706  1.00  0.00     0.293 HD
ENDBRANCH  16  19
BRANCH  18  21
ATOM     21  O   UNL     1      27.616   6.243  26.681  1.00  0.00    -0.504 OA
ATOM     22  H   UNL     1      26.814   6.143  27.292  1.00  0.00     0.293 HD
ENDBRANCH  18  21
ENDBRANCH   3  13
BRANCH  10  23
ATOM     23  O   UNL     1      31.351  10.483  34.745  1.00  0.00    -0.507 OA
ATOM     24  H   UNL     1      31.658  10.722  35.676  1.00  0.00     0.293 HD
ENDBRANCH  10  23
BRANCH  11  25
ATOM     25  O   UNL     1      30.768   5.875  35.942  1.00  0.00    -0.508 OA
ATOM     26  H   UNL     1      31.401   5.082  35.918  1.00  0.00     0.293 HD
ENDBRANCH  11  25
ENDBRANCH   1   2
BRANCH   1  27
ATOM     27  C   UNL     1      29.080  10.787  29.130  1.00  0.00     0.339 C 
ATOM     28  C   UNL     1      29.196  12.323  29.059  1.00  0.00     0.214 C 
ATOM     29  O   UNL     1      28.578  10.248  27.916  1.00  0.00    -0.332 OA
ATOM     30  C   UNL     1      30.053  12.743  27.859  1.00  0.00     0.180 C 
ATOM     31  C   UNL     1      29.426  10.544  26.814  1.00  0.00     0.179 C 
ATOM     32  C   UNL     1      29.532  12.066  26.581  1.00  0.00     0.177 C 
BRANCH  28  33
ATOM     33  O   UNL     1      29.768  12.826  30.239  1.00  0.00    -0.384 OA
ATOM     34  H   UNL     1      29.440  13.759  30.337  1.00  0.00     0.211 HD
ENDBRANCH  28  33
BRANCH  30  35
ATOM     35  O   UNL     1      29.999  14.139  27.699  1.00  0.00    -0.387 OA
ATOM     36  H   UNL     1      30.881  14.496  27.975  1.00  0.00     0.211 HD
ENDBRANCH  30  35
BRANCH  31  37
ATOM     37  C   UNL     1      28.869   9.840  25.571  1.00  0.00     0.191 C 
BRANCH  37  38
ATOM     38  O   UNL     1      29.923   9.490  24.716  1.00  0.00    -0.394 OA
ATOM     39  H   UNL     1      30.405   8.748  25.163  1.00  0.00     0.210 HD
ENDBRANCH  37  38
ENDBRANCH  31  37
BRANCH  32  40
ATOM     40  O   UNL     1      30.422  12.322  25.523  1.00  0.00    -0.387 OA
ATOM     41  H   UNL     1      31.243  11.793  25.703  1.00  0.00     0.211 HD
ENDBRANCH  32  40
ENDBRANCH   1  27
TORSDOF 12
ENDMDL
MODEL 3
REMARK VINA RESULT:    -6.554      1.089      1.224
REMARK INTER + INTRA:         -11.558
REMARK INTER:                  -9.595
REMARK INTRA:                  -1.963
REMARK UNBOUND:                -1.939
REMARK SMILES O=c1c(O[C@@H]2O[C@@H](CO)[C@H](O)[C@@H](O)[C@@H]2O)c(-c2ccc(O)c(O)c2)oc2cc(O)cc(O)c12
REMARK SMILES IDX 4 1 3 2 16 3 25 4 2 5 26 6 1 7 33 8 27 9 31 10 28 11 30 12
REMARK SMILES IDX 17 13 18 14 19 15 20 16 24 17 22 18 21 19 23 21 32 23 29 25
REMARK SMILES IDX 5 27 14 28 6 29 12 30 7 31 10 32 15 33 13 35 8 37 9 38 11 40
REMARK H PARENT 21 20 23 22 32 24 29 26 15 34 13 36 9 39 11 41
REMARK Flexibility Score: inf
ROOT
ATOM      1  O   UNL     1      29.176  10.056  25.962  1.00  0.00    -0.454 OA
ENDROOT
BRANCH   1   2
ATOM      2  C   UNL     1      29.441   9.819  27.321  1.00  0.00     0.214 A 
ATOM      3  C   UNL     1      29.333  10.871  28.247  1.00  0.00     0.180 A 
ATOM      4  O   UNL     1      29.696  10.682  29.509  1.00  0.00    -0.452 OA
ATOM      5  C   UNL     1      29.815   8.546  27.789  1.00  0.00     0.239 A 
ATOM      6  C   UNL     1      30.107   9.515  29.983  1.00  0.00     0.146 A 
ATOM      7  O   UNL     1      29.855   7.588  26.976  1.00  0.00    -0.285 OA
ATOM      8  C   UNL     1      30.139   8.362  29.156  1.00  0.00     0.111 A 
ATOM      9  C   UNL     1      30.502   9.443  31.320  1.00  0.00     0.094 A 
ATOM     10  C   UNL     1      30.522   7.117  29.742  1.00  0.00     0.134 A 
ATOM     11  C   UNL     1      30.928   8.234  31.866  1.00  0.00     0.123 A 
ATOM     12  C   UNL     1      30.940   7.082  31.077  1.00  0.00     0.093 A 
BRANCH   3  13
ATOM     13  C   UNL     1      28.858  12.214  27.849  1.00  0.00     0.025 A 
ATOM     14  C   UNL     1      27.487  12.485  27.703  1.00  0.00     0.016 A 
ATOM     15  C   UNL     1      27.059  13.748  27.287  1.00  0.00     0.051 A 
ATOM     16  C   UNL     1      27.994  14.757  27.021  1.00  0.00     0.157 A 
ATOM     17  C   UNL     1      29.790  13.236  27.610  1.00  0.00     0.062 A 
ATOM     18  C   UNL     1      29.362  14.502  27.188  1.00  0.00     0.158 A 
BRANCH  16  19
ATOM     19  O   UNL     1      27.572  16.014  26.589  1.00  0.00    -0.504 OA
ATOM     20  H   UNL     1      26.706  16.135  26.077  1.00  0.00     0.293 HD
ENDBRANCH  16  19
BRANCH  18  21
ATOM     21  O   UNL     1      30.289  15.509  26.922  1.00  0.00    -0.504 OA
ATOM     22  H   UNL     1      31.089  15.352  26.321  1.00  0.00     0.293 HD
ENDBRANCH  18  21
ENDBRANCH   3  13
BRANCH  10  23
ATOM     23  O   UNL     1      30.491   5.888  29.071  1.00  0.00    -0.507 OA
ATOM     24  H   UNL     1      30.135   5.027  29.457  1.00  0.00     0.293 HD
ENDBRANCH  10  23
BRANCH  11  25
ATOM     25  O   UNL     1      31.327   8.184  33.199  1.00  0.00    -0.508 OA
ATOM     26  H   UNL     1      32.214   7.773  33.472  1.00  0.00     0.293 HD
ENDBRANCH  11  25
ENDBRANCH   1   2
BRANCH   1  27
ATOM     27  C   UNL     1      30.189  10.360  24.993  1.00  0.00     0.339 C 
ATOM     28  C   UNL     1      30.084   9.424  23.772  1.00  0.00     0.214 C 
ATOM     29  O   UNL     1      30.141  11.726  24.606  1.00  0.00    -0.332 OA
ATOM     30  C   UNL     1      28.821   9.737  22.962  1.00  0.00     0.180 C 
ATOM     31  C   UNL     1      28.924  12.049  23.946  1.00  0.00     0.179 C 
ATOM     32  C   UNL     1      28.762  11.239  22.642  1.00  0.00     0.177 C 
BRANCH  28  33
ATOM     33  O   UNL     1      30.052   8.083  24.185  1.00  0.00    -0.384 OA
ATOM     34  H   UNL     1      29.405   7.620  23.590  1.00  0.00     0.211 HD
ENDBRANCH  28  33
BRANCH  30  35
ATOM     35  O   UNL     1      28.832   9.007  21.759  1.00  0.00    -0.387 OA
ATOM     36  H   UNL     1      27.898   8.981  21.429  1.00  0.00     0.211 HD
ENDBRANCH  30  35
BRANCH  31  37
ATOM     37  C   UNL     1      28.912  13.554  23.660  1.00  0.00     0.191 C 
BRANCH  37  38
ATOM     38  O   UNL     1      30.146  14.112  24.022  1.00  0.00    -0.394 OA
ATOM     39  H   UNL     1      30.063  14.369  24.976  1.00  0.00     0.210 HD
ENDBRANCH  37  38
ENDBRANCH  31  37
BRANCH  32  40
ATOM     40  O   UNL     1      27.523  11.542  22.049  1.00  0.00    -0.387 OA
ATOM     41  H   UNL     1      27.091  12.230  22.620  1.00  0.00     0.211 HD
ENDBRANCH  32  40
ENDBRANCH   1  27
TORSDOF 12
ENDMDL
MODEL 4
REMARK VINA RESULT:    -6.552      1.594      2.308
REMARK INTER + INTRA:         -11.556
REMARK INTER:                  -9.657
REMARK INTRA:                  -1.899
REMARK UNBOUND:                -1.939
REMARK SMILES O=c1c(O[C@@H]2O[C@@H](CO)[C@H](O)[C@@H](O)[C@@H]2O)c(-c2ccc(O)c(O)c2)oc2cc(O)cc(O)c12
REMARK SMILES IDX 4 1 3 2 16 3 25 4 2 5 26 6 1 7 33 8 27 9 31 10 28 11 30 12
REMARK SMILES IDX 17 13 18 14 19 15 20 16 24 17 22 18 21 19 23 21 32 23 29 25
REMARK SMILES IDX 5 27 14 28 6 29 12 30 7 31 10 32 15 33 13 35 8 37 9 38 11 40
REMARK H PARENT 21 20 23 22 32 24 29 26 15 34 13 36 9 39 11 41
REMARK Flexibility Score: inf
ROOT
ATOM      1  O   UNL     1      29.103  10.399  25.630  1.00  0.00    -0.454 OA
ENDROOT
BRANCH   1   2
ATOM      2  C   UNL     1      29.402   9.753  26.841  1.00  0.00     0.214 A 
ATOM      3  C   UNL     1      28.981  10.319  28.056  1.00  0.00     0.180 A 
ATOM      4  O   UNL     1      29.362   9.778  29.206  1.00  0.00    -0.452 OA
ATOM      5  C   UNL     1      30.119   8.542  26.874  1.00  0.00     0.239 A 
ATOM      6  C   UNL     1      30.083   8.669  29.287  1.00  0.00     0.146 A 
ATOM      7  O   UNL     1      30.446   8.001  25.788  1.00  0.00    -0.285 OA
ATOM      8  C   UNL     1      30.460   7.957  28.118  1.00  0.00     0.111 A 
ATOM      9  C   UNL     1      30.461   8.212  30.551  1.00  0.00     0.094 A 
ATOM     10  C   UNL     1      31.175   6.729  28.272  1.00  0.00     0.134 A 
ATOM     11  C   UNL     1      31.207   7.043  30.685  1.00  0.00     0.123 A 
ATOM     12  C   UNL     1      31.563   6.312  29.550  1.00  0.00     0.093 A 
BRANCH   3  13
ATOM     13  C   UNL     1      28.147  11.539  28.101  1.00  0.00     0.025 A 
ATOM     14  C   UNL     1      26.744  11.459  28.093  1.00  0.00     0.016 A 
ATOM     15  C   UNL     1      25.972  12.624  28.094  1.00  0.00     0.051 A 
ATOM     16  C   UNL     1      26.592  13.881  28.112  1.00  0.00     0.157 A 
ATOM     17  C   UNL     1      28.764  12.800  28.149  1.00  0.00     0.062 A 
ATOM     18  C   UNL     1      27.990  13.968  28.144  1.00  0.00     0.158 A 
BRANCH  16  19
ATOM     19  O   UNL     1      25.826  15.046  28.096  1.00  0.00    -0.504 OA
ATOM     20  H   UNL     1      24.888  15.068  28.480  1.00  0.00     0.293 HD
ENDBRANCH  16  19
BRANCH  18  21
ATOM     21  O   UNL     1      28.603  15.221  28.163  1.00  0.00    -0.504 OA
ATOM     22  H   UNL     1      29.410  15.428  27.586  1.00  0.00     0.293 HD
ENDBRANCH  18  21
ENDBRANCH   3  13
BRANCH  10  23
ATOM     23  O   UNL     1      31.509   5.875  27.215  1.00  0.00    -0.507 OA
ATOM     24  H   UNL     1      31.810   4.918  27.316  1.00  0.00     0.293 HD
ENDBRANCH  10  23
BRANCH  11  25
ATOM     25  O   UNL     1      31.581   6.608  31.954  1.00  0.00    -0.508 OA
ATOM     26  H   UNL     1      30.985   6.755  32.762  1.00  0.00     0.293 HD
ENDBRANCH  11  25
ENDBRANCH   1   2
BRANCH   1  27
ATOM     27  C   UNL     1      30.082  11.055  24.812  1.00  0.00     0.339 C 
ATOM     28  C   UNL     1      30.006  10.560  23.354  1.00  0.00     0.214 C 
ATOM     29  O   UNL     1      29.957  12.468  24.888  1.00  0.00    -0.332 OA
ATOM     30  C   UNL     1      28.714  11.048  22.687  1.00  0.00     0.180 C 
ATOM     31  C   UNL     1      28.713  12.919  24.367  1.00  0.00     0.179 C 
ATOM     32  C   UNL     1      28.572  12.567  22.871  1.00  0.00     0.177 C 
BRANCH  28  33
ATOM     33  O   UNL     1      30.051   9.158  23.311  1.00  0.00    -0.384 OA
ATOM     34  H   UNL     1      29.817   8.896  22.381  1.00  0.00     0.211 HD
ENDBRANCH  28  33
BRANCH  30  35
ATOM     35  O   UNL     1      28.743  10.747  21.314  1.00  0.00    -0.387 OA
ATOM     36  H   UNL     1      28.002  10.113  21.141  1.00  0.00     0.211 HD
ENDBRANCH  30  35
BRANCH  31  37
ATOM     37  C   UNL     1      28.618  14.434  24.583  1.00  0.00     0.191 C 
BRANCH  37  38
ATOM     38  O   UNL     1      29.735  14.877  25.305  1.00  0.00    -0.394 OA
ATOM     39  H   UNL     1      29.762  14.332  26.132  1.00  0.00     0.210 HD
ENDBRANCH  37  38
ENDBRANCH  31  37
BRANCH  32  40
ATOM     40  O   UNL     1      27.309  12.976  22.407  1.00  0.00    -0.387 OA
ATOM     41  H   UNL     1      27.009  13.713  23.001  1.00  0.00     0.211 HD
ENDBRANCH  32  40
ENDBRANCH   1  27
TORSDOF 12
ENDMDL
MODEL 5
REMARK VINA RESULT:    -6.431      1.840      4.954
REMARK INTER + INTRA:         -11.377
REMARK INTER:                  -9.306
REMARK INTRA:                  -2.071
REMARK UNBOUND:                -1.939
REMARK SMILES O=c1c(O[C@@H]2O[C@@H](CO)[C@H](O)[C@@H](O)[C@@H]2O)c(-c2ccc(O)c(O)c2)oc2cc(O)cc(O)c12
REMARK SMILES IDX 4 1 3 2 16 3 25 4 2 5 26 6 1 7 33 8 27 9 31 10 28 11 30 12
REMARK SMILES IDX 17 13 18 14 19 15 20 16 24 17 22 18 21 19 23 21 32 23 29 25
REMARK SMILES IDX 5 27 14 28 6 29 12 30 7 31 10 32 15 33 13 35 8 37 9 38 11 40
REMARK H PARENT 21 20 23 22 32 24 29 26 15 34 13 36 9 39 11 41
REMARK Flexibility Score: inf
ROOT
ATOM      1  O   UNL     1      29.033  13.064  28.292  1.00  0.00    -0.454 OA
ENDROOT
BRANCH   1   2
ATOM      2  C   UNL     1      29.478  11.848  28.835  1.00  0.00     0.214 A 
ATOM      3  C   UNL     1      29.699  10.746  27.991  1.00  0.00     0.180 A 
ATOM      4  O   UNL     1      30.003   9.564  28.512  1.00  0.00    -0.452 OA
ATOM      5  C   UNL     1      29.712  11.697  30.215  1.00  0.00     0.239 A 
ATOM      6  C   UNL     1      30.181   9.362  29.809  1.00  0.00     0.146 A 
ATOM      7  O   UNL     1      29.575  12.696  30.966  1.00  0.00    -0.285 OA
ATOM      8  C   UNL     1      30.096  10.436  30.733  1.00  0.00     0.111 A 
ATOM      9  C   UNL     1      30.460   8.066  30.248  1.00  0.00     0.094 A 
ATOM     10  C   UNL     1      30.368  10.169  32.111  1.00  0.00     0.134 A 
ATOM     11  C   UNL     1      30.667   7.809  31.602  1.00  0.00     0.123 A 
ATOM     12  C   UNL     1      30.617   8.856  32.523  1.00  0.00     0.093 A 
BRANCH   3  13
ATOM     13  C   UNL     1      29.563  10.849  26.523  1.00  0.00     0.025 A 
ATOM     14  C   UNL     1      28.491  10.239  25.849  1.00  0.00     0.016 A 
ATOM     15  C   UNL     1      28.400  10.311  24.457  1.00  0.00     0.051 A 
ATOM     16  C   UNL     1      29.374  11.002  23.722  1.00  0.00     0.157 A 
ATOM     17  C   UNL     1      30.520  11.565  25.786  1.00  0.00     0.062 A 
ATOM     18  C   UNL     1      30.432  11.634  24.389  1.00  0.00     0.158 A 
BRANCH  16  19
ATOM     19  O   UNL     1      29.297  11.064  22.332  1.00  0.00    -0.504 OA
ATOM     20  H   UNL     1      29.160  11.944  21.848  1.00  0.00     0.293 HD
ENDBRANCH  16  19
BRANCH  18  21
ATOM     21  O   UNL     1      31.398  12.321  23.654  1.00  0.00    -0.504 OA
ATOM     22  H   UNL     1      32.314  12.523  24.037  1.00  0.00     0.293 HD
ENDBRANCH  18  21
ENDBRANCH   3  13
BRANCH  10  23
ATOM     23  O   UNL     1      30.428  11.153  33.105  1.00  0.00    -0.507 OA
ATOM     24  H   UNL     1      30.703  12.111  32.956  1.00  0.00     0.293 HD
ENDBRANCH  10  23
BRANCH  11  25
ATOM     25  O   UNL     1      30.936   6.508  32.021  1.00  0.00    -0.508 OA
ATOM     26  H   UNL     1      30.670   5.704  31.461  1.00  0.00     0.293 HD
ENDBRANCH  11  25
ENDBRANCH   1   2
BRANCH   1  27
ATOM     27  C   UNL     1      27.649  13.406  28.129  1.00  0.00     0.339 C 
ATOM     28  C   UNL     1      27.346  14.788  28.743  1.00  0.00     0.214 C 
ATOM     29  O   UNL     1      27.260  13.348  26.764  1.00  0.00    -0.332 OA
ATOM     30  C   UNL     1      28.007  15.900  27.919  1.00  0.00     0.180 C 
ATOM     31  C   UNL     1      27.949  14.308  25.974  1.00  0.00     0.179 C 
ATOM     32  C   UNL     1      27.633  15.746  26.436  1.00  0.00     0.177 C 
BRANCH  28  33
ATOM     33  O   UNL     1      27.812  14.848  30.065  1.00  0.00    -0.384 OA
ATOM     34  H   UNL     1      27.667  15.782  30.374  1.00  0.00     0.211 HD
ENDBRANCH  28  33
BRANCH  30  35
ATOM     35  O   UNL     1      27.574  17.156  28.379  1.00  0.00    -0.387 OA
ATOM     36  H   UNL     1      26.586  17.165  28.308  1.00  0.00     0.211 HD
ENDBRANCH  30  35
BRANCH  31  37
ATOM     37  C   UNL     1      27.549  14.106  24.508  1.00  0.00     0.191 C 
BRANCH  37  38
ATOM     38  O   UNL     1      28.595  14.523  23.672  1.00  0.00    -0.394 OA
ATOM     39  H   UNL     1      28.364  15.442  23.382  1.00  0.00     0.210 HD
ENDBRANCH  37  38
ENDBRANCH  31  37
BRANCH  32  40
ATOM     40  O   UNL     1      28.376  16.662  25.671  1.00  0.00    -0.387 OA
ATOM     41  H   UNL     1      27.793  17.453  25.523  1.00  0.00     0.211 HD
ENDBRANCH  32  40
ENDBRANCH   1  27
TORSDOF 12
ENDMDL
MODEL 6
REMARK VINA RESULT:    -6.179      2.253      5.856
REMARK INTER + INTRA:         -11.007
REMARK INTER:                  -8.967
REMARK INTRA:                  -2.040
REMARK UNBOUND:                -1.939
REMARK SMILES O=c1c(O[C@@H]2O[C@@H](CO)[C@H](O)[C@@H](O)[C@@H]2O)c(-c2ccc(O)c(O)c2)oc2cc(O)cc(O)c12
REMARK SMILES IDX 4 1 3 2 16 3 25 4 2 5 26 6 1 7 33 8 27 9 31 10 28 11 30 12
REMARK SMILES IDX 17 13 18 14 19 15 20 16 24 17 22 18 21 19 23 21 32 23 29 25
REMARK SMILES IDX 5 27 14 28 6 29 12 30 7 31 10 32 15 33 13 35 8 37 9 38 11 40
REMARK H PARENT 21 20 23 22 32 24 29 26 15 34 13 36 9 39 11 41
REMARK Flexibility Score: inf
ROOT
ATOM      1  O   UNL     1      28.642  13.482  26.751  1.00  0.00    -0.454 OA
ENDROOT
BRANCH   1   2
ATOM      2  C   UNL     1      29.025  12.130  26.764  1.00  0.00     0.214 A 
ATOM      3  C   UNL     1      29.264  11.461  25.551  1.00  0.00     0.180 A 
ATOM      4  O   UNL     1      29.509  10.158  25.551  1.00  0.00    -0.452 OA
ATOM      5  C   UNL     1      29.180  11.417  27.968  1.00  0.00     0.239 A 
ATOM      6  C   UNL     1      29.609   9.434  26.657  1.00  0.00     0.146 A 
ATOM      7  O   UNL     1      29.026  12.026  29.057  1.00  0.00    -0.285 OA
ATOM      8  C   UNL     1      29.501  10.038  27.936  1.00  0.00     0.111 A 
ATOM      9  C   UNL     1      29.830   8.061  26.535  1.00  0.00     0.094 A 
ATOM     10  C   UNL     1      29.690   9.219  29.092  1.00  0.00     0.134 A 
ATOM     11  C   UNL     1      29.956   7.263  27.670  1.00  0.00     0.123 A 
ATOM     12  C   UNL     1      29.883   7.842  28.938  1.00  0.00     0.093 A 
BRANCH   3  13
ATOM     13  C   UNL     1      29.212  12.163  24.251  1.00  0.00     0.025 A 
ATOM     14  C   UNL     1      30.264  12.994  23.832  1.00  0.00     0.016 A 
ATOM     15  C   UNL     1      30.179  13.682  22.619  1.00  0.00     0.051 A 
ATOM     16  C   UNL     1      29.047  13.539  21.805  1.00  0.00     0.157 A 
ATOM     17  C   UNL     1      28.092  11.999  23.419  1.00  0.00     0.062 A 
ATOM     18  C   UNL     1      28.004  12.693  22.204  1.00  0.00     0.158 A 
BRANCH  16  19
ATOM     19  O   UNL     1      28.951  14.236  20.601  1.00  0.00    -0.504 OA
ATOM     20  H   UNL     1      29.739  14.310  19.968  1.00  0.00     0.293 HD
ENDBRANCH  16  19
BRANCH  18  21
ATOM     21  O   UNL     1      26.880  12.553  21.391  1.00  0.00    -0.504 OA
ATOM     22  H   UNL     1      26.599  13.278  20.741  1.00  0.00     0.293 HD
ENDBRANCH  18  21
ENDBRANCH   3  13
BRANCH  10  23
ATOM     23  O   UNL     1      29.720   9.705  30.404  1.00  0.00    -0.507 OA
ATOM     24  H   UNL     1      30.531  10.100  30.858  1.00  0.00     0.293 HD
ENDBRANCH  10  23
BRANCH  11  25
ATOM     25  O   UNL     1      30.168   5.893  27.528  1.00  0.00    -0.508 OA
ATOM     26  H   UNL     1      29.466   5.216  27.808  1.00  0.00     0.293 HD
ENDBRANCH  11  25
ENDBRANCH   1   2
BRANCH   1  27
ATOM     27  C   UNL     1      27.302  13.933  26.992  1.00  0.00     0.339 C 
ATOM     28  C   UNL     1      27.284  15.090  28.012  1.00  0.00     0.214 C 
ATOM     29  O   UNL     1      26.654  14.298  25.782  1.00  0.00    -0.332 OA
ATOM     30  C   UNL     1      27.899  16.355  27.402  1.00  0.00     0.180 C 
ATOM     31  C   UNL     1      27.286  15.407  25.155  1.00  0.00     0.179 C 
ATOM     32  C   UNL     1      27.233  16.663  26.051  1.00  0.00     0.177 C 
BRANCH  28  33
ATOM     33  O   UNL     1      27.998  14.735  29.167  1.00  0.00    -0.384 OA
ATOM     34  H   UNL     1      27.346  14.744  29.917  1.00  0.00     0.211 HD
ENDBRANCH  28  33
BRANCH  30  35
ATOM     35  O   UNL     1      27.710  17.444  28.271  1.00  0.00    -0.387 OA
ATOM     36  H   UNL     1      26.817  17.331  28.685  1.00  0.00     0.211 HD
ENDBRANCH  30  35
BRANCH  31  37
ATOM     37  C   UNL     1      26.592  15.665  23.813  1.00  0.00     0.191 C 
BRANCH  37  38
ATOM     38  O   UNL     1      27.427  16.434  22.991  1.00  0.00    -0.394 OA
ATOM     39  H   UNL     1      27.393  16.014  22.094  1.00  0.00     0.210 HD
ENDBRANCH  37  38
ENDBRANCH  31  37
BRANCH  32  40
ATOM     40  O   UNL     1      27.916  17.719  25.425  1.00  0.00    -0.387 OA
ATOM     41  H   UNL     1      28.289  17.359  24.578  1.00  0.00     0.211 HD
ENDBRANCH  32  40
ENDBRANCH   1  27
TORSDOF 12
ENDMDL
MODEL 7
REMARK VINA RESULT:    -6.160      2.166      6.749
REMARK INTER + INTRA:         -10.979
REMARK INTER:                  -9.091
REMARK INTRA:                  -1.888
REMARK UNBOUND:                -1.939
REMARK SMILES O=c1c(O[C@@H]2O[C@@H](CO)[C@H](O)[C@@H](O)[C@@H]2O)c(-c2ccc(O)c(O)c2)oc2cc(O)cc(O)c12
REMARK SMILES IDX 4 1 3 2 16 3 25 4 2 5 26 6 1 7 33 8 27 9 31 10 28 11 30 12
REMARK SMILES IDX 17 13 18 14 19 15 20 16 24 17 22 18 21 19 23 21 32 23 29 25
REMARK SMILES IDX 5 27 14 28 6 29 12 30 7 31 10 32 15 33 13 35 8 37 9 38 11 40
REMARK H PARENT 21 20 23 22 32 24 29 26 15 34 13 36 9 39 11 41
REMARK Flexibility Score: inf
ROOT
ATOM      1  O   UNL     1      29.461  11.515  27.411  1.00  0.00    -0.454 OA
ENDROOT
BRANCH   1   2
ATOM      2  C   UNL     1      29.230  11.457  26.026  1.00  0.00     0.214 A 
ATOM      3  C   UNL     1      28.641  12.551  25.371  1.00  0.00     0.180 A 
ATOM      4  O   UNL     1      28.312  12.457  24.089  1.00  0.00    -0.452 OA
ATOM      5  C   UNL     1      29.576  10.323  25.267  1.00  0.00     0.239 A 
ATOM      6  C   UNL     1      28.568  11.389  23.347  1.00  0.00     0.146 A 
ATOM      7  O   UNL     1      30.158   9.366  25.837  1.00  0.00    -0.285 OA
ATOM      8  C   UNL     1      29.266  10.276  23.886  1.00  0.00     0.111 A 
ATOM      9  C   UNL     1      28.141  11.384  22.018  1.00  0.00     0.094 A 
ATOM     10  C   UNL     1      29.576   9.184  23.018  1.00  0.00     0.134 A 
ATOM     11  C   UNL     1      28.400  10.289  21.196  1.00  0.00     0.123 A 
ATOM     12  C   UNL     1      29.110   9.197  21.699  1.00  0.00     0.093 A 
BRANCH   3  13
ATOM     13  C   UNL     1      28.333  13.811  26.080  1.00  0.00     0.025 A 
ATOM     14  C   UNL     1      27.059  14.042  26.628  1.00  0.00     0.016 A 
ATOM     15  C   UNL     1      26.773  15.256  27.258  1.00  0.00     0.051 A 
ATOM     16  C   UNL     1      27.757  16.248  27.358  1.00  0.00     0.157 A 
ATOM     17  C   UNL     1      29.325  14.797  26.207  1.00  0.00     0.062 A 
ATOM     18  C   UNL     1      29.037  16.016  26.836  1.00  0.00     0.158 A 
BRANCH  16  19
ATOM     19  O   UNL     1      27.472  17.467  27.972  1.00  0.00    -0.504 OA
ATOM     20  H   UNL     1      26.523  17.725  28.221  1.00  0.00     0.293 HD
ENDBRANCH  16  19
BRANCH  18  21
ATOM     21  O   UNL     1      30.014  17.006  26.937  1.00  0.00    -0.504 OA
ATOM     22  H   UNL     1      30.213  17.469  27.816  1.00  0.00     0.293 HD
ENDBRANCH  18  21
ENDBRANCH   3  13
BRANCH  10  23
ATOM     23  O   UNL     1      30.352   8.080  23.389  1.00  0.00    -0.507 OA
ATOM     24  H   UNL     1      30.120   7.431  24.125  1.00  0.00     0.293 HD
ENDBRANCH  10  23
BRANCH  11  25
ATOM     25  O   UNL     1      27.958  10.300  19.876  1.00  0.00    -0.508 OA
ATOM     26  H   UNL     1      27.174  10.876  19.583  1.00  0.00     0.293 HD
ENDBRANCH  11  25
ENDBRANCH   1   2
BRANCH   1  27
ATOM     27  C   UNL     1      28.581  10.946  28.391  1.00  0.00     0.339 C 
ATOM     28  C   UNL     1      29.353  10.027  29.358  1.00  0.00     0.214 C 
ATOM     29  O   UNL     1      27.867  11.954  29.091  1.00  0.00    -0.332 OA
ATOM     30  C   UNL     1      30.279  10.851  30.260  1.00  0.00     0.180 C 
ATOM     31  C   UNL     1      28.733  12.791  29.847  1.00  0.00     0.179 C 
ATOM     32  C   UNL     1      29.486  11.986  30.928  1.00  0.00     0.177 C 
BRANCH  28  33
ATOM     33  O   UNL     1      30.114   9.091  28.641  1.00  0.00    -0.384 OA
ATOM     34  H   UNL     1      30.847   9.599  28.203  1.00  0.00     0.211 HD
ENDBRANCH  28  33
BRANCH  30  35
ATOM     35  O   UNL     1      30.835  10.027  31.255  1.00  0.00    -0.387 OA
ATOM     36  H   UNL     1      30.269   9.215  31.306  1.00  0.00     0.211 HD
ENDBRANCH  30  35
BRANCH  31  37
ATOM     37  C   UNL     1      27.896  13.907  30.482  1.00  0.00     0.191 C 
BRANCH  37  38
ATOM     38  O   UNL     1      27.832  13.717  31.870  1.00  0.00    -0.394 OA
ATOM     39  H   UNL     1      26.897  13.917  32.132  1.00  0.00     0.210 HD
ENDBRANCH  37  38
ENDBRANCH  31  37
BRANCH  32  40
ATOM     40  O   UNL     1      30.373  12.833  31.615  1.00  0.00    -0.387 OA
ATOM     41  H   UNL     1      30.052  13.762  31.474  1.00  0.00     0.211 HD
ENDBRANCH  32  40
ENDBRANCH   1  27
TORSDOF 12
ENDMDL
MODEL 8
REMARK VINA RESULT:    -6.128      2.624      6.226
REMARK INTER + INTRA:         -10.933
REMARK INTER:                  -8.829
REMARK INTRA:                  -2.104
REMARK UNBOUND:                -1.939
REMARK SMILES O=c1c(O[C@@H]2O[C@@H](CO)[C@H](O)[C@@H](O)[C@@H]2O)c(-c2ccc(O)c(O)c2)oc2cc(O)cc(O)c12
REMARK SMILES IDX 4 1 3 2 16 3 25 4 2 5 26 6 1 7 33 8 27 9 31 10 28 11 30 12
REMARK SMILES IDX 17 13 18 14 19 15 20 16 24 17 22 18 21 19 23 21 32 23 29 25
REMARK SMILES IDX 5 27 14 28 6 29 12 30 7 31 10 32 15 33 13 35 8 37 9 38 11 40
REMARK H PARENT 21 20 23 22 32 24 29 26 15 34 13 36 9 39 11 41
REMARK Flexibility Score: inf
ROOT
ATOM      1  O   UNL     1      28.487  12.531  29.115  1.00  0.00    -0.454 OA
ENDROOT
BRANCH   1   2
ATOM      2  C   UNL     1      28.915  11.746  28.031  1.00  0.00     0.214 A 
ATOM      3  C   UNL     1      28.932  12.294  26.737  1.00  0.00     0.180 A 
ATOM      4  O   UNL     1      29.220  11.524  25.696  1.00  0.00    -0.452 OA
ATOM      5  C   UNL     1      29.332  10.413  28.203  1.00  0.00     0.239 A 
ATOM      6  C   UNL     1      29.565  10.249  25.804  1.00  0.00     0.146 A 
ATOM      7  O   UNL     1      29.376   9.936  29.366  1.00  0.00    -0.285 OA
ATOM      8  C   UNL     1      29.691   9.633  27.076  1.00  0.00     0.111 A 
ATOM      9  C   UNL     1      29.807   9.524  24.636  1.00  0.00     0.094 A 
ATOM     10  C   UNL     1      30.137   8.277  27.133  1.00  0.00     0.134 A 
ATOM     11  C   UNL     1      30.186   8.185  24.701  1.00  0.00     0.123 A 
ATOM     12  C   UNL     1      30.345   7.569  25.944  1.00  0.00     0.093 A 
BRANCH   3  13
ATOM     13  C   UNL     1      28.596  13.711  26.486  1.00  0.00     0.025 A 
ATOM     14  C   UNL     1      27.386  14.072  25.868  1.00  0.00     0.016 A 
ATOM     15  C   UNL     1      27.103  15.414  25.602  1.00  0.00     0.051 A 
ATOM     16  C   UNL     1      28.021  16.412  25.957  1.00  0.00     0.157 A 
ATOM     17  C   UNL     1      29.499  14.717  26.868  1.00  0.00     0.062 A 
ATOM     18  C   UNL     1      29.218  16.063  26.596  1.00  0.00     0.158 A 
BRANCH  16  19
ATOM     19  O   UNL     1      27.750  17.751  25.679  1.00  0.00    -0.504 OA
ATOM     20  H   UNL     1      28.204  18.234  24.911  1.00  0.00     0.293 HD
ENDBRANCH  16  19
BRANCH  18  21
ATOM     21  O   UNL     1      30.128  17.059  26.949  1.00  0.00    -0.504 OA
ATOM     22  H   UNL     1      30.962  17.236  26.402  1.00  0.00     0.293 HD
ENDBRANCH  18  21
ENDBRANCH   3  13
BRANCH  10  23
ATOM     23  O   UNL     1      30.410   7.587  28.320  1.00  0.00    -0.507 OA
ATOM     24  H   UNL     1      30.889   6.701  28.378  1.00  0.00     0.293 HD
ENDBRANCH  10  23
BRANCH  11  25
ATOM     25  O   UNL     1      30.416   7.477  23.525  1.00  0.00    -0.508 OA
ATOM     26  H   UNL     1      31.343   7.144  23.278  1.00  0.00     0.293 HD
ENDBRANCH  11  25
ENDBRANCH   1   2
BRANCH   1  27
ATOM     27  C   UNL     1      27.138  12.552  29.601  1.00  0.00     0.339 C 
ATOM     28  C   UNL     1      27.100  12.365  31.132  1.00  0.00     0.214 C 
ATOM     29  O   UNL     1      26.465  13.738  29.207  1.00  0.00    -0.332 OA
ATOM     30  C   UNL     1      27.670  13.600  31.839  1.00  0.00     0.180 C 
ATOM     31  C   UNL     1      27.056  14.899  29.775  1.00  0.00     0.179 C 
ATOM     32  C   UNL     1      26.978  14.869  31.317  1.00  0.00     0.177 C 
BRANCH  28  33
ATOM     33  O   UNL     1      27.838  11.231  31.504  1.00  0.00    -0.384 OA
ATOM     34  H   UNL     1      28.532  11.544  32.144  1.00  0.00     0.211 HD
ENDBRANCH  28  33
BRANCH  30  35
ATOM     35  O   UNL     1      27.461  13.495  33.226  1.00  0.00    -0.387 OA
ATOM     36  H   UNL     1      27.496  12.531  33.450  1.00  0.00     0.211 HD
ENDBRANCH  30  35
BRANCH  31  37
ATOM     37  C   UNL     1      26.338  16.133  29.216  1.00  0.00     0.191 C 
BRANCH  37  38
ATOM     38  O   UNL     1      27.200  17.238  29.257  1.00  0.00    -0.394 OA
ATOM     39  H   UNL     1      27.107  17.626  30.164  1.00  0.00     0.210 HD
ENDBRANCH  37  38
ENDBRANCH  31  37
BRANCH  32  40
ATOM     40  O   UNL     1      27.623  16.002  31.845  1.00  0.00    -0.387 OA
ATOM     41  H   UNL     1      26.925  16.550  32.289  1.00  0.00     0.211 HD
ENDBRANCH  32  40
ENDBRANCH   1  27
TORSDOF 12
ENDMDL
MODEL 9
REMARK VINA RESULT:    -6.060      2.124      3.504
REMARK INTER + INTRA:         -10.833
REMARK INTER:                  -8.942
REMARK INTRA:                  -1.891
REMARK UNBOUND:                -1.939
REMARK SMILES O=c1c(O[C@@H]2O[C@@H](CO)[C@H](O)[C@@H](O)[C@@H]2O)c(-c2ccc(O)c(O)c2)oc2cc(O)cc(O)c12
REMARK SMILES IDX 4 1 3 2 16 3 25 4 2 5 26 6 1 7 33 8 27 9 31 10 28 11 30 12
REMARK SMILES IDX 17 13 18 14 19 15 20 16 24 17 22 18 21 19 23 21 32 23 29 25
REMARK SMILES IDX 5 27 14 28 6 29 12 30 7 31 10 32 15 33 13 35 8 37 9 38 11 40
REMARK H PARENT 21 20 23 22 32 24 29 26 15 34 13 36 9 39 11 41
REMARK Flexibility Score: inf
ROOT
ATOM      1  O   UNL     1      28.448  11.911  24.665  1.00  0.00    -0.454 OA
ENDROOT
BRANCH   1   2
ATOM      2  C   UNL     1      28.732  11.418  25.950  1.00  0.00     0.214 A 
ATOM      3  C   UNL     1      28.689  12.284  27.055  1.00  0.00     0.180 A 
ATOM      4  O   UNL     1      29.072  11.852  28.250  1.00  0.00    -0.452 OA
ATOM      5  C   UNL     1      29.063  10.067  26.165  1.00  0.00     0.239 A 
ATOM      6  C   UNL     1      29.443  10.603  28.490  1.00  0.00     0.146 A 
ATOM      7  O   UNL     1      29.044   9.275  25.189  1.00  0.00    -0.285 OA
ATOM      8  C   UNL     1      29.409   9.622  27.464  1.00  0.00     0.111 A 
ATOM      9  C   UNL     1      29.865  10.270  29.778  1.00  0.00     0.094 A 
ATOM     10  C   UNL     1      29.752   8.276  27.801  1.00  0.00     0.134 A 
ATOM     11  C   UNL     1      30.252   8.967  30.080  1.00  0.00     0.123 A 
ATOM     12  C   UNL     1      30.197   7.980  29.094  1.00  0.00     0.093 A 
BRANCH   3  13
ATOM     13  C   UNL     1      28.263  13.694  26.925  1.00  0.00     0.025 A 
ATOM     14  C   UNL     1      26.913  14.028  26.725  1.00  0.00     0.016 A 
ATOM     15  C   UNL     1      26.534  15.363  26.563  1.00  0.00     0.051 A 
ATOM     16  C   UNL     1      27.497  16.380  26.608  1.00  0.00     0.157 A 
ATOM     17  C   UNL     1      29.221  14.718  26.999  1.00  0.00     0.062 A 
ATOM     18  C   UNL     1      28.842  16.057  26.832  1.00  0.00     0.158 A 
BRANCH  16  19
ATOM     19  O   UNL     1      27.126  17.712  26.431  1.00  0.00    -0.504 OA
ATOM     20  H   UNL     1      27.567  18.295  25.728  1.00  0.00     0.293 HD
ENDBRANCH  16  19
BRANCH  18  21
ATOM     21  O   UNL     1      29.797  17.072  26.877  1.00  0.00    -0.504 OA
ATOM     22  H   UNL     1      29.615  17.992  26.494  1.00  0.00     0.293 HD
ENDBRANCH  18  21
ENDBRANCH   3  13
BRANCH  10  23
ATOM     23  O   UNL     1      29.654   7.195  26.917  1.00  0.00    -0.507 OA
ATOM     24  H   UNL     1      28.835   6.960  26.378  1.00  0.00     0.293 HD
ENDBRANCH  10  23
BRANCH  11  25
ATOM     25  O   UNL     1      30.677   8.656  31.369  1.00  0.00    -0.508 OA
ATOM     26  H   UNL     1      30.141   8.039  31.971  1.00  0.00     0.293 HD
ENDBRANCH  11  25
ENDBRANCH   1   2
BRANCH   1  27
ATOM     27  C   UNL     1      29.392  12.631  23.860  1.00  0.00     0.339 C 
ATOM     28  C   UNL     1      29.615  11.924  22.508  1.00  0.00     0.214 C 
ATOM     29  O   UNL     1      28.995  13.982  23.679  1.00  0.00    -0.332 OA
ATOM     30  C   UNL     1      28.362  12.031  21.631  1.00  0.00     0.180 C 
ATOM     31  C   UNL     1      27.774  14.085  22.957  1.00  0.00     0.179 C 
ATOM     32  C   UNL     1      27.913  13.498  21.536  1.00  0.00     0.177 C 
BRANCH  28  33
ATOM     33  O   UNL     1      29.928  10.570  22.709  1.00  0.00    -0.384 OA
ATOM     34  H   UNL     1      29.492  10.303  23.561  1.00  0.00     0.211 HD
ENDBRANCH  28  33
BRANCH  30  35
ATOM     35  O   UNL     1      28.640  11.547  20.340  1.00  0.00    -0.387 OA
ATOM     36  H   UNL     1      28.033  10.780  20.183  1.00  0.00     0.211 HD
ENDBRANCH  30  35
BRANCH  31  37
ATOM     37  C   UNL     1      27.368  15.562  22.901  1.00  0.00     0.191 C 
BRANCH  37  38
ATOM     38  O   UNL     1      25.970  15.667  22.936  1.00  0.00    -0.394 OA
ATOM     39  H   UNL     1      25.709  15.550  23.885  1.00  0.00     0.210 HD
ENDBRANCH  37  38
ENDBRANCH  31  37
BRANCH  32  40
ATOM     40  O   UNL     1      26.674  13.564  20.875  1.00  0.00    -0.387 OA
ATOM     41  H   UNL     1      25.971  13.518  21.575  1.00  0.00     0.211 HD
ENDBRANCH  32  40
ENDBRANCH   1  27
TORSDOF 12
ENDMDL
