MODEL 1
REMARK VINA RESULT:    28.020      0.000      0.000
REMARK INTER + INTRA:          33.354
REMARK INTER:                  33.754
REMARK INTRA:                  -0.400
REMARK UNBOUND:                -0.400
REMARK SMILES O=c1c(O)c(-c2ccc(O)cc2O)oc2cc(O)cc(O)c12
REMARK SMILES IDX 5 1 3 2 2 3 1 4 22 5 20 6 19 7 17 8 16 9 15 10 14 11 6 12
REMARK SMILES IDX 8 13 7 14 9 15 11 16 12 17 10 18 13 20 4 22 21 24 18 26
REMARK H PARENT 10 19 13 21 4 23 21 25 18 27
REMARK Flexibility Score: inf
ROOT
ATOM      1  C   UNL     1      -5.661   7.584  16.565  1.00  0.00     0.184 A 
ATOM      2  C   UNL     1      -5.336   6.687  17.595  1.00  0.00     0.208 A 
ATOM      3  C   UNL     1      -5.692   5.336  17.457  1.00  0.00     0.238 A 
ATOM      4  O   UNL     1      -5.447   4.546  18.406  1.00  0.00    -0.285 OA
ATOM      5  C   UNL     1      -6.354   4.899  16.283  1.00  0.00     0.111 A 
ATOM      6  C   UNL     1      -6.726   3.546  16.019  1.00  0.00     0.134 A 
ATOM      7  C   UNL     1      -7.491   3.250  14.885  1.00  0.00     0.093 A 
ATOM      8  C   UNL     1      -7.842   4.243  13.973  1.00  0.00     0.123 A 
ATOM      9  C   UNL     1      -7.433   5.560  14.190  1.00  0.00     0.094 A 
ATOM     10  C   UNL     1      -6.700   5.893  15.331  1.00  0.00     0.146 A 
ATOM     11  O   UNL     1      -6.340   7.159  15.507  1.00  0.00    -0.451 OA
ENDROOT
BRANCH   1  12
ATOM     12  C   UNL     1      -5.301   9.016  16.640  1.00  0.00     0.063 A 
ATOM     13  C   UNL     1      -3.632  10.756  16.329  1.00  0.00     0.047 A 
ATOM     14  C   UNL     1      -4.007   9.412  16.265  1.00  0.00     0.020 A 
ATOM     15  C   UNL     1      -4.541  11.719  16.784  1.00  0.00     0.119 A 
ATOM     16  C   UNL     1      -5.823  11.330  17.182  1.00  0.00     0.093 A 
ATOM     17  C   UNL     1      -6.206   9.981  17.127  1.00  0.00     0.130 A 
BRANCH  15  18
ATOM     18  O   UNL     1      -4.179  13.063  16.848  1.00  0.00    -0.508 OA
ATOM     19  H   UNL     1      -4.538  13.740  16.186  1.00  0.00     0.293 HD
ENDBRANCH  15  18
BRANCH  17  20
ATOM     20  O   UNL     1      -7.472   9.600  17.573  1.00  0.00    -0.507 OA
ATOM     21  H   UNL     1      -7.988   8.851  17.130  1.00  0.00     0.293 HD
ENDBRANCH  17  20
ENDBRANCH   1  12
BRANCH   2  22
ATOM     22  O   UNL     1      -4.700   7.149  18.750  1.00  0.00    -0.502 OA
ATOM     23  H   UNL     1      -4.179   8.018  18.772  1.00  0.00     0.293 HD
ENDBRANCH   2  22
BRANCH   6  24
ATOM     24  O   UNL     1      -6.349   2.463  16.819  1.00  0.00    -0.507 OA
ATOM     25  H   UNL     1      -5.718   2.520  17.604  1.00  0.00     0.293 HD
ENDBRANCH   6  24
BRANCH   8  26
ATOM     26  O   UNL     1      -8.591   3.909  12.846  1.00  0.00    -0.508 OA
ATOM     27  H   UNL     1      -9.025   4.619  12.268  1.00  0.00     0.293 HD
ENDBRANCH   8  26
TORSDOF 6
ENDMDL
MODEL 2
REMARK VINA RESULT:    29.345     10.145     11.161
REMARK INTER + INTRA:          34.950
REMARK INTER:                  33.903
REMARK INTRA:                   1.046
REMARK UNBOUND:                -0.400
REMARK SMILES O=c1c(O)c(-c2ccc(O)cc2O)oc2cc(O)cc(O)c12
REMARK SMILES IDX 5 1 3 2 2 3 1 4 22 5 20 6 19 7 17 8 16 9 15 10 14 11 6 12
REMARK SMILES IDX 8 13 7 14 9 15 11 16 12 17 10 18 13 20 4 22 21 24 18 26
REMARK H PARENT 10 19 13 21 4 23 21 25 18 27
REMARK Flexibility Score: inf
ROOT
ATOM      1  C   UNL     1      -5.321  -2.430  12.934  1.00  0.00     0.184 A 
ATOM      2  C   UNL     1      -6.081  -1.937  11.862  1.00  0.00     0.208 A 
ATOM      3  C   UNL     1      -7.482  -1.926  11.969  1.00  0.00     0.238 A 
ATOM      4  O   UNL     1      -8.159  -1.534  10.984  1.00  0.00    -0.285 OA
ATOM      5  C   UNL     1      -8.100  -2.394  13.154  1.00  0.00     0.111 A 
ATOM      6  C   UNL     1      -9.509  -2.391  13.388  1.00  0.00     0.134 A 
ATOM      7  C   UNL     1     -10.017  -2.996  14.543  1.00  0.00     0.093 A 
ATOM      8  C   UNL     1      -9.168  -3.545  15.503  1.00  0.00     0.123 A 
ATOM      9  C   UNL     1      -7.787  -3.500  15.313  1.00  0.00     0.094 A 
ATOM     10  C   UNL     1      -7.250  -2.936  14.154  1.00  0.00     0.146 A 
ATOM     11  O   UNL     1      -5.931  -2.923  14.006  1.00  0.00    -0.451 OA
ENDROOT
BRANCH   1  12
ATOM     12  C   UNL     1      -3.844  -2.455  12.893  1.00  0.00     0.063 A 
ATOM     13  C   UNL     1      -1.768  -3.567  13.495  1.00  0.00     0.047 A 
ATOM     14  C   UNL     1      -3.164  -3.516  13.511  1.00  0.00     0.020 A 
ATOM     15  C   UNL     1      -1.034  -2.549  12.873  1.00  0.00     0.119 A 
ATOM     16  C   UNL     1      -1.703  -1.478  12.276  1.00  0.00     0.093 A 
ATOM     17  C   UNL     1      -3.104  -1.416  12.293  1.00  0.00     0.130 A 
BRANCH  15  18
ATOM     18  O   UNL     1       0.358  -2.592  12.847  1.00  0.00    -0.508 OA
ATOM     19  H   UNL     1       0.886  -3.089  13.555  1.00  0.00     0.293 HD
ENDBRANCH  15  18
BRANCH  17  20
ATOM     20  O   UNL     1      -3.757  -0.315  11.736  1.00  0.00    -0.507 OA
ATOM     21  H   UNL     1      -3.278   0.330  11.120  1.00  0.00     0.293 HD
ENDBRANCH  17  20
ENDBRANCH   1  12
BRANCH   2  22
ATOM     22  O   UNL     1      -5.445  -1.500  10.697  1.00  0.00    -0.502 OA
ATOM     23  H   UNL     1      -5.427  -2.053   9.848  1.00  0.00     0.293 HD
ENDBRANCH   2  22
BRANCH   6  24
ATOM     24  O   UNL     1     -10.439  -1.788  12.537  1.00  0.00    -0.507 OA
ATOM     25  H   UNL     1     -10.236  -1.023  11.911  1.00  0.00     0.293 HD
ENDBRANCH   6  24
BRANCH   8  26
ATOM     26  O   UNL     1      -9.710  -4.125  16.649  1.00  0.00    -0.508 OA
ATOM     27  H   UNL     1      -9.682  -5.126  16.800  1.00  0.00     0.293 HD
ENDBRANCH   8  26
TORSDOF 6
ENDMDL
MODEL 3
REMARK VINA RESULT:    30.703      5.357      8.321
REMARK INTER + INTRA:          36.585
REMARK INTER:                  36.446
REMARK INTRA:                   0.139
REMARK UNBOUND:                -0.400
REMARK SMILES O=c1c(O)c(-c2ccc(O)cc2O)oc2cc(O)cc(O)c12
REMARK SMILES IDX 5 1 3 2 2 3 1 4 22 5 20 6 19 7 17 8 16 9 15 10 14 11 6 12
REMARK SMILES IDX 8 13 7 14 9 15 11 16 12 17 10 18 13 20 4 22 21 24 18 26
REMARK H PARENT 10 19 13 21 4 23 21 25 18 27
REMARK Flexibility Score: inf
ROOT
ATOM      1  C   UNL     1     -10.440   8.059  19.526  1.00  0.00     0.184 A 
ATOM      2  C   UNL     1      -9.045   8.175  19.628  1.00  0.00     0.208 A 
ATOM      3  C   UNL     1      -8.421   9.337  19.145  1.00  0.00     0.238 A 
ATOM      4  O   UNL     1      -7.166   9.412  19.189  1.00  0.00    -0.285 OA
ATOM      5  C   UNL     1      -9.205  10.372  18.580  1.00  0.00     0.111 A 
ATOM      6  C   UNL     1      -8.684  11.610  18.096  1.00  0.00     0.134 A 
ATOM      7  C   UNL     1      -9.535  12.508  17.440  1.00  0.00     0.093 A 
ATOM      8  C   UNL     1     -10.897  12.244  17.310  1.00  0.00     0.123 A 
ATOM      9  C   UNL     1     -11.429  11.065  17.832  1.00  0.00     0.094 A 
ATOM     10  C   UNL     1     -10.599  10.133  18.459  1.00  0.00     0.146 A 
ATOM     11  O   UNL     1     -11.142   9.017  18.933  1.00  0.00    -0.451 OA
ENDROOT
BRANCH   1  12
ATOM     12  C   UNL     1     -11.159   6.870  20.030  1.00  0.00     0.063 A 
ATOM     13  C   UNL     1     -11.287   5.043  21.628  1.00  0.00     0.047 A 
ATOM     14  C   UNL     1     -10.635   6.174  21.130  1.00  0.00     0.020 A 
ATOM     15  C   UNL     1     -12.463   4.585  21.022  1.00  0.00     0.119 A 
ATOM     16  C   UNL     1     -12.979   5.259  19.912  1.00  0.00     0.093 A 
ATOM     17  C   UNL     1     -12.328   6.392  19.402  1.00  0.00     0.130 A 
BRANCH  15  18
ATOM     18  O   UNL     1     -13.124   3.462  21.513  1.00  0.00    -0.508 OA
ATOM     19  H   UNL     1     -13.687   2.872  20.911  1.00  0.00     0.293 HD
ENDBRANCH  15  18
BRANCH  17  20
ATOM     20  O   UNL     1     -12.827   7.026  18.264  1.00  0.00    -0.507 OA
ATOM     21  H   UNL     1     -13.809   6.987  18.022  1.00  0.00     0.293 HD
ENDBRANCH  17  20
ENDBRANCH   1  12
BRANCH   2  22
ATOM     22  O   UNL     1      -8.294   7.129  20.172  1.00  0.00    -0.502 OA
ATOM     23  H   UNL     1      -8.227   6.971  21.170  1.00  0.00     0.293 HD
ENDBRANCH   2  22
BRANCH   6  24
ATOM     24  O   UNL     1      -7.355  12.013  18.256  1.00  0.00    -0.507 OA
ATOM     25  H   UNL     1      -6.562  11.389  18.268  1.00  0.00     0.293 HD
ENDBRANCH   6  24
BRANCH   8  26
ATOM     26  O   UNL     1     -11.718  13.169  16.666  1.00  0.00    -0.508 OA
ATOM     27  H   UNL     1     -12.719  13.032  16.598  1.00  0.00     0.293 HD
ENDBRANCH   8  26
TORSDOF 6
ENDMDL
