MODEL 1
REMARK VINA RESULT:    -4.254      0.000      0.000
REMARK INTER + INTRA:          -5.017
REMARK INTER:                  -4.876
REMARK INTRA:                  -0.140
REMARK UNBOUND:                -0.140
REMARK SMILES O=C([O-])C=Cc1ccc(O)cc1
REMARK SMILES IDX 6 1 7 2 12 3 8 4 11 5 9 6 5 7 4 8 2 9 1 10 3 11 10 12
REMARK H PARENT 10 13
REMARK Flexibility Score: inf
ROOT
ATOM      1  C   UNL     1    -115.505  -4.913 -47.681  1.00  0.00    -0.025 A 
ATOM      2  C   UNL     1    -115.458  -5.758 -48.809  1.00  0.00     0.012 A 
ATOM      3  C   UNL     1    -114.317  -4.308 -47.236  1.00  0.00     0.012 A 
ATOM      4  C   UNL     1    -114.242  -6.004 -49.456  1.00  0.00     0.047 A 
ATOM      5  C   UNL     1    -113.105  -4.559 -47.885  1.00  0.00     0.047 A 
ATOM      6  C   UNL     1    -113.063  -5.408 -48.994  1.00  0.00     0.115 A 
ENDROOT
BRANCH   1   7
ATOM      7  C   UNL     1    -116.768  -4.608 -46.963  1.00  0.00     0.010 C 
ATOM      8  C   UNL     1    -116.969  -4.866 -45.663  1.00  0.00     0.025 C 
BRANCH   8   9
ATOM      9  C   UNL     1    -118.235  -4.536 -44.990  1.00  0.00     0.064 C 
ATOM     10  O   UNL     1    -118.423  -4.913 -43.804  1.00  0.00    -0.545 OA
ATOM     11  O   UNL     1    -119.228  -3.816 -45.644  1.00  0.00    -0.545 OA
ENDBRANCH   8   9
ENDBRANCH   1   7
BRANCH   6  12
ATOM     12  O   UNL     1    -111.849  -5.650 -49.632  1.00  0.00    -0.508 OA
ATOM     13  H   UNL     1    -111.503  -5.039 -50.362  1.00  0.00     0.293 HD
ENDBRANCH   6  12
TORSDOF 3
ENDMDL
MODEL 2
REMARK VINA RESULT:    -4.239      0.233      1.414
REMARK INTER + INTRA:          -4.999
REMARK INTER:                  -4.863
REMARK INTRA:                  -0.136
REMARK UNBOUND:                -0.140
REMARK SMILES O=C([O-])C=Cc1ccc(O)cc1
REMARK SMILES IDX 6 1 7 2 12 3 8 4 11 5 9 6 5 7 4 8 2 9 1 10 3 11 10 12
REMARK H PARENT 10 13
REMARK Flexibility Score: inf
ROOT
ATOM      1  C   UNL     1    -115.323  -4.701 -47.518  1.00  0.00    -0.025 A 
ATOM      2  C   UNL     1    -114.065  -4.208 -47.117  1.00  0.00     0.012 A 
ATOM      3  C   UNL     1    -115.398  -5.526 -48.654  1.00  0.00     0.012 A 
ATOM      4  C   UNL     1    -112.917  -4.517 -47.855  1.00  0.00     0.047 A 
ATOM      5  C   UNL     1    -114.248  -5.830 -49.388  1.00  0.00     0.047 A 
ATOM      6  C   UNL     1    -113.006  -5.326 -48.993  1.00  0.00     0.115 A 
ENDROOT
BRANCH   1   7
ATOM      7  C   UNL     1    -116.571  -4.415 -46.766  1.00  0.00     0.010 C 
ATOM      8  C   UNL     1    -116.869  -4.964 -45.580  1.00  0.00     0.025 C 
BRANCH   8   9
ATOM      9  C   UNL     1    -118.114  -4.642 -44.865  1.00  0.00     0.064 C 
ATOM     10  O   UNL     1    -118.255  -5.008 -43.669  1.00  0.00    -0.545 OA
ATOM     11  O   UNL     1    -119.140  -3.942 -45.490  1.00  0.00    -0.545 OA
ENDBRANCH   8   9
ENDBRANCH   1   7
BRANCH   6  12
ATOM     12  O   UNL     1    -111.869  -5.637 -49.734  1.00  0.00    -0.508 OA
ATOM     13  H   UNL     1    -111.902  -5.734 -50.741  1.00  0.00     0.293 HD
ENDBRANCH   6  12
TORSDOF 3
ENDMDL
MODEL 3
REMARK VINA RESULT:    -4.093      3.158      3.884
REMARK INTER + INTRA:          -4.832
REMARK INTER:                  -4.689
REMARK INTRA:                  -0.142
REMARK UNBOUND:                -0.140
REMARK SMILES O=C([O-])C=Cc1ccc(O)cc1
REMARK SMILES IDX 6 1 7 2 12 3 8 4 11 5 9 6 5 7 4 8 2 9 1 10 3 11 10 12
REMARK H PARENT 10 13
REMARK Flexibility Score: inf
ROOT
ATOM      1  C   UNL     1    -114.341  -5.356 -48.719  1.00  0.00    -0.025 A 
ATOM      2  C   UNL     1    -115.567  -5.997 -48.991  1.00  0.00     0.012 A 
ATOM      3  C   UNL     1    -113.188  -5.780 -49.402  1.00  0.00     0.012 A 
ATOM      4  C   UNL     1    -115.625  -7.053 -49.907  1.00  0.00     0.047 A 
ATOM      5  C   UNL     1    -113.251  -6.837 -50.315  1.00  0.00     0.047 A 
ATOM      6  C   UNL     1    -114.466  -7.477 -50.569  1.00  0.00     0.115 A 
ENDROOT
BRANCH   1   7
ATOM      7  C   UNL     1    -114.225  -4.224 -47.766  1.00  0.00     0.010 C 
ATOM      8  C   UNL     1    -113.363  -4.199 -46.740  1.00  0.00     0.025 C 
BRANCH   8   9
ATOM      9  C   UNL     1    -113.275  -3.050 -45.826  1.00  0.00     0.064 C 
ATOM     10  O   UNL     1    -114.319  -2.413 -45.527  1.00  0.00    -0.545 OA
ATOM     11  O   UNL     1    -112.056  -2.654 -45.287  1.00  0.00    -0.545 OA
ENDBRANCH   8   9
ENDBRANCH   1   7
BRANCH   6  12
ATOM     12  O   UNL     1    -114.515  -8.528 -51.481  1.00  0.00    -0.508 OA
ATOM     13  H   UNL     1    -115.371  -8.773 -51.963  1.00  0.00     0.293 HD
ENDBRANCH   6  12
TORSDOF 3
ENDMDL
MODEL 4
REMARK VINA RESULT:    -4.005      5.203      7.864
REMARK INTER + INTRA:          -4.730
REMARK INTER:                  -4.592
REMARK INTRA:                  -0.138
REMARK UNBOUND:                -0.140
REMARK SMILES O=C([O-])C=Cc1ccc(O)cc1
REMARK SMILES IDX 6 1 7 2 12 3 8 4 11 5 9 6 5 7 4 8 2 9 1 10 3 11 10 12
REMARK H PARENT 10 13
REMARK Flexibility Score: inf
ROOT
ATOM      1  C   UNL     1    -113.289  -6.242 -52.076  1.00  0.00    -0.025 A 
ATOM      2  C   UNL     1    -113.997  -7.071 -52.971  1.00  0.00     0.012 A 
ATOM      3  C   UNL     1    -113.490  -6.408 -50.695  1.00  0.00     0.012 A 
ATOM      4  C   UNL     1    -114.900  -8.023 -52.488  1.00  0.00     0.047 A 
ATOM      5  C   UNL     1    -114.394  -7.361 -50.217  1.00  0.00     0.047 A 
ATOM      6  C   UNL     1    -115.103  -8.169 -51.110  1.00  0.00     0.115 A 
ENDROOT
BRANCH   1   7
ATOM      7  C   UNL     1    -112.311  -5.223 -52.533  1.00  0.00     0.010 C 
ATOM      8  C   UNL     1    -112.074  -4.944 -53.823  1.00  0.00     0.025 C 
BRANCH   8   9
ATOM      9  C   UNL     1    -111.102  -3.917 -54.230  1.00  0.00     0.064 C 
ATOM     10  O   UNL     1    -109.940  -4.263 -54.571  1.00  0.00    -0.545 OA
ATOM     11  O   UNL     1    -111.444  -2.570 -54.242  1.00  0.00    -0.545 OA
ENDBRANCH   8   9
ENDBRANCH   1   7
BRANCH   6  12
ATOM     12  O   UNL     1    -116.001  -9.114 -50.621  1.00  0.00    -0.508 OA
ATOM     13  H   UNL     1    -116.990  -9.066 -50.834  1.00  0.00     0.293 HD
ENDBRANCH   6  12
TORSDOF 3
ENDMDL
MODEL 5
REMARK VINA RESULT:    -3.875      3.765      5.413
REMARK INTER + INTRA:          -4.581
REMARK INTER:                  -4.433
REMARK INTRA:                  -0.149
REMARK UNBOUND:                -0.140
REMARK SMILES O=C([O-])C=Cc1ccc(O)cc1
REMARK SMILES IDX 6 1 7 2 12 3 8 4 11 5 9 6 5 7 4 8 2 9 1 10 3 11 10 12
REMARK H PARENT 10 13
REMARK Flexibility Score: inf
ROOT
ATOM      1  C   UNL     1    -113.471  -5.475 -49.496  1.00  0.00    -0.025 A 
ATOM      2  C   UNL     1    -113.273  -6.661 -50.232  1.00  0.00     0.012 A 
ATOM      3  C   UNL     1    -114.745  -5.212 -48.964  1.00  0.00     0.012 A 
ATOM      4  C   UNL     1    -114.335  -7.546 -50.446  1.00  0.00     0.047 A 
ATOM      5  C   UNL     1    -115.804  -6.099 -49.182  1.00  0.00     0.047 A 
ATOM      6  C   UNL     1    -115.604  -7.266 -49.924  1.00  0.00     0.115 A 
ENDROOT
BRANCH   1   7
ATOM      7  C   UNL     1    -112.378  -4.507 -49.230  1.00  0.00     0.010 C 
ATOM      8  C   UNL     1    -112.285  -3.778 -48.108  1.00  0.00     0.025 C 
BRANCH   8   9
ATOM      9  C   UNL     1    -111.176  -2.838 -47.882  1.00  0.00     0.064 C 
ATOM     10  O   UNL     1    -111.070  -2.262 -46.768  1.00  0.00    -0.545 OA
ATOM     11  O   UNL     1    -110.245  -2.574 -48.879  1.00  0.00    -0.545 OA
ENDBRANCH   8   9
ENDBRANCH   1   7
BRANCH   6  12
ATOM     12  O   UNL     1    -116.667  -8.140 -50.133  1.00  0.00    -0.508 OA
ATOM     13  H   UNL     1    -117.406  -8.249 -49.450  1.00  0.00     0.293 HD
ENDBRANCH   6  12
TORSDOF 3
ENDMDL
MODEL 6
REMARK VINA RESULT:    -3.861      1.370      1.779
REMARK INTER + INTRA:          -4.565
REMARK INTER:                  -4.430
REMARK INTRA:                  -0.136
REMARK UNBOUND:                -0.140
REMARK SMILES O=C([O-])C=Cc1ccc(O)cc1
REMARK SMILES IDX 6 1 7 2 12 3 8 4 11 5 9 6 5 7 4 8 2 9 1 10 3 11 10 12
REMARK H PARENT 10 13
REMARK Flexibility Score: inf
ROOT
ATOM      1  C   UNL     1    -114.628  -3.734 -46.379  1.00  0.00    -0.025 A 
ATOM      2  C   UNL     1    -114.539  -4.303 -47.666  1.00  0.00     0.012 A 
ATOM      3  C   UNL     1    -113.496  -3.098 -45.839  1.00  0.00     0.012 A 
ATOM      4  C   UNL     1    -113.336  -4.254 -48.379  1.00  0.00     0.047 A 
ATOM      5  C   UNL     1    -112.296  -3.054 -46.555  1.00  0.00     0.047 A 
ATOM      6  C   UNL     1    -112.211  -3.632 -47.824  1.00  0.00     0.115 A 
ENDROOT
BRANCH   1   7
ATOM      7  C   UNL     1    -115.880  -3.747 -45.584  1.00  0.00     0.010 C 
ATOM      8  C   UNL     1    -116.709  -4.798 -45.515  1.00  0.00     0.025 C 
BRANCH   8   9
ATOM      9  C   UNL     1    -117.937  -4.770 -44.705  1.00  0.00     0.064 C 
ATOM     10  O   UNL     1    -117.910  -5.202 -43.523  1.00  0.00    -0.545 OA
ATOM     11  O   UNL     1    -119.128  -4.274 -45.223  1.00  0.00    -0.545 OA
ENDBRANCH   8   9
ENDBRANCH   1   7
BRANCH   6  12
ATOM     12  O   UNL     1    -111.011  -3.581 -48.527  1.00  0.00    -0.508 OA
ATOM     13  H   UNL     1    -110.952  -3.861 -49.498  1.00  0.00     0.293 HD
ENDBRANCH   6  12
TORSDOF 3
ENDMDL
MODEL 7
REMARK VINA RESULT:    -3.764      3.027      3.854
REMARK INTER + INTRA:          -4.454
REMARK INTER:                  -4.304
REMARK INTRA:                  -0.151
REMARK UNBOUND:                -0.140
REMARK SMILES O=C([O-])C=Cc1ccc(O)cc1
REMARK SMILES IDX 6 1 7 2 12 3 8 4 11 5 9 6 5 7 4 8 2 9 1 10 3 11 10 12
REMARK H PARENT 10 13
REMARK Flexibility Score: inf
ROOT
ATOM      1  C   UNL     1    -113.272  -5.229 -48.864  1.00  0.00    -0.025 A 
ATOM      2  C   UNL     1    -112.307  -5.403 -49.878  1.00  0.00     0.012 A 
ATOM      3  C   UNL     1    -114.518  -5.865 -48.997  1.00  0.00     0.012 A 
ATOM      4  C   UNL     1    -112.599  -6.177 -51.006  1.00  0.00     0.047 A 
ATOM      5  C   UNL     1    -114.805  -6.637 -50.127  1.00  0.00     0.047 A 
ATOM      6  C   UNL     1    -113.850  -6.793 -51.135  1.00  0.00     0.115 A 
ENDROOT
BRANCH   1   7
ATOM      7  C   UNL     1    -113.012  -4.428 -47.642  1.00  0.00     0.010 C 
ATOM      8  C   UNL     1    -113.969  -3.798 -46.945  1.00  0.00     0.025 C 
BRANCH   8   9
ATOM      9  C   UNL     1    -113.666  -3.024 -45.732  1.00  0.00     0.064 C 
ATOM     10  O   UNL     1    -112.485  -2.989 -45.297  1.00  0.00    -0.545 OA
ATOM     11  O   UNL     1    -114.664  -2.330 -45.056  1.00  0.00    -0.545 OA
ENDBRANCH   8   9
ENDBRANCH   1   7
BRANCH   6  12
ATOM     12  O   UNL     1    -114.148  -7.564 -52.255  1.00  0.00    -0.508 OA
ATOM     13  H   UNL     1    -114.398  -8.542 -52.174  1.00  0.00     0.293 HD
ENDBRANCH   6  12
TORSDOF 3
ENDMDL
MODEL 8
REMARK VINA RESULT:    -3.741      5.102      7.080
REMARK INTER + INTRA:          -4.429
REMARK INTER:                  -4.280
REMARK INTRA:                  -0.149
REMARK UNBOUND:                -0.140
REMARK SMILES O=C([O-])C=Cc1ccc(O)cc1
REMARK SMILES IDX 6 1 7 2 12 3 8 4 11 5 9 6 5 7 4 8 2 9 1 10 3 11 10 12
REMARK H PARENT 10 13
REMARK Flexibility Score: inf
ROOT
ATOM      1  C   UNL     1    -114.650  -7.586 -52.290  1.00  0.00    -0.025 A 
ATOM      2  C   UNL     1    -113.645  -6.725 -52.777  1.00  0.00     0.012 A 
ATOM      3  C   UNL     1    -114.741  -7.807 -50.905  1.00  0.00     0.012 A 
ATOM      4  C   UNL     1    -112.741  -6.124 -51.895  1.00  0.00     0.047 A 
ATOM      5  C   UNL     1    -113.835  -7.205 -50.028  1.00  0.00     0.047 A 
ATOM      6  C   UNL     1    -112.832  -6.364 -50.519  1.00  0.00     0.115 A 
ENDROOT
BRANCH   1   7
ATOM      7  C   UNL     1    -115.642  -8.241 -53.179  1.00  0.00     0.010 C 
ATOM      8  C   UNL     1    -116.178  -9.446 -52.938  1.00  0.00     0.025 C 
BRANCH   8   9
ATOM      9  C   UNL     1    -117.166 -10.053 -53.843  1.00  0.00     0.064 C 
ATOM     10  O   UNL     1    -117.975  -9.315 -54.463  1.00  0.00    -0.545 OA
ATOM     11  O   UNL     1    -117.223 -11.430 -54.024  1.00  0.00    -0.545 OA
ENDBRANCH   8   9
ENDBRANCH   1   7
BRANCH   6  12
ATOM     12  O   UNL     1    -111.936  -5.770 -49.634  1.00  0.00    -0.508 OA
ATOM     13  H   UNL     1    -111.149  -6.281 -49.254  1.00  0.00     0.293 HD
ENDBRANCH   6  12
TORSDOF 3
ENDMDL
MODEL 9
REMARK VINA RESULT:    -3.698      4.841      6.003
REMARK INTER + INTRA:          -4.379
REMARK INTER:                  -4.226
REMARK INTRA:                  -0.153
REMARK UNBOUND:                -0.140
REMARK SMILES O=C([O-])C=Cc1ccc(O)cc1
REMARK SMILES IDX 6 1 7 2 12 3 8 4 11 5 9 6 5 7 4 8 2 9 1 10 3 11 10 12
REMARK H PARENT 10 13
REMARK Flexibility Score: inf
ROOT
ATOM      1  C   UNL     1    -113.519  -6.154 -51.244  1.00  0.00    -0.025 A 
ATOM      2  C   UNL     1    -113.699  -6.459 -52.609  1.00  0.00     0.012 A 
ATOM      3  C   UNL     1    -114.074  -7.013 -50.279  1.00  0.00     0.012 A 
ATOM      4  C   UNL     1    -114.438  -7.583 -52.991  1.00  0.00     0.047 A 
ATOM      5  C   UNL     1    -114.813  -8.135 -50.666  1.00  0.00     0.047 A 
ATOM      6  C   UNL     1    -114.999  -8.422 -52.021  1.00  0.00     0.115 A 
ENDROOT
BRANCH   1   7
ATOM      7  C   UNL     1    -112.735  -4.982 -50.782  1.00  0.00     0.010 C 
ATOM      8  C   UNL     1    -112.446  -4.738 -49.496  1.00  0.00     0.025 C 
BRANCH   8   9
ATOM      9  C   UNL     1    -111.656  -3.567 -49.085  1.00  0.00     0.064 C 
ATOM     10  O   UNL     1    -111.585  -3.263 -47.866  1.00  0.00    -0.545 OA
ATOM     11  O   UNL     1    -110.987  -2.788 -50.023  1.00  0.00    -0.545 OA
ENDBRANCH   8   9
ENDBRANCH   1   7
BRANCH   6  12
ATOM     12  O   UNL     1    -115.737  -9.543 -52.393  1.00  0.00    -0.508 OA
ATOM     13  H   UNL     1    -115.297 -10.444 -52.537  1.00  0.00     0.293 HD
ENDBRANCH   6  12
TORSDOF 3
ENDMDL
