MODEL 1
REMARK VINA RESULT:    -3.401      0.000      0.000
REMARK INTER + INTRA:          -8.930
REMARK INTER:                  -6.384
REMARK INTRA:                  -2.546
REMARK UNBOUND:                -2.546
REMARK SMILES CCCCCCCCC=CCCCCCCCC(=O)[O-]
REMARK SMILES IDX 10 1 9 2 11 3 12 4 13 5 14 6 15 7 16 8 17 9 18 10 19 11
REMARK SMILES IDX 20 12 8 13 7 14 6 15 5 16 4 17 3 18 2 19 1 20
REMARK H PARENT
REMARK Flexibility Score: inf
ROOT
ATOM      1  C   UNL     1      24.504  -4.466 -26.706  1.00  0.00    -0.031 C 
ATOM      2  C   UNL     1      24.296  -5.755 -27.012  1.00  0.00    -0.031 C 
ENDROOT
BRANCH   1   3
ATOM      3  C   UNL     1      24.119  -3.360 -27.650  1.00  0.00     0.027 C 
BRANCH   3   4
ATOM      4  C   UNL     1      24.628  -3.640 -29.069  1.00  0.00     0.004 C 
BRANCH   4   5
ATOM      5  C   UNL     1      23.479  -4.052 -29.996  1.00  0.00     0.000 C 
BRANCH   5   6
ATOM      6  C   UNL     1      23.779  -5.394 -30.679  1.00  0.00     0.000 C 
BRANCH   6   7
ATOM      7  C   UNL     1      24.161  -5.241 -32.163  1.00  0.00     0.000 C 
BRANCH   7   8
ATOM      8  C   UNL     1      25.610  -4.790 -32.419  1.00  0.00     0.006 C 
BRANCH   8   9
ATOM      9  C   UNL     1      25.713  -3.670 -33.462  1.00  0.00     0.053 C 
BRANCH   9  10
ATOM     10  C   UNL     1      25.528  -4.221 -34.841  1.00  0.00     0.041 C 
ATOM     11  O   UNL     1      24.704  -3.688 -35.630  1.00  0.00    -0.550 OA
ATOM     12  O   UNL     1      26.299  -5.294 -35.271  1.00  0.00    -0.550 OA
ENDBRANCH   9  10
ENDBRANCH   8   9
ENDBRANCH   7   8
ENDBRANCH   6   7
ENDBRANCH   5   6
ENDBRANCH   4   5
ENDBRANCH   3   4
ENDBRANCH   1   3
BRANCH   2  13
ATOM     13  C   UNL     1      24.672  -6.860 -26.063  1.00  0.00     0.027 C 
BRANCH  13  14
ATOM     14  C   UNL     1      25.202  -8.084 -26.818  1.00  0.00     0.004 C 
BRANCH  14  15
ATOM     15  C   UNL     1      24.736  -8.073 -28.280  1.00  0.00     0.000 C 
BRANCH  15  16
ATOM     16  C   UNL     1      25.934  -8.072 -29.239  1.00  0.00     0.000 C 
BRANCH  16  17
ATOM     17  C   UNL     1      27.273  -7.803 -28.528  1.00  0.00    -0.000 C 
BRANCH  17  18
ATOM     18  C   UNL     1      28.079  -6.616 -29.085  1.00  0.00    -0.000 C 
BRANCH  18  19
ATOM     19  C   UNL     1      27.753  -5.289 -28.382  1.00  0.00    -0.003 C 
ATOM     20  C   UNL     1      28.148  -5.336 -26.909  1.00  0.00     0.004 C 
ENDBRANCH  18  19
ENDBRANCH  17  18
ENDBRANCH  16  17
ENDBRANCH  15  16
ENDBRANCH  14  15
ENDBRANCH  13  14
ENDBRANCH   2  13
TORSDOF 15
ENDMDL
MODEL 2
REMARK VINA RESULT:    -3.334      6.173     10.796
REMARK INTER + INTRA:          -8.803
REMARK INTER:                  -6.289
REMARK INTRA:                  -2.515
REMARK UNBOUND:                -2.546
REMARK SMILES CCCCCCCCC=CCCCCCCCC(=O)[O-]
REMARK SMILES IDX 10 1 9 2 11 3 12 4 13 5 14 6 15 7 16 8 17 9 18 10 19 11
REMARK SMILES IDX 20 12 8 13 7 14 6 15 5 16 4 17 3 18 2 19 1 20
REMARK H PARENT
REMARK Flexibility Score: inf
ROOT
ATOM      1  C   UNL     1      29.874  -1.251 -39.931  1.00  0.00    -0.031 C 
ATOM      2  C   UNL     1      29.858  -0.341 -38.945  1.00  0.00    -0.031 C 
ENDROOT
BRANCH   1   3
ATOM      3  C   UNL     1      28.871  -2.371 -39.986  1.00  0.00     0.027 C 
BRANCH   3   4
ATOM      4  C   UNL     1      29.567  -3.735 -40.061  1.00  0.00     0.004 C 
BRANCH   4   5
ATOM      5  C   UNL     1      28.987  -4.708 -39.028  1.00  0.00     0.000 C 
BRANCH   5   6
ATOM      6  C   UNL     1      28.069  -3.974 -38.039  1.00  0.00     0.000 C 
BRANCH   6   7
ATOM      7  C   UNL     1      27.426  -4.916 -37.005  1.00  0.00     0.000 C 
BRANCH   7   8
ATOM      8  C   UNL     1      26.365  -4.263 -36.100  1.00  0.00     0.006 C 
BRANCH   8   9
ATOM      9  C   UNL     1      26.056  -5.090 -34.846  1.00  0.00     0.053 C 
BRANCH   9  10
ATOM     10  C   UNL     1      26.514  -4.371 -33.618  1.00  0.00     0.041 C 
ATOM     11  O   UNL     1      27.743  -4.178 -33.418  1.00  0.00    -0.550 OA
ATOM     12  O   UNL     1      25.584  -3.872 -32.715  1.00  0.00    -0.550 OA
ENDBRANCH   9  10
ENDBRANCH   8   9
ENDBRANCH   7   8
ENDBRANCH   6   7
ENDBRANCH   5   6
ENDBRANCH   4   5
ENDBRANCH   3   4
ENDBRANCH   1   3
BRANCH   2  13
ATOM     13  C   UNL     1      30.856   0.783 -38.896  1.00  0.00     0.027 C 
BRANCH  13  14
ATOM     14  C   UNL     1      31.889   0.562 -37.784  1.00  0.00     0.004 C 
BRANCH  14  15
ATOM     15  C   UNL     1      33.165  -0.082 -38.340  1.00  0.00     0.000 C 
BRANCH  15  16
ATOM     16  C   UNL     1      33.496  -1.382 -37.593  1.00  0.00     0.000 C 
BRANCH  16  17
ATOM     17  C   UNL     1      33.034  -2.642 -38.347  1.00  0.00    -0.000 C 
BRANCH  17  18
ATOM     18  C   UNL     1      32.163  -3.609 -37.524  1.00  0.00    -0.000 C 
BRANCH  18  19
ATOM     19  C   UNL     1      31.218  -2.885 -36.554  1.00  0.00    -0.003 C 
ATOM     20  C   UNL     1      30.856  -3.775 -35.369  1.00  0.00     0.004 C 
ENDBRANCH  18  19
ENDBRANCH  17  18
ENDBRANCH  16  17
ENDBRANCH  15  16
ENDBRANCH  14  15
ENDBRANCH  13  14
ENDBRANCH   2  13
TORSDOF 15
ENDMDL
MODEL 3
REMARK VINA RESULT:    -3.319      2.147      3.682
REMARK INTER + INTRA:          -8.775
REMARK INTER:                  -6.867
REMARK INTRA:                  -1.908
REMARK UNBOUND:                -2.546
REMARK SMILES CCCCCCCCC=CCCCCCCCC(=O)[O-]
REMARK SMILES IDX 10 1 9 2 11 3 12 4 13 5 14 6 15 7 16 8 17 9 18 10 19 11
REMARK SMILES IDX 20 12 8 13 7 14 6 15 5 16 4 17 3 18 2 19 1 20
REMARK H PARENT
REMARK Flexibility Score: inf
ROOT
ATOM      1  C   UNL     1      24.454  -4.552 -30.937  1.00  0.00    -0.031 C 
ATOM      2  C   UNL     1      23.810  -5.042 -29.866  1.00  0.00    -0.031 C 
ENDROOT
BRANCH   1   3
ATOM      3  C   UNL     1      24.146  -5.031 -32.329  1.00  0.00     0.027 C 
BRANCH   3   4
ATOM      4  C   UNL     1      24.492  -3.962 -33.372  1.00  0.00     0.004 C 
BRANCH   4   5
ATOM      5  C   UNL     1      25.966  -3.552 -33.274  1.00  0.00     0.000 C 
BRANCH   5   6
ATOM      6  C   UNL     1      26.803  -4.251 -34.355  1.00  0.00     0.000 C 
BRANCH   6   7
ATOM      7  C   UNL     1      25.947  -4.838 -35.492  1.00  0.00     0.000 C 
BRANCH   7   8
ATOM      8  C   UNL     1      26.717  -5.167 -36.784  1.00  0.00     0.006 C 
BRANCH   8   9
ATOM      9  C   UNL     1      27.781  -4.118 -37.131  1.00  0.00     0.053 C 
BRANCH   9  10
ATOM     10  C   UNL     1      28.870  -4.729 -37.954  1.00  0.00     0.041 C 
ATOM     11  O   UNL     1      29.879  -4.047 -38.277  1.00  0.00    -0.550 OA
ATOM     12  O   UNL     1      28.794  -6.065 -38.328  1.00  0.00    -0.550 OA
ENDBRANCH   9  10
ENDBRANCH   8   9
ENDBRANCH   7   8
ENDBRANCH   6   7
ENDBRANCH   5   6
ENDBRANCH   4   5
ENDBRANCH   3   4
ENDBRANCH   1   3
BRANCH   2  13
ATOM     13  C   UNL     1      24.112  -4.555 -28.476  1.00  0.00     0.027 C 
BRANCH  13  14
ATOM     14  C   UNL     1      24.114  -5.713 -27.470  1.00  0.00     0.004 C 
BRANCH  14  15
ATOM     15  C   UNL     1      24.029  -7.065 -28.189  1.00  0.00     0.000 C 
BRANCH  15  16
ATOM     16  C   UNL     1      25.307  -7.886 -27.969  1.00  0.00     0.000 C 
BRANCH  16  17
ATOM     17  C   UNL     1      26.300  -7.777 -29.142  1.00  0.00    -0.000 C 
BRANCH  17  18
ATOM     18  C   UNL     1      27.657  -7.145 -28.787  1.00  0.00    -0.000 C 
BRANCH  18  19
ATOM     19  C   UNL     1      27.640  -5.610 -28.856  1.00  0.00    -0.003 C 
ATOM     20  C   UNL     1      27.942  -5.119 -30.269  1.00  0.00     0.004 C 
ENDBRANCH  18  19
ENDBRANCH  17  18
ENDBRANCH  16  17
ENDBRANCH  15  16
ENDBRANCH  14  15
ENDBRANCH  13  14
ENDBRANCH   2  13
TORSDOF 15
ENDMDL
MODEL 4
REMARK VINA RESULT:    -3.302      6.166      8.980
REMARK INTER + INTRA:          -8.744
REMARK INTER:                  -6.080
REMARK INTRA:                  -2.664
REMARK UNBOUND:                -2.546
REMARK SMILES CCCCCCCCC=CCCCCCCCC(=O)[O-]
REMARK SMILES IDX 10 1 9 2 11 3 12 4 13 5 14 6 15 7 16 8 17 9 18 10 19 11
REMARK SMILES IDX 20 12 8 13 7 14 6 15 5 16 4 17 3 18 2 19 1 20
REMARK H PARENT
REMARK Flexibility Score: inf
ROOT
ATOM      1  C   UNL     1      20.099   1.628 -33.676  1.00  0.00    -0.031 C 
ATOM      2  C   UNL     1      19.469   2.197 -32.637  1.00  0.00    -0.031 C 
ENDROOT
BRANCH   1   3
ATOM      3  C   UNL     1      20.343   0.145 -33.733  1.00  0.00     0.027 C 
BRANCH   3   4
ATOM      4  C   UNL     1      20.495  -0.447 -32.327  1.00  0.00     0.004 C 
BRANCH   4   5
ATOM      5  C   UNL     1      21.680  -1.418 -32.263  1.00  0.00     0.000 C 
BRANCH   5   6
ATOM      6  C   UNL     1      22.895  -0.852 -33.014  1.00  0.00     0.000 C 
BRANCH   6   7
ATOM      7  C   UNL     1      23.371  -1.763 -34.159  1.00  0.00     0.000 C 
BRANCH   7   8
ATOM      8  C   UNL     1      24.424  -2.813 -33.762  1.00  0.00     0.006 C 
BRANCH   8   9
ATOM      9  C   UNL     1      23.806  -4.155 -33.350  1.00  0.00     0.053 C 
BRANCH   9  10
ATOM     10  C   UNL     1      24.122  -4.461 -31.921  1.00  0.00     0.041 C 
ATOM     11  O   UNL     1      24.435  -3.533 -31.129  1.00  0.00    -0.550 OA
ATOM     12  O   UNL     1      24.026  -5.764 -31.450  1.00  0.00    -0.550 OA
ENDBRANCH   9  10
ENDBRANCH   8   9
ENDBRANCH   7   8
ENDBRANCH   6   7
ENDBRANCH   5   6
ENDBRANCH   4   5
ENDBRANCH   3   4
ENDBRANCH   1   3
BRANCH   2  13
ATOM     13  C   UNL     1      19.217   3.679 -32.586  1.00  0.00     0.027 C 
BRANCH  13  14
ATOM     14  C   UNL     1      19.605   4.261 -31.221  1.00  0.00     0.004 C 
BRANCH  14  15
ATOM     15  C   UNL     1      19.724   3.155 -30.165  1.00  0.00     0.000 C 
BRANCH  15  16
ATOM     16  C   UNL     1      21.112   3.166 -29.510  1.00  0.00     0.000 C 
BRANCH  16  17
ATOM     17  C   UNL     1      21.921   1.887 -29.796  1.00  0.00    -0.000 C 
BRANCH  17  18
ATOM     18  C   UNL     1      22.973   2.020 -30.912  1.00  0.00    -0.000 C 
BRANCH  18  19
ATOM     19  C   UNL     1      23.215   3.476 -31.336  1.00  0.00    -0.003 C 
ATOM     20  C   UNL     1      23.045   3.647 -32.842  1.00  0.00     0.004 C 
ENDBRANCH  18  19
ENDBRANCH  17  18
ENDBRANCH  16  17
ENDBRANCH  15  16
ENDBRANCH  14  15
ENDBRANCH  13  14
ENDBRANCH   2  13
TORSDOF 15
ENDMDL
MODEL 5
REMARK VINA RESULT:    -3.290      6.237     10.046
REMARK INTER + INTRA:          -8.721
REMARK INTER:                  -5.971
REMARK INTRA:                  -2.750
REMARK UNBOUND:                -2.546
REMARK SMILES CCCCCCCCC=CCCCCCCCC(=O)[O-]
REMARK SMILES IDX 10 1 9 2 11 3 12 4 13 5 14 6 15 7 16 8 17 9 18 10 19 11
REMARK SMILES IDX 20 12 8 13 7 14 6 15 5 16 4 17 3 18 2 19 1 20
REMARK H PARENT
REMARK Flexibility Score: inf
ROOT
ATOM      1  C   UNL     1      30.150  -1.007 -35.183  1.00  0.00    -0.031 C 
ATOM      2  C   UNL     1      31.473  -1.225 -35.196  1.00  0.00    -0.031 C 
ENDROOT
BRANCH   1   3
ATOM      3  C   UNL     1      29.163  -2.142 -35.218  1.00  0.00     0.027 C 
BRANCH   3   4
ATOM      4  C   UNL     1      29.771  -3.384 -35.880  1.00  0.00     0.004 C 
BRANCH   4   5
ATOM      5  C   UNL     1      29.026  -3.740 -37.173  1.00  0.00     0.000 C 
BRANCH   5   6
ATOM      6  C   UNL     1      27.510  -3.563 -36.999  1.00  0.00     0.000 C 
BRANCH   6   7
ATOM      7  C   UNL     1      26.790  -4.874 -36.633  1.00  0.00     0.000 C 
BRANCH   7   8
ATOM      8  C   UNL     1      26.230  -4.931 -35.201  1.00  0.00     0.006 C 
BRANCH   8   9
ATOM      9  C   UNL     1      25.653  -3.590 -34.729  1.00  0.00     0.053 C 
BRANCH   9  10
ATOM     10  C   UNL     1      24.159  -3.619 -34.770  1.00  0.00     0.041 C 
ATOM     11  O   UNL     1      23.549  -3.328 -35.833  1.00  0.00    -0.550 OA
ATOM     12  O   UNL     1      23.439  -4.013 -33.649  1.00  0.00    -0.550 OA
ENDBRANCH   9  10
ENDBRANCH   8   9
ENDBRANCH   7   8
ENDBRANCH   6   7
ENDBRANCH   5   6
ENDBRANCH   4   5
ENDBRANCH   3   4
ENDBRANCH   1   3
BRANCH   2  13
ATOM     13  C   UNL     1      32.458  -0.090 -35.151  1.00  0.00     0.027 C 
BRANCH  13  14
ATOM     14  C   UNL     1      33.521  -0.233 -36.248  1.00  0.00     0.004 C 
BRANCH  14  15
ATOM     15  C   UNL     1      33.312  -1.523 -37.051  1.00  0.00     0.000 C 
BRANCH  15  16
ATOM     16  C   UNL     1      33.033  -1.212 -38.528  1.00  0.00     0.000 C 
BRANCH  16  17
ATOM     17  C   UNL     1      31.661  -1.727 -39.001  1.00  0.00    -0.000 C 
BRANCH  17  18
ATOM     18  C   UNL     1      30.495  -0.741 -38.805  1.00  0.00    -0.000 C 
BRANCH  18  19
ATOM     19  C   UNL     1      30.935   0.729 -38.882  1.00  0.00    -0.003 C 
ATOM     20  C   UNL     1      30.239   1.569 -37.815  1.00  0.00     0.004 C 
ENDBRANCH  18  19
ENDBRANCH  17  18
ENDBRANCH  16  17
ENDBRANCH  15  16
ENDBRANCH  14  15
ENDBRANCH  13  14
ENDBRANCH   2  13
TORSDOF 15
ENDMDL
MODEL 6
REMARK VINA RESULT:    -3.252      2.485      4.514
REMARK INTER + INTRA:          -8.650
REMARK INTER:                  -6.471
REMARK INTRA:                  -2.179
REMARK UNBOUND:                -2.546
REMARK SMILES CCCCCCCCC=CCCCCCCCC(=O)[O-]
REMARK SMILES IDX 10 1 9 2 11 3 12 4 13 5 14 6 15 7 16 8 17 9 18 10 19 11
REMARK SMILES IDX 20 12 8 13 7 14 6 15 5 16 4 17 3 18 2 19 1 20
REMARK H PARENT
REMARK Flexibility Score: inf
ROOT
ATOM      1  C   UNL     1      26.113  -4.232 -32.140  1.00  0.00    -0.031 C 
ATOM      2  C   UNL     1      25.088  -5.041 -31.833  1.00  0.00    -0.031 C 
ENDROOT
BRANCH   1   3
ATOM      3  C   UNL     1      26.865  -4.369 -33.436  1.00  0.00     0.027 C 
BRANCH   3   4
ATOM      4  C   UNL     1      26.005  -5.052 -34.506  1.00  0.00     0.004 C 
BRANCH   4   5
ATOM      5  C   UNL     1      25.811  -4.141 -35.723  1.00  0.00     0.000 C 
BRANCH   5   6
ATOM      6  C   UNL     1      24.557  -3.269 -35.561  1.00  0.00     0.000 C 
BRANCH   6   7
ATOM      7  C   UNL     1      24.884  -1.810 -35.194  1.00  0.00     0.000 C 
BRANCH   7   8
ATOM      8  C   UNL     1      24.412  -1.369 -33.797  1.00  0.00     0.006 C 
BRANCH   8   9
ATOM      9  C   UNL     1      23.219  -2.185 -33.282  1.00  0.00     0.053 C 
BRANCH   9  10
ATOM     10  C   UNL     1      22.528  -1.458 -32.172  1.00  0.00     0.041 C 
ATOM     11  O   UNL     1      23.198  -0.801 -31.332  1.00  0.00    -0.550 OA
ATOM     12  O   UNL     1      21.141  -1.469 -32.090  1.00  0.00    -0.550 OA
ENDBRANCH   9  10
ENDBRANCH   8   9
ENDBRANCH   7   8
ENDBRANCH   6   7
ENDBRANCH   5   6
ENDBRANCH   4   5
ENDBRANCH   3   4
ENDBRANCH   1   3
BRANCH   2  13
ATOM     13  C   UNL     1      24.332  -4.897 -30.541  1.00  0.00     0.027 C 
BRANCH  13  14
ATOM     14  C   UNL     1      23.775  -6.246 -30.070  1.00  0.00     0.004 C 
BRANCH  14  15
ATOM     15  C   UNL     1      24.010  -6.443 -28.567  1.00  0.00     0.000 C 
BRANCH  15  16
ATOM     16  C   UNL     1      24.781  -7.743 -28.296  1.00  0.00     0.000 C 
BRANCH  16  17
ATOM     17  C   UNL     1      25.944  -7.968 -29.281  1.00  0.00    -0.000 C 
BRANCH  17  18
ATOM     18  C   UNL     1      27.327  -7.535 -28.762  1.00  0.00    -0.000 C 
BRANCH  18  19
ATOM     19  C   UNL     1      27.810  -6.212 -29.376  1.00  0.00    -0.003 C 
ATOM     20  C   UNL     1      29.330  -6.096 -29.309  1.00  0.00     0.004 C 
ENDBRANCH  18  19
ENDBRANCH  17  18
ENDBRANCH  16  17
ENDBRANCH  15  16
ENDBRANCH  14  15
ENDBRANCH  13  14
ENDBRANCH   2  13
TORSDOF 15
ENDMDL
MODEL 7
REMARK VINA RESULT:    -3.241     14.622     16.490
REMARK INTER + INTRA:          -8.629
REMARK INTER:                  -6.635
REMARK INTRA:                  -1.994
REMARK UNBOUND:                -2.546
REMARK SMILES CCCCCCCCC=CCCCCCCCC(=O)[O-]
REMARK SMILES IDX 10 1 9 2 11 3 12 4 13 5 14 6 15 7 16 8 17 9 18 10 19 11
REMARK SMILES IDX 20 12 8 13 7 14 6 15 5 16 4 17 3 18 2 19 1 20
REMARK H PARENT
REMARK Flexibility Score: inf
ROOT
ATOM      1  C   UNL     1      33.737   7.735 -31.006  1.00  0.00    -0.031 C 
ATOM      2  C   UNL     1      34.954   7.598 -31.554  1.00  0.00    -0.031 C 
ENDROOT
BRANCH   1   3
ATOM      3  C   UNL     1      33.136   9.090 -30.750  1.00  0.00     0.027 C 
BRANCH   3   4
ATOM      4  C   UNL     1      32.833   9.289 -29.261  1.00  0.00     0.004 C 
BRANCH   4   5
ATOM      5  C   UNL     1      32.372   7.978 -28.612  1.00  0.00     0.000 C 
BRANCH   5   6
ATOM      6  C   UNL     1      32.866   7.881 -27.160  1.00  0.00     0.000 C 
BRANCH   6   7
ATOM      7  C   UNL     1      32.095   8.804 -26.200  1.00  0.00     0.000 C 
BRANCH   7   8
ATOM      8  C   UNL     1      32.729   8.971 -24.807  1.00  0.00     0.006 C 
BRANCH   8   9
ATOM      9  C   UNL     1      33.897   9.965 -24.796  1.00  0.00     0.053 C 
BRANCH   9  10
ATOM     10  C   UNL     1      33.449  11.305 -25.287  1.00  0.00     0.041 C 
ATOM     11  O   UNL     1      32.722  12.034 -24.562  1.00  0.00    -0.550 OA
ATOM     12  O   UNL     1      33.872  11.770 -26.526  1.00  0.00    -0.550 OA
ENDBRANCH   9  10
ENDBRANCH   8   9
ENDBRANCH   7   8
ENDBRANCH   6   7
ENDBRANCH   5   6
ENDBRANCH   4   5
ENDBRANCH   3   4
ENDBRANCH   1   3
BRANCH   2  13
ATOM     13  C   UNL     1      35.550   6.242 -31.818  1.00  0.00     0.027 C 
BRANCH  13  14
ATOM     14  C   UNL     1      35.080   5.683 -33.167  1.00  0.00     0.004 C 
BRANCH  14  15
ATOM     15  C   UNL     1      34.498   4.273 -33.005  1.00  0.00     0.000 C 
BRANCH  15  16
ATOM     16  C   UNL     1      33.278   4.286 -32.074  1.00  0.00     0.000 C 
BRANCH  16  17
ATOM     17  C   UNL     1      33.392   3.271 -30.921  1.00  0.00    -0.000 C 
BRANCH  17  18
ATOM     18  C   UNL     1      33.059   3.832 -29.526  1.00  0.00    -0.000 C 
BRANCH  18  19
ATOM     19  C   UNL     1      34.202   4.666 -28.929  1.00  0.00    -0.003 C 
ATOM     20  C   UNL     1      35.520   3.898 -28.962  1.00  0.00     0.004 C 
ENDBRANCH  18  19
ENDBRANCH  17  18
ENDBRANCH  16  17
ENDBRANCH  15  16
ENDBRANCH  14  15
ENDBRANCH  13  14
ENDBRANCH   2  13
TORSDOF 15
ENDMDL
MODEL 8
REMARK VINA RESULT:    -3.223      1.822      2.643
REMARK INTER + INTRA:          -8.595
REMARK INTER:                  -5.907
REMARK INTRA:                  -2.688
REMARK UNBOUND:                -2.546
REMARK SMILES CCCCCCCCC=CCCCCCCCC(=O)[O-]
REMARK SMILES IDX 10 1 9 2 11 3 12 4 13 5 14 6 15 7 16 8 17 9 18 10 19 11
REMARK SMILES IDX 20 12 8 13 7 14 6 15 5 16 4 17 3 18 2 19 1 20
REMARK H PARENT
REMARK Flexibility Score: inf
ROOT
ATOM      1  C   UNL     1      26.096  -3.489 -28.765  1.00  0.00    -0.031 C 
ATOM      2  C   UNL     1      25.279  -4.169 -27.947  1.00  0.00    -0.031 C 
ENDROOT
BRANCH   1   3
ATOM      3  C   UNL     1      25.673  -3.095 -30.154  1.00  0.00     0.027 C 
BRANCH   3   4
ATOM      4  C   UNL     1      25.933  -4.227 -31.154  1.00  0.00     0.004 C 
BRANCH   4   5
ATOM      5  C   UNL     1      24.664  -5.052 -31.397  1.00  0.00     0.000 C 
BRANCH   5   6
ATOM      6  C   UNL     1      24.470  -5.332 -32.895  1.00  0.00     0.000 C 
BRANCH   6   7
ATOM      7  C   UNL     1      25.486  -4.591 -33.782  1.00  0.00     0.000 C 
BRANCH   7   8
ATOM      8  C   UNL     1      24.886  -3.501 -34.688  1.00  0.00     0.006 C 
BRANCH   8   9
ATOM      9  C   UNL     1      24.867  -2.116 -34.029  1.00  0.00     0.053 C 
BRANCH   9  10
ATOM     10  C   UNL     1      23.470  -1.727 -33.665  1.00  0.00     0.041 C 
ATOM     11  O   UNL     1      22.777  -1.039 -34.461  1.00  0.00    -0.550 OA
ATOM     12  O   UNL     1      22.914  -2.163 -32.469  1.00  0.00    -0.550 OA
ENDBRANCH   9  10
ENDBRANCH   8   9
ENDBRANCH   7   8
ENDBRANCH   6   7
ENDBRANCH   5   6
ENDBRANCH   4   5
ENDBRANCH   3   4
ENDBRANCH   1   3
BRANCH   2  13
ATOM     13  C   UNL     1      25.700  -4.553 -26.555  1.00  0.00     0.027 C 
BRANCH  13  14
ATOM     14  C   UNL     1      25.033  -5.862 -26.115  1.00  0.00     0.004 C 
BRANCH  14  15
ATOM     15  C   UNL     1      24.123  -6.414 -27.219  1.00  0.00     0.000 C 
BRANCH  15  16
ATOM     16  C   UNL     1      24.597  -7.799 -27.682  1.00  0.00     0.000 C 
BRANCH  16  17
ATOM     17  C   UNL     1      25.311  -7.765 -29.046  1.00  0.00    -0.000 C 
BRANCH  17  18
ATOM     18  C   UNL     1      26.819  -8.071 -28.998  1.00  0.00    -0.000 C 
BRANCH  18  19
ATOM     19  C   UNL     1      27.689  -6.818 -29.182  1.00  0.00    -0.003 C 
ATOM     20  C   UNL     1      28.523  -6.539 -27.935  1.00  0.00     0.004 C 
ENDBRANCH  18  19
ENDBRANCH  17  18
ENDBRANCH  16  17
ENDBRANCH  15  16
ENDBRANCH  14  15
ENDBRANCH  13  14
ENDBRANCH   2  13
TORSDOF 15
ENDMDL
MODEL 9
REMARK VINA RESULT:    -3.172      9.662     12.053
REMARK INTER + INTRA:          -8.500
REMARK INTER:                  -5.942
REMARK INTRA:                  -2.557
REMARK UNBOUND:                -2.546
REMARK SMILES CCCCCCCCC=CCCCCCCCC(=O)[O-]
REMARK SMILES IDX 10 1 9 2 11 3 12 4 13 5 14 6 15 7 16 8 17 9 18 10 19 11
REMARK SMILES IDX 20 12 8 13 7 14 6 15 5 16 4 17 3 18 2 19 1 20
REMARK H PARENT
REMARK Flexibility Score: inf
ROOT
ATOM      1  C   UNL     1      32.747  -0.939 -37.820  1.00  0.00    -0.031 C 
ATOM      2  C   UNL     1      33.200  -1.882 -38.659  1.00  0.00    -0.031 C 
ENDROOT
BRANCH   1   3
ATOM      3  C   UNL     1      32.470   0.464 -38.286  1.00  0.00     0.027 C 
BRANCH   3   4
ATOM      4  C   UNL     1      31.028   0.878 -37.971  1.00  0.00     0.004 C 
BRANCH   4   5
ATOM      5  C   UNL     1      30.672   0.570 -36.513  1.00  0.00     0.000 C 
BRANCH   5   6
ATOM      6  C   UNL     1      31.383   1.539 -35.557  1.00  0.00     0.000 C 
BRANCH   6   7
ATOM      7  C   UNL     1      32.266   0.820 -34.521  1.00  0.00     0.000 C 
BRANCH   7   8
ATOM      8  C   UNL     1      33.568   1.555 -34.154  1.00  0.00     0.006 C 
BRANCH   8   9
ATOM      9  C   UNL     1      33.444   2.393 -32.875  1.00  0.00     0.053 C 
BRANCH   9  10
ATOM     10  C   UNL     1      33.447   3.853 -33.204  1.00  0.00     0.041 C 
ATOM     11  O   UNL     1      32.362   4.489 -33.269  1.00  0.00    -0.550 OA
ATOM     12  O   UNL     1      34.650   4.521 -33.394  1.00  0.00    -0.550 OA
ENDBRANCH   9  10
ENDBRANCH   8   9
ENDBRANCH   7   8
ENDBRANCH   6   7
ENDBRANCH   5   6
ENDBRANCH   4   5
ENDBRANCH   3   4
ENDBRANCH   1   3
BRANCH   2  13
ATOM     13  C   UNL     1      33.467  -3.287 -38.194  1.00  0.00     0.027 C 
BRANCH  13  14
ATOM     14  C   UNL     1      33.291  -3.412 -36.675  1.00  0.00     0.004 C 
BRANCH  14  15
ATOM     15  C   UNL     1      32.437  -4.635 -36.320  1.00  0.00     0.000 C 
BRANCH  15  16
ATOM     16  C   UNL     1      31.133  -4.650 -37.130  1.00  0.00     0.000 C 
BRANCH  16  17
ATOM     17  C   UNL     1      30.071  -3.681 -36.576  1.00  0.00    -0.000 C 
BRANCH  17  18
ATOM     18  C   UNL     1      29.432  -2.750 -37.622  1.00  0.00    -0.000 C 
BRANCH  18  19
ATOM     19  C   UNL     1      29.723  -3.185 -39.067  1.00  0.00    -0.003 C 
ATOM     20  C   UNL     1      29.757  -1.984 -40.007  1.00  0.00     0.004 C 
ENDBRANCH  18  19
ENDBRANCH  17  18
ENDBRANCH  16  17
ENDBRANCH  15  16
ENDBRANCH  14  15
ENDBRANCH  13  14
ENDBRANCH   2  13
TORSDOF 15
ENDMDL
