MODEL 1
REMARK VINA RESULT:    -6.407      0.000      0.000
REMARK INTER + INTRA:         -11.135
REMARK INTER:                  -9.403
REMARK INTRA:                  -1.732
REMARK UNBOUND:                -1.732
REMARK SMILES O=c1c(O[C@@H]2O[C@H](CO)[C@H](O)[C@H](O)[C@@H]2O)c(-c2ccc(O)c(O)c2)oc2cc(O)cc(O)c12
REMARK SMILES IDX 4 1 3 2 16 3 25 4 2 5 26 6 1 7 33 8 27 9 31 10 28 11 30 12
REMARK SMILES IDX 17 13 18 14 19 15 20 16 24 17 22 18 21 19 23 21 32 23 29 25
REMARK SMILES IDX 5 27 14 28 6 29 12 30 7 31 10 32 15 33 13 35 8 37 9 38 11 40
REMARK H PARENT 21 20 23 22 32 24 29 26 15 34 13 36 9 39 11 41
REMARK Flexibility Score: inf
ROOT
ATOM      1  O   UNL     1      -0.394  46.168  82.418  1.00  0.00    -0.454 OA
ENDROOT
BRANCH   1   2
ATOM      2  C   UNL     1       0.241  44.966  82.065  1.00  0.00     0.214 A 
ATOM      3  C   UNL     1      -0.128  44.233  80.917  1.00  0.00     0.180 A 
ATOM      4  O   UNL     1       0.438  43.054  80.673  1.00  0.00    -0.452 OA
ATOM      5  C   UNL     1       1.268  44.472  82.877  1.00  0.00     0.239 A 
ATOM      6  C   UNL     1       1.388  42.531  81.439  1.00  0.00     0.146 A 
ATOM      7  O   UNL     1       1.636  45.140  83.879  1.00  0.00    -0.285 OA
ATOM      8  C   UNL     1       1.862  43.228  82.575  1.00  0.00     0.111 A 
ATOM      9  C   UNL     1       1.927  41.286  81.102  1.00  0.00     0.094 A 
ATOM     10  C   UNL     1       2.893  42.654  83.357  1.00  0.00     0.134 A 
ATOM     11  C   UNL     1       2.942  40.721  81.881  1.00  0.00     0.123 A 
ATOM     12  C   UNL     1       3.422  41.404  83.000  1.00  0.00     0.093 A 
BRANCH   3  13
ATOM     13  C   UNL     1      -1.112  44.743  79.941  1.00  0.00     0.025 A 
ATOM     14  C   UNL     1      -2.482  44.485  80.103  1.00  0.00     0.016 A 
ATOM     15  C   UNL     1      -3.406  44.972  79.176  1.00  0.00     0.051 A 
ATOM     16  C   UNL     1      -2.973  45.738  78.085  1.00  0.00     0.157 A 
ATOM     17  C   UNL     1      -0.685  45.533  78.864  1.00  0.00     0.062 A 
ATOM     18  C   UNL     1      -1.607  46.024  77.933  1.00  0.00     0.158 A 
BRANCH  16  19
ATOM     19  O   UNL     1      -3.896  46.220  77.157  1.00  0.00    -0.504 OA
ATOM     20  H   UNL     1      -3.925  47.198  76.896  1.00  0.00     0.293 HD
ENDBRANCH  16  19
BRANCH  18  21
ATOM     21  O   UNL     1      -1.146  46.794  76.866  1.00  0.00    -0.504 OA
ATOM     22  H   UNL     1      -1.422  47.760  76.740  1.00  0.00     0.293 HD
ENDBRANCH  18  21
ENDBRANCH   3  13
BRANCH  10  23
ATOM     23  O   UNL     1       3.396  43.312  84.479  1.00  0.00    -0.507 OA
ATOM     24  H   UNL     1       3.576  44.308  84.477  1.00  0.00     0.293 HD
ENDBRANCH  10  23
BRANCH  11  25
ATOM     25  O   UNL     1       3.483  39.481  81.549  1.00  0.00    -0.508 OA
ATOM     26  H   UNL     1       4.033  39.350  80.707  1.00  0.00     0.293 HD
ENDBRANCH  11  25
ENDBRANCH   1   2
BRANCH   1  27
ATOM     27  C   UNL     1      -1.436  46.249  83.399  1.00  0.00     0.339 C 
ATOM     28  C   UNL     1      -1.096  47.247  84.525  1.00  0.00     0.214 C 
ATOM     29  O   UNL     1      -2.692  46.510  82.788  1.00  0.00    -0.332 OA
ATOM     30  C   UNL     1      -1.240  48.721  84.077  1.00  0.00     0.180 C 
ATOM     31  C   UNL     1      -2.827  47.827  82.266  1.00  0.00     0.179 C 
ATOM     32  C   UNL     1      -2.566  48.921  83.333  1.00  0.00     0.177 C 
BRANCH  28  33
ATOM     33  O   UNL     1       0.195  46.997  85.014  1.00  0.00    -0.384 OA
ATOM     34  H   UNL     1       0.358  47.653  85.741  1.00  0.00     0.211 HD
ENDBRANCH  28  33
BRANCH  30  35
ATOM     35  O   UNL     1      -0.153  49.210  83.324  1.00  0.00    -0.387 OA
ATOM     36  H   UNL     1       0.669  48.719  83.565  1.00  0.00     0.211 HD
ENDBRANCH  30  35
BRANCH  31  37
ATOM     37  C   UNL     1      -2.073  48.011  80.930  1.00  0.00     0.191 C 
BRANCH  37  38
ATOM     38  O   UNL     1      -2.883  48.686  80.007  1.00  0.00    -0.394 OA
ATOM     39  H   UNL     1      -2.286  49.315  79.526  1.00  0.00     0.210 HD
ENDBRANCH  37  38
ENDBRANCH  31  37
BRANCH  32  40
ATOM     40  O   UNL     1      -2.609  50.208  82.771  1.00  0.00    -0.387 OA
ATOM     41  H   UNL     1      -3.406  50.662  83.151  1.00  0.00     0.211 HD
ENDBRANCH  32  40
ENDBRANCH   1  27
TORSDOF 12
ENDMDL
MODEL 2
REMARK VINA RESULT:    -6.287      1.523      4.703
REMARK INTER + INTRA:         -10.959
REMARK INTER:                 -10.024
REMARK INTRA:                  -0.935
REMARK UNBOUND:                -1.732
REMARK SMILES O=c1c(O[C@@H]2O[C@H](CO)[C@H](O)[C@H](O)[C@@H]2O)c(-c2ccc(O)c(O)c2)oc2cc(O)cc(O)c12
REMARK SMILES IDX 4 1 3 2 16 3 25 4 2 5 26 6 1 7 33 8 27 9 31 10 28 11 30 12
REMARK SMILES IDX 17 13 18 14 19 15 20 16 24 17 22 18 21 19 23 21 32 23 29 25
REMARK SMILES IDX 5 27 14 28 6 29 12 30 7 31 10 32 15 33 13 35 8 37 9 38 11 40
REMARK H PARENT 21 20 23 22 32 24 29 26 15 34 13 36 9 39 11 41
REMARK Flexibility Score: inf
ROOT
ATOM      1  O   UNL     1      -0.926  45.962  80.801  1.00  0.00    -0.454 OA
ENDROOT
BRANCH   1   2
ATOM      2  C   UNL     1      -0.014  45.247  81.594  1.00  0.00     0.214 A 
ATOM      3  C   UNL     1       0.537  45.787  82.776  1.00  0.00     0.180 A 
ATOM      4  O   UNL     1       1.467  45.110  83.443  1.00  0.00    -0.452 OA
ATOM      5  C   UNL     1       0.369  43.959  81.201  1.00  0.00     0.239 A 
ATOM      6  C   UNL     1       1.887  43.903  83.083  1.00  0.00     0.146 A 
ATOM      7  O   UNL     1      -0.150  43.449  80.173  1.00  0.00    -0.285 OA
ATOM      8  C   UNL     1       1.342  43.260  81.947  1.00  0.00     0.111 A 
ATOM      9  C   UNL     1       2.867  43.265  83.850  1.00  0.00     0.094 A 
ATOM     10  C   UNL     1       1.794  41.963  81.605  1.00  0.00     0.134 A 
ATOM     11  C   UNL     1       3.314  41.986  83.504  1.00  0.00     0.123 A 
ATOM     12  C   UNL     1       2.777  41.340  82.388  1.00  0.00     0.093 A 
BRANCH   3  13
ATOM     13  C   UNL     1       0.095  47.084  83.328  1.00  0.00     0.025 A 
ATOM     14  C   UNL     1       0.158  48.251  82.553  1.00  0.00     0.016 A 
ATOM     15  C   UNL     1      -0.263  49.473  83.083  1.00  0.00     0.051 A 
ATOM     16  C   UNL     1      -0.769  49.539  84.389  1.00  0.00     0.157 A 
ATOM     17  C   UNL     1      -0.436  47.147  84.624  1.00  0.00     0.062 A 
ATOM     18  C   UNL     1      -0.861  48.368  85.159  1.00  0.00     0.158 A 
BRANCH  16  19
ATOM     19  O   UNL     1      -1.184  50.760  84.919  1.00  0.00    -0.504 OA
ATOM     20  H   UNL     1      -1.525  51.508  84.326  1.00  0.00     0.293 HD
ENDBRANCH  16  19
BRANCH  18  21
ATOM     21  O   UNL     1      -1.370  48.398  86.457  1.00  0.00    -0.504 OA
ATOM     22  H   UNL     1      -1.351  49.238  87.024  1.00  0.00     0.293 HD
ENDBRANCH  18  21
ENDBRANCH   3  13
BRANCH  10  23
ATOM     23  O   UNL     1       1.276  41.290  80.498  1.00  0.00    -0.507 OA
ATOM     24  H   UNL     1       0.649  41.742  79.844  1.00  0.00     0.293 HD
ENDBRANCH  10  23
BRANCH  11  25
ATOM     25  O   UNL     1       4.289  41.346  84.264  1.00  0.00    -0.508 OA
ATOM     26  H   UNL     1       4.081  40.962  85.179  1.00  0.00     0.293 HD
ENDBRANCH  11  25
ENDBRANCH   1   2
BRANCH   1  27
ATOM     27  C   UNL     1      -2.249  45.493  80.507  1.00  0.00     0.339 C 
ATOM     28  C   UNL     1      -3.335  46.458  81.028  1.00  0.00     0.214 C 
ATOM     29  O   UNL     1      -2.389  45.195  79.124  1.00  0.00    -0.332 OA
ATOM     30  C   UNL     1      -3.464  47.732  80.158  1.00  0.00     0.180 C 
ATOM     31  C   UNL     1      -2.405  46.339  78.278  1.00  0.00     0.179 C 
ATOM     32  C   UNL     1      -3.506  47.357  78.672  1.00  0.00     0.177 C 
BRANCH  28  33
ATOM     33  O   UNL     1      -3.080  46.790  82.367  1.00  0.00    -0.384 OA
ATOM     34  H   UNL     1      -2.747  47.725  82.372  1.00  0.00     0.211 HD
ENDBRANCH  28  33
BRANCH  30  35
ATOM     35  O   UNL     1      -2.482  48.711  80.411  1.00  0.00    -0.387 OA
ATOM     36  H   UNL     1      -1.708  48.572  79.815  1.00  0.00     0.211 HD
ENDBRANCH  30  35
BRANCH  31  37
ATOM     37  C   UNL     1      -0.996  46.935  78.067  1.00  0.00     0.191 C 
BRANCH  37  38
ATOM     38  O   UNL     1      -0.893  47.489  76.784  1.00  0.00    -0.394 OA
ATOM     39  H   UNL     1      -0.266  48.254  76.864  1.00  0.00     0.210 HD
ENDBRANCH  37  38
ENDBRANCH  31  37
BRANCH  32  40
ATOM     40  O   UNL     1      -3.438  48.519  77.884  1.00  0.00    -0.387 OA
ATOM     41  H   UNL     1      -4.373  48.805  77.713  1.00  0.00     0.211 HD
ENDBRANCH  32  40
ENDBRANCH   1  27
TORSDOF 12
ENDMDL
MODEL 3
REMARK VINA RESULT:    -6.247      1.641      6.260
REMARK INTER + INTRA:         -10.901
REMARK INTER:                  -9.087
REMARK INTRA:                  -1.814
REMARK UNBOUND:                -1.732
REMARK SMILES O=c1c(O[C@@H]2O[C@H](CO)[C@H](O)[C@H](O)[C@@H]2O)c(-c2ccc(O)c(O)c2)oc2cc(O)cc(O)c12
REMARK SMILES IDX 4 1 3 2 16 3 25 4 2 5 26 6 1 7 33 8 27 9 31 10 28 11 30 12
REMARK SMILES IDX 17 13 18 14 19 15 20 16 24 17 22 18 21 19 23 21 32 23 29 25
REMARK SMILES IDX 5 27 14 28 6 29 12 30 7 31 10 32 15 33 13 35 8 37 9 38 11 40
REMARK H PARENT 21 20 23 22 32 24 29 26 15 34 13 36 9 39 11 41
REMARK Flexibility Score: inf
ROOT
ATOM      1  O   UNL     1      -0.650  45.158  81.883  1.00  0.00    -0.454 OA
ENDROOT
BRANCH   1   2
ATOM      2  C   UNL     1      -1.218  46.406  82.185  1.00  0.00     0.214 A 
ATOM      3  C   UNL     1      -1.814  47.218  81.196  1.00  0.00     0.180 A 
ATOM      4  O   UNL     1      -2.256  48.432  81.512  1.00  0.00    -0.452 OA
ATOM      5  C   UNL     1      -1.191  46.868  83.506  1.00  0.00     0.239 A 
ATOM      6  C   UNL     1      -2.214  48.923  82.745  1.00  0.00     0.146 A 
ATOM      7  O   UNL     1      -0.703  46.133  84.404  1.00  0.00    -0.285 OA
ATOM      8  C   UNL     1      -1.691  48.152  83.809  1.00  0.00     0.111 A 
ATOM      9  C   UNL     1      -2.706  50.210  82.984  1.00  0.00     0.094 A 
ATOM     10  C   UNL     1      -1.682  48.696  85.116  1.00  0.00     0.134 A 
ATOM     11  C   UNL     1      -2.690  50.744  84.275  1.00  0.00     0.123 A 
ATOM     12  C   UNL     1      -2.183  49.989  85.334  1.00  0.00     0.093 A 
BRANCH   3  13
ATOM     13  C   UNL     1      -1.997  46.756  79.805  1.00  0.00     0.025 A 
ATOM     14  C   UNL     1      -3.013  45.846  79.479  1.00  0.00     0.016 A 
ATOM     15  C   UNL     1      -3.179  45.415  78.161  1.00  0.00     0.051 A 
ATOM     16  C   UNL     1      -2.340  45.904  77.148  1.00  0.00     0.157 A 
ATOM     17  C   UNL     1      -1.177  47.265  78.786  1.00  0.00     0.062 A 
ATOM     18  C   UNL     1      -1.340  46.837  77.464  1.00  0.00     0.158 A 
BRANCH  16  19
ATOM     19  O   UNL     1      -2.503  45.470  75.834  1.00  0.00    -0.504 OA
ATOM     20  H   UNL     1      -2.348  46.089  75.047  1.00  0.00     0.293 HD
ENDBRANCH  16  19
BRANCH  18  21
ATOM     21  O   UNL     1      -0.498  47.351  76.478  1.00  0.00    -0.504 OA
ATOM     22  H   UNL     1      -0.222  48.326  76.460  1.00  0.00     0.293 HD
ENDBRANCH  18  21
ENDBRANCH   3  13
BRANCH  10  23
ATOM     23  O   UNL     1      -1.184  47.966  86.195  1.00  0.00    -0.507 OA
ATOM     24  H   UNL     1      -0.192  47.917  86.394  1.00  0.00     0.293 HD
ENDBRANCH  10  23
BRANCH  11  25
ATOM     25  O   UNL     1      -3.180  52.025  84.519  1.00  0.00    -0.508 OA
ATOM     26  H   UNL     1      -4.152  52.262  84.353  1.00  0.00     0.293 HD
ENDBRANCH  11  25
ENDBRANCH   1   2
BRANCH   1  27
ATOM     27  C   UNL     1       0.660  45.005  81.322  1.00  0.00     0.339 C 
ATOM     28  C   UNL     1       1.596  44.200  82.249  1.00  0.00     0.214 C 
ATOM     29  O   UNL     1       0.593  44.475  80.006  1.00  0.00    -0.332 OA
ATOM     30  C   UNL     1       1.284  42.685  82.237  1.00  0.00     0.180 C 
ATOM     31  C   UNL     1       0.205  43.107  79.945  1.00  0.00     0.179 C 
ATOM     32  C   UNL     1       1.120  42.189  80.795  1.00  0.00     0.177 C 
BRANCH  28  33
ATOM     33  O   UNL     1       1.537  44.713  83.553  1.00  0.00    -0.384 OA
ATOM     34  H   UNL     1       1.339  43.947  84.153  1.00  0.00     0.211 HD
ENDBRANCH  28  33
BRANCH  30  35
ATOM     35  O   UNL     1       0.184  42.310  83.035  1.00  0.00    -0.387 OA
ATOM     36  H   UNL     1       0.066  42.960  83.769  1.00  0.00     0.211 HD
ENDBRANCH  30  35
BRANCH  31  37
ATOM     37  C   UNL     1      -1.313  42.916  80.161  1.00  0.00     0.191 C 
BRANCH  37  38
ATOM     38  O   UNL     1      -1.790  41.882  79.346  1.00  0.00    -0.394 OA
ATOM     39  H   UNL     1      -2.291  42.321  78.610  1.00  0.00     0.210 HD
ENDBRANCH  37  38
ENDBRANCH  31  37
BRANCH  32  40
ATOM     40  O   UNL     1       0.658  40.861  80.796  1.00  0.00    -0.387 OA
ATOM     41  H   UNL     1       1.375  40.308  80.390  1.00  0.00     0.211 HD
ENDBRANCH  32  40
ENDBRANCH   1  27
TORSDOF 12
ENDMDL
MODEL 4
REMARK VINA RESULT:    -6.134      1.144      2.417
REMARK INTER + INTRA:         -10.735
REMARK INTER:                  -9.756
REMARK INTRA:                  -0.979
REMARK UNBOUND:                -1.732
REMARK SMILES O=c1c(O[C@@H]2O[C@H](CO)[C@H](O)[C@H](O)[C@@H]2O)c(-c2ccc(O)c(O)c2)oc2cc(O)cc(O)c12
REMARK SMILES IDX 4 1 3 2 16 3 25 4 2 5 26 6 1 7 33 8 27 9 31 10 28 11 30 12
REMARK SMILES IDX 17 13 18 14 19 15 20 16 24 17 22 18 21 19 23 21 32 23 29 25
REMARK SMILES IDX 5 27 14 28 6 29 12 30 7 31 10 32 15 33 13 35 8 37 9 38 11 40
REMARK H PARENT 21 20 23 22 32 24 29 26 15 34 13 36 9 39 11 41
REMARK Flexibility Score: inf
ROOT
ATOM      1  O   UNL     1      -1.224  46.710  82.290  1.00  0.00    -0.454 OA
ENDROOT
BRANCH   1   2
ATOM      2  C   UNL     1      -0.277  45.677  82.216  1.00  0.00     0.214 A 
ATOM      3  C   UNL     1      -0.192  44.815  81.101  1.00  0.00     0.180 A 
ATOM      4  O   UNL     1       0.658  43.793  81.116  1.00  0.00    -0.452 OA
ATOM      5  C   UNL     1       0.611  45.486  83.281  1.00  0.00     0.239 A 
ATOM      6  C   UNL     1       1.490  43.553  82.123  1.00  0.00     0.146 A 
ATOM      7  O   UNL     1       0.574  46.276  84.262  1.00  0.00    -0.285 OA
ATOM      8  C   UNL     1       1.516  44.404  83.253  1.00  0.00     0.111 A 
ATOM      9  C   UNL     1       2.353  42.456  82.049  1.00  0.00     0.094 A 
ATOM     10  C   UNL     1       2.432  44.135  84.299  1.00  0.00     0.134 A 
ATOM     11  C   UNL     1       3.251  42.191  83.086  1.00  0.00     0.123 A 
ATOM     12  C   UNL     1       3.290  43.029  84.203  1.00  0.00     0.093 A 
BRANCH   3  13
ATOM     13  C   UNL     1      -1.004  45.022  79.885  1.00  0.00     0.025 A 
ATOM     14  C   UNL     1      -2.262  44.416  79.750  1.00  0.00     0.016 A 
ATOM     15  C   UNL     1      -3.022  44.618  78.597  1.00  0.00     0.051 A 
ATOM     16  C   UNL     1      -2.542  45.445  77.570  1.00  0.00     0.157 A 
ATOM     17  C   UNL     1      -0.537  45.870  78.869  1.00  0.00     0.062 A 
ATOM     18  C   UNL     1      -1.296  46.077  77.712  1.00  0.00     0.158 A 
BRANCH  16  19
ATOM     19  O   UNL     1      -3.300  45.642  76.417  1.00  0.00    -0.504 OA
ATOM     20  H   UNL     1      -3.968  46.400  76.344  1.00  0.00     0.293 HD
ENDBRANCH  16  19
BRANCH  18  21
ATOM     21  O   UNL     1      -0.797  46.915  76.715  1.00  0.00    -0.504 OA
ATOM     22  H   UNL     1      -0.432  47.837  76.920  1.00  0.00     0.293 HD
ENDBRANCH  18  21
ENDBRANCH   3  13
BRANCH  10  23
ATOM     23  O   UNL     1       2.497  44.954  85.426  1.00  0.00    -0.507 OA
ATOM     24  H   UNL     1       1.822  44.881  86.178  1.00  0.00     0.293 HD
ENDBRANCH  10  23
BRANCH  11  25
ATOM     25  O   UNL     1       4.114  41.100  83.017  1.00  0.00    -0.508 OA
ATOM     26  H   UNL     1       3.769  40.161  82.854  1.00  0.00     0.293 HD
ENDBRANCH  11  25
ENDBRANCH   1   2
BRANCH   1  27
ATOM     27  C   UNL     1      -0.952  48.058  81.883  1.00  0.00     0.339 C 
ATOM     28  C   UNL     1      -2.171  48.715  81.202  1.00  0.00     0.214 C 
ATOM     29  O   UNL     1      -0.442  48.825  82.966  1.00  0.00    -0.332 OA
ATOM     30  C   UNL     1      -3.271  49.116  82.212  1.00  0.00     0.180 C 
ATOM     31  C   UNL     1      -1.401  49.126  83.972  1.00  0.00     0.179 C 
ATOM     32  C   UNL     1      -2.652  49.849  83.408  1.00  0.00     0.177 C 
BRANCH  28  33
ATOM     33  O   UNL     1      -2.686  47.862  80.213  1.00  0.00    -0.384 OA
ATOM     34  H   UNL     1      -3.633  47.688  80.451  1.00  0.00     0.211 HD
ENDBRANCH  28  33
BRANCH  30  35
ATOM     35  O   UNL     1      -4.091  48.050  82.635  1.00  0.00    -0.387 OA
ATOM     36  H   UNL     1      -3.939  47.262  82.059  1.00  0.00     0.211 HD
ENDBRANCH  30  35
BRANCH  31  37
ATOM     37  C   UNL     1      -1.691  47.917  84.890  1.00  0.00     0.191 C 
BRANCH  37  38
ATOM     38  O   UNL     1      -0.992  48.047  86.096  1.00  0.00    -0.394 OA
ATOM     39  H   UNL     1      -0.325  47.312  86.108  1.00  0.00     0.210 HD
ENDBRANCH  37  38
ENDBRANCH  31  37
BRANCH  32  40
ATOM     40  O   UNL     1      -3.624  50.047  84.403  1.00  0.00    -0.387 OA
ATOM     41  H   UNL     1      -3.168  49.930  85.277  1.00  0.00     0.211 HD
ENDBRANCH  32  40
ENDBRANCH   1  27
TORSDOF 12
ENDMDL
MODEL 5
REMARK VINA RESULT:    -5.942      2.053      7.031
REMARK INTER + INTRA:         -10.452
REMARK INTER:                  -8.582
REMARK INTRA:                  -1.870
REMARK UNBOUND:                -1.732
REMARK SMILES O=c1c(O[C@@H]2O[C@H](CO)[C@H](O)[C@H](O)[C@@H]2O)c(-c2ccc(O)c(O)c2)oc2cc(O)cc(O)c12
REMARK SMILES IDX 4 1 3 2 16 3 25 4 2 5 26 6 1 7 33 8 27 9 31 10 28 11 30 12
REMARK SMILES IDX 17 13 18 14 19 15 20 16 24 17 22 18 21 19 23 21 32 23 29 25
REMARK SMILES IDX 5 27 14 28 6 29 12 30 7 31 10 32 15 33 13 35 8 37 9 38 11 40
REMARK H PARENT 21 20 23 22 32 24 29 26 15 34 13 36 9 39 11 41
REMARK Flexibility Score: inf
ROOT
ATOM      1  O   UNL     1      -0.760  45.750  81.500  1.00  0.00    -0.454 OA
ENDROOT
BRANCH   1   2
ATOM      2  C   UNL     1      -0.241  46.564  82.519  1.00  0.00     0.214 A 
ATOM      3  C   UNL     1       0.604  46.056  83.529  1.00  0.00     0.180 A 
ATOM      4  O   UNL     1       0.995  46.845  84.525  1.00  0.00    -0.452 OA
ATOM      5  C   UNL     1      -0.573  47.924  82.542  1.00  0.00     0.239 A 
ATOM      6  C   UNL     1       0.671  48.130  84.606  1.00  0.00     0.146 A 
ATOM      7  O   UNL     1      -1.289  48.398  81.621  1.00  0.00    -0.285 OA
ATOM      8  C   UNL     1      -0.120  48.737  83.603  1.00  0.00     0.111 A 
ATOM      9  C   UNL     1       1.133  48.883  85.690  1.00  0.00     0.094 A 
ATOM     10  C   UNL     1      -0.427  50.115  83.706  1.00  0.00     0.134 A 
ATOM     11  C   UNL     1       0.822  50.242  85.790  1.00  0.00     0.123 A 
ATOM     12  C   UNL     1       0.048  50.853  84.801  1.00  0.00     0.093 A 
BRANCH   3  13
ATOM     13  C   UNL     1       1.103  44.666  83.510  1.00  0.00     0.025 A 
ATOM     14  C   UNL     1       2.311  44.347  82.873  1.00  0.00     0.016 A 
ATOM     15  C   UNL     1       2.776  43.030  82.861  1.00  0.00     0.051 A 
ATOM     16  C   UNL     1       2.046  42.018  83.502  1.00  0.00     0.157 A 
ATOM     17  C   UNL     1       0.388  43.657  84.173  1.00  0.00     0.062 A 
ATOM     18  C   UNL     1       0.850  42.337  84.165  1.00  0.00     0.158 A 
BRANCH  16  19
ATOM     19  O   UNL     1       2.508  40.703  83.485  1.00  0.00    -0.504 OA
ATOM     20  H   UNL     1       3.220  40.381  84.131  1.00  0.00     0.293 HD
ENDBRANCH  16  19
BRANCH  18  21
ATOM     21  O   UNL     1       0.107  41.356  84.821  1.00  0.00    -0.504 OA
ATOM     22  H   UNL     1      -0.042  41.373  85.823  1.00  0.00     0.293 HD
ENDBRANCH  18  21
ENDBRANCH   3  13
BRANCH  10  23
ATOM     23  O   UNL     1      -1.197  50.755  82.734  1.00  0.00    -0.507 OA
ATOM     24  H   UNL     1      -0.773  51.238  81.951  1.00  0.00     0.293 HD
ENDBRANCH  10  23
BRANCH  11  25
ATOM     25  O   UNL     1       1.280  50.998  86.867  1.00  0.00    -0.508 OA
ATOM     26  H   UNL     1       2.233  50.917  87.204  1.00  0.00     0.293 HD
ENDBRANCH  11  25
ENDBRANCH   1   2
BRANCH   1  27
ATOM     27  C   UNL     1      -2.022  45.077  81.596  1.00  0.00     0.339 C 
ATOM     28  C   UNL     1      -2.962  45.438  80.425  1.00  0.00     0.214 C 
ATOM     29  O   UNL     1      -1.844  43.676  81.752  1.00  0.00    -0.332 OA
ATOM     30  C   UNL     1      -2.557  44.742  79.104  1.00  0.00     0.180 C 
ATOM     31  C   UNL     1      -1.369  43.013  80.585  1.00  0.00     0.179 C 
ATOM     32  C   UNL     1      -2.277  43.256  79.351  1.00  0.00     0.177 C 
BRANCH  28  33
ATOM     33  O   UNL     1      -3.013  46.830  80.263  1.00  0.00    -0.384 OA
ATOM     34  H   UNL     1      -2.288  47.072  79.630  1.00  0.00     0.211 HD
ENDBRANCH  28  33
BRANCH  30  35
ATOM     35  O   UNL     1      -1.486  45.359  78.425  1.00  0.00    -0.387 OA
ATOM     36  H   UNL     1      -1.698  45.434  77.463  1.00  0.00     0.211 HD
ENDBRANCH  30  35
BRANCH  31  37
ATOM     37  C   UNL     1       0.141  43.239  80.353  1.00  0.00     0.191 C 
BRANCH  37  38
ATOM     38  O   UNL     1       0.775  42.020  80.079  1.00  0.00    -0.394 OA
ATOM     39  H   UNL     1       1.241  42.141  79.211  1.00  0.00     0.210 HD
ENDBRANCH  37  38
ENDBRANCH  31  37
BRANCH  32  40
ATOM     40  O   UNL     1      -1.735  42.672  78.193  1.00  0.00    -0.387 OA
ATOM     41  H   UNL     1      -2.485  42.554  77.553  1.00  0.00     0.211 HD
ENDBRANCH  32  40
ENDBRANCH   1  27
TORSDOF 12
ENDMDL
MODEL 6
REMARK VINA RESULT:    -5.890      2.179      8.177
REMARK INTER + INTRA:         -10.376
REMARK INTER:                  -8.584
REMARK INTRA:                  -1.793
REMARK UNBOUND:                -1.732
REMARK SMILES O=c1c(O[C@@H]2O[C@H](CO)[C@H](O)[C@H](O)[C@@H]2O)c(-c2ccc(O)c(O)c2)oc2cc(O)cc(O)c12
REMARK SMILES IDX 4 1 3 2 16 3 25 4 2 5 26 6 1 7 33 8 27 9 31 10 28 11 30 12
REMARK SMILES IDX 17 13 18 14 19 15 20 16 24 17 22 18 21 19 23 21 32 23 29 25
REMARK SMILES IDX 5 27 14 28 6 29 12 30 7 31 10 32 15 33 13 35 8 37 9 38 11 40
REMARK H PARENT 21 20 23 22 32 24 29 26 15 34 13 36 9 39 11 41
REMARK Flexibility Score: inf
ROOT
ATOM      1  O   UNL     1       0.429  42.489  82.244  1.00  0.00    -0.454 OA
ENDROOT
BRANCH   1   2
ATOM      2  C   UNL     1       0.362  43.885  82.380  1.00  0.00     0.214 A 
ATOM      3  C   UNL     1       1.271  44.605  83.185  1.00  0.00     0.180 A 
ATOM      4  O   UNL     1       1.111  45.914  83.358  1.00  0.00    -0.452 OA
ATOM      5  C   UNL     1      -0.640  44.590  81.703  1.00  0.00     0.239 A 
ATOM      6  C   UNL     1       0.151  46.614  82.765  1.00  0.00     0.146 A 
ATOM      7  O   UNL     1      -1.428  43.964  80.946  1.00  0.00    -0.285 OA
ATOM      8  C   UNL     1      -0.765  45.983  81.891  1.00  0.00     0.111 A 
ATOM      9  C   UNL     1       0.064  47.989  83.002  1.00  0.00     0.094 A 
ATOM     10  C   UNL     1      -1.761  46.762  81.256  1.00  0.00     0.134 A 
ATOM     11  C   UNL     1      -0.925  48.753  82.377  1.00  0.00     0.123 A 
ATOM     12  C   UNL     1      -1.830  48.141  81.507  1.00  0.00     0.093 A 
BRANCH   3  13
ATOM     13  C   UNL     1       2.430  43.958  83.833  1.00  0.00     0.025 A 
ATOM     14  C   UNL     1       3.551  43.577  83.082  1.00  0.00     0.016 A 
ATOM     15  C   UNL     1       4.643  42.967  83.704  1.00  0.00     0.051 A 
ATOM     16  C   UNL     1       4.634  42.746  85.088  1.00  0.00     0.157 A 
ATOM     17  C   UNL     1       2.434  43.761  85.222  1.00  0.00     0.062 A 
ATOM     18  C   UNL     1       3.525  43.151  85.850  1.00  0.00     0.158 A 
BRANCH  16  19
ATOM     19  O   UNL     1       5.721  42.132  85.707  1.00  0.00    -0.504 OA
ATOM     20  H   UNL     1       6.301  42.627  86.376  1.00  0.00     0.293 HD
ENDBRANCH  16  19
BRANCH  18  21
ATOM     21  O   UNL     1       3.491  42.957  87.230  1.00  0.00    -0.504 OA
ATOM     22  H   UNL     1       3.225  43.694  87.872  1.00  0.00     0.293 HD
ENDBRANCH  18  21
ENDBRANCH   3  13
BRANCH  10  23
ATOM     23  O   UNL     1      -2.679  46.182  80.380  1.00  0.00    -0.507 OA
ATOM     24  H   UNL     1      -2.759  46.481  79.416  1.00  0.00     0.293 HD
ENDBRANCH  10  23
BRANCH  11  25
ATOM     25  O   UNL     1      -1.017  50.124  82.609  1.00  0.00    -0.508 OA
ATOM     26  H   UNL     1      -1.416  50.753  81.922  1.00  0.00     0.293 HD
ENDBRANCH  11  25
ENDBRANCH   1   2
BRANCH   1  27
ATOM     27  C   UNL     1      -0.014  41.578  83.258  1.00  0.00     0.339 C 
ATOM     28  C   UNL     1      -1.182  40.693  82.772  1.00  0.00     0.214 C 
ATOM     29  O   UNL     1       1.074  40.824  83.777  1.00  0.00    -0.332 OA
ATOM     30  C   UNL     1      -0.720  39.579  81.804  1.00  0.00     0.180 C 
ATOM     31  C   UNL     1       1.598  39.857  82.874  1.00  0.00     0.179 C 
ATOM     32  C   UNL     1       0.517  38.868  82.365  1.00  0.00     0.177 C 
BRANCH  28  33
ATOM     33  O   UNL     1      -2.174  41.491  82.181  1.00  0.00    -0.384 OA
ATOM     34  H   UNL     1      -1.761  41.918  81.386  1.00  0.00     0.211 HD
ENDBRANCH  28  33
BRANCH  30  35
ATOM     35  O   UNL     1      -0.505  40.010  80.479  1.00  0.00    -0.387 OA
ATOM     36  H   UNL     1       0.443  39.882  80.234  1.00  0.00     0.211 HD
ENDBRANCH  30  35
BRANCH  31  37
ATOM     37  C   UNL     1       2.485  40.492  81.780  1.00  0.00     0.191 C 
BRANCH  37  38
ATOM     38  O   UNL     1       3.629  39.711  81.572  1.00  0.00    -0.394 OA
ATOM     39  H   UNL     1       4.112  40.128  80.812  1.00  0.00     0.210 HD
ENDBRANCH  37  38
ENDBRANCH  31  37
BRANCH  32  40
ATOM     40  O   UNL     1       1.039  37.986  81.403  1.00  0.00    -0.387 OA
ATOM     41  H   UNL     1       1.997  38.220  81.289  1.00  0.00     0.211 HD
ENDBRANCH  32  40
ENDBRANCH   1  27
TORSDOF 12
ENDMDL
MODEL 7
REMARK VINA RESULT:    -5.846      2.687      8.044
REMARK INTER + INTRA:         -10.311
REMARK INTER:                  -8.625
REMARK INTRA:                  -1.686
REMARK UNBOUND:                -1.732
REMARK SMILES O=c1c(O[C@@H]2O[C@H](CO)[C@H](O)[C@H](O)[C@@H]2O)c(-c2ccc(O)c(O)c2)oc2cc(O)cc(O)c12
REMARK SMILES IDX 4 1 3 2 16 3 25 4 2 5 26 6 1 7 33 8 27 9 31 10 28 11 30 12
REMARK SMILES IDX 17 13 18 14 19 15 20 16 24 17 22 18 21 19 23 21 32 23 29 25
REMARK SMILES IDX 5 27 14 28 6 29 12 30 7 31 10 32 15 33 13 35 8 37 9 38 11 40
REMARK H PARENT 21 20 23 22 32 24 29 26 15 34 13 36 9 39 11 41
REMARK Flexibility Score: inf
ROOT
ATOM      1  O   UNL     1       2.824  41.857  83.765  1.00  0.00    -0.454 OA
ENDROOT
BRANCH   1   2
ATOM      2  C   UNL     1       1.893  42.215  82.777  1.00  0.00     0.214 A 
ATOM      3  C   UNL     1       1.250  41.254  81.967  1.00  0.00     0.180 A 
ATOM      4  O   UNL     1       0.446  41.647  80.983  1.00  0.00    -0.452 OA
ATOM      5  C   UNL     1       1.591  43.568  82.581  1.00  0.00     0.239 A 
ATOM      6  C   UNL     1       0.164  42.921  80.739  1.00  0.00     0.146 A 
ATOM      7  O   UNL     1       2.123  44.432  83.328  1.00  0.00    -0.285 OA
ATOM      8  C   UNL     1       0.714  43.947  81.543  1.00  0.00     0.111 A 
ATOM      9  C   UNL     1      -0.697  43.239  79.684  1.00  0.00     0.094 A 
ATOM     10  C   UNL     1       0.374  45.294  81.271  1.00  0.00     0.134 A 
ATOM     11  C   UNL     1      -1.025  44.571  79.417  1.00  0.00     0.123 A 
ATOM     12  C   UNL     1      -0.493  45.591  80.209  1.00  0.00     0.093 A 
BRANCH   3  13
ATOM     13  C   UNL     1       1.416  39.803  82.188  1.00  0.00     0.025 A 
ATOM     14  C   UNL     1       0.882  39.187  83.330  1.00  0.00     0.016 A 
ATOM     15  C   UNL     1       1.042  37.814  83.530  1.00  0.00     0.051 A 
ATOM     16  C   UNL     1       1.723  37.037  82.582  1.00  0.00     0.157 A 
ATOM     17  C   UNL     1       2.072  39.020  81.228  1.00  0.00     0.062 A 
ATOM     18  C   UNL     1       2.235  37.644  81.424  1.00  0.00     0.158 A 
BRANCH  16  19
ATOM     19  O   UNL     1       1.887  35.668  82.786  1.00  0.00    -0.504 OA
ATOM     20  H   UNL     1       2.372  35.306  83.599  1.00  0.00     0.293 HD
ENDBRANCH  16  19
BRANCH  18  21
ATOM     21  O   UNL     1       2.906  36.897  80.456  1.00  0.00    -0.504 OA
ATOM     22  H   UNL     1       3.847  37.124  80.158  1.00  0.00     0.293 HD
ENDBRANCH  18  21
ENDBRANCH   3  13
BRANCH  10  23
ATOM     23  O   UNL     1       0.887  46.335  82.045  1.00  0.00    -0.507 OA
ATOM     24  H   UNL     1       1.078  46.222  83.032  1.00  0.00     0.293 HD
ENDBRANCH  10  23
BRANCH  11  25
ATOM     25  O   UNL     1      -1.883  44.893  78.368  1.00  0.00    -0.508 OA
ATOM     26  H   UNL     1      -2.449  44.188  77.909  1.00  0.00     0.293 HD
ENDBRANCH  11  25
ENDBRANCH   1   2
BRANCH   1  27
ATOM     27  C   UNL     1       4.103  41.282  83.468  1.00  0.00     0.339 C 
ATOM     28  C   UNL     1       5.264  42.235  83.825  1.00  0.00     0.214 C 
ATOM     29  O   UNL     1       4.237  39.999  84.064  1.00  0.00    -0.332 OA
ATOM     30  C   UNL     1       5.520  42.314  85.348  1.00  0.00     0.180 C 
ATOM     31  C   UNL     1       4.369  40.023  85.480  1.00  0.00     0.179 C 
ATOM     32  C   UNL     1       5.551  40.907  85.955  1.00  0.00     0.177 C 
BRANCH  28  33
ATOM     33  O   UNL     1       5.019  43.510  83.291  1.00  0.00    -0.384 OA
ATOM     34  H   UNL     1       4.034  43.628  83.272  1.00  0.00     0.211 HD
ENDBRANCH  28  33
BRANCH  30  35
ATOM     35  O   UNL     1       4.626  43.152  86.046  1.00  0.00    -0.387 OA
ATOM     36  H   UNL     1       3.732  42.734  86.081  1.00  0.00     0.211 HD
ENDBRANCH  30  35
BRANCH  31  37
ATOM     37  C   UNL     1       3.022  40.277  86.193  1.00  0.00     0.191 C 
BRANCH  37  38
ATOM     38  O   UNL     1       3.040  39.713  87.475  1.00  0.00    -0.394 OA
ATOM     39  H   UNL     1       2.264  39.094  87.514  1.00  0.00     0.210 HD
ENDBRANCH  37  38
ENDBRANCH  31  37
BRANCH  32  40
ATOM     40  O   UNL     1       5.599  40.991  87.357  1.00  0.00    -0.387 OA
ATOM     41  H   UNL     1       5.804  40.080  87.693  1.00  0.00     0.211 HD
ENDBRANCH  32  40
ENDBRANCH   1  27
TORSDOF 12
ENDMDL
MODEL 8
REMARK VINA RESULT:    -5.676      1.704      4.925
REMARK INTER + INTRA:         -10.063
REMARK INTER:                  -8.204
REMARK INTRA:                  -1.859
REMARK UNBOUND:                -1.732
REMARK SMILES O=c1c(O[C@@H]2O[C@H](CO)[C@H](O)[C@H](O)[C@@H]2O)c(-c2ccc(O)c(O)c2)oc2cc(O)cc(O)c12
REMARK SMILES IDX 4 1 3 2 16 3 25 4 2 5 26 6 1 7 33 8 27 9 31 10 28 11 30 12
REMARK SMILES IDX 17 13 18 14 19 15 20 16 24 17 22 18 21 19 23 21 32 23 29 25
REMARK SMILES IDX 5 27 14 28 6 29 12 30 7 31 10 32 15 33 13 35 8 37 9 38 11 40
REMARK H PARENT 21 20 23 22 32 24 29 26 15 34 13 36 9 39 11 41
REMARK Flexibility Score: inf
ROOT
ATOM      1  O   UNL     1      -0.511  44.755  81.470  1.00  0.00    -0.454 OA
ENDROOT
BRANCH   1   2
ATOM      2  C   UNL     1       0.466  44.534  82.454  1.00  0.00     0.214 A 
ATOM      3  C   UNL     1       0.787  45.508  83.424  1.00  0.00     0.180 A 
ATOM      4  O   UNL     1       1.784  45.290  84.278  1.00  0.00    -0.452 OA
ATOM      5  C   UNL     1       1.150  43.313  82.476  1.00  0.00     0.239 A 
ATOM      6  C   UNL     1       2.484  44.162  84.306  1.00  0.00     0.146 A 
ATOM      7  O   UNL     1       0.840  42.420  81.644  1.00  0.00    -0.285 OA
ATOM      8  C   UNL     1       2.186  43.108  83.411  1.00  0.00     0.111 A 
ATOM      9  C   UNL     1       3.512  44.021  85.243  1.00  0.00     0.094 A 
ATOM     10  C   UNL     1       2.935  41.909  83.485  1.00  0.00     0.134 A 
ATOM     11  C   UNL     1       4.252  42.837  85.307  1.00  0.00     0.123 A 
ATOM     12  C   UNL     1       3.962  41.788  84.433  1.00  0.00     0.093 A 
BRANCH   3  13
ATOM     13  C   UNL     1       0.031  46.770  83.551  1.00  0.00     0.025 A 
ATOM     14  C   UNL     1       0.390  47.900  82.799  1.00  0.00     0.016 A 
ATOM     15  C   UNL     1      -0.332  49.089  82.925  1.00  0.00     0.051 A 
ATOM     16  C   UNL     1      -1.433  49.158  83.791  1.00  0.00     0.157 A 
ATOM     17  C   UNL     1      -1.087  46.834  84.395  1.00  0.00     0.062 A 
ATOM     18  C   UNL     1      -1.814  48.022  84.524  1.00  0.00     0.158 A 
BRANCH  16  19
ATOM     19  O   UNL     1      -2.149  50.347  83.919  1.00  0.00    -0.504 OA
ATOM     20  H   UNL     1      -1.706  51.204  84.229  1.00  0.00     0.293 HD
ENDBRANCH  16  19
BRANCH  18  21
ATOM     21  O   UNL     1      -2.911  48.055  85.384  1.00  0.00    -0.504 OA
ATOM     22  H   UNL     1      -3.586  48.810  85.367  1.00  0.00     0.293 HD
ENDBRANCH  18  21
ENDBRANCH   3  13
BRANCH  10  23
ATOM     23  O   UNL     1       2.669  40.841  82.627  1.00  0.00    -0.507 OA
ATOM     24  H   UNL     1       1.743  40.677  82.252  1.00  0.00     0.293 HD
ENDBRANCH  10  23
BRANCH  11  25
ATOM     25  O   UNL     1       5.277  42.691  86.239  1.00  0.00    -0.508 OA
ATOM     26  H   UNL     1       5.988  43.403  86.362  1.00  0.00     0.293 HD
ENDBRANCH  11  25
ENDBRANCH   1   2
BRANCH   1  27
ATOM     27  C   UNL     1      -0.218  45.306  80.180  1.00  0.00     0.339 C 
ATOM     28  C   UNL     1      -0.676  44.377  79.036  1.00  0.00     0.214 C 
ATOM     29  O   UNL     1      -0.729  46.626  80.060  1.00  0.00    -0.332 OA
ATOM     30  C   UNL     1      -2.209  44.401  78.830  1.00  0.00     0.180 C 
ATOM     31  C   UNL     1      -2.148  46.699  79.975  1.00  0.00     0.179 C 
ATOM     32  C   UNL     1      -2.720  45.846  78.812  1.00  0.00     0.177 C 
BRANCH  28  33
ATOM     33  O   UNL     1      -0.223  43.069  79.268  1.00  0.00    -0.384 OA
ATOM     34  H   UNL     1       0.008  42.685  78.383  1.00  0.00     0.211 HD
ENDBRANCH  28  33
BRANCH  30  35
ATOM     35  O   UNL     1      -2.933  43.614  79.749  1.00  0.00    -0.387 OA
ATOM     36  H   UNL     1      -3.874  43.912  79.777  1.00  0.00     0.211 HD
ENDBRANCH  30  35
BRANCH  31  37
ATOM     37  C   UNL     1      -2.832  46.496  81.345  1.00  0.00     0.191 C 
BRANCH  37  38
ATOM     38  O   UNL     1      -3.866  47.426  81.510  1.00  0.00    -0.394 OA
ATOM     39  H   UNL     1      -3.824  47.719  82.458  1.00  0.00     0.210 HD
ENDBRANCH  37  38
ENDBRANCH  31  37
BRANCH  32  40
ATOM     40  O   UNL     1      -4.125  45.857  78.809  1.00  0.00    -0.387 OA
ATOM     41  H   UNL     1      -4.418  45.354  79.613  1.00  0.00     0.211 HD
ENDBRANCH  32  40
ENDBRANCH   1  27
TORSDOF 12
ENDMDL
MODEL 9
REMARK VINA RESULT:    -5.647      3.222      7.046
REMARK INTER + INTRA:         -10.019
REMARK INTER:                  -8.159
REMARK INTRA:                  -1.861
REMARK UNBOUND:                -1.732
REMARK SMILES O=c1c(O[C@@H]2O[C@H](CO)[C@H](O)[C@H](O)[C@@H]2O)c(-c2ccc(O)c(O)c2)oc2cc(O)cc(O)c12
REMARK SMILES IDX 4 1 3 2 16 3 25 4 2 5 26 6 1 7 33 8 27 9 31 10 28 11 30 12
REMARK SMILES IDX 17 13 18 14 19 15 20 16 24 17 22 18 21 19 23 21 32 23 29 25
REMARK SMILES IDX 5 27 14 28 6 29 12 30 7 31 10 32 15 33 13 35 8 37 9 38 11 40
REMARK H PARENT 21 20 23 22 32 24 29 26 15 34 13 36 9 39 11 41
REMARK Flexibility Score: inf
ROOT
ATOM      1  O   UNL     1       0.780  42.067  82.874  1.00  0.00    -0.454 OA
ENDROOT
BRANCH   1   2
ATOM      2  C   UNL     1       1.013  40.728  82.521  1.00  0.00     0.214 A 
ATOM      3  C   UNL     1       2.180  40.039  82.919  1.00  0.00     0.180 A 
ATOM      4  O   UNL     1       2.401  38.803  82.483  1.00  0.00    -0.452 OA
ATOM      5  C   UNL     1       0.065  40.051  81.745  1.00  0.00     0.239 A 
ATOM      6  C   UNL     1       1.546  38.139  81.713  1.00  0.00     0.146 A 
ATOM      7  O   UNL     1      -1.000  40.640  81.423  1.00  0.00    -0.285 OA
ATOM      8  C   UNL     1       0.323  38.730  81.320  1.00  0.00     0.111 A 
ATOM      9  C   UNL     1       1.862  36.839  81.307  1.00  0.00     0.094 A 
ATOM     10  C   UNL     1      -0.578  37.986  80.520  1.00  0.00     0.134 A 
ATOM     11  C   UNL     1       0.972  36.111  80.512  1.00  0.00     0.123 A 
ATOM     12  C   UNL     1      -0.242  36.683  80.124  1.00  0.00     0.093 A 
BRANCH   3  13
ATOM     13  C   UNL     1       3.169  40.636  83.838  1.00  0.00     0.025 A 
ATOM     14  C   UNL     1       3.106  40.390  85.218  1.00  0.00     0.016 A 
ATOM     15  C   UNL     1       4.046  40.957  86.080  1.00  0.00     0.051 A 
ATOM     16  C   UNL     1       5.074  41.765  85.571  1.00  0.00     0.157 A 
ATOM     17  C   UNL     1       4.214  41.421  83.328  1.00  0.00     0.062 A 
ATOM     18  C   UNL     1       5.159  41.991  84.187  1.00  0.00     0.158 A 
BRANCH  16  19
ATOM     19  O   UNL     1       6.010  42.335  86.432  1.00  0.00    -0.504 OA
ATOM     20  H   UNL     1       6.260  43.315  86.371  1.00  0.00     0.293 HD
ENDBRANCH  16  19
BRANCH  18  21
ATOM     21  O   UNL     1       6.176  42.778  83.648  1.00  0.00    -0.504 OA
ATOM     22  H   UNL     1       6.110  43.185  82.723  1.00  0.00     0.293 HD
ENDBRANCH  18  21
ENDBRANCH   3  13
BRANCH  10  23
ATOM     23  O   UNL     1      -1.798  38.528  80.117  1.00  0.00    -0.507 OA
ATOM     24  H   UNL     1      -2.171  38.372  79.189  1.00  0.00     0.293 HD
ENDBRANCH  10  23
BRANCH  11  25
ATOM     25  O   UNL     1       1.281  34.815  80.105  1.00  0.00    -0.508 OA
ATOM     26  H   UNL     1       1.781  34.636  79.241  1.00  0.00     0.293 HD
ENDBRANCH  11  25
ENDBRANCH   1   2
BRANCH   1  27
ATOM     27  C   UNL     1       1.149  43.175  82.044  1.00  0.00     0.339 C 
ATOM     28  C   UNL     1      -0.052  44.096  81.740  1.00  0.00     0.214 C 
ATOM     29  O   UNL     1       2.259  43.874  82.589  1.00  0.00    -0.332 OA
ATOM     30  C   UNL     1      -0.444  44.979  82.949  1.00  0.00     0.180 C 
ATOM     31  C   UNL     1       1.963  44.616  83.767  1.00  0.00     0.179 C 
ATOM     32  C   UNL     1       0.804  45.625  83.560  1.00  0.00     0.177 C 
BRANCH  28  33
ATOM     33  O   UNL     1      -1.144  43.332  81.303  1.00  0.00    -0.384 OA
ATOM     34  H   UNL     1      -1.788  43.964  80.888  1.00  0.00     0.211 HD
ENDBRANCH  28  33
BRANCH  30  35
ATOM     35  O   UNL     1      -1.210  44.316  83.930  1.00  0.00    -0.387 OA
ATOM     36  H   UNL     1      -0.708  44.282  84.780  1.00  0.00     0.211 HD
ENDBRANCH  30  35
BRANCH  31  37
ATOM     37  C   UNL     1       1.843  43.714  85.016  1.00  0.00     0.191 C 
BRANCH  37  38
ATOM     38  O   UNL     1       2.585  44.255  86.074  1.00  0.00    -0.394 OA
ATOM     39  H   UNL     1       2.028  44.138  86.888  1.00  0.00     0.210 HD
ENDBRANCH  37  38
ENDBRANCH  31  37
BRANCH  32  40
ATOM     40  O   UNL     1       0.467  46.273  84.761  1.00  0.00    -0.387 OA
ATOM     41  H   UNL     1      -0.206  45.703  85.216  1.00  0.00     0.211 HD
ENDBRANCH  32  40
ENDBRANCH   1  27
TORSDOF 12
ENDMDL
