MODEL 1
REMARK VINA RESULT:    15.585      0.000      0.000
REMARK INTER + INTRA:          37.743
REMARK INTER:                  39.275
REMARK INTRA:                  -1.532
REMARK UNBOUND:                -1.532
REMARK SMILES CCCCCCCCCCCCCCCCCCCCCCCCCCCC(=O)[O-]
REMARK SMILES IDX 15 1 16 2 17 3 18 4 19 5 20 6 21 7 22 8 23 9 24 10 25 11
REMARK SMILES IDX 26 12 27 13 28 14 29 15 30 16 14 17 13 18 12 19 11 20 10 21
REMARK SMILES IDX 9 22 8 23 7 24 6 25 5 26 4 27 3 28 2 29 1 30
REMARK H PARENT
REMARK Flexibility Score: inf
ROOT
ATOM      1  C   UNL     1      -8.765  27.591  -9.827  1.00  0.00     0.000 C 
ENDROOT
BRANCH   1   2
ATOM      2  C   UNL     1      -7.753  28.644 -10.328  1.00  0.00     0.000 C 
BRANCH   2   3
ATOM      3  C   UNL     1      -7.575  28.735 -11.859  1.00  0.00     0.000 C 
BRANCH   3   4
ATOM      4  C   UNL     1      -8.341  29.893 -12.525  1.00  0.00     0.000 C 
BRANCH   4   5
ATOM      5  C   UNL     1      -8.586  29.682 -14.028  1.00  0.00     0.000 C 
BRANCH   5   6
ATOM      6  C   UNL     1      -9.020  30.972 -14.749  1.00  0.00     0.000 C 
BRANCH   6   7
ATOM      7  C   UNL     1      -9.177  30.829 -16.274  1.00  0.00     0.000 C 
BRANCH   7   8
ATOM      8  C   UNL     1      -8.892  29.401 -16.770  1.00  0.00     0.000 C 
BRANCH   8   9
ATOM      9  C   UNL     1      -7.903  29.372 -17.946  1.00  0.00     0.000 C 
BRANCH   9  10
ATOM     10  C   UNL     1      -6.731  28.409 -17.702  1.00  0.00     0.000 C 
BRANCH  10  11
ATOM     11  C   UNL     1      -5.917  28.197 -18.987  1.00  0.00     0.000 C 
BRANCH  11  12
ATOM     12  C   UNL     1      -6.286  29.201 -20.092  1.00  0.00     0.006 C 
BRANCH  12  13
ATOM     13  C   UNL     1      -7.051  28.551 -21.251  1.00  0.00     0.053 C 
BRANCH  13  14
ATOM     14  C   UNL     1      -6.104  27.870 -22.186  1.00  0.00     0.041 C 
ATOM     15  O   UNL     1      -4.875  28.146 -22.155  1.00  0.00    -0.550 OA
ATOM     16  O   UNL     1      -6.582  26.964 -23.125  1.00  0.00    -0.550 OA
ENDBRANCH  13  14
ENDBRANCH  12  13
ENDBRANCH  11  12
ENDBRANCH  10  11
ENDBRANCH   9  10
ENDBRANCH   8   9
ENDBRANCH   7   8
ENDBRANCH   6   7
ENDBRANCH   5   6
ENDBRANCH   4   5
ENDBRANCH   3   4
ENDBRANCH   2   3
ENDBRANCH   1   2
BRANCH   1  17
ATOM     17  C   UNL     1      -8.305  26.124  -9.913  1.00  0.00     0.000 C 
BRANCH  17  18
ATOM     18  C   UNL     1      -9.273  25.236 -10.710  1.00  0.00     0.000 C 
BRANCH  18  19
ATOM     19  C   UNL     1      -8.728  23.806 -10.827  1.00  0.00     0.000 C 
BRANCH  19  20
ATOM     20  C   UNL     1      -9.651  22.761 -10.178  1.00  0.00     0.000 C 
BRANCH  20  21
ATOM     21  C   UNL     1      -9.057  22.044  -8.950  1.00  0.00     0.000 C 
BRANCH  21  22
ATOM     22  C   UNL     1      -9.044  22.870  -7.647  1.00  0.00    -0.000 C 
BRANCH  22  23
ATOM     23  C   UNL     1      -8.072  22.365  -6.567  1.00  0.00    -0.000 C 
BRANCH  23  24
ATOM     24  C   UNL     1      -7.190  23.485  -5.988  1.00  0.00    -0.000 C 
BRANCH  24  25
ATOM     25  C   UNL     1      -7.942  24.819  -5.857  1.00  0.00    -0.000 C 
BRANCH  25  26
ATOM     26  C   UNL     1      -9.007  24.785  -4.747  1.00  0.00    -0.000 C 
BRANCH  26  27
ATOM     27  C   UNL     1     -10.128  25.814  -4.968  1.00  0.00    -0.000 C 
BRANCH  27  28
ATOM     28  C   UNL     1      -9.662  27.258  -4.730  1.00  0.00    -0.000 C 
BRANCH  28  29
ATOM     29  C   UNL     1     -10.858  28.188  -4.496  1.00  0.00    -0.003 C 
ATOM     30  C   UNL     1     -12.154  27.397  -4.358  1.00  0.00     0.004 C 
ENDBRANCH  28  29
ENDBRANCH  27  28
ENDBRANCH  26  27
ENDBRANCH  25  26
ENDBRANCH  24  25
ENDBRANCH  23  24
ENDBRANCH  22  23
ENDBRANCH  21  22
ENDBRANCH  20  21
ENDBRANCH  19  20
ENDBRANCH  18  19
ENDBRANCH  17  18
ENDBRANCH   1  17
TORSDOF 26
ENDMDL
MODEL 2
REMARK VINA RESULT:    15.880      1.661      2.106
REMARK INTER + INTRA:          38.486
REMARK INTER:                  37.088
REMARK INTRA:                   1.397
REMARK UNBOUND:                -1.532
REMARK SMILES CCCCCCCCCCCCCCCCCCCCCCCCCCCC(=O)[O-]
REMARK SMILES IDX 15 1 16 2 17 3 18 4 19 5 20 6 21 7 22 8 23 9 24 10 25 11
REMARK SMILES IDX 26 12 27 13 28 14 29 15 30 16 14 17 13 18 12 19 11 20 10 21
REMARK SMILES IDX 9 22 8 23 7 24 6 25 5 26 4 27 3 28 2 29 1 30
REMARK H PARENT
REMARK Flexibility Score: inf
ROOT
ATOM      1  C   UNL     1      -8.305  25.132 -13.138  1.00  0.00     0.000 C 
ENDROOT
BRANCH   1   2
ATOM      2  C   UNL     1      -7.043  25.753 -13.775  1.00  0.00     0.000 C 
BRANCH   2   3
ATOM      3  C   UNL     1      -7.191  26.241 -15.232  1.00  0.00     0.000 C 
BRANCH   3   4
ATOM      4  C   UNL     1      -6.643  27.656 -15.492  1.00  0.00     0.000 C 
BRANCH   4   5
ATOM      5  C   UNL     1      -7.726  28.668 -15.899  1.00  0.00     0.000 C 
BRANCH   5   6
ATOM      6  C   UNL     1      -8.245  29.496 -14.708  1.00  0.00     0.000 C 
BRANCH   6   7
ATOM      7  C   UNL     1      -9.305  30.551 -15.078  1.00  0.00     0.000 C 
BRANCH   7   8
ATOM      8  C   UNL     1      -9.248  30.957 -16.561  1.00  0.00     0.000 C 
BRANCH   8   9
ATOM      9  C   UNL     1      -8.407  29.988 -17.406  1.00  0.00     0.000 C 
BRANCH   9  10
ATOM     10  C   UNL     1      -9.030  29.719 -18.785  1.00  0.00     0.000 C 
BRANCH  10  11
ATOM     11  C   UNL     1      -7.945  29.397 -19.824  1.00  0.00     0.000 C 
BRANCH  11  12
ATOM     12  C   UNL     1      -6.776  28.595 -19.229  1.00  0.00     0.006 C 
BRANCH  12  13
ATOM     13  C   UNL     1      -6.179  27.593 -20.225  1.00  0.00     0.053 C 
BRANCH  13  14
ATOM     14  C   UNL     1      -6.014  28.228 -21.569  1.00  0.00     0.041 C 
ATOM     15  O   UNL     1      -5.794  29.465 -21.663  1.00  0.00    -0.550 OA
ATOM     16  O   UNL     1      -6.150  27.464 -22.722  1.00  0.00    -0.550 OA
ENDBRANCH  13  14
ENDBRANCH  12  13
ENDBRANCH  11  12
ENDBRANCH  10  11
ENDBRANCH   9  10
ENDBRANCH   8   9
ENDBRANCH   7   8
ENDBRANCH   6   7
ENDBRANCH   5   6
ENDBRANCH   4   5
ENDBRANCH   3   4
ENDBRANCH   2   3
ENDBRANCH   1   2
BRANCH   1  17
ATOM     17  C   UNL     1      -8.068  23.914 -12.227  1.00  0.00     0.000 C 
BRANCH  17  18
ATOM     18  C   UNL     1      -9.216  23.670 -11.237  1.00  0.00     0.000 C 
BRANCH  18  19
ATOM     19  C   UNL     1      -9.324  22.180 -10.884  1.00  0.00     0.000 C 
BRANCH  19  20
ATOM     20  C   UNL     1      -9.846  21.941  -9.457  1.00  0.00     0.000 C 
BRANCH  20  21
ATOM     21  C   UNL     1      -9.126  22.749  -8.359  1.00  0.00     0.000 C 
BRANCH  21  22
ATOM     22  C   UNL     1      -8.940  22.014  -7.015  1.00  0.00    -0.000 C 
BRANCH  22  23
ATOM     23  C   UNL     1      -7.708  22.448  -6.204  1.00  0.00    -0.000 C 
BRANCH  23  24
ATOM     24  C   UNL     1      -7.383  23.942  -6.363  1.00  0.00    -0.000 C 
BRANCH  24  25
ATOM     25  C   UNL     1      -7.384  24.692  -5.021  1.00  0.00    -0.000 C 
BRANCH  25  26
ATOM     26  C   UNL     1      -8.806  25.027  -4.537  1.00  0.00    -0.000 C 
BRANCH  26  27
ATOM     27  C   UNL     1      -9.302  26.389  -5.048  1.00  0.00    -0.000 C 
BRANCH  27  28
ATOM     28  C   UNL     1     -10.835  26.491  -5.070  1.00  0.00    -0.000 C 
BRANCH  28  29
ATOM     29  C   UNL     1     -11.302  27.850  -4.539  1.00  0.00    -0.003 C 
ATOM     30  C   UNL     1     -12.807  27.860  -4.293  1.00  0.00     0.004 C 
ENDBRANCH  28  29
ENDBRANCH  27  28
ENDBRANCH  26  27
ENDBRANCH  25  26
ENDBRANCH  24  25
ENDBRANCH  23  24
ENDBRANCH  22  23
ENDBRANCH  21  22
ENDBRANCH  20  21
ENDBRANCH  19  20
ENDBRANCH  18  19
ENDBRANCH  17  18
ENDBRANCH   1  17
TORSDOF 26
ENDMDL
MODEL 3
REMARK VINA RESULT:    16.313      5.049     13.343
REMARK INTER + INTRA:          39.577
REMARK INTER:                  40.569
REMARK INTRA:                  -0.992
REMARK UNBOUND:                -1.532
REMARK SMILES CCCCCCCCCCCCCCCCCCCCCCCCCCCC(=O)[O-]
REMARK SMILES IDX 15 1 16 2 17 3 18 4 19 5 20 6 21 7 22 8 23 9 24 10 25 11
REMARK SMILES IDX 26 12 27 13 28 14 29 15 30 16 14 17 13 18 12 19 11 20 10 21
REMARK SMILES IDX 9 22 8 23 7 24 6 25 5 26 4 27 3 28 2 29 1 30
REMARK H PARENT
REMARK Flexibility Score: inf
ROOT
ATOM      1  C   UNL     1      -7.436  25.715 -13.484  1.00  0.00     0.000 C 
ENDROOT
BRANCH   1   2
ATOM      2  C   UNL     1      -8.350  24.516 -13.154  1.00  0.00     0.000 C 
BRANCH   2   3
ATOM      3  C   UNL     1      -8.322  24.026 -11.690  1.00  0.00     0.000 C 
BRANCH   3   4
ATOM      4  C   UNL     1      -9.336  22.913 -11.367  1.00  0.00     0.000 C 
BRANCH   4   5
ATOM      5  C   UNL     1      -9.327  22.484  -9.891  1.00  0.00     0.000 C 
BRANCH   5   6
ATOM      6  C   UNL     1      -9.049  23.656  -8.931  1.00  0.00     0.000 C 
BRANCH   6   7
ATOM      7  C   UNL     1      -8.710  23.234  -7.490  1.00  0.00     0.000 C 
BRANCH   7   8
ATOM      8  C   UNL     1      -7.606  24.100  -6.859  1.00  0.00     0.000 C 
BRANCH   8   9
ATOM      9  C   UNL     1      -7.300  23.700  -5.407  1.00  0.00     0.000 C 
BRANCH   9  10
ATOM     10  C   UNL     1      -7.871  24.701  -4.391  1.00  0.00     0.000 C 
BRANCH  10  11
ATOM     11  C   UNL     1      -9.285  24.291  -3.951  1.00  0.00     0.000 C 
BRANCH  11  12
ATOM     12  C   UNL     1     -10.375  25.195  -4.550  1.00  0.00     0.006 C 
BRANCH  12  13
ATOM     13  C   UNL     1      -9.797  26.380  -5.333  1.00  0.00     0.053 C 
BRANCH  13  14
ATOM     14  C   UNL     1     -10.234  27.673  -4.720  1.00  0.00     0.041 C 
ATOM     15  O   UNL     1      -9.454  28.662  -4.707  1.00  0.00    -0.550 OA
ATOM     16  O   UNL     1     -11.483  27.774  -4.121  1.00  0.00    -0.550 OA
ENDBRANCH  13  14
ENDBRANCH  12  13
ENDBRANCH  11  12
ENDBRANCH  10  11
ENDBRANCH   9  10
ENDBRANCH   8   9
ENDBRANCH   7   8
ENDBRANCH   6   7
ENDBRANCH   5   6
ENDBRANCH   4   5
ENDBRANCH   3   4
ENDBRANCH   2   3
ENDBRANCH   1   2
BRANCH   1  17
ATOM     17  C   UNL     1      -6.941  25.802 -14.939  1.00  0.00     0.000 C 
BRANCH  17  18
ATOM     18  C   UNL     1      -6.458  27.207 -15.328  1.00  0.00     0.000 C 
BRANCH  18  19
ATOM     19  C   UNL     1      -7.626  28.063 -15.836  1.00  0.00     0.000 C 
BRANCH  19  20
ATOM     20  C   UNL     1      -7.826  29.348 -15.015  1.00  0.00     0.000 C 
BRANCH  20  21
ATOM     21  C   UNL     1      -9.161  30.078 -15.266  1.00  0.00     0.000 C 
BRANCH  21  22
ATOM     22  C   UNL     1      -9.061  31.355 -16.125  1.00  0.00    -0.000 C 
BRANCH  22  23
ATOM     23  C   UNL     1      -9.153  31.125 -17.643  1.00  0.00    -0.000 C 
BRANCH  23  24
ATOM     24  C   UNL     1      -8.904  29.660 -18.040  1.00  0.00    -0.000 C 
BRANCH  24  25
ATOM     25  C   UNL     1      -8.271  29.526 -19.434  1.00  0.00    -0.000 C 
BRANCH  25  26
ATOM     26  C   UNL     1      -6.849  28.941 -19.379  1.00  0.00    -0.000 C 
BRANCH  26  27
ATOM     27  C   UNL     1      -6.140  28.975 -20.743  1.00  0.00    -0.000 C 
BRANCH  27  28
ATOM     28  C   UNL     1      -6.820  28.077 -21.787  1.00  0.00    -0.000 C 
BRANCH  28  29
ATOM     29  C   UNL     1      -5.988  28.005 -23.072  1.00  0.00    -0.003 C 
ATOM     30  C   UNL     1      -4.876  26.967 -22.953  1.00  0.00     0.004 C 
ENDBRANCH  28  29
ENDBRANCH  27  28
ENDBRANCH  26  27
ENDBRANCH  25  26
ENDBRANCH  24  25
ENDBRANCH  23  24
ENDBRANCH  22  23
ENDBRANCH  21  22
ENDBRANCH  20  21
ENDBRANCH  19  20
ENDBRANCH  18  19
ENDBRANCH  17  18
ENDBRANCH   1  17
TORSDOF 26
ENDMDL
MODEL 4
REMARK VINA RESULT:    16.359      5.071     13.202
REMARK INTER + INTRA:          39.691
REMARK INTER:                  38.991
REMARK INTRA:                   0.700
REMARK UNBOUND:                -1.532
REMARK SMILES CCCCCCCCCCCCCCCCCCCCCCCCCCCC(=O)[O-]
REMARK SMILES IDX 15 1 16 2 17 3 18 4 19 5 20 6 21 7 22 8 23 9 24 10 25 11
REMARK SMILES IDX 26 12 27 13 28 14 29 15 30 16 14 17 13 18 12 19 11 20 10 21
REMARK SMILES IDX 9 22 8 23 7 24 6 25 5 26 4 27 3 28 2 29 1 30
REMARK H PARENT
REMARK Flexibility Score: inf
ROOT
ATOM      1  C   UNL     1      -8.446  29.297 -12.034  1.00  0.00     0.000 C 
ENDROOT
BRANCH   1   2
ATOM      2  C   UNL     1      -7.392  28.669 -11.098  1.00  0.00     0.000 C 
BRANCH   2   3
ATOM      3  C   UNL     1      -7.917  28.140  -9.746  1.00  0.00     0.000 C 
BRANCH   3   4
ATOM      4  C   UNL     1      -9.065  27.121  -9.859  1.00  0.00     0.000 C 
BRANCH   4   5
ATOM      5  C   UNL     1      -8.648  25.685  -9.504  1.00  0.00     0.000 C 
BRANCH   5   6
ATOM      6  C   UNL     1      -8.302  25.515  -8.012  1.00  0.00     0.000 C 
BRANCH   6   7
ATOM      7  C   UNL     1      -8.222  24.053  -7.538  1.00  0.00     0.000 C 
BRANCH   7   8
ATOM      8  C   UNL     1      -7.333  23.877  -6.295  1.00  0.00     0.000 C 
BRANCH   8   9
ATOM      9  C   UNL     1      -7.727  24.822  -5.150  1.00  0.00     0.000 C 
BRANCH   9  10
ATOM     10  C   UNL     1      -9.143  24.544  -4.619  1.00  0.00     0.000 C 
BRANCH  10  11
ATOM     11  C   UNL     1     -10.082  25.721  -4.917  1.00  0.00     0.000 C 
BRANCH  11  12
ATOM     12  C   UNL     1      -9.615  27.031  -4.263  1.00  0.00     0.006 C 
BRANCH  12  13
ATOM     13  C   UNL     1     -10.669  28.142  -4.341  1.00  0.00     0.053 C 
BRANCH  13  14
ATOM     14  C   UNL     1     -12.017  27.562  -4.634  1.00  0.00     0.041 C 
ATOM     15  O   UNL     1     -12.165  26.314  -4.717  1.00  0.00    -0.550 OA
ATOM     16  O   UNL     1     -13.101  28.401  -4.863  1.00  0.00    -0.550 OA
ENDBRANCH  13  14
ENDBRANCH  12  13
ENDBRANCH  11  12
ENDBRANCH  10  11
ENDBRANCH   9  10
ENDBRANCH   8   9
ENDBRANCH   7   8
ENDBRANCH   6   7
ENDBRANCH   5   6
ENDBRANCH   4   5
ENDBRANCH   3   4
ENDBRANCH   2   3
ENDBRANCH   1   2
BRANCH   1  17
ATOM     17  C   UNL     1      -7.912  29.873 -13.358  1.00  0.00     0.000 C 
BRANCH  17  18
ATOM     18  C   UNL     1      -9.004  30.049 -14.423  1.00  0.00     0.000 C 
BRANCH  18  19
ATOM     19  C   UNL     1      -9.099  31.515 -14.869  1.00  0.00     0.000 C 
BRANCH  19  20
ATOM     20  C   UNL     1      -8.720  31.715 -16.346  1.00  0.00     0.000 C 
BRANCH  20  21
ATOM     21  C   UNL     1      -9.828  31.354 -17.355  1.00  0.00     0.000 C 
BRANCH  21  22
ATOM     22  C   UNL     1      -9.773  29.914 -17.907  1.00  0.00    -0.000 C 
BRANCH  22  23
ATOM     23  C   UNL     1      -8.384  29.452 -18.379  1.00  0.00    -0.000 C 
BRANCH  23  24
ATOM     24  C   UNL     1      -7.677  28.546 -17.357  1.00  0.00    -0.000 C 
BRANCH  24  25
ATOM     25  C   UNL     1      -6.153  28.516 -17.551  1.00  0.00    -0.000 C 
BRANCH  25  26
ATOM     26  C   UNL     1      -5.736  28.891 -18.984  1.00  0.00    -0.000 C 
BRANCH  26  27
ATOM     27  C   UNL     1      -6.511  28.105 -20.053  1.00  0.00    -0.000 C 
BRANCH  27  28
ATOM     28  C   UNL     1      -6.554  28.830 -21.407  1.00  0.00    -0.000 C 
BRANCH  28  29
ATOM     29  C   UNL     1      -6.357  27.844 -22.563  1.00  0.00    -0.003 C 
ATOM     30  C   UNL     1      -4.876  27.579 -22.817  1.00  0.00     0.004 C 
ENDBRANCH  28  29
ENDBRANCH  27  28
ENDBRANCH  26  27
ENDBRANCH  25  26
ENDBRANCH  24  25
ENDBRANCH  23  24
ENDBRANCH  22  23
ENDBRANCH  21  22
ENDBRANCH  20  21
ENDBRANCH  19  20
ENDBRANCH  18  19
ENDBRANCH  17  18
ENDBRANCH   1  17
TORSDOF 26
ENDMDL
MODEL 5
REMARK VINA RESULT:    16.708      5.129     12.606
REMARK INTER + INTRA:          40.573
REMARK INTER:                  41.398
REMARK INTRA:                  -0.826
REMARK UNBOUND:                -1.532
REMARK SMILES CCCCCCCCCCCCCCCCCCCCCCCCCCCC(=O)[O-]
REMARK SMILES IDX 15 1 16 2 17 3 18 4 19 5 20 6 21 7 22 8 23 9 24 10 25 11
REMARK SMILES IDX 26 12 27 13 28 14 29 15 30 16 14 17 13 18 12 19 11 20 10 21
REMARK SMILES IDX 9 22 8 23 7 24 6 25 5 26 4 27 3 28 2 29 1 30
REMARK H PARENT
REMARK Flexibility Score: inf
ROOT
ATOM      1  C   UNL     1      -8.610  24.248 -12.962  1.00  0.00     0.000 C 
ENDROOT
BRANCH   1   2
ATOM      2  C   UNL     1      -8.571  23.713 -11.515  1.00  0.00     0.000 C 
BRANCH   2   3
ATOM      3  C   UNL     1      -9.658  22.680 -11.147  1.00  0.00     0.000 C 
BRANCH   3   4
ATOM      4  C   UNL     1      -9.434  21.966  -9.801  1.00  0.00     0.000 C 
BRANCH   4   5
ATOM      5  C   UNL     1      -9.278  22.931  -8.614  1.00  0.00     0.000 C 
BRANCH   5   6
ATOM      6  C   UNL     1      -9.154  22.201  -7.264  1.00  0.00     0.000 C 
BRANCH   6   7
ATOM      7  C   UNL     1      -7.971  22.664  -6.395  1.00  0.00     0.000 C 
BRANCH   7   8
ATOM      8  C   UNL     1      -7.625  24.149  -6.601  1.00  0.00     0.000 C 
BRANCH   8   9
ATOM      9  C   UNL     1      -7.632  24.944  -5.287  1.00  0.00     0.000 C 
BRANCH   9  10
ATOM     10  C   UNL     1      -8.705  24.447  -4.306  1.00  0.00     0.000 C 
BRANCH  10  11
ATOM     11  C   UNL     1      -9.985  25.289  -4.418  1.00  0.00     0.000 C 
BRANCH  11  12
ATOM     12  C   UNL     1      -9.722  26.688  -4.999  1.00  0.00     0.006 C 
BRANCH  12  13
ATOM     13  C   UNL     1     -10.628  27.763  -4.386  1.00  0.00     0.053 C 
BRANCH  13  14
ATOM     14  C   UNL     1     -12.063  27.478  -4.699  1.00  0.00     0.041 C 
ATOM     15  O   UNL     1     -12.964  28.265  -4.308  1.00  0.00    -0.550 OA
ATOM     16  O   UNL     1     -12.410  26.318  -5.381  1.00  0.00    -0.550 OA
ENDBRANCH  13  14
ENDBRANCH  12  13
ENDBRANCH  11  12
ENDBRANCH  10  11
ENDBRANCH   9  10
ENDBRANCH   8   9
ENDBRANCH   7   8
ENDBRANCH   6   7
ENDBRANCH   5   6
ENDBRANCH   4   5
ENDBRANCH   3   4
ENDBRANCH   2   3
ENDBRANCH   1   2
BRANCH   1  17
ATOM     17  C   UNL     1      -7.484  25.225 -13.348  1.00  0.00     0.000 C 
BRANCH  17  18
ATOM     18  C   UNL     1      -7.600  25.740 -14.790  1.00  0.00     0.000 C 
BRANCH  18  19
ATOM     19  C   UNL     1      -6.604  26.879 -15.044  1.00  0.00     0.000 C 
BRANCH  19  20
ATOM     20  C   UNL     1      -7.184  27.992 -15.933  1.00  0.00     0.000 C 
BRANCH  20  21
ATOM     21  C   UNL     1      -6.228  28.516 -17.023  1.00  0.00     0.000 C 
BRANCH  21  22
ATOM     22  C   UNL     1      -6.385  27.857 -18.409  1.00  0.00    -0.000 C 
BRANCH  22  23
ATOM     23  C   UNL     1      -6.060  28.771 -19.603  1.00  0.00    -0.000 C 
BRANCH  23  24
ATOM     24  C   UNL     1      -7.313  29.403 -20.231  1.00  0.00    -0.000 C 
BRANCH  24  25
ATOM     25  C   UNL     1      -8.597  29.057 -19.459  1.00  0.00    -0.000 C 
BRANCH  25  26
ATOM     26  C   UNL     1      -9.256  30.297 -18.831  1.00  0.00    -0.000 C 
BRANCH  26  27
ATOM     27  C   UNL     1      -9.257  30.255 -17.294  1.00  0.00    -0.000 C 
BRANCH  27  28
ATOM     28  C   UNL     1      -9.099  31.647 -16.663  1.00  0.00    -0.000 C 
BRANCH  28  29
ATOM     29  C   UNL     1      -9.013  31.549 -15.136  1.00  0.00    -0.003 C 
ATOM     30  C   UNL     1      -8.919  30.097 -14.679  1.00  0.00     0.004 C 
ENDBRANCH  28  29
ENDBRANCH  27  28
ENDBRANCH  26  27
ENDBRANCH  25  26
ENDBRANCH  24  25
ENDBRANCH  23  24
ENDBRANCH  22  23
ENDBRANCH  21  22
ENDBRANCH  20  21
ENDBRANCH  19  20
ENDBRANCH  18  19
ENDBRANCH  17  18
ENDBRANCH   1  17
TORSDOF 26
ENDMDL
MODEL 6
REMARK VINA RESULT:    16.809      1.297      2.731
REMARK INTER + INTRA:          40.827
REMARK INTER:                  39.216
REMARK INTRA:                   1.610
REMARK UNBOUND:                -1.532
REMARK SMILES CCCCCCCCCCCCCCCCCCCCCCCCCCCC(=O)[O-]
REMARK SMILES IDX 15 1 16 2 17 3 18 4 19 5 20 6 21 7 22 8 23 9 24 10 25 11
REMARK SMILES IDX 26 12 27 13 28 14 29 15 30 16 14 17 13 18 12 19 11 20 10 21
REMARK SMILES IDX 9 22 8 23 7 24 6 25 5 26 4 27 3 28 2 29 1 30
REMARK H PARENT
REMARK Flexibility Score: inf
ROOT
ATOM      1  C   UNL     1      -8.150  30.100 -13.042  1.00  0.00     0.000 C 
ENDROOT
BRANCH   1   2
ATOM      2  C   UNL     1      -8.279  29.796 -14.550  1.00  0.00     0.000 C 
BRANCH   2   3
ATOM      3  C   UNL     1      -9.371  30.581 -15.308  1.00  0.00     0.000 C 
BRANCH   3   4
ATOM      4  C   UNL     1      -9.011  32.046 -15.614  1.00  0.00     0.000 C 
BRANCH   4   5
ATOM      5  C   UNL     1      -8.993  32.372 -17.117  1.00  0.00     0.000 C 
BRANCH   5   6
ATOM      6  C   UNL     1      -9.423  31.179 -17.991  1.00  0.00     0.000 C 
BRANCH   6   7
ATOM      7  C   UNL     1      -9.041  29.800 -17.420  1.00  0.00     0.000 C 
BRANCH   7   8
ATOM      8  C   UNL     1      -8.359  28.894 -18.459  1.00  0.00     0.000 C 
BRANCH   8   9
ATOM      9  C   UNL     1      -6.958  28.443 -18.019  1.00  0.00     0.000 C 
BRANCH   9  10
ATOM     10  C   UNL     1      -5.872  28.820 -19.040  1.00  0.00     0.000 C 
BRANCH  10  11
ATOM     11  C   UNL     1      -6.230  28.298 -20.439  1.00  0.00     0.000 C 
BRANCH  11  12
ATOM     12  C   UNL     1      -6.010  29.352 -21.537  1.00  0.00     0.006 C 
BRANCH  12  13
ATOM     13  C   UNL     1      -5.651  28.730 -22.892  1.00  0.00     0.053 C 
BRANCH  13  14
ATOM     14  C   UNL     1      -5.922  27.258 -22.879  1.00  0.00     0.041 C 
ATOM     15  O   UNL     1      -7.103  26.831 -22.969  1.00  0.00    -0.550 OA
ATOM     16  O   UNL     1      -4.875  26.359 -22.719  1.00  0.00    -0.550 OA
ENDBRANCH  13  14
ENDBRANCH  12  13
ENDBRANCH  11  12
ENDBRANCH  10  11
ENDBRANCH   9  10
ENDBRANCH   8   9
ENDBRANCH   7   8
ENDBRANCH   6   7
ENDBRANCH   5   6
ENDBRANCH   4   5
ENDBRANCH   3   4
ENDBRANCH   2   3
ENDBRANCH   1   2
BRANCH   1  17
ATOM     17  C   UNL     1      -7.496  28.999 -12.188  1.00  0.00     0.000 C 
BRANCH  17  18
ATOM     18  C   UNL     1      -7.960  29.017 -10.724  1.00  0.00     0.000 C 
BRANCH  18  19
ATOM     19  C   UNL     1      -7.656  27.677 -10.040  1.00  0.00     0.000 C 
BRANCH  19  20
ATOM     20  C   UNL     1      -8.905  26.796  -9.871  1.00  0.00     0.000 C 
BRANCH  20  21
ATOM     21  C   UNL     1      -8.638  25.395  -9.286  1.00  0.00     0.000 C 
BRANCH  21  22
ATOM     22  C   UNL     1      -8.557  25.328  -7.747  1.00  0.00    -0.000 C 
BRANCH  22  23
ATOM     23  C   UNL     1      -7.860  24.076  -7.187  1.00  0.00    -0.000 C 
BRANCH  23  24
ATOM     24  C   UNL     1      -7.197  24.322  -5.822  1.00  0.00    -0.000 C 
BRANCH  24  25
ATOM     25  C   UNL     1      -8.223  24.517  -4.695  1.00  0.00    -0.000 C 
BRANCH  25  26
ATOM     26  C   UNL     1      -8.844  25.925  -4.702  1.00  0.00    -0.000 C 
BRANCH  26  27
ATOM     27  C   UNL     1     -10.380  25.897  -4.672  1.00  0.00    -0.000 C 
BRANCH  27  28
ATOM     28  C   UNL     1     -10.989  27.246  -4.259  1.00  0.00    -0.000 C 
BRANCH  28  29
ATOM     29  C   UNL     1     -12.187  27.601  -5.146  1.00  0.00    -0.003 C 
ATOM     30  C   UNL     1     -13.158  28.525  -4.418  1.00  0.00     0.004 C 
ENDBRANCH  28  29
ENDBRANCH  27  28
ENDBRANCH  26  27
ENDBRANCH  25  26
ENDBRANCH  24  25
ENDBRANCH  23  24
ENDBRANCH  22  23
ENDBRANCH  21  22
ENDBRANCH  20  21
ENDBRANCH  19  20
ENDBRANCH  18  19
ENDBRANCH  17  18
ENDBRANCH   1  17
TORSDOF 26
ENDMDL
MODEL 7
REMARK VINA RESULT:    17.189      5.075     13.236
REMARK INTER + INTRA:          41.784
REMARK INTER:                  39.495
REMARK INTRA:                   2.289
REMARK UNBOUND:                -1.532
REMARK SMILES CCCCCCCCCCCCCCCCCCCCCCCCCCCC(=O)[O-]
REMARK SMILES IDX 15 1 16 2 17 3 18 4 19 5 20 6 21 7 22 8 23 9 24 10 25 11
REMARK SMILES IDX 26 12 27 13 28 14 29 15 30 16 14 17 13 18 12 19 11 20 10 21
REMARK SMILES IDX 9 22 8 23 7 24 6 25 5 26 4 27 3 28 2 29 1 30
REMARK H PARENT
REMARK Flexibility Score: inf
ROOT
ATOM      1  C   UNL     1      -8.888  28.106  -9.781  1.00  0.00     0.000 C 
ENDROOT
BRANCH   1   2
ATOM      2  C   UNL     1      -8.991  26.573  -9.638  1.00  0.00     0.000 C 
BRANCH   2   3
ATOM      3  C   UNL     1      -8.845  26.016  -8.205  1.00  0.00     0.000 C 
BRANCH   3   4
ATOM      4  C   UNL     1      -7.661  25.051  -8.011  1.00  0.00     0.000 C 
BRANCH   4   5
ATOM      5  C   UNL     1      -7.493  24.571  -6.559  1.00  0.00     0.000 C 
BRANCH   5   6
ATOM      6  C   UNL     1      -6.020  24.541  -6.108  1.00  0.00     0.000 C 
BRANCH   6   7
ATOM      7  C   UNL     1      -5.771  23.775  -4.796  1.00  0.00     0.000 C 
BRANCH   7   8
ATOM      8  C   UNL     1      -6.979  23.814  -3.844  1.00  0.00     0.000 C 
BRANCH   8   9
ATOM      9  C   UNL     1      -8.317  23.897  -4.594  1.00  0.00     0.000 C 
BRANCH   9  10
ATOM     10  C   UNL     1      -9.400  24.626  -3.782  1.00  0.00     0.000 C 
BRANCH  10  11
ATOM     11  C   UNL     1     -10.199  25.589  -4.672  1.00  0.00     0.000 C 
BRANCH  11  12
ATOM     12  C   UNL     1      -9.605  27.007  -4.691  1.00  0.00     0.006 C 
BRANCH  12  13
ATOM     13  C   UNL     1     -10.678  28.097  -4.803  1.00  0.00     0.053 C 
BRANCH  13  14
ATOM     14  C   UNL     1     -12.044  27.501  -4.669  1.00  0.00     0.041 C 
ATOM     15  O   UNL     1     -12.811  27.878  -3.744  1.00  0.00    -0.550 OA
ATOM     16  O   UNL     1     -12.453  26.494  -5.536  1.00  0.00    -0.550 OA
ENDBRANCH  13  14
ENDBRANCH  12  13
ENDBRANCH  11  12
ENDBRANCH  10  11
ENDBRANCH   9  10
ENDBRANCH   8   9
ENDBRANCH   7   8
ENDBRANCH   6   7
ENDBRANCH   5   6
ENDBRANCH   4   5
ENDBRANCH   3   4
ENDBRANCH   2   3
ENDBRANCH   1   2
BRANCH   1  17
ATOM     17  C   UNL     1      -7.841  28.618 -10.787  1.00  0.00     0.000 C 
BRANCH  17  18
ATOM     18  C   UNL     1      -8.468  29.294 -12.016  1.00  0.00     0.000 C 
BRANCH  18  19
ATOM     19  C   UNL     1      -7.399  29.597 -13.075  1.00  0.00     0.000 C 
BRANCH  19  20
ATOM     20  C   UNL     1      -7.902  29.372 -14.511  1.00  0.00     0.000 C 
BRANCH  20  21
ATOM     21  C   UNL     1      -9.279  29.993 -14.821  1.00  0.00     0.000 C 
BRANCH  21  22
ATOM     22  C   UNL     1      -9.251  31.230 -15.743  1.00  0.00    -0.000 C 
BRANCH  22  23
ATOM     23  C   UNL     1      -8.719  30.969 -17.163  1.00  0.00    -0.000 C 
BRANCH  23  24
ATOM     24  C   UNL     1      -8.778  29.484 -17.559  1.00  0.00    -0.000 C 
BRANCH  24  25
ATOM     25  C   UNL     1      -7.452  28.752 -17.300  1.00  0.00    -0.000 C 
BRANCH  25  26
ATOM     26  C   UNL     1      -6.616  28.582 -18.580  1.00  0.00    -0.000 C 
BRANCH  26  27
ATOM     27  C   UNL     1      -7.301  29.177 -19.821  1.00  0.00    -0.000 C 
BRANCH  27  28
ATOM     28  C   UNL     1      -6.381  29.204 -21.051  1.00  0.00    -0.000 C 
BRANCH  28  29
ATOM     29  C   UNL     1      -5.940  27.787 -21.436  1.00  0.00    -0.003 C 
ATOM     30  C   UNL     1      -5.814  27.640 -22.949  1.00  0.00     0.004 C 
ENDBRANCH  28  29
ENDBRANCH  27  28
ENDBRANCH  26  27
ENDBRANCH  25  26
ENDBRANCH  24  25
ENDBRANCH  23  24
ENDBRANCH  22  23
ENDBRANCH  21  22
ENDBRANCH  20  21
ENDBRANCH  19  20
ENDBRANCH  18  19
ENDBRANCH  17  18
ENDBRANCH   1  17
TORSDOF 26
ENDMDL
MODEL 8
REMARK VINA RESULT:    17.303      4.966     12.975
REMARK INTER + INTRA:          42.072
REMARK INTER:                  43.206
REMARK INTRA:                  -1.134
REMARK UNBOUND:                -1.532
REMARK SMILES CCCCCCCCCCCCCCCCCCCCCCCCCCCC(=O)[O-]
REMARK SMILES IDX 15 1 16 2 17 3 18 4 19 5 20 6 21 7 22 8 23 9 24 10 25 11
REMARK SMILES IDX 26 12 27 13 28 14 29 15 30 16 14 17 13 18 12 19 11 20 10 21
REMARK SMILES IDX 9 22 8 23 7 24 6 25 5 26 4 27 3 28 2 29 1 30
REMARK H PARENT
REMARK Flexibility Score: inf
ROOT
ATOM      1  C   UNL     1      -8.222  26.305  -9.732  1.00  0.00     0.000 C 
ENDROOT
BRANCH   1   2
ATOM      2  C   UNL     1      -9.277  25.324 -10.285  1.00  0.00     0.000 C 
BRANCH   2   3
ATOM      3  C   UNL     1      -8.729  24.027 -10.920  1.00  0.00     0.000 C 
BRANCH   3   4
ATOM      4  C   UNL     1      -9.616  22.786 -10.710  1.00  0.00     0.000 C 
BRANCH   4   5
ATOM      5  C   UNL     1      -9.184  21.919  -9.516  1.00  0.00     0.000 C 
BRANCH   5   6
ATOM      6  C   UNL     1      -9.626  22.506  -8.162  1.00  0.00     0.000 C 
BRANCH   6   7
ATOM      7  C   UNL     1      -8.480  22.729  -7.159  1.00  0.00     0.000 C 
BRANCH   7   8
ATOM      8  C   UNL     1      -8.174  24.218  -6.924  1.00  0.00     0.000 C 
BRANCH   8   9
ATOM      9  C   UNL     1      -7.672  24.500  -5.500  1.00  0.00     0.000 C 
BRANCH   9  10
ATOM     10  C   UNL     1      -8.711  24.132  -4.429  1.00  0.00     0.000 C 
BRANCH  10  11
ATOM     11  C   UNL     1      -9.497  25.372  -3.977  1.00  0.00     0.000 C 
BRANCH  11  12
ATOM     12  C   UNL     1      -9.676  26.401  -5.105  1.00  0.00     0.006 C 
BRANCH  12  13
ATOM     13  C   UNL     1     -10.537  27.598  -4.683  1.00  0.00     0.053 C 
BRANCH  13  14
ATOM     14  C   UNL     1     -11.990  27.269  -4.818  1.00  0.00     0.041 C 
ATOM     15  O   UNL     1     -12.346  26.134  -5.231  1.00  0.00    -0.550 OA
ATOM     16  O   UNL     1     -12.951  28.232  -4.535  1.00  0.00    -0.550 OA
ENDBRANCH  13  14
ENDBRANCH  12  13
ENDBRANCH  11  12
ENDBRANCH  10  11
ENDBRANCH   9  10
ENDBRANCH   8   9
ENDBRANCH   7   8
ENDBRANCH   6   7
ENDBRANCH   5   6
ENDBRANCH   4   5
ENDBRANCH   3   4
ENDBRANCH   2   3
ENDBRANCH   1   2
BRANCH   1  17
ATOM     17  C   UNL     1      -8.473  27.796 -10.024  1.00  0.00     0.000 C 
BRANCH  17  18
ATOM     18  C   UNL     1      -7.482  28.386 -11.037  1.00  0.00     0.000 C 
BRANCH  18  19
ATOM     19  C   UNL     1      -8.181  29.396 -11.958  1.00  0.00     0.000 C 
BRANCH  19  20
ATOM     20  C   UNL     1      -7.476  29.553 -13.316  1.00  0.00     0.000 C 
BRANCH  20  21
ATOM     21  C   UNL     1      -8.396  29.407 -14.545  1.00  0.00     0.000 C 
BRANCH  21  22
ATOM     22  C   UNL     1      -8.563  30.682 -15.397  1.00  0.00    -0.000 C 
BRANCH  22  23
ATOM     23  C   UNL     1      -9.797  30.691 -16.316  1.00  0.00    -0.000 C 
BRANCH  23  24
ATOM     24  C   UNL     1      -9.654  29.742 -17.517  1.00  0.00    -0.000 C 
BRANCH  24  25
ATOM     25  C   UNL     1      -8.186  29.438 -17.857  1.00  0.00    -0.000 C 
BRANCH  25  26
ATOM     26  C   UNL     1      -7.916  29.466 -19.371  1.00  0.00    -0.000 C 
BRANCH  26  27
ATOM     27  C   UNL     1      -6.773  28.526 -19.788  1.00  0.00    -0.000 C 
BRANCH  27  28
ATOM     28  C   UNL     1      -5.805  29.178 -20.787  1.00  0.00    -0.000 C 
BRANCH  28  29
ATOM     29  C   UNL     1      -5.875  28.483 -22.152  1.00  0.00    -0.003 C 
ATOM     30  C   UNL     1      -6.521  27.107 -22.038  1.00  0.00     0.004 C 
ENDBRANCH  28  29
ENDBRANCH  27  28
ENDBRANCH  26  27
ENDBRANCH  25  26
ENDBRANCH  24  25
ENDBRANCH  23  24
ENDBRANCH  22  23
ENDBRANCH  21  22
ENDBRANCH  20  21
ENDBRANCH  19  20
ENDBRANCH  18  19
ENDBRANCH  17  18
ENDBRANCH   1  17
TORSDOF 26
ENDMDL
MODEL 9
REMARK VINA RESULT:    17.304      2.847      4.311
REMARK INTER + INTRA:          42.073
REMARK INTER:                  42.629
REMARK INTRA:                  -0.556
REMARK UNBOUND:                -1.532
REMARK SMILES CCCCCCCCCCCCCCCCCCCCCCCCCCCC(=O)[O-]
REMARK SMILES IDX 15 1 16 2 17 3 18 4 19 5 20 6 21 7 22 8 23 9 24 10 25 11
REMARK SMILES IDX 26 12 27 13 28 14 29 15 30 16 14 17 13 18 12 19 11 20 10 21
REMARK SMILES IDX 9 22 8 23 7 24 6 25 5 26 4 27 3 28 2 29 1 30
REMARK H PARENT
REMARK Flexibility Score: inf
ROOT
ATOM      1  C   UNL     1      -7.574  25.443 -13.403  1.00  0.00     0.000 C 
ENDROOT
BRANCH   1   2
ATOM      2  C   UNL     1      -7.215  25.704 -14.881  1.00  0.00     0.000 C 
BRANCH   2   3
ATOM      3  C   UNL     1      -7.013  27.183 -15.277  1.00  0.00     0.000 C 
BRANCH   3   4
ATOM      4  C   UNL     1      -5.969  27.413 -16.384  1.00  0.00     0.000 C 
BRANCH   4   5
ATOM      5  C   UNL     1      -6.409  28.442 -17.439  1.00  0.00     0.000 C 
BRANCH   5   6
ATOM      6  C   UNL     1      -6.363  27.882 -18.873  1.00  0.00     0.000 C 
BRANCH   6   7
ATOM      7  C   UNL     1      -5.964  28.912 -19.946  1.00  0.00     0.000 C 
BRANCH   7   8
ATOM      8  C   UNL     1      -7.179  29.524 -20.665  1.00  0.00     0.000 C 
BRANCH   8   9
ATOM      9  C   UNL     1      -8.510  29.143 -20.000  1.00  0.00     0.000 C 
BRANCH   9  10
ATOM     10  C   UNL     1      -9.066  30.268 -19.112  1.00  0.00     0.000 C 
BRANCH  10  11
ATOM     11  C   UNL     1      -9.633  29.703 -17.802  1.00  0.00     0.000 C 
BRANCH  11  12
ATOM     12  C   UNL     1      -8.685  29.909 -16.609  1.00  0.00     0.006 C 
BRANCH  12  13
ATOM     13  C   UNL     1      -9.305  30.770 -15.502  1.00  0.00     0.053 C 
BRANCH  13  14
ATOM     14  C   UNL     1      -9.003  32.216 -15.734  1.00  0.00     0.041 C 
ATOM     15  O   UNL     1      -8.695  32.962 -14.767  1.00  0.00    -0.550 OA
ATOM     16  O   UNL     1      -9.108  32.754 -17.011  1.00  0.00    -0.550 OA
ENDBRANCH  13  14
ENDBRANCH  12  13
ENDBRANCH  11  12
ENDBRANCH  10  11
ENDBRANCH   9  10
ENDBRANCH   8   9
ENDBRANCH   7   8
ENDBRANCH   6   7
ENDBRANCH   5   6
ENDBRANCH   4   5
ENDBRANCH   3   4
ENDBRANCH   2   3
ENDBRANCH   1   2
BRANCH   1  17
ATOM     17  C   UNL     1      -8.655  24.375 -13.153  1.00  0.00     0.000 C 
BRANCH  17  18
ATOM     18  C   UNL     1      -8.606  23.789 -11.734  1.00  0.00     0.000 C 
BRANCH  18  19
ATOM     19  C   UNL     1      -9.227  22.386 -11.702  1.00  0.00     0.000 C 
BRANCH  19  20
ATOM     20  C   UNL     1     -10.004  22.108 -10.404  1.00  0.00     0.000 C 
BRANCH  20  21
ATOM     21  C   UNL     1      -9.165  22.195  -9.114  1.00  0.00     0.000 C 
BRANCH  21  22
ATOM     22  C   UNL     1      -9.972  22.156  -7.799  1.00  0.00    -0.000 C 
BRANCH  22  23
ATOM     23  C   UNL     1      -9.156  22.448  -6.528  1.00  0.00    -0.000 C 
BRANCH  23  24
ATOM     24  C   UNL     1      -7.977  23.402  -6.782  1.00  0.00    -0.000 C 
BRANCH  24  25
ATOM     25  C   UNL     1      -7.084  23.577  -5.543  1.00  0.00    -0.000 C 
BRANCH  25  26
ATOM     26  C   UNL     1      -7.275  24.948  -4.871  1.00  0.00    -0.000 C 
BRANCH  26  27
ATOM     27  C   UNL     1      -8.415  25.764  -5.500  1.00  0.00    -0.000 C 
BRANCH  27  28
ATOM     28  C   UNL     1      -9.702  25.729  -4.662  1.00  0.00    -0.000 C 
BRANCH  28  29
ATOM     29  C   UNL     1     -10.436  27.073  -4.727  1.00  0.00    -0.003 C 
ATOM     30  C   UNL     1     -11.941  26.875  -4.874  1.00  0.00     0.004 C 
ENDBRANCH  28  29
ENDBRANCH  27  28
ENDBRANCH  26  27
ENDBRANCH  25  26
ENDBRANCH  24  25
ENDBRANCH  23  24
ENDBRANCH  22  23
ENDBRANCH  21  22
ENDBRANCH  20  21
ENDBRANCH  19  20
ENDBRANCH  18  19
ENDBRANCH  17  18
ENDBRANCH   1  17
TORSDOF 26
ENDMDL
