MODEL 1
REMARK VINA RESULT:    -3.725      0.000      0.000
REMARK INTER + INTRA:         -14.844
REMARK INTER:                  -9.387
REMARK INTRA:                  -5.457
REMARK UNBOUND:                -5.457
REMARK SMILES CCCCCCCCCCCCCCCCCCCCCCCCCCCC(=O)[O-]
REMARK SMILES IDX 15 1 16 2 17 3 18 4 19 5 20 6 21 7 22 8 23 9 24 10 25 11
REMARK SMILES IDX 26 12 27 13 28 14 29 15 30 16 14 17 13 18 12 19 11 20 10 21
REMARK SMILES IDX 9 22 8 23 7 24 6 25 5 26 4 27 3 28 2 29 1 30
REMARK H PARENT
REMARK Flexibility Score: inf
ROOT
ATOM      1  C   UNL     1       1.161   7.170  -0.116  1.00  0.00     0.000 C 
ENDROOT
BRANCH   1   2
ATOM      2  C   UNL     1       2.451   7.744   0.499  1.00  0.00     0.000 C 
BRANCH   2   3
ATOM      3  C   UNL     1       3.328   6.659   1.149  1.00  0.00     0.000 C 
BRANCH   3   4
ATOM      4  C   UNL     1       4.205   7.206   2.287  1.00  0.00     0.000 C 
BRANCH   4   5
ATOM      5  C   UNL     1       4.074   6.395   3.587  1.00  0.00     0.000 C 
BRANCH   5   6
ATOM      6  C   UNL     1       3.734   7.308   4.771  1.00  0.00     0.000 C 
BRANCH   6   7
ATOM      7  C   UNL     1       2.825   8.465   4.329  1.00  0.00     0.000 C 
BRANCH   7   8
ATOM      8  C   UNL     1       1.336   8.170   4.572  1.00  0.00     0.000 C 
BRANCH   8   9
ATOM      9  C   UNL     1       0.458   8.549   3.367  1.00  0.00     0.000 C 
BRANCH   9  10
ATOM     10  C   UNL     1      -0.635   7.506   3.074  1.00  0.00     0.000 C 
BRANCH  10  11
ATOM     11  C   UNL     1      -0.373   6.102   3.657  1.00  0.00     0.000 C 
BRANCH  11  12
ATOM     12  C   UNL     1       0.295   5.097   2.696  1.00  0.00     0.006 C 
BRANCH  12  13
ATOM     13  C   UNL     1       1.303   4.155   3.380  1.00  0.00     0.053 C 
BRANCH  13  14
ATOM     14  C   UNL     1       1.025   3.979   4.843  1.00  0.00     0.041 C 
ATOM     15  O   UNL     1       1.710   4.600   5.697  1.00  0.00    -0.550 OA
ATOM     16  O   UNL     1       0.034   3.100   5.265  1.00  0.00    -0.550 OA
ENDBRANCH  13  14
ENDBRANCH  12  13
ENDBRANCH  11  12
ENDBRANCH  10  11
ENDBRANCH   9  10
ENDBRANCH   8   9
ENDBRANCH   7   8
ENDBRANCH   6   7
ENDBRANCH   5   6
ENDBRANCH   4   5
ENDBRANCH   3   4
ENDBRANCH   2   3
ENDBRANCH   1   2
BRANCH   1  17
ATOM     17  C   UNL     1       0.180   8.231  -0.658  1.00  0.00     0.000 C 
BRANCH  17  18
ATOM     18  C   UNL     1       0.111   8.338  -2.196  1.00  0.00     0.000 C 
BRANCH  18  19
ATOM     19  C   UNL     1       1.447   8.690  -2.879  1.00  0.00     0.000 C 
BRANCH  19  20
ATOM     20  C   UNL     1       1.748   7.783  -4.086  1.00  0.00     0.000 C 
BRANCH  20  21
ATOM     21  C   UNL     1       2.122   6.352  -3.662  1.00  0.00     0.000 C 
BRANCH  21  22
ATOM     22  C   UNL     1       3.386   6.273  -2.784  1.00  0.00    -0.000 C 
BRANCH  22  23
ATOM     23  C   UNL     1       4.677   6.352  -3.618  1.00  0.00    -0.000 C 
BRANCH  23  24
ATOM     24  C   UNL     1       5.636   7.456  -3.138  1.00  0.00    -0.000 C 
BRANCH  24  25
ATOM     25  C   UNL     1       5.328   8.023  -1.740  1.00  0.00    -0.000 C 
BRANCH  25  26
ATOM     26  C   UNL     1       6.514   7.906  -0.769  1.00  0.00    -0.000 C 
BRANCH  26  27
ATOM     27  C   UNL     1       6.745   6.446  -0.356  1.00  0.00    -0.000 C 
BRANCH  27  28
ATOM     28  C   UNL     1       7.661   6.312   0.872  1.00  0.00    -0.000 C 
BRANCH  28  29
ATOM     29  C   UNL     1       7.306   5.098   1.745  1.00  0.00    -0.003 C 
ATOM     30  C   UNL     1       6.216   4.250   1.096  1.00  0.00     0.004 C 
ENDBRANCH  28  29
ENDBRANCH  27  28
ENDBRANCH  26  27
ENDBRANCH  25  26
ENDBRANCH  24  25
ENDBRANCH  23  24
ENDBRANCH  22  23
ENDBRANCH  21  22
ENDBRANCH  20  21
ENDBRANCH  19  20
ENDBRANCH  18  19
ENDBRANCH  17  18
ENDBRANCH   1  17
TORSDOF 26
ENDMDL
MODEL 2
REMARK VINA RESULT:    -3.600      1.505      3.869
REMARK INTER + INTRA:         -14.529
REMARK INTER:                  -9.161
REMARK INTRA:                  -5.368
REMARK UNBOUND:                -5.457
REMARK SMILES CCCCCCCCCCCCCCCCCCCCCCCCCCCC(=O)[O-]
REMARK SMILES IDX 15 1 16 2 17 3 18 4 19 5 20 6 21 7 22 8 23 9 24 10 25 11
REMARK SMILES IDX 26 12 27 13 28 14 29 15 30 16 14 17 13 18 12 19 11 20 10 21
REMARK SMILES IDX 9 22 8 23 7 24 6 25 5 26 4 27 3 28 2 29 1 30
REMARK H PARENT
REMARK Flexibility Score: inf
ROOT
ATOM      1  C   UNL     1       1.733   6.061  -2.357  1.00  0.00     0.000 C 
ENDROOT
BRANCH   1   2
ATOM      2  C   UNL     1       0.621   7.089  -2.076  1.00  0.00     0.000 C 
BRANCH   2   3
ATOM      3  C   UNL     1       0.910   8.459  -2.715  1.00  0.00     0.000 C 
BRANCH   3   4
ATOM      4  C   UNL     1       0.087   9.595  -2.085  1.00  0.00     0.000 C 
BRANCH   4   5
ATOM      5  C   UNL     1      -0.978   9.088  -1.100  1.00  0.00     0.000 C 
BRANCH   5   6
ATOM      6  C   UNL     1      -0.786   9.713   0.286  1.00  0.00     0.000 C 
BRANCH   6   7
ATOM      7  C   UNL     1       0.669   9.571   0.757  1.00  0.00     0.000 C 
BRANCH   7   8
ATOM      8  C   UNL     1       0.774   9.002   2.182  1.00  0.00     0.000 C 
BRANCH   8   9
ATOM      9  C   UNL     1       0.003   7.681   2.343  1.00  0.00     0.000 C 
BRANCH   9  10
ATOM     10  C   UNL     1       0.762   6.474   1.764  1.00  0.00     0.000 C 
BRANCH  10  11
ATOM     11  C   UNL     1       0.312   5.100   2.299  1.00  0.00     0.000 C 
BRANCH  11  12
ATOM     12  C   UNL     1       1.249   4.452   3.339  1.00  0.00     0.006 C 
BRANCH  12  13
ATOM     13  C   UNL     1       0.667   4.416   4.765  1.00  0.00     0.053 C 
BRANCH  13  14
ATOM     14  C   UNL     1       1.350   5.379   5.690  1.00  0.00     0.041 C 
ATOM     15  O   UNL     1       0.739   5.837   6.691  1.00  0.00    -0.550 OA
ATOM     16  O   UNL     1       2.648   5.800   5.425  1.00  0.00    -0.550 OA
ENDBRANCH  13  14
ENDBRANCH  12  13
ENDBRANCH  11  12
ENDBRANCH  10  11
ENDBRANCH   9  10
ENDBRANCH   8   9
ENDBRANCH   7   8
ENDBRANCH   6   7
ENDBRANCH   5   6
ENDBRANCH   4   5
ENDBRANCH   3   4
ENDBRANCH   2   3
ENDBRANCH   1   2
BRANCH   1  17
ATOM     17  C   UNL     1       2.366   6.168  -3.761  1.00  0.00     0.000 C 
BRANCH  17  18
ATOM     18  C   UNL     1       3.873   6.499  -3.779  1.00  0.00     0.000 C 
BRANCH  18  19
ATOM     19  C   UNL     1       4.656   6.005  -2.548  1.00  0.00     0.000 C 
BRANCH  19  20
ATOM     20  C   UNL     1       5.484   7.123  -1.888  1.00  0.00     0.000 C 
BRANCH  20  21
ATOM     21  C   UNL     1       4.825   8.506  -2.045  1.00  0.00     0.000 C 
BRANCH  21  22
ATOM     22  C   UNL     1       4.038   8.966  -0.803  1.00  0.00    -0.000 C 
BRANCH  22  23
ATOM     23  C   UNL     1       3.836   7.826   0.210  1.00  0.00    -0.000 C 
BRANCH  23  24
ATOM     24  C   UNL     1       4.377   8.163   1.611  1.00  0.00    -0.000 C 
BRANCH  24  25
ATOM     25  C   UNL     1       4.492   6.964   2.570  1.00  0.00    -0.000 C 
BRANCH  25  26
ATOM     26  C   UNL     1       4.346   5.609   1.861  1.00  0.00    -0.000 C 
BRANCH  26  27
ATOM     27  C   UNL     1       5.619   4.765   2.018  1.00  0.00    -0.000 C 
BRANCH  27  28
ATOM     28  C   UNL     1       6.428   4.660   0.715  1.00  0.00    -0.000 C 
BRANCH  28  29
ATOM     29  C   UNL     1       7.865   5.186   0.866  1.00  0.00    -0.003 C 
ATOM     30  C   UNL     1       7.919   6.702   0.696  1.00  0.00     0.004 C 
ENDBRANCH  28  29
ENDBRANCH  27  28
ENDBRANCH  26  27
ENDBRANCH  25  26
ENDBRANCH  24  25
ENDBRANCH  23  24
ENDBRANCH  22  23
ENDBRANCH  21  22
ENDBRANCH  20  21
ENDBRANCH  19  20
ENDBRANCH  18  19
ENDBRANCH  17  18
ENDBRANCH   1  17
TORSDOF 26
ENDMDL
MODEL 3
REMARK VINA RESULT:    -3.566      1.641      3.853
REMARK INTER + INTRA:         -14.444
REMARK INTER:                  -9.599
REMARK INTRA:                  -4.845
REMARK UNBOUND:                -5.457
REMARK SMILES CCCCCCCCCCCCCCCCCCCCCCCCCCCC(=O)[O-]
REMARK SMILES IDX 15 1 16 2 17 3 18 4 19 5 20 6 21 7 22 8 23 9 24 10 25 11
REMARK SMILES IDX 26 12 27 13 28 14 29 15 30 16 14 17 13 18 12 19 11 20 10 21
REMARK SMILES IDX 9 22 8 23 7 24 6 25 5 26 4 27 3 28 2 29 1 30
REMARK H PARENT
REMARK Flexibility Score: inf
ROOT
ATOM      1  C   UNL     1       1.145   6.983  -1.551  1.00  0.00     0.000 C 
ENDROOT
BRANCH   1   2
ATOM      2  C   UNL     1      -0.135   7.792  -1.830  1.00  0.00     0.000 C 
BRANCH   2   3
ATOM      3  C   UNL     1      -0.007   9.265  -1.400  1.00  0.00     0.000 C 
BRANCH   3   4
ATOM      4  C   UNL     1       0.466   9.421   0.055  1.00  0.00     0.000 C 
BRANCH   4   5
ATOM      5  C   UNL     1      -0.556   8.897   1.076  1.00  0.00     0.000 C 
BRANCH   5   6
ATOM      6  C   UNL     1       0.128   8.530   2.398  1.00  0.00     0.000 C 
BRANCH   6   7
ATOM      7  C   UNL     1      -0.168   7.072   2.783  1.00  0.00     0.000 C 
BRANCH   7   8
ATOM      8  C   UNL     1       0.584   6.065   1.897  1.00  0.00     0.000 C 
BRANCH   8   9
ATOM      9  C   UNL     1       0.926   4.766   2.646  1.00  0.00     0.000 C 
BRANCH   9  10
ATOM     10  C   UNL     1      -0.313   3.900   2.933  1.00  0.00     0.000 C 
BRANCH  10  11
ATOM     11  C   UNL     1      -0.400   3.334   4.364  1.00  0.00     0.000 C 
BRANCH  11  12
ATOM     12  C   UNL     1       0.501   4.026   5.409  1.00  0.00     0.006 C 
BRANCH  12  13
ATOM     13  C   UNL     1      -0.209   5.134   6.209  1.00  0.00     0.053 C 
BRANCH  13  14
ATOM     14  C   UNL     1      -0.643   4.675   7.569  1.00  0.00     0.041 C 
ATOM     15  O   UNL     1       0.148   4.022   8.299  1.00  0.00    -0.550 OA
ATOM     16  O   UNL     1      -1.933   4.936   8.014  1.00  0.00    -0.550 OA
ENDBRANCH  13  14
ENDBRANCH  12  13
ENDBRANCH  11  12
ENDBRANCH  10  11
ENDBRANCH   9  10
ENDBRANCH   8   9
ENDBRANCH   7   8
ENDBRANCH   6   7
ENDBRANCH   5   6
ENDBRANCH   4   5
ENDBRANCH   3   4
ENDBRANCH   2   3
ENDBRANCH   1   2
BRANCH   1  17
ATOM     17  C   UNL     1       1.521   5.974  -2.657  1.00  0.00     0.000 C 
BRANCH  17  18
ATOM     18  C   UNL     1       2.427   6.533  -3.776  1.00  0.00     0.000 C 
BRANCH  18  19
ATOM     19  C   UNL     1       3.828   6.972  -3.310  1.00  0.00     0.000 C 
BRANCH  19  20
ATOM     20  C   UNL     1       4.465   5.971  -2.329  1.00  0.00     0.000 C 
BRANCH  20  21
ATOM     21  C   UNL     1       4.907   6.642  -1.016  1.00  0.00     0.000 C 
BRANCH  21  22
ATOM     22  C   UNL     1       4.941   8.181  -1.083  1.00  0.00    -0.000 C 
BRANCH  22  23
ATOM     23  C   UNL     1       4.094   8.828   0.026  1.00  0.00    -0.000 C 
BRANCH  23  24
ATOM     24  C   UNL     1       3.684   7.835   1.127  1.00  0.00    -0.000 C 
BRANCH  24  25
ATOM     25  C   UNL     1       4.057   8.260   2.559  1.00  0.00    -0.000 C 
BRANCH  25  26
ATOM     26  C   UNL     1       3.503   7.311   3.633  1.00  0.00    -0.000 C 
BRANCH  26  27
ATOM     27  C   UNL     1       4.590   6.347   4.129  1.00  0.00    -0.000 C 
BRANCH  27  28
ATOM     28  C   UNL     1       4.386   4.909   3.624  1.00  0.00    -0.000 C 
BRANCH  28  29
ATOM     29  C   UNL     1       5.068   4.656   2.270  1.00  0.00    -0.003 C 
ATOM     30  C   UNL     1       6.416   5.367   2.188  1.00  0.00     0.004 C 
ENDBRANCH  28  29
ENDBRANCH  27  28
ENDBRANCH  26  27
ENDBRANCH  25  26
ENDBRANCH  24  25
ENDBRANCH  23  24
ENDBRANCH  22  23
ENDBRANCH  21  22
ENDBRANCH  20  21
ENDBRANCH  19  20
ENDBRANCH  18  19
ENDBRANCH  17  18
ENDBRANCH   1  17
TORSDOF 26
ENDMDL
MODEL 4
REMARK VINA RESULT:    -3.557      1.535      3.091
REMARK INTER + INTRA:         -14.420
REMARK INTER:                  -8.729
REMARK INTRA:                  -5.691
REMARK UNBOUND:                -5.457
REMARK SMILES CCCCCCCCCCCCCCCCCCCCCCCCCCCC(=O)[O-]
REMARK SMILES IDX 15 1 16 2 17 3 18 4 19 5 20 6 21 7 22 8 23 9 24 10 25 11
REMARK SMILES IDX 26 12 27 13 28 14 29 15 30 16 14 17 13 18 12 19 11 20 10 21
REMARK SMILES IDX 9 22 8 23 7 24 6 25 5 26 4 27 3 28 2 29 1 30
REMARK H PARENT
REMARK Flexibility Score: inf
ROOT
ATOM      1  C   UNL     1       0.392   7.559  -1.827  1.00  0.00     0.000 C 
ENDROOT
BRANCH   1   2
ATOM      2  C   UNL     1       0.574   8.816  -2.698  1.00  0.00     0.000 C 
BRANCH   2   3
ATOM      3  C   UNL     1       1.393   9.910  -1.990  1.00  0.00     0.000 C 
BRANCH   3   4
ATOM      4  C   UNL     1       2.890   9.850  -2.333  1.00  0.00     0.000 C 
BRANCH   4   5
ATOM      5  C   UNL     1       3.794  10.019  -1.101  1.00  0.00     0.000 C 
BRANCH   5   6
ATOM      6  C   UNL     1       3.479   8.958  -0.040  1.00  0.00     0.000 C 
BRANCH   6   7
ATOM      7  C   UNL     1       3.542   9.558   1.373  1.00  0.00     0.000 C 
BRANCH   7   8
ATOM      8  C   UNL     1       2.413   9.045   2.281  1.00  0.00     0.000 C 
BRANCH   8   9
ATOM      9  C   UNL     1       1.079   8.899   1.530  1.00  0.00     0.000 C 
BRANCH   9  10
ATOM     10  C   UNL     1       0.287   7.650   1.959  1.00  0.00     0.000 C 
BRANCH  10  11
ATOM     11  C   UNL     1       1.034   6.312   1.788  1.00  0.00     0.000 C 
BRANCH  11  12
ATOM     12  C   UNL     1       0.437   5.115   2.557  1.00  0.00     0.006 C 
BRANCH  12  13
ATOM     13  C   UNL     1       1.494   4.201   3.207  1.00  0.00     0.053 C 
BRANCH  13  14
ATOM     14  C   UNL     1       1.888   4.661   4.579  1.00  0.00     0.041 C 
ATOM     15  O   UNL     1       1.421   4.088   5.597  1.00  0.00    -0.550 OA
ATOM     16  O   UNL     1       2.743   5.746   4.732  1.00  0.00    -0.550 OA
ENDBRANCH  13  14
ENDBRANCH  12  13
ENDBRANCH  11  12
ENDBRANCH  10  11
ENDBRANCH   9  10
ENDBRANCH   8   9
ENDBRANCH   7   8
ENDBRANCH   6   7
ENDBRANCH   5   6
ENDBRANCH   4   5
ENDBRANCH   3   4
ENDBRANCH   2   3
ENDBRANCH   1   2
BRANCH   1  17
ATOM     17  C   UNL     1       1.300   6.372  -2.214  1.00  0.00     0.000 C 
BRANCH  17  18
ATOM     18  C   UNL     1       1.903   6.440  -3.633  1.00  0.00     0.000 C 
BRANCH  18  19
ATOM     19  C   UNL     1       3.441   6.372  -3.684  1.00  0.00     0.000 C 
BRANCH  19  20
ATOM     20  C   UNL     1       4.070   6.194  -2.290  1.00  0.00     0.000 C 
BRANCH  20  21
ATOM     21  C   UNL     1       5.523   6.698  -2.237  1.00  0.00     0.000 C 
BRANCH  21  22
ATOM     22  C   UNL     1       5.857   7.752  -3.310  1.00  0.00    -0.000 C 
BRANCH  22  23
ATOM     23  C   UNL     1       6.844   8.813  -2.793  1.00  0.00    -0.000 C 
BRANCH  23  24
ATOM     24  C   UNL     1       7.772   8.282  -1.686  1.00  0.00    -0.000 C 
BRANCH  24  25
ATOM     25  C   UNL     1       7.472   8.815  -0.273  1.00  0.00    -0.000 C 
BRANCH  25  26
ATOM     26  C   UNL     1       7.986   7.891   0.841  1.00  0.00    -0.000 C 
BRANCH  26  27
ATOM     27  C   UNL     1       7.075   6.665   1.004  1.00  0.00    -0.000 C 
BRANCH  27  28
ATOM     28  C   UNL     1       5.876   6.932   1.928  1.00  0.00    -0.000 C 
BRANCH  28  29
ATOM     29  C   UNL     1       4.721   5.943   1.700  1.00  0.00    -0.003 C 
ATOM     30  C   UNL     1       5.067   4.557   2.235  1.00  0.00     0.004 C 
ENDBRANCH  28  29
ENDBRANCH  27  28
ENDBRANCH  26  27
ENDBRANCH  25  26
ENDBRANCH  24  25
ENDBRANCH  23  24
ENDBRANCH  22  23
ENDBRANCH  21  22
ENDBRANCH  20  21
ENDBRANCH  19  20
ENDBRANCH  18  19
ENDBRANCH  17  18
ENDBRANCH   1  17
TORSDOF 26
ENDMDL
MODEL 5
REMARK VINA RESULT:    -3.544      2.540      5.953
REMARK INTER + INTRA:         -14.387
REMARK INTER:                  -8.855
REMARK INTRA:                  -5.532
REMARK UNBOUND:                -5.457
REMARK SMILES CCCCCCCCCCCCCCCCCCCCCCCCCCCC(=O)[O-]
REMARK SMILES IDX 15 1 16 2 17 3 18 4 19 5 20 6 21 7 22 8 23 9 24 10 25 11
REMARK SMILES IDX 26 12 27 13 28 14 29 15 30 16 14 17 13 18 12 19 11 20 10 21
REMARK SMILES IDX 9 22 8 23 7 24 6 25 5 26 4 27 3 28 2 29 1 30
REMARK H PARENT
REMARK Flexibility Score: inf
ROOT
ATOM      1  C   UNL     1      -0.495   3.401   4.410  1.00  0.00     0.000 C 
ENDROOT
BRANCH   1   2
ATOM      2  C   UNL     1       0.721   3.804   5.265  1.00  0.00     0.000 C 
BRANCH   2   3
ATOM      3  C   UNL     1       0.314   4.458   6.597  1.00  0.00     0.000 C 
BRANCH   3   4
ATOM      4  C   UNL     1      -1.055   5.153   6.525  1.00  0.00     0.000 C 
BRANCH   4   5
ATOM      5  C   UNL     1      -0.954   6.685   6.600  1.00  0.00     0.000 C 
BRANCH   5   6
ATOM      6  C   UNL     1       0.491   7.128   6.853  1.00  0.00     0.000 C 
BRANCH   6   7
ATOM      7  C   UNL     1       0.782   8.472   6.169  1.00  0.00     0.000 C 
BRANCH   7   8
ATOM      8  C   UNL     1       1.954   8.386   5.177  1.00  0.00     0.000 C 
BRANCH   8   9
ATOM      9  C   UNL     1       2.583   6.983   5.134  1.00  0.00     0.000 C 
BRANCH   9  10
ATOM     10  C   UNL     1       3.943   6.961   4.415  1.00  0.00     0.000 C 
BRANCH  10  11
ATOM     11  C   UNL     1       4.152   5.781   3.445  1.00  0.00     0.000 C 
BRANCH  11  12
ATOM     12  C   UNL     1       4.057   6.128   1.945  1.00  0.00     0.006 C 
BRANCH  12  13
ATOM     13  C   UNL     1       5.423   6.366   1.272  1.00  0.00     0.053 C 
BRANCH  13  14
ATOM     14  C   UNL     1       5.774   5.293   0.285  1.00  0.00     0.041 C 
ATOM     15  O   UNL     1       5.448   5.414  -0.924  1.00  0.00    -0.550 OA
ATOM     16  O   UNL     1       6.427   4.142   0.709  1.00  0.00    -0.550 OA
ENDBRANCH  13  14
ENDBRANCH  12  13
ENDBRANCH  11  12
ENDBRANCH  10  11
ENDBRANCH   9  10
ENDBRANCH   8   9
ENDBRANCH   7   8
ENDBRANCH   6   7
ENDBRANCH   5   6
ENDBRANCH   4   5
ENDBRANCH   3   4
ENDBRANCH   2   3
ENDBRANCH   1   2
BRANCH   1  17
ATOM     17  C   UNL     1      -0.530   4.037   3.003  1.00  0.00     0.000 C 
BRANCH  17  18
ATOM     18  C   UNL     1       0.709   4.877   2.630  1.00  0.00     0.000 C 
BRANCH  18  19
ATOM     19  C   UNL     1       0.398   6.312   2.164  1.00  0.00     0.000 C 
BRANCH  19  20
ATOM     20  C   UNL     1      -0.644   7.009   3.057  1.00  0.00     0.000 C 
BRANCH  20  21
ATOM     21  C   UNL     1      -0.894   8.468   2.633  1.00  0.00     0.000 C 
BRANCH  21  22
ATOM     22  C   UNL     1       0.298   9.118   1.906  1.00  0.00    -0.000 C 
BRANCH  22  23
ATOM     23  C   UNL     1      -0.142   9.900   0.656  1.00  0.00    -0.000 C 
BRANCH  23  24
ATOM     24  C   UNL     1      -0.898   9.031  -0.363  1.00  0.00    -0.000 C 
BRANCH  24  25
ATOM     25  C   UNL     1      -0.140   8.756  -1.674  1.00  0.00    -0.000 C 
BRANCH  25  26
ATOM     26  C   UNL     1       0.241   7.278  -1.851  1.00  0.00    -0.000 C 
BRANCH  26  27
ATOM     27  C   UNL     1       1.572   6.964  -1.154  1.00  0.00    -0.000 C 
BRANCH  27  28
ATOM     28  C   UNL     1       2.762   7.709  -1.781  1.00  0.00    -0.000 C 
BRANCH  28  29
ATOM     29  C   UNL     1       3.451   8.663  -0.791  1.00  0.00    -0.003 C 
ATOM     30  C   UNL     1       3.162  10.121  -1.139  1.00  0.00     0.004 C 
ENDBRANCH  28  29
ENDBRANCH  27  28
ENDBRANCH  26  27
ENDBRANCH  25  26
ENDBRANCH  24  25
ENDBRANCH  23  24
ENDBRANCH  22  23
ENDBRANCH  21  22
ENDBRANCH  20  21
ENDBRANCH  19  20
ENDBRANCH  18  19
ENDBRANCH  17  18
ENDBRANCH   1  17
TORSDOF 26
ENDMDL
MODEL 6
REMARK VINA RESULT:    -3.448      1.191      4.106
REMARK INTER + INTRA:         -14.146
REMARK INTER:                  -9.347
REMARK INTRA:                  -4.799
REMARK UNBOUND:                -5.457
REMARK SMILES CCCCCCCCCCCCCCCCCCCCCCCCCCCC(=O)[O-]
REMARK SMILES IDX 15 1 16 2 17 3 18 4 19 5 20 6 21 7 22 8 23 9 24 10 25 11
REMARK SMILES IDX 26 12 27 13 28 14 29 15 30 16 14 17 13 18 12 19 11 20 10 21
REMARK SMILES IDX 9 22 8 23 7 24 6 25 5 26 4 27 3 28 2 29 1 30
REMARK H PARENT
REMARK Flexibility Score: inf
ROOT
ATOM      1  C   UNL     1       2.703   6.499  -3.765  1.00  0.00     0.000 C 
ENDROOT
BRANCH   1   2
ATOM      2  C   UNL     1       1.702   7.668  -3.825  1.00  0.00     0.000 C 
BRANCH   2   3
ATOM      3  C   UNL     1       1.326   8.195  -2.428  1.00  0.00     0.000 C 
BRANCH   3   4
ATOM      4  C   UNL     1      -0.007   7.626  -1.917  1.00  0.00     0.000 C 
BRANCH   4   5
ATOM      5  C   UNL     1      -0.941   8.707  -1.348  1.00  0.00     0.000 C 
BRANCH   5   6
ATOM      6  C   UNL     1      -0.139   9.905  -0.828  1.00  0.00     0.000 C 
BRANCH   6   7
ATOM      7  C   UNL     1      -0.169   9.962   0.707  1.00  0.00     0.000 C 
BRANCH   7   8
ATOM      8  C   UNL     1      -0.416   8.583   1.342  1.00  0.00     0.000 C 
BRANCH   8   9
ATOM      9  C   UNL     1      -0.723   8.678   2.846  1.00  0.00     0.000 C 
BRANCH   9  10
ATOM     10  C   UNL     1       0.205   7.796   3.700  1.00  0.00     0.000 C 
BRANCH  10  11
ATOM     11  C   UNL     1      -0.280   6.348   3.911  1.00  0.00     0.000 C 
BRANCH  11  12
ATOM     12  C   UNL     1       0.195   5.327   2.855  1.00  0.00     0.006 C 
BRANCH  12  13
ATOM     13  C   UNL     1       0.518   3.936   3.433  1.00  0.00     0.053 C 
BRANCH  13  14
ATOM     14  C   UNL     1       1.008   4.000   4.849  1.00  0.00     0.041 C 
ATOM     15  O   UNL     1       0.272   3.610   5.792  1.00  0.00    -0.550 OA
ATOM     16  O   UNL     1       2.264   4.525   5.129  1.00  0.00    -0.550 OA
ENDBRANCH  13  14
ENDBRANCH  12  13
ENDBRANCH  11  12
ENDBRANCH  10  11
ENDBRANCH   9  10
ENDBRANCH   8   9
ENDBRANCH   7   8
ENDBRANCH   6   7
ENDBRANCH   5   6
ENDBRANCH   4   5
ENDBRANCH   3   4
ENDBRANCH   2   3
ENDBRANCH   1   2
BRANCH   1  17
ATOM     17  C   UNL     1       3.395   6.316  -2.397  1.00  0.00     0.000 C 
BRANCH  17  18
ATOM     18  C   UNL     1       4.937   6.292  -2.438  1.00  0.00     0.000 C 
BRANCH  18  19
ATOM     19  C   UNL     1       5.580   7.469  -3.197  1.00  0.00     0.000 C 
BRANCH  19  20
ATOM     20  C   UNL     1       6.720   8.131  -2.401  1.00  0.00     0.000 C 
BRANCH  20  21
ATOM     21  C   UNL     1       7.005   7.403  -1.075  1.00  0.00     0.000 C 
BRANCH  21  22
ATOM     22  C   UNL     1       6.842   8.294   0.171  1.00  0.00    -0.000 C 
BRANCH  22  23
ATOM     23  C   UNL     1       5.644   9.250   0.048  1.00  0.00    -0.000 C 
BRANCH  23  24
ATOM     24  C   UNL     1       4.584   9.032   1.143  1.00  0.00    -0.000 C 
BRANCH  24  25
ATOM     25  C   UNL     1       3.235   8.483   0.643  1.00  0.00    -0.000 C 
BRANCH  25  26
ATOM     26  C   UNL     1       2.986   7.026   1.062  1.00  0.00    -0.000 C 
BRANCH  26  27
ATOM     27  C   UNL     1       3.605   6.734   2.436  1.00  0.00    -0.000 C 
BRANCH  27  28
ATOM     28  C   UNL     1       4.372   5.403   2.473  1.00  0.00    -0.000 C 
BRANCH  28  29
ATOM     29  C   UNL     1       5.279   5.208   1.247  1.00  0.00    -0.003 C 
ATOM     30  C   UNL     1       6.671   4.738   1.658  1.00  0.00     0.004 C 
ENDBRANCH  28  29
ENDBRANCH  27  28
ENDBRANCH  26  27
ENDBRANCH  25  26
ENDBRANCH  24  25
ENDBRANCH  23  24
ENDBRANCH  22  23
ENDBRANCH  21  22
ENDBRANCH  20  21
ENDBRANCH  19  20
ENDBRANCH  18  19
ENDBRANCH  17  18
ENDBRANCH   1  17
TORSDOF 26
ENDMDL
MODEL 7
REMARK VINA RESULT:    -3.432      2.723      7.677
REMARK INTER + INTRA:         -14.106
REMARK INTER:                  -9.047
REMARK INTRA:                  -5.059
REMARK UNBOUND:                -5.457
REMARK SMILES CCCCCCCCCCCCCCCCCCCCCCCCCCCC(=O)[O-]
REMARK SMILES IDX 15 1 16 2 17 3 18 4 19 5 20 6 21 7 22 8 23 9 24 10 25 11
REMARK SMILES IDX 26 12 27 13 28 14 29 15 30 16 14 17 13 18 12 19 11 20 10 21
REMARK SMILES IDX 9 22 8 23 7 24 6 25 5 26 4 27 3 28 2 29 1 30
REMARK H PARENT
REMARK Flexibility Score: inf
ROOT
ATOM      1  C   UNL     1       3.787   5.445   3.762  1.00  0.00     0.000 C 
ENDROOT
BRANCH   1   2
ATOM      2  C   UNL     1       3.929   5.802   2.270  1.00  0.00     0.000 C 
BRANCH   2   3
ATOM      3  C   UNL     1       3.517   7.254   1.970  1.00  0.00     0.000 C 
BRANCH   3   4
ATOM      4  C   UNL     1       2.746   7.392   0.647  1.00  0.00     0.000 C 
BRANCH   4   5
ATOM      5  C   UNL     1       2.565   8.854   0.208  1.00  0.00     0.000 C 
BRANCH   5   6
ATOM      6  C   UNL     1       1.178   9.075  -0.406  1.00  0.00     0.000 C 
BRANCH   6   7
ATOM      7  C   UNL     1       1.163   8.673  -1.889  1.00  0.00     0.000 C 
BRANCH   7   8
ATOM      8  C   UNL     1       0.423   7.347  -2.131  1.00  0.00     0.000 C 
BRANCH   8   9
ATOM      9  C   UNL     1       1.353   6.247  -2.669  1.00  0.00     0.000 C 
BRANCH   9  10
ATOM     10  C   UNL     1       2.239   6.730  -3.830  1.00  0.00     0.000 C 
BRANCH  10  11
ATOM     11  C   UNL     1       3.715   6.291  -3.754  1.00  0.00     0.000 C 
BRANCH  11  12
ATOM     12  C   UNL     1       4.530   6.896  -2.592  1.00  0.00     0.006 C 
BRANCH  12  13
ATOM     13  C   UNL     1       5.113   5.846  -1.626  1.00  0.00     0.053 C 
BRANCH  13  14
ATOM     14  C   UNL     1       6.119   6.429  -0.680  1.00  0.00     0.041 C 
ATOM     15  O   UNL     1       6.211   7.677  -0.544  1.00  0.00    -0.550 OA
ATOM     16  O   UNL     1       6.981   5.596   0.022  1.00  0.00    -0.550 OA
ENDBRANCH  13  14
ENDBRANCH  12  13
ENDBRANCH  11  12
ENDBRANCH  10  11
ENDBRANCH   9  10
ENDBRANCH   8   9
ENDBRANCH   7   8
ENDBRANCH   6   7
ENDBRANCH   5   6
ENDBRANCH   4   5
ENDBRANCH   3   4
ENDBRANCH   2   3
ENDBRANCH   1   2
BRANCH   1  17
ATOM     17  C   UNL     1       3.019   4.135   4.039  1.00  0.00     0.000 C 
BRANCH  17  18
ATOM     18  C   UNL     1       1.520   4.308   4.364  1.00  0.00     0.000 C 
BRANCH  18  19
ATOM     19  C   UNL     1       0.568   4.022   3.187  1.00  0.00     0.000 C 
BRANCH  19  20
ATOM     20  C   UNL     1       0.179   5.299   2.420  1.00  0.00     0.000 C 
BRANCH  20  21
ATOM     21  C   UNL     1      -0.361   6.398   3.352  1.00  0.00     0.000 C 
BRANCH  21  22
ATOM     22  C   UNL     1      -0.316   7.811   2.741  1.00  0.00    -0.000 C 
BRANCH  22  23
ATOM     23  C   UNL     1       0.511   8.787   3.596  1.00  0.00    -0.000 C 
BRANCH  23  24
ATOM     24  C   UNL     1       1.272   8.090   4.737  1.00  0.00    -0.000 C 
BRANCH  24  25
ATOM     25  C   UNL     1       0.810   8.470   6.156  1.00  0.00    -0.000 C 
BRANCH  25  26
ATOM     26  C   UNL     1       0.566   7.249   7.057  1.00  0.00    -0.000 C 
BRANCH  26  27
ATOM     27  C   UNL     1      -0.909   6.823   7.019  1.00  0.00    -0.000 C 
BRANCH  27  28
ATOM     28  C   UNL     1      -1.087   5.313   6.795  1.00  0.00    -0.000 C 
BRANCH  28  29
ATOM     29  C   UNL     1      -1.592   4.584   8.050  1.00  0.00    -0.003 C 
ATOM     30  C   UNL     1      -0.436   4.200   8.970  1.00  0.00     0.004 C 
ENDBRANCH  28  29
ENDBRANCH  27  28
ENDBRANCH  26  27
ENDBRANCH  25  26
ENDBRANCH  24  25
ENDBRANCH  23  24
ENDBRANCH  22  23
ENDBRANCH  21  22
ENDBRANCH  20  21
ENDBRANCH  19  20
ENDBRANCH  18  19
ENDBRANCH  17  18
ENDBRANCH   1  17
TORSDOF 26
ENDMDL
MODEL 8
REMARK VINA RESULT:    -3.417      2.927      6.913
REMARK INTER + INTRA:         -14.067
REMARK INTER:                  -8.220
REMARK INTRA:                  -5.847
REMARK UNBOUND:                -5.457
REMARK SMILES CCCCCCCCCCCCCCCCCCCCCCCCCCCC(=O)[O-]
REMARK SMILES IDX 15 1 16 2 17 3 18 4 19 5 20 6 21 7 22 8 23 9 24 10 25 11
REMARK SMILES IDX 26 12 27 13 28 14 29 15 30 16 14 17 13 18 12 19 11 20 10 21
REMARK SMILES IDX 9 22 8 23 7 24 6 25 5 26 4 27 3 28 2 29 1 30
REMARK H PARENT
REMARK Flexibility Score: inf
ROOT
ATOM      1  C   UNL     1       4.853   5.271   1.832  1.00  0.00     0.000 C 
ENDROOT
BRANCH   1   2
ATOM      2  C   UNL     1       5.902   4.783   0.816  1.00  0.00     0.000 C 
BRANCH   2   3
ATOM      3  C   UNL     1       7.299   5.371   1.082  1.00  0.00     0.000 C 
BRANCH   3   4
ATOM      4  C   UNL     1       7.444   6.814   0.573  1.00  0.00     0.000 C 
BRANCH   4   5
ATOM      5  C   UNL     1       6.920   6.999  -0.861  1.00  0.00     0.000 C 
BRANCH   5   6
ATOM      6  C   UNL     1       6.130   8.306  -0.992  1.00  0.00     0.000 C 
BRANCH   6   7
ATOM      7  C   UNL     1       4.830   8.085  -1.780  1.00  0.00     0.000 C 
BRANCH   7   8
ATOM      8  C   UNL     1       4.057   9.393  -2.017  1.00  0.00     0.000 C 
BRANCH   8   9
ATOM      9  C   UNL     1       3.224   9.811  -0.793  1.00  0.00     0.000 C 
BRANCH   9  10
ATOM     10  C   UNL     1       1.709   9.691  -1.035  1.00  0.00     0.000 C 
BRANCH  10  11
ATOM     11  C   UNL     1       1.078   8.357  -0.589  1.00  0.00     0.000 C 
BRANCH  11  12
ATOM     12  C   UNL     1       0.439   7.515  -1.714  1.00  0.00     0.006 C 
BRANCH  12  13
ATOM     13  C   UNL     1       1.395   6.482  -2.340  1.00  0.00     0.053 C 
BRANCH  13  14
ATOM     14  C   UNL     1       1.942   6.931  -3.662  1.00  0.00     0.041 C 
ATOM     15  O   UNL     1       2.797   6.230  -4.265  1.00  0.00    -0.550 OA
ATOM     16  O   UNL     1       1.535   8.141  -4.211  1.00  0.00    -0.550 OA
ENDBRANCH  13  14
ENDBRANCH  12  13
ENDBRANCH  11  12
ENDBRANCH  10  11
ENDBRANCH   9  10
ENDBRANCH   8   9
ENDBRANCH   7   8
ENDBRANCH   6   7
ENDBRANCH   5   6
ENDBRANCH   4   5
ENDBRANCH   3   4
ENDBRANCH   2   3
ENDBRANCH   1   2
BRANCH   1  17
ATOM     17  C   UNL     1       3.830   6.278   1.266  1.00  0.00     0.000 C 
BRANCH  17  18
ATOM     18  C   UNL     1       3.820   7.661   1.951  1.00  0.00     0.000 C 
BRANCH  18  19
ATOM     19  C   UNL     1       4.219   7.645   3.440  1.00  0.00     0.000 C 
BRANCH  19  20
ATOM     20  C   UNL     1       3.214   8.403   4.327  1.00  0.00     0.000 C 
BRANCH  20  21
ATOM     21  C   UNL     1       2.208   9.223   3.499  1.00  0.00     0.000 C 
BRANCH  21  22
ATOM     22  C   UNL     1       0.749   9.079   3.972  1.00  0.00    -0.000 C 
BRANCH  22  23
ATOM     23  C   UNL     1      -0.170   8.541   2.861  1.00  0.00    -0.000 C 
BRANCH  23  24
ATOM     24  C   UNL     1      -0.523   7.054   3.040  1.00  0.00    -0.000 C 
BRANCH  24  25
ATOM     25  C   UNL     1       0.390   6.073   2.281  1.00  0.00    -0.000 C 
BRANCH  25  26
ATOM     26  C   UNL     1       0.278   4.629   2.791  1.00  0.00    -0.000 C 
BRANCH  26  27
ATOM     27  C   UNL     1       1.628   4.125   3.320  1.00  0.00    -0.000 C 
BRANCH  27  28
ATOM     28  C   UNL     1       2.089   4.871   4.582  1.00  0.00    -0.000 C 
BRANCH  28  29
ATOM     29  C   UNL     1       1.029   4.861   5.696  1.00  0.00    -0.003 C 
ATOM     30  C   UNL     1       0.977   6.203   6.421  1.00  0.00     0.004 C 
ENDBRANCH  28  29
ENDBRANCH  27  28
ENDBRANCH  26  27
ENDBRANCH  25  26
ENDBRANCH  24  25
ENDBRANCH  23  24
ENDBRANCH  22  23
ENDBRANCH  21  22
ENDBRANCH  20  21
ENDBRANCH  19  20
ENDBRANCH  18  19
ENDBRANCH  17  18
ENDBRANCH   1  17
TORSDOF 26
ENDMDL
MODEL 9
REMARK VINA RESULT:    -3.381      1.315      4.417
REMARK INTER + INTRA:         -13.976
REMARK INTER:                  -8.933
REMARK INTRA:                  -5.044
REMARK UNBOUND:                -5.457
REMARK SMILES CCCCCCCCCCCCCCCCCCCCCCCCCCCC(=O)[O-]
REMARK SMILES IDX 15 1 16 2 17 3 18 4 19 5 20 6 21 7 22 8 23 9 24 10 25 11
REMARK SMILES IDX 26 12 27 13 28 14 29 15 30 16 14 17 13 18 12 19 11 20 10 21
REMARK SMILES IDX 9 22 8 23 7 24 6 25 5 26 4 27 3 28 2 29 1 30
REMARK H PARENT
REMARK Flexibility Score: inf
ROOT
ATOM      1  C   UNL     1       3.781   6.202  -2.925  1.00  0.00     0.000 C 
ENDROOT
BRANCH   1   2
ATOM      2  C   UNL     1       2.679   6.357  -3.990  1.00  0.00     0.000 C 
BRANCH   2   3
ATOM      3  C   UNL     1       1.365   6.904  -3.402  1.00  0.00     0.000 C 
BRANCH   3   4
ATOM      4  C   UNL     1       1.432   8.408  -3.093  1.00  0.00     0.000 C 
BRANCH   4   5
ATOM      5  C   UNL     1       0.276   8.888  -2.200  1.00  0.00     0.000 C 
BRANCH   5   6
ATOM      6  C   UNL     1       0.782   9.260  -0.802  1.00  0.00     0.000 C 
BRANCH   6   7
ATOM      7  C   UNL     1       1.748   8.193  -0.264  1.00  0.00     0.000 C 
BRANCH   7   8
ATOM      8  C   UNL     1       1.037   7.137   0.598  1.00  0.00     0.000 C 
BRANCH   8   9
ATOM      9  C   UNL     1       0.139   7.768   1.675  1.00  0.00     0.000 C 
BRANCH   9  10
ATOM     10  C   UNL     1      -0.005   6.883   2.926  1.00  0.00     0.000 C 
BRANCH  10  11
ATOM     11  C   UNL     1       0.507   5.437   2.766  1.00  0.00     0.000 C 
BRANCH  11  12
ATOM     12  C   UNL     1      -0.540   4.330   3.011  1.00  0.00     0.006 C 
BRANCH  12  13
ATOM     13  C   UNL     1      -0.104   3.278   4.048  1.00  0.00     0.053 C 
BRANCH  13  14
ATOM     14  C   UNL     1      -0.226   3.773   5.458  1.00  0.00     0.041 C 
ATOM     15  O   UNL     1      -0.786   4.874   5.696  1.00  0.00    -0.550 OA
ATOM     16  O   UNL     1       0.314   3.036   6.505  1.00  0.00    -0.550 OA
ENDBRANCH  13  14
ENDBRANCH  12  13
ENDBRANCH  11  12
ENDBRANCH  10  11
ENDBRANCH   9  10
ENDBRANCH   8   9
ENDBRANCH   7   8
ENDBRANCH   6   7
ENDBRANCH   5   6
ENDBRANCH   4   5
ENDBRANCH   3   4
ENDBRANCH   2   3
ENDBRANCH   1   2
BRANCH   1  17
ATOM     17  C   UNL     1       5.204   6.541  -3.420  1.00  0.00     0.000 C 
BRANCH  17  18
ATOM     18  C   UNL     1       5.730   7.932  -3.006  1.00  0.00     0.000 C 
BRANCH  18  19
ATOM     19  C   UNL     1       4.883   8.650  -1.938  1.00  0.00     0.000 C 
BRANCH  19  20
ATOM     20  C   UNL     1       5.743   9.262  -0.817  1.00  0.00     0.000 C 
BRANCH  20  21
ATOM     21  C   UNL     1       7.246   9.010  -1.032  1.00  0.00     0.000 C 
BRANCH  21  22
ATOM     22  C   UNL     1       7.903   8.173   0.083  1.00  0.00    -0.000 C 
BRANCH  22  23
ATOM     23  C   UNL     1       7.991   6.682  -0.286  1.00  0.00    -0.000 C 
BRANCH  23  24
ATOM     24  C   UNL     1       7.128   5.786   0.619  1.00  0.00    -0.000 C 
BRANCH  24  25
ATOM     25  C   UNL     1       5.766   5.381   0.027  1.00  0.00    -0.000 C 
BRANCH  25  26
ATOM     26  C   UNL     1       4.579   6.058   0.729  1.00  0.00    -0.000 C 
BRANCH  26  27
ATOM     27  C   UNL     1       5.022   6.726   2.039  1.00  0.00    -0.000 C 
BRANCH  27  28
ATOM     28  C   UNL     1       3.901   7.547   2.697  1.00  0.00    -0.000 C 
BRANCH  28  29
ATOM     29  C   UNL     1       4.158   9.061   2.628  1.00  0.00    -0.003 C 
ATOM     30  C   UNL     1       5.635   9.381   2.841  1.00  0.00     0.004 C 
ENDBRANCH  28  29
ENDBRANCH  27  28
ENDBRANCH  26  27
ENDBRANCH  25  26
ENDBRANCH  24  25
ENDBRANCH  23  24
ENDBRANCH  22  23
ENDBRANCH  21  22
ENDBRANCH  20  21
ENDBRANCH  19  20
ENDBRANCH  18  19
ENDBRANCH  17  18
ENDBRANCH   1  17
TORSDOF 26
ENDMDL
