MODEL 1
REMARK VINA RESULT:    -7.665      0.000      0.000
REMARK INTER + INTRA:          -9.542
REMARK INTER:                  -9.233
REMARK INTRA:                  -0.309
REMARK UNBOUND:                -0.309
REMARK SMILES O=c1c(O)c(-c2ccc(O)c(O)c2)oc2cc(O)cc(O)c12
REMARK SMILES IDX 5 1 3 2 2 3 1 4 22 5 20 6 19 7 17 8 16 9 15 10 14 11 6 12
REMARK SMILES IDX 7 13 8 14 9 15 13 16 11 17 10 18 12 20 4 22 21 24 18 26
REMARK H PARENT 10 19 12 21 4 23 21 25 18 27
REMARK Flexibility Score: inf
ROOT
ATOM      1  C   UNL     1       3.143 -13.863  15.921  1.00  0.00     0.180 A 
ATOM      2  C   UNL     1       1.924 -13.412  15.383  1.00  0.00     0.208 A 
ATOM      3  C   UNL     1       1.800 -13.286  13.990  1.00  0.00     0.238 A 
ATOM      4  O   UNL     1       0.689 -12.935  13.512  1.00  0.00    -0.285 OA
ATOM      5  C   UNL     1       2.898 -13.597  13.153  1.00  0.00     0.111 A 
ATOM      6  C   UNL     1       2.896 -13.468  11.732  1.00  0.00     0.134 A 
ATOM      7  C   UNL     1       3.995 -13.929  10.995  1.00  0.00     0.093 A 
ATOM      8  C   UNL     1       5.122 -14.453  11.634  1.00  0.00     0.123 A 
ATOM      9  C   UNL     1       5.157 -14.527  13.024  1.00  0.00     0.094 A 
ATOM     10  C   UNL     1       4.062 -14.110  13.784  1.00  0.00     0.146 A 
ATOM     11  O   UNL     1       4.132 -14.209  15.106  1.00  0.00    -0.452 OA
ENDROOT
BRANCH   1  12
ATOM     12  C   UNL     1       3.359 -13.997  17.379  1.00  0.00     0.025 A 
ATOM     13  C   UNL     1       3.651 -12.879  18.182  1.00  0.00     0.016 A 
ATOM     14  C   UNL     1       3.875 -13.033  19.552  1.00  0.00     0.051 A 
ATOM     15  C   UNL     1       3.823 -14.304  20.138  1.00  0.00     0.157 A 
ATOM     16  C   UNL     1       3.329 -15.271  17.969  1.00  0.00     0.062 A 
ATOM     17  C   UNL     1       3.554 -15.426  19.344  1.00  0.00     0.158 A 
BRANCH  15  18
ATOM     18  O   UNL     1       4.044 -14.462  21.505  1.00  0.00    -0.504 OA
ATOM     19  H   UNL     1       4.154 -15.379  21.922  1.00  0.00     0.293 HD
ENDBRANCH  15  18
BRANCH  17  20
ATOM     20  O   UNL     1       3.510 -16.690  19.928  1.00  0.00    -0.504 OA
ATOM     21  H   UNL     1       3.293 -17.518  19.386  1.00  0.00     0.293 HD
ENDBRANCH  17  20
ENDBRANCH   1  12
BRANCH   2  22
ATOM     22  O   UNL     1       0.845 -13.132  16.225  1.00  0.00    -0.502 OA
ATOM     23  H   UNL     1       0.937 -12.560  17.056  1.00  0.00     0.293 HD
ENDBRANCH   2  22
BRANCH   6  24
ATOM     24  O   UNL     1       1.861 -12.875  11.003  1.00  0.00    -0.507 OA
ATOM     25  H   UNL     1       1.863 -11.921  10.676  1.00  0.00     0.293 HD
ENDBRANCH   6  24
BRANCH   8  26
ATOM     26  O   UNL     1       6.217 -14.893  10.894  1.00  0.00    -0.508 OA
ATOM     27  H   UNL     1       6.455 -14.478  10.001  1.00  0.00     0.293 HD
ENDBRANCH   8  26
TORSDOF 6
ENDMDL
MODEL 2
REMARK VINA RESULT:    -6.857     12.751     14.394
REMARK INTER + INTRA:          -8.569
REMARK INTER:                  -8.458
REMARK INTRA:                  -0.110
REMARK UNBOUND:                -0.309
REMARK SMILES O=c1c(O)c(-c2ccc(O)c(O)c2)oc2cc(O)cc(O)c12
REMARK SMILES IDX 5 1 3 2 2 3 1 4 22 5 20 6 19 7 17 8 16 9 15 10 14 11 6 12
REMARK SMILES IDX 7 13 8 14 9 15 13 16 11 17 10 18 12 20 4 22 21 24 18 26
REMARK H PARENT 10 19 12 21 4 23 21 25 18 27
REMARK Flexibility Score: inf
ROOT
ATOM      1  C   UNL     1      13.360 -24.328  15.675  1.00  0.00     0.180 A 
ATOM      2  C   UNL     1      14.015 -23.156  15.255  1.00  0.00     0.208 A 
ATOM      3  C   UNL     1      13.414 -22.357  14.269  1.00  0.00     0.238 A 
ATOM      4  O   UNL     1      13.978 -21.282  13.937  1.00  0.00    -0.285 OA
ATOM      5  C   UNL     1      12.175 -22.745  13.705  1.00  0.00     0.111 A 
ATOM      6  C   UNL     1      11.496 -22.032  12.672  1.00  0.00     0.134 A 
ATOM      7  C   UNL     1      10.213 -22.437  12.282  1.00  0.00     0.093 A 
ATOM      8  C   UNL     1       9.614 -23.569  12.841  1.00  0.00     0.123 A 
ATOM      9  C   UNL     1      10.294 -24.306  13.806  1.00  0.00     0.094 A 
ATOM     10  C   UNL     1      11.560 -23.905  14.243  1.00  0.00     0.146 A 
ATOM     11  O   UNL     1      12.169 -24.630  15.174  1.00  0.00    -0.452 OA
ENDROOT
BRANCH   1  12
ATOM     12  C   UNL     1      13.942 -25.235  16.691  1.00  0.00     0.025 A 
ATOM     13  C   UNL     1      15.212 -25.813  16.514  1.00  0.00     0.016 A 
ATOM     14  C   UNL     1      15.731 -26.685  17.474  1.00  0.00     0.051 A 
ATOM     15  C   UNL     1      14.985 -27.002  18.617  1.00  0.00     0.157 A 
ATOM     16  C   UNL     1      13.190 -25.574  17.827  1.00  0.00     0.062 A 
ATOM     17  C   UNL     1      13.710 -26.448  18.791  1.00  0.00     0.158 A 
BRANCH  15  18
ATOM     18  O   UNL     1      15.499 -27.871  19.578  1.00  0.00    -0.504 OA
ATOM     19  H   UNL     1      16.345 -27.651  20.091  1.00  0.00     0.293 HD
ENDBRANCH  15  18
BRANCH  17  20
ATOM     20  O   UNL     1      12.967 -26.772  19.925  1.00  0.00    -0.504 OA
ATOM     21  H   UNL     1      12.089 -26.310  20.134  1.00  0.00     0.293 HD
ENDBRANCH  17  20
ENDBRANCH   1  12
BRANCH   2  22
ATOM     22  O   UNL     1      15.226 -22.780  15.841  1.00  0.00    -0.502 OA
ATOM     23  H   UNL     1      15.755 -23.398  16.443  1.00  0.00     0.293 HD
ENDBRANCH   2  22
BRANCH   6  24
ATOM     24  O   UNL     1      12.043 -20.945  11.985  1.00  0.00    -0.507 OA
ATOM     25  H   UNL     1      12.841 -20.997  11.369  1.00  0.00     0.293 HD
ENDBRANCH   6  24
BRANCH   8  26
ATOM     26  O   UNL     1       8.344 -23.974  12.434  1.00  0.00    -0.508 OA
ATOM     27  H   UNL     1       8.216 -24.733  11.776  1.00  0.00     0.293 HD
ENDBRANCH   8  26
TORSDOF 6
ENDMDL
MODEL 3
REMARK VINA RESULT:    -6.766     11.455     13.040
REMARK INTER + INTRA:          -8.459
REMARK INTER:                  -8.141
REMARK INTRA:                  -0.318
REMARK UNBOUND:                -0.309
REMARK SMILES O=c1c(O)c(-c2ccc(O)c(O)c2)oc2cc(O)cc(O)c12
REMARK SMILES IDX 5 1 3 2 2 3 1 4 22 5 20 6 19 7 17 8 16 9 15 10 14 11 6 12
REMARK SMILES IDX 7 13 8 14 9 15 13 16 11 17 10 18 12 20 4 22 21 24 18 26
REMARK H PARENT 10 19 12 21 4 23 21 25 18 27
REMARK Flexibility Score: inf
ROOT
ATOM      1  C   UNL     1      12.100 -23.671  15.506  1.00  0.00     0.180 A 
ATOM      2  C   UNL     1      13.049 -22.721  15.087  1.00  0.00     0.208 A 
ATOM      3  C   UNL     1      12.822 -22.010  13.897  1.00  0.00     0.238 A 
ATOM      4  O   UNL     1      13.648 -21.123  13.557  1.00  0.00    -0.285 OA
ATOM      5  C   UNL     1      11.659 -22.268  13.134  1.00  0.00     0.111 A 
ATOM      6  C   UNL     1      11.348 -21.635  11.893  1.00  0.00     0.134 A 
ATOM      7  C   UNL     1      10.106 -21.871  11.289  1.00  0.00     0.093 A 
ATOM      8  C   UNL     1       9.192 -22.767  11.849  1.00  0.00     0.123 A 
ATOM      9  C   UNL     1       9.511 -23.435  13.028  1.00  0.00     0.094 A 
ATOM     10  C   UNL     1      10.727 -23.193  13.673  1.00  0.00     0.146 A 
ATOM     11  O   UNL     1      10.987 -23.842  14.802  1.00  0.00    -0.452 OA
ENDROOT
BRANCH   1  12
ATOM     12  C   UNL     1      12.281 -24.477  16.734  1.00  0.00     0.025 A 
ATOM     13  C   UNL     1      13.085 -25.631  16.740  1.00  0.00     0.016 A 
ATOM     14  C   UNL     1      13.222 -26.390  17.905  1.00  0.00     0.051 A 
ATOM     15  C   UNL     1      12.549 -26.016  19.075  1.00  0.00     0.157 A 
ATOM     16  C   UNL     1      11.591 -24.120  17.904  1.00  0.00     0.062 A 
ATOM     17  C   UNL     1      11.729 -24.881  19.073  1.00  0.00     0.158 A 
BRANCH  15  18
ATOM     18  O   UNL     1      12.684 -26.770  20.240  1.00  0.00    -0.504 OA
ATOM     19  H   UNL     1      11.888 -27.224  20.672  1.00  0.00     0.293 HD
ENDBRANCH  15  18
BRANCH  17  20
ATOM     20  O   UNL     1      11.054 -24.515  20.237  1.00  0.00    -0.504 OA
ATOM     21  H   UNL     1      10.090 -24.785  20.398  1.00  0.00     0.293 HD
ENDBRANCH  17  20
ENDBRANCH   1  12
BRANCH   2  22
ATOM     22  O   UNL     1      14.179 -22.467  15.868  1.00  0.00    -0.502 OA
ATOM     23  H   UNL     1      14.309 -21.598  16.372  1.00  0.00     0.293 HD
ENDBRANCH   2  22
BRANCH   6  24
ATOM     24  O   UNL     1      12.226 -20.795  11.203  1.00  0.00    -0.507 OA
ATOM     25  H   UNL     1      12.771 -20.060  11.629  1.00  0.00     0.293 HD
ENDBRANCH   6  24
BRANCH   8  26
ATOM     26  O   UNL     1       7.965 -23.009  11.233  1.00  0.00    -0.508 OA
ATOM     27  H   UNL     1       7.101 -22.640  11.611  1.00  0.00     0.293 HD
ENDBRANCH   8  26
TORSDOF 6
ENDMDL
MODEL 4
REMARK VINA RESULT:    -6.662     12.148     15.125
REMARK INTER + INTRA:          -8.334
REMARK INTER:                  -8.165
REMARK INTRA:                  -0.169
REMARK UNBOUND:                -0.309
REMARK SMILES O=c1c(O)c(-c2ccc(O)c(O)c2)oc2cc(O)cc(O)c12
REMARK SMILES IDX 5 1 3 2 2 3 1 4 22 5 20 6 19 7 17 8 16 9 15 10 14 11 6 12
REMARK SMILES IDX 7 13 8 14 9 15 13 16 11 17 10 18 12 20 4 22 21 24 18 26
REMARK H PARENT 10 19 12 21 4 23 21 25 18 27
REMARK Flexibility Score: inf
ROOT
ATOM      1  C   UNL     1      12.243 -24.111  15.123  1.00  0.00     0.180 A 
ATOM      2  C   UNL     1      13.205 -25.116  14.915  1.00  0.00     0.208 A 
ATOM      3  C   UNL     1      13.650 -25.870  16.014  1.00  0.00     0.238 A 
ATOM      4  O   UNL     1      14.469 -26.804  15.813  1.00  0.00    -0.285 OA
ATOM      5  C   UNL     1      13.139 -25.601  17.306  1.00  0.00     0.111 A 
ATOM      6  C   UNL     1      13.548 -26.277  18.496  1.00  0.00     0.134 A 
ATOM      7  C   UNL     1      12.881 -26.018  19.700  1.00  0.00     0.093 A 
ATOM      8  C   UNL     1      11.865 -25.062  19.770  1.00  0.00     0.123 A 
ATOM      9  C   UNL     1      11.501 -24.355  18.628  1.00  0.00     0.094 A 
ATOM     10  C   UNL     1      12.122 -24.616  17.404  1.00  0.00     0.146 A 
ATOM     11  O   UNL     1      11.736 -23.927  16.336  1.00  0.00    -0.452 OA
ENDROOT
BRANCH   1  12
ATOM     12  C   UNL     1      11.745 -23.258  14.021  1.00  0.00     0.025 A 
ATOM     13  C   UNL     1      12.606 -22.403  13.310  1.00  0.00     0.016 A 
ATOM     14  C   UNL     1      12.110 -21.588  12.289  1.00  0.00     0.051 A 
ATOM     15  C   UNL     1      10.745 -21.606  11.972  1.00  0.00     0.157 A 
ATOM     16  C   UNL     1      10.375 -23.256  13.713  1.00  0.00     0.062 A 
ATOM     17  C   UNL     1       9.875 -22.439  12.689  1.00  0.00     0.158 A 
BRANCH  15  18
ATOM     18  O   UNL     1      10.245 -20.797  10.954  1.00  0.00    -0.504 OA
ATOM     19  H   UNL     1      10.537 -20.917   9.991  1.00  0.00     0.293 HD
ENDBRANCH  15  18
BRANCH  17  20
ATOM     20  O   UNL     1       8.517 -22.449  12.376  1.00  0.00    -0.504 OA
ATOM     21  H   UNL     1       7.807 -22.425  13.098  1.00  0.00     0.293 HD
ENDBRANCH  17  20
ENDBRANCH   1  12
BRANCH   2  22
ATOM     22  O   UNL     1      13.679 -25.380  13.628  1.00  0.00    -0.502 OA
ATOM     23  H   UNL     1      13.899 -24.645  12.967  1.00  0.00     0.293 HD
ENDBRANCH   2  22
BRANCH   6  24
ATOM     24  O   UNL     1      14.611 -27.181  18.553  1.00  0.00    -0.507 OA
ATOM     25  H   UNL     1      15.475 -27.087  18.039  1.00  0.00     0.293 HD
ENDBRANCH   6  24
BRANCH   8  26
ATOM     26  O   UNL     1      11.219 -24.800  20.976  1.00  0.00    -0.508 OA
ATOM     27  H   UNL     1      10.228 -24.590  21.013  1.00  0.00     0.293 HD
ENDBRANCH   8  26
TORSDOF 6
ENDMDL
MODEL 5
REMARK VINA RESULT:    -6.586     12.555     14.961
REMARK INTER + INTRA:          -8.242
REMARK INTER:                  -7.920
REMARK INTRA:                  -0.323
REMARK UNBOUND:                -0.309
REMARK SMILES O=c1c(O)c(-c2ccc(O)c(O)c2)oc2cc(O)cc(O)c12
REMARK SMILES IDX 5 1 3 2 2 3 1 4 22 5 20 6 19 7 17 8 16 9 15 10 14 11 6 12
REMARK SMILES IDX 7 13 8 14 9 15 13 16 11 17 10 18 12 20 4 22 21 24 18 26
REMARK H PARENT 10 19 12 21 4 23 21 25 18 27
REMARK Flexibility Score: inf
ROOT
ATOM      1  C   UNL     1      11.340 -24.475  15.426  1.00  0.00     0.180 A 
ATOM      2  C   UNL     1      10.987 -24.150  16.748  1.00  0.00     0.208 A 
ATOM      3  C   UNL     1      11.776 -24.636  17.803  1.00  0.00     0.238 A 
ATOM      4  O   UNL     1      11.488 -24.295  18.980  1.00  0.00    -0.285 OA
ATOM      5  C   UNL     1      12.898 -25.452  17.525  1.00  0.00     0.111 A 
ATOM      6  C   UNL     1      13.744 -26.032  18.518  1.00  0.00     0.134 A 
ATOM      7  C   UNL     1      14.902 -26.716  18.126  1.00  0.00     0.093 A 
ATOM      8  C   UNL     1      15.208 -26.897  16.774  1.00  0.00     0.123 A 
ATOM      9  C   UNL     1      14.357 -26.387  15.798  1.00  0.00     0.094 A 
ATOM     10  C   UNL     1      13.214 -25.668  16.159  1.00  0.00     0.146 A 
ATOM     11  O   UNL     1      12.436 -25.189  15.196  1.00  0.00    -0.452 OA
ENDROOT
BRANCH   1  12
ATOM     12  C   UNL     1      10.544 -24.022  14.263  1.00  0.00     0.025 A 
ATOM     13  C   UNL     1      10.789 -22.782  13.647  1.00  0.00     0.016 A 
ATOM     14  C   UNL     1      10.009 -22.365  12.566  1.00  0.00     0.051 A 
ATOM     15  C   UNL     1       8.965 -23.172  12.094  1.00  0.00     0.157 A 
ATOM     16  C   UNL     1       9.483 -24.817  13.800  1.00  0.00     0.062 A 
ATOM     17  C   UNL     1       8.700 -24.399  12.715  1.00  0.00     0.158 A 
BRANCH  15  18
ATOM     18  O   UNL     1       8.185 -22.760  11.015  1.00  0.00    -0.504 OA
ATOM     19  H   UNL     1       8.271 -23.194  10.103  1.00  0.00     0.293 HD
ENDBRANCH  15  18
BRANCH  17  20
ATOM     20  O   UNL     1       7.656 -25.196  12.249  1.00  0.00    -0.504 OA
ATOM     21  H   UNL     1       6.691 -25.002  12.489  1.00  0.00     0.293 HD
ENDBRANCH  17  20
ENDBRANCH   1  12
BRANCH   2  22
ATOM     22  O   UNL     1       9.889 -23.323  16.999  1.00  0.00    -0.502 OA
ATOM     23  H   UNL     1       9.032 -23.667  17.414  1.00  0.00     0.293 HD
ENDBRANCH   2  22
BRANCH   6  24
ATOM     24  O   UNL     1      13.481 -25.989  19.890  1.00  0.00    -0.507 OA
ATOM     25  H   UNL     1      13.487 -25.150  20.451  1.00  0.00     0.293 HD
ENDBRANCH   6  24
BRANCH   8  26
ATOM     26  O   UNL     1      16.354 -27.593  16.393  1.00  0.00    -0.508 OA
ATOM     27  H   UNL     1      16.463 -27.960  15.455  1.00  0.00     0.293 HD
ENDBRANCH   8  26
TORSDOF 6
ENDMDL
MODEL 6
REMARK VINA RESULT:    -6.493      1.867      2.968
REMARK INTER + INTRA:          -8.130
REMARK INTER:                  -8.093
REMARK INTRA:                  -0.038
REMARK UNBOUND:                -0.309
REMARK SMILES O=c1c(O)c(-c2ccc(O)c(O)c2)oc2cc(O)cc(O)c12
REMARK SMILES IDX 5 1 3 2 2 3 1 4 22 5 20 6 19 7 17 8 16 9 15 10 14 11 6 12
REMARK SMILES IDX 7 13 8 14 9 15 13 16 11 17 10 18 12 20 4 22 21 24 18 26
REMARK H PARENT 10 19 12 21 4 23 21 25 18 27
REMARK Flexibility Score: inf
ROOT
ATOM      1  C   UNL     1       2.896 -14.273  16.037  1.00  0.00     0.180 A 
ATOM      2  C   UNL     1       3.703 -13.661  15.062  1.00  0.00     0.208 A 
ATOM      3  C   UNL     1       3.365 -13.812  13.707  1.00  0.00     0.238 A 
ATOM      4  O   UNL     1       4.058 -13.217  12.841  1.00  0.00    -0.285 OA
ATOM      5  C   UNL     1       2.236 -14.585  13.344  1.00  0.00     0.111 A 
ATOM      6  C   UNL     1       1.825 -14.838  12.000  1.00  0.00     0.134 A 
ATOM      7  C   UNL     1       0.618 -15.507  11.762  1.00  0.00     0.093 A 
ATOM      8  C   UNL     1      -0.159 -15.991  12.818  1.00  0.00     0.123 A 
ATOM      9  C   UNL     1       0.265 -15.801  14.131  1.00  0.00     0.094 A 
ATOM     10  C   UNL     1       1.446 -15.105  14.402  1.00  0.00     0.146 A 
ATOM     11  O   UNL     1       1.808 -14.937  15.668  1.00  0.00    -0.452 OA
ENDROOT
BRANCH   1  12
ATOM     12  C   UNL     1       3.202 -14.181  17.483  1.00  0.00     0.025 A 
ATOM     13  C   UNL     1       3.380 -12.938  18.116  1.00  0.00     0.016 A 
ATOM     14  C   UNL     1       3.691 -12.875  19.476  1.00  0.00     0.051 A 
ATOM     15  C   UNL     1       3.843 -14.052  20.221  1.00  0.00     0.157 A 
ATOM     16  C   UNL     1       3.377 -15.358  18.230  1.00  0.00     0.062 A 
ATOM     17  C   UNL     1       3.689 -15.296  19.595  1.00  0.00     0.158 A 
BRANCH  15  18
ATOM     18  O   UNL     1       4.152 -13.995  21.579  1.00  0.00    -0.504 OA
ATOM     19  H   UNL     1       4.961 -14.473  21.958  1.00  0.00     0.293 HD
ENDBRANCH  15  18
BRANCH  17  20
ATOM     20  O   UNL     1       3.848 -16.466  20.336  1.00  0.00    -0.504 OA
ATOM     21  H   UNL     1       3.090 -16.853  20.886  1.00  0.00     0.293 HD
ENDBRANCH  17  20
ENDBRANCH   1  12
BRANCH   2  22
ATOM     22  O   UNL     1       4.799 -12.884  15.442  1.00  0.00    -0.502 OA
ATOM     23  H   UNL     1       4.701 -12.022  15.965  1.00  0.00     0.293 HD
ENDBRANCH   2  22
BRANCH   6  24
ATOM     24  O   UNL     1       2.572 -14.480  10.875  1.00  0.00    -0.507 OA
ATOM     25  H   UNL     1       3.119 -13.635  10.793  1.00  0.00     0.293 HD
ENDBRANCH   6  24
BRANCH   8  26
ATOM     26  O   UNL     1      -1.350 -16.670  12.571  1.00  0.00    -0.508 OA
ATOM     27  H   UNL     1      -1.749 -16.719  11.642  1.00  0.00     0.293 HD
ENDBRANCH   8  26
TORSDOF 6
ENDMDL
MODEL 7
REMARK VINA RESULT:    -6.306     14.169     15.814
REMARK INTER + INTRA:          -7.905
REMARK INTER:                  -8.056
REMARK INTRA:                   0.151
REMARK UNBOUND:                -0.309
REMARK SMILES O=c1c(O)c(-c2ccc(O)c(O)c2)oc2cc(O)cc(O)c12
REMARK SMILES IDX 5 1 3 2 2 3 1 4 22 5 20 6 19 7 17 8 16 9 15 10 14 11 6 12
REMARK SMILES IDX 7 13 8 14 9 15 13 16 11 17 10 18 12 20 4 22 21 24 18 26
REMARK H PARENT 10 19 12 21 4 23 21 25 18 27
REMARK Flexibility Score: inf
ROOT
ATOM      1  C   UNL     1      13.583 -25.706  16.887  1.00  0.00     0.180 A 
ATOM      2  C   UNL     1      13.064 -26.095  15.639  1.00  0.00     0.208 A 
ATOM      3  C   UNL     1      11.947 -25.416  15.126  1.00  0.00     0.238 A 
ATOM      4  O   UNL     1      11.521 -25.731  13.984  1.00  0.00    -0.285 OA
ATOM      5  C   UNL     1      11.354 -24.369  15.872  1.00  0.00     0.111 A 
ATOM      6  C   UNL     1      10.195 -23.641  15.466  1.00  0.00     0.134 A 
ATOM      7  C   UNL     1       9.773 -22.539  16.221  1.00  0.00     0.093 A 
ATOM      8  C   UNL     1      10.429 -22.181  17.402  1.00  0.00     0.123 A 
ATOM      9  C   UNL     1      11.523 -22.923  17.837  1.00  0.00     0.094 A 
ATOM     10  C   UNL     1      11.991 -24.005  17.086  1.00  0.00     0.146 A 
ATOM     11  O   UNL     1      13.044 -24.678  17.532  1.00  0.00    -0.452 OA
ENDROOT
BRANCH   1  12
ATOM     12  C   UNL     1      14.742 -26.390  17.506  1.00  0.00     0.025 A 
ATOM     13  C   UNL     1      14.773 -26.677  18.882  1.00  0.00     0.016 A 
ATOM     14  C   UNL     1      15.888 -27.301  19.448  1.00  0.00     0.051 A 
ATOM     15  C   UNL     1      16.991 -27.636  18.652  1.00  0.00     0.157 A 
ATOM     16  C   UNL     1      15.859 -26.708  16.716  1.00  0.00     0.062 A 
ATOM     17  C   UNL     1      16.977 -27.335  17.284  1.00  0.00     0.158 A 
BRANCH  15  18
ATOM     18  O   UNL     1      18.104 -28.260  19.212  1.00  0.00    -0.504 OA
ATOM     19  H   UNL     1      19.045 -27.948  19.007  1.00  0.00     0.293 HD
ENDBRANCH  15  18
BRANCH  17  20
ATOM     20  O   UNL     1      18.079 -27.662  16.495  1.00  0.00    -0.504 OA
ATOM     21  H   UNL     1      18.294 -28.623  16.256  1.00  0.00     0.293 HD
ENDBRANCH  17  20
ENDBRANCH   1  12
BRANCH   2  22
ATOM     22  O   UNL     1      13.678 -27.115  14.909  1.00  0.00    -0.502 OA
ATOM     23  H   UNL     1      14.680 -27.263  14.916  1.00  0.00     0.293 HD
ENDBRANCH   2  22
BRANCH   6  24
ATOM     24  O   UNL     1       9.415 -23.971  14.355  1.00  0.00    -0.507 OA
ATOM     25  H   UNL     1       9.706 -24.588  13.611  1.00  0.00     0.293 HD
ENDBRANCH   6  24
BRANCH   8  26
ATOM     26  O   UNL     1       9.991 -21.094  18.155  1.00  0.00    -0.508 OA
ATOM     27  H   UNL     1       9.037 -21.030  18.490  1.00  0.00     0.293 HD
ENDBRANCH   8  26
TORSDOF 6
ENDMDL
MODEL 8
REMARK VINA RESULT:    -6.277     14.151     16.687
REMARK INTER + INTRA:          -7.871
REMARK INTER:                  -7.763
REMARK INTRA:                  -0.108
REMARK UNBOUND:                -0.309
REMARK SMILES O=c1c(O)c(-c2ccc(O)c(O)c2)oc2cc(O)cc(O)c12
REMARK SMILES IDX 5 1 3 2 2 3 1 4 22 5 20 6 19 7 17 8 16 9 15 10 14 11 6 12
REMARK SMILES IDX 7 13 8 14 9 15 13 16 11 17 10 18 12 20 4 22 21 24 18 26
REMARK H PARENT 10 19 12 21 4 23 21 25 18 27
REMARK Flexibility Score: inf
ROOT
ATOM      1  C   UNL     1      13.808 -25.894  15.440  1.00  0.00     0.180 A 
ATOM      2  C   UNL     1      14.125 -26.204  16.774  1.00  0.00     0.208 A 
ATOM      3  C   UNL     1      13.374 -25.618  17.806  1.00  0.00     0.238 A 
ATOM      4  O   UNL     1      13.626 -25.943  18.996  1.00  0.00    -0.285 OA
ATOM      5  C   UNL     1      12.327 -24.719  17.492  1.00  0.00     0.111 A 
ATOM      6  C   UNL     1      11.528 -24.036  18.459  1.00  0.00     0.134 A 
ATOM      7  C   UNL     1      10.435 -23.270  18.034  1.00  0.00     0.093 A 
ATOM      8  C   UNL     1      10.153 -23.109  16.675  1.00  0.00     0.123 A 
ATOM      9  C   UNL     1      10.963 -23.722  15.723  1.00  0.00     0.094 A 
ATOM     10  C   UNL     1      12.039 -24.522  16.117  1.00  0.00     0.146 A 
ATOM     11  O   UNL     1      12.779 -25.097  15.177  1.00  0.00    -0.452 OA
ENDROOT
BRANCH   1  12
ATOM     12  C   UNL     1      14.570 -26.451  14.299  1.00  0.00     0.025 A 
ATOM     13  C   UNL     1      15.235 -25.615  13.384  1.00  0.00     0.016 A 
ATOM     14  C   UNL     1      15.928 -26.163  12.302  1.00  0.00     0.051 A 
ATOM     15  C   UNL     1      15.956 -27.550  12.110  1.00  0.00     0.157 A 
ATOM     16  C   UNL     1      14.584 -27.840  14.090  1.00  0.00     0.062 A 
ATOM     17  C   UNL     1      15.280 -28.390  13.004  1.00  0.00     0.158 A 
BRANCH  15  18
ATOM     18  O   UNL     1      16.648 -28.101  11.032  1.00  0.00    -0.504 OA
ATOM     19  H   UNL     1      16.373 -28.986  10.623  1.00  0.00     0.293 HD
ENDBRANCH  15  18
BRANCH  17  20
ATOM     20  O   UNL     1      15.303 -29.769  12.806  1.00  0.00    -0.504 OA
ATOM     21  H   UNL     1      15.360 -30.416  13.584  1.00  0.00     0.293 HD
ENDBRANCH  17  20
ENDBRANCH   1  12
BRANCH   2  22
ATOM     22  O   UNL     1      15.147 -27.112  17.061  1.00  0.00    -0.502 OA
ATOM     23  H   UNL     1      15.855 -26.932  17.762  1.00  0.00     0.293 HD
ENDBRANCH   2  22
BRANCH   6  24
ATOM     24  O   UNL     1      11.779 -24.056  19.833  1.00  0.00    -0.507 OA
ATOM     25  H   UNL     1      12.402 -24.702  20.294  1.00  0.00     0.293 HD
ENDBRANCH   6  24
BRANCH   8  26
ATOM     26  O   UNL     1       9.074 -22.331  16.261  1.00  0.00    -0.508 OA
ATOM     27  H   UNL     1       8.929 -22.102  15.285  1.00  0.00     0.293 HD
ENDBRANCH   8  26
TORSDOF 6
ENDMDL
MODEL 9
REMARK VINA RESULT:    -6.219     13.546     15.541
REMARK INTER + INTRA:          -7.800
REMARK INTER:                  -7.616
REMARK INTRA:                  -0.183
REMARK UNBOUND:                -0.309
REMARK SMILES O=c1c(O)c(-c2ccc(O)c(O)c2)oc2cc(O)cc(O)c12
REMARK SMILES IDX 5 1 3 2 2 3 1 4 22 5 20 6 19 7 17 8 16 9 15 10 14 11 6 12
REMARK SMILES IDX 7 13 8 14 9 15 13 16 11 17 10 18 12 20 4 22 21 24 18 26
REMARK H PARENT 10 19 12 21 4 23 21 25 18 27
REMARK Flexibility Score: inf
ROOT
ATOM      1  C   UNL     1      12.781 -24.495  16.511  1.00  0.00     0.180 A 
ATOM      2  C   UNL     1      13.533 -24.505  15.322  1.00  0.00     0.208 A 
ATOM      3  C   UNL     1      14.727 -25.243  15.279  1.00  0.00     0.238 A 
ATOM      4  O   UNL     1      15.367 -25.293  14.196  1.00  0.00    -0.285 OA
ATOM      5  C   UNL     1      15.162 -25.948  16.427  1.00  0.00     0.111 A 
ATOM      6  C   UNL     1      16.376 -26.695  16.507  1.00  0.00     0.134 A 
ATOM      7  C   UNL     1      16.641 -27.460  17.650  1.00  0.00     0.093 A 
ATOM      8  C   UNL     1      15.768 -27.452  18.741  1.00  0.00     0.123 A 
ATOM      9  C   UNL     1      14.611 -26.679  18.695  1.00  0.00     0.094 A 
ATOM     10  C   UNL     1      14.301 -25.934  17.555  1.00  0.00     0.146 A 
ATOM     11  O   UNL     1      13.182 -25.220  17.548  1.00  0.00    -0.452 OA
ENDROOT
BRANCH   1  12
ATOM     12  C   UNL     1      11.525 -23.721  16.642  1.00  0.00     0.025 A 
ATOM     13  C   UNL     1      10.377 -24.059  15.904  1.00  0.00     0.016 A 
ATOM     14  C   UNL     1       9.210 -23.300  16.026  1.00  0.00     0.051 A 
ATOM     15  C   UNL     1       9.178 -22.186  16.875  1.00  0.00     0.157 A 
ATOM     16  C   UNL     1      11.494 -22.591  17.475  1.00  0.00     0.062 A 
ATOM     17  C   UNL     1      10.324 -21.829  17.598  1.00  0.00     0.158 A 
BRANCH  15  18
ATOM     18  O   UNL     1       8.016 -21.426  17.001  1.00  0.00    -0.504 OA
ATOM     19  H   UNL     1       7.952 -20.662  17.663  1.00  0.00     0.293 HD
ENDBRANCH  15  18
BRANCH  17  20
ATOM     20  O   UNL     1      10.291 -20.716  18.436  1.00  0.00    -0.504 OA
ATOM     21  H   UNL     1      10.839 -19.887  18.239  1.00  0.00     0.293 HD
ENDBRANCH  17  20
ENDBRANCH   1  12
BRANCH   2  22
ATOM     22  O   UNL     1      13.074 -23.821  14.194  1.00  0.00    -0.502 OA
ATOM     23  H   UNL     1      13.659 -23.183  13.669  1.00  0.00     0.293 HD
ENDBRANCH   2  22
BRANCH   6  24
ATOM     24  O   UNL     1      17.358 -26.698  15.513  1.00  0.00    -0.507 OA
ATOM     25  H   UNL     1      17.172 -26.714  14.521  1.00  0.00     0.293 HD
ENDBRANCH   6  24
BRANCH   8  26
ATOM     26  O   UNL     1      16.049 -28.203  19.881  1.00  0.00    -0.508 OA
ATOM     27  H   UNL     1      15.628 -29.112  20.034  1.00  0.00     0.293 HD
ENDBRANCH   8  26
TORSDOF 6
ENDMDL
