MODEL 1
REMARK VINA RESULT:    -5.554      0.000      0.000
REMARK INTER + INTRA:          -6.872
REMARK INTER:                  -6.690
REMARK INTRA:                  -0.182
REMARK UNBOUND:                -0.182
REMARK SMILES O=c1c(O)c(-c2ccc(O)cc2O)oc2cc(O)cc(O)c12
REMARK SMILES IDX 5 1 3 2 2 3 1 4 22 5 20 6 19 7 17 8 16 9 15 10 14 11 6 12
REMARK SMILES IDX 8 13 7 14 9 15 11 16 12 17 10 18 13 20 4 22 21 24 18 26
REMARK H PARENT 10 19 13 21 4 23 21 25 18 27
REMARK Flexibility Score: inf
ROOT
ATOM      1  C   UNL     1      14.098 -17.109  20.185  1.00  0.00     0.184 A 
ATOM      2  C   UNL     1      14.996 -17.840  20.977  1.00  0.00     0.208 A 
ATOM      3  C   UNL     1      16.263 -17.300  21.247  1.00  0.00     0.238 A 
ATOM      4  O   UNL     1      17.084 -17.988  21.907  1.00  0.00    -0.285 OA
ATOM      5  C   UNL     1      16.603 -16.021  20.745  1.00  0.00     0.111 A 
ATOM      6  C   UNL     1      17.844 -15.358  20.989  1.00  0.00     0.134 A 
ATOM      7  C   UNL     1      18.120 -14.148  20.341  1.00  0.00     0.093 A 
ATOM      8  C   UNL     1      17.174 -13.544  19.508  1.00  0.00     0.123 A 
ATOM      9  C   UNL     1      15.939 -14.155  19.310  1.00  0.00     0.094 A 
ATOM     10  C   UNL     1      15.647 -15.380  19.913  1.00  0.00     0.146 A 
ATOM     11  O   UNL     1      14.463 -15.934  19.685  1.00  0.00    -0.451 OA
ENDROOT
BRANCH   1  12
ATOM     12  C   UNL     1      12.743 -17.617  19.887  1.00  0.00     0.063 A 
ATOM     13  C   UNL     1      11.117 -18.373  18.240  1.00  0.00     0.047 A 
ATOM     14  C   UNL     1      12.371 -17.842  18.549  1.00  0.00     0.020 A 
ATOM     15  C   UNL     1      10.218 -18.695  19.265  1.00  0.00     0.119 A 
ATOM     16  C   UNL     1      10.579 -18.476  20.597  1.00  0.00     0.093 A 
ATOM     17  C   UNL     1      11.829 -17.934  20.919  1.00  0.00     0.130 A 
BRANCH  15  18
ATOM     18  O   UNL     1       8.967 -19.230  18.968  1.00  0.00    -0.508 OA
ATOM     19  H   UNL     1       8.589 -19.204  18.030  1.00  0.00     0.293 HD
ENDBRANCH  15  18
BRANCH  17  20
ATOM     20  O   UNL     1      12.122 -17.704  22.266  1.00  0.00    -0.507 OA
ATOM     21  H   UNL     1      11.457 -17.308  22.916  1.00  0.00     0.293 HD
ENDBRANCH  17  20
ENDBRANCH   1  12
BRANCH   2  22
ATOM     22  O   UNL     1      14.630 -19.099  21.462  1.00  0.00    -0.502 OA
ATOM     23  H   UNL     1      15.313 -19.801  21.720  1.00  0.00     0.293 HD
ENDBRANCH   2  22
BRANCH   6  24
ATOM     24  O   UNL     1      18.820 -15.828  21.873  1.00  0.00    -0.507 OA
ATOM     25  H   UNL     1      19.811 -15.831  21.687  1.00  0.00     0.293 HD
ENDBRANCH   6  24
BRANCH   8  26
ATOM     26  O   UNL     1      17.451 -12.332  18.879  1.00  0.00    -0.508 OA
ATOM     27  H   UNL     1      16.831 -11.536  18.969  1.00  0.00     0.293 HD
ENDBRANCH   8  26
TORSDOF 6
ENDMDL
MODEL 2
REMARK VINA RESULT:    -5.547     12.192     15.526
REMARK INTER + INTRA:          -6.864
REMARK INTER:                  -6.475
REMARK INTRA:                  -0.390
REMARK UNBOUND:                -0.182
REMARK SMILES O=c1c(O)c(-c2ccc(O)cc2O)oc2cc(O)cc(O)c12
REMARK SMILES IDX 5 1 3 2 2 3 1 4 22 5 20 6 19 7 17 8 16 9 15 10 14 11 6 12
REMARK SMILES IDX 8 13 7 14 9 15 11 16 12 17 10 18 13 20 4 22 21 24 18 26
REMARK H PARENT 10 19 13 21 4 23 21 25 18 27
REMARK Flexibility Score: inf
ROOT
ATOM      1  C   UNL     1      15.672  -7.073   8.877  1.00  0.00     0.184 A 
ATOM      2  C   UNL     1      15.076  -8.340   8.790  1.00  0.00     0.208 A 
ATOM      3  C   UNL     1      14.602  -8.952   9.961  1.00  0.00     0.238 A 
ATOM      4  O   UNL     1      14.123 -10.113   9.883  1.00  0.00    -0.285 OA
ATOM      5  C   UNL     1      14.704  -8.273  11.199  1.00  0.00     0.111 A 
ATOM      6  C   UNL     1      14.220  -8.781  12.443  1.00  0.00     0.134 A 
ATOM      7  C   UNL     1      14.485  -8.079  13.625  1.00  0.00     0.093 A 
ATOM      8  C   UNL     1      15.159  -6.855  13.601  1.00  0.00     0.123 A 
ATOM      9  C   UNL     1      15.584  -6.324  12.386  1.00  0.00     0.094 A 
ATOM     10  C   UNL     1      15.367  -7.018  11.193  1.00  0.00     0.146 A 
ATOM     11  O   UNL     1      15.801  -6.483  10.060  1.00  0.00    -0.451 OA
ENDROOT
BRANCH   1  12
ATOM     12  C   UNL     1      16.170  -6.371   7.676  1.00  0.00     0.063 A 
ATOM     13  C   UNL     1      15.712  -4.948   5.754  1.00  0.00     0.047 A 
ATOM     14  C   UNL     1      15.262  -5.667   6.864  1.00  0.00     0.020 A 
ATOM     15  C   UNL     1      17.076  -4.917   5.443  1.00  0.00     0.119 A 
ATOM     16  C   UNL     1      17.986  -5.612   6.244  1.00  0.00     0.093 A 
ATOM     17  C   UNL     1      17.548  -6.344   7.353  1.00  0.00     0.130 A 
BRANCH  15  18
ATOM     18  O   UNL     1      17.536  -4.199   4.341  1.00  0.00    -0.508 OA
ATOM     19  H   UNL     1      18.499  -3.897   4.270  1.00  0.00     0.293 HD
ENDBRANCH  15  18
BRANCH  17  20
ATOM     20  O   UNL     1      18.497  -7.049   8.097  1.00  0.00    -0.507 OA
ATOM     21  H   UNL     1      18.624  -6.922   9.092  1.00  0.00     0.293 HD
ENDBRANCH  17  20
ENDBRANCH   1  12
BRANCH   2  22
ATOM     22  O   UNL     1      14.986  -8.984   7.552  1.00  0.00    -0.502 OA
ATOM     23  H   UNL     1      15.155  -8.504   6.677  1.00  0.00     0.293 HD
ENDBRANCH   2  22
BRANCH   6  24
ATOM     24  O   UNL     1      13.458  -9.946  12.569  1.00  0.00    -0.507 OA
ATOM     25  H   UNL     1      13.617 -10.667  13.255  1.00  0.00     0.293 HD
ENDBRANCH   6  24
BRANCH   8  26
ATOM     26  O   UNL     1      15.405  -6.155  14.780  1.00  0.00    -0.508 OA
ATOM     27  H   UNL     1      15.055  -5.214  14.920  1.00  0.00     0.293 HD
ENDBRANCH   8  26
TORSDOF 6
ENDMDL
MODEL 3
REMARK VINA RESULT:    -5.380     12.725     16.155
REMARK INTER + INTRA:          -6.663
REMARK INTER:                  -6.288
REMARK INTRA:                  -0.374
REMARK UNBOUND:                -0.182
REMARK SMILES O=c1c(O)c(-c2ccc(O)cc2O)oc2cc(O)cc(O)c12
REMARK SMILES IDX 5 1 3 2 2 3 1 4 22 5 20 6 19 7 17 8 16 9 15 10 14 11 6 12
REMARK SMILES IDX 8 13 7 14 9 15 11 16 12 17 10 18 13 20 4 22 21 24 18 26
REMARK H PARENT 10 19 13 21 4 23 21 25 18 27
REMARK Flexibility Score: inf
ROOT
ATOM      1  C   UNL     1      15.722  -7.068   8.120  1.00  0.00     0.184 A 
ATOM      2  C   UNL     1      14.886  -8.058   7.583  1.00  0.00     0.208 A 
ATOM      3  C   UNL     1      14.285  -8.986   8.447  1.00  0.00     0.238 A 
ATOM      4  O   UNL     1      13.585  -9.907   7.953  1.00  0.00    -0.285 OA
ATOM      5  C   UNL     1      14.507  -8.891   9.843  1.00  0.00     0.111 A 
ATOM      6  C   UNL     1      13.917  -9.753  10.817  1.00  0.00     0.134 A 
ATOM      7  C   UNL     1      14.303  -9.645  12.158  1.00  0.00     0.093 A 
ATOM      8  C   UNL     1      15.209  -8.664  12.571  1.00  0.00     0.123 A 
ATOM      9  C   UNL     1      15.745  -7.781  11.637  1.00  0.00     0.094 A 
ATOM     10  C   UNL     1      15.408  -7.887  10.285  1.00  0.00     0.146 A 
ATOM     11  O   UNL     1      15.953  -7.035   9.427  1.00  0.00    -0.451 OA
ENDROOT
BRANCH   1  12
ATOM     12  C   UNL     1      16.364  -6.051   7.260  1.00  0.00     0.063 A 
ATOM     13  C   UNL     1      16.144  -4.100   5.821  1.00  0.00     0.047 A 
ATOM     14  C   UNL     1      15.562  -5.106   6.595  1.00  0.00     0.020 A 
ATOM     15  C   UNL     1      17.537  -4.019   5.706  1.00  0.00     0.119 A 
ATOM     16  C   UNL     1      18.342  -4.953   6.364  1.00  0.00     0.093 A 
ATOM     17  C   UNL     1      17.771  -5.972   7.134  1.00  0.00     0.130 A 
BRANCH  15  18
ATOM     18  O   UNL     1      18.128  -3.016   4.940  1.00  0.00    -0.508 OA
ATOM     19  H   UNL     1      17.669  -2.128   4.786  1.00  0.00     0.293 HD
ENDBRANCH  15  18
BRANCH  17  20
ATOM     20  O   UNL     1      18.623  -6.899   7.740  1.00  0.00    -0.507 OA
ATOM     21  H   UNL     1      19.590  -7.021   7.468  1.00  0.00     0.293 HD
ENDBRANCH  17  20
ENDBRANCH   1  12
BRANCH   2  22
ATOM     22  O   UNL     1      14.683  -8.124   6.201  1.00  0.00    -0.502 OA
ATOM     23  H   UNL     1      13.961  -8.700   5.785  1.00  0.00     0.293 HD
ENDBRANCH   2  22
BRANCH   6  24
ATOM     24  O   UNL     1      12.936 -10.705  10.526  1.00  0.00    -0.507 OA
ATOM     25  H   UNL     1      12.977 -11.675  10.798  1.00  0.00     0.293 HD
ENDBRANCH   6  24
BRANCH   8  26
ATOM     26  O   UNL     1      15.576  -8.553  13.911  1.00  0.00    -0.508 OA
ATOM     27  H   UNL     1      15.301  -7.754  14.470  1.00  0.00     0.293 HD
ENDBRANCH   8  26
TORSDOF 6
ENDMDL
MODEL 4
REMARK VINA RESULT:    -5.268      2.851      5.166
REMARK INTER + INTRA:          -6.528
REMARK INTER:                  -6.159
REMARK INTRA:                  -0.368
REMARK UNBOUND:                -0.182
REMARK SMILES O=c1c(O)c(-c2ccc(O)cc2O)oc2cc(O)cc(O)c12
REMARK SMILES IDX 5 1 3 2 2 3 1 4 22 5 20 6 19 7 17 8 16 9 15 10 14 11 6 12
REMARK SMILES IDX 8 13 7 14 9 15 11 16 12 17 10 18 13 20 4 22 21 24 18 26
REMARK H PARENT 10 19 13 21 4 23 21 25 18 27
REMARK Flexibility Score: inf
ROOT
ATOM      1  C   UNL     1      17.460 -14.261  20.154  1.00  0.00     0.184 A 
ATOM      2  C   UNL     1      18.793 -14.076  20.545  1.00  0.00     0.208 A 
ATOM      3  C   UNL     1      19.433 -12.865  20.239  1.00  0.00     0.238 A 
ATOM      4  O   UNL     1      20.647 -12.730  20.540  1.00  0.00    -0.285 OA
ATOM      5  C   UNL     1      18.717 -11.843  19.570  1.00  0.00     0.111 A 
ATOM      6  C   UNL     1      19.252 -10.560  19.244  1.00  0.00     0.134 A 
ATOM      7  C   UNL     1      18.493  -9.671  18.472  1.00  0.00     0.093 A 
ATOM      8  C   UNL     1      17.194  -9.994  18.070  1.00  0.00     0.123 A 
ATOM      9  C   UNL     1      16.643 -11.220  18.432  1.00  0.00     0.094 A 
ATOM     10  C   UNL     1      17.388 -12.142  19.170  1.00  0.00     0.146 A 
ATOM     11  O   UNL     1      16.829 -13.305  19.482  1.00  0.00    -0.451 OA
ENDROOT
BRANCH   1  12
ATOM     12  C   UNL     1      16.729 -15.506  20.469  1.00  0.00     0.063 A 
ATOM     13  C   UNL     1      15.720 -16.966  22.136  1.00  0.00     0.047 A 
ATOM     14  C   UNL     1      16.457 -15.825  21.811  1.00  0.00     0.020 A 
ATOM     15  C   UNL     1      15.238 -17.803  21.122  1.00  0.00     0.119 A 
ATOM     16  C   UNL     1      15.502 -17.494  19.785  1.00  0.00     0.093 A 
ATOM     17  C   UNL     1      16.247 -16.359  19.447  1.00  0.00     0.130 A 
BRANCH  15  18
ATOM     18  O   UNL     1      14.498 -18.941  21.434  1.00  0.00    -0.508 OA
ATOM     19  H   UNL     1      13.487 -18.947  21.379  1.00  0.00     0.293 HD
ENDBRANCH  15  18
BRANCH  17  20
ATOM     20  O   UNL     1      16.510 -16.119  18.096  1.00  0.00    -0.507 OA
ATOM     21  H   UNL     1      15.841 -16.307  17.361  1.00  0.00     0.293 HD
ENDBRANCH  17  20
ENDBRANCH   1  12
BRANCH   2  22
ATOM     22  O   UNL     1      19.474 -15.102  21.209  1.00  0.00    -0.502 OA
ATOM     23  H   UNL     1      20.436 -15.339  21.001  1.00  0.00     0.293 HD
ENDBRANCH   2  22
BRANCH   6  24
ATOM     24  O   UNL     1      20.501 -10.102  19.672  1.00  0.00    -0.507 OA
ATOM     25  H   UNL     1      21.269 -10.695  19.945  1.00  0.00     0.293 HD
ENDBRANCH   6  24
BRANCH   8  26
ATOM     26  O   UNL     1      16.440  -9.097  17.315  1.00  0.00    -0.508 OA
ATOM     27  H   UNL     1      16.877  -8.344  16.797  1.00  0.00     0.293 HD
ENDBRANCH   8  26
TORSDOF 6
ENDMDL
MODEL 5
REMARK VINA RESULT:    -5.253     12.662     15.732
REMARK INTER + INTRA:          -6.509
REMARK INTER:                  -6.131
REMARK INTRA:                  -0.378
REMARK UNBOUND:                -0.182
REMARK SMILES O=c1c(O)c(-c2ccc(O)cc2O)oc2cc(O)cc(O)c12
REMARK SMILES IDX 5 1 3 2 2 3 1 4 22 5 20 6 19 7 17 8 16 9 15 10 14 11 6 12
REMARK SMILES IDX 8 13 7 14 9 15 11 16 12 17 10 18 13 20 4 22 21 24 18 26
REMARK H PARENT 10 19 13 21 4 23 21 25 18 27
REMARK Flexibility Score: inf
ROOT
ATOM      1  C   UNL     1      15.203  -6.800   9.672  1.00  0.00     0.184 A 
ATOM      2  C   UNL     1      13.968  -6.677   9.019  1.00  0.00     0.208 A 
ATOM      3  C   UNL     1      13.949  -6.425   7.638  1.00  0.00     0.238 A 
ATOM      4  O   UNL     1      12.839  -6.256   7.070  1.00  0.00    -0.285 OA
ATOM      5  C   UNL     1      15.169  -6.328   6.925  1.00  0.00     0.111 A 
ATOM      6  C   UNL     1      15.269  -6.115   5.517  1.00  0.00     0.134 A 
ATOM      7  C   UNL     1      16.527  -5.913   4.937  1.00  0.00     0.093 A 
ATOM      8  C   UNL     1      17.694  -5.982   5.703  1.00  0.00     0.123 A 
ATOM      9  C   UNL     1      17.609  -6.247   7.067  1.00  0.00     0.094 A 
ATOM     10  C   UNL     1      16.367  -6.417   7.682  1.00  0.00     0.146 A 
ATOM     11  O   UNL     1      16.332  -6.654   8.987  1.00  0.00    -0.451 OA
ENDROOT
BRANCH   1  12
ATOM     12  C   UNL     1      15.285  -7.088  11.119  1.00  0.00     0.063 A 
ATOM     13  C   UNL     1      15.495  -6.262  13.400  1.00  0.00     0.047 A 
ATOM     14  C   UNL     1      15.470  -6.027  12.023  1.00  0.00     0.020 A 
ATOM     15  C   UNL     1      15.328  -7.561  13.894  1.00  0.00     0.119 A 
ATOM     16  C   UNL     1      15.142  -8.622  13.003  1.00  0.00     0.093 A 
ATOM     17  C   UNL     1      15.125  -8.401  11.622  1.00  0.00     0.130 A 
BRANCH  15  18
ATOM     18  O   UNL     1      15.347  -7.807  15.265  1.00  0.00    -0.508 OA
ATOM     19  H   UNL     1      14.695  -7.353  15.893  1.00  0.00     0.293 HD
ENDBRANCH  15  18
BRANCH  17  20
ATOM     20  O   UNL     1      14.971  -9.504  10.778  1.00  0.00    -0.507 OA
ATOM     21  H   UNL     1      14.887 -10.453  11.118  1.00  0.00     0.293 HD
ENDBRANCH  17  20
ENDBRANCH   1  12
BRANCH   2  22
ATOM     22  O   UNL     1      12.780  -6.782   9.748  1.00  0.00    -0.502 OA
ATOM     23  H   UNL     1      12.469  -6.059  10.386  1.00  0.00     0.293 HD
ENDBRANCH   2  22
BRANCH   6  24
ATOM     24  O   UNL     1      14.175  -6.118   4.646  1.00  0.00    -0.507 OA
ATOM     25  H   UNL     1      14.231  -6.276   3.652  1.00  0.00     0.293 HD
ENDBRANCH   6  24
BRANCH   8  26
ATOM     26  O   UNL     1      18.943  -5.796   5.115  1.00  0.00    -0.508 OA
ATOM     27  H   UNL     1      19.767  -5.604   5.672  1.00  0.00     0.293 HD
ENDBRANCH   8  26
TORSDOF 6
ENDMDL
MODEL 6
REMARK VINA RESULT:    -5.217      1.993      6.859
REMARK INTER + INTRA:          -6.466
REMARK INTER:                  -6.183
REMARK INTRA:                  -0.284
REMARK UNBOUND:                -0.182
REMARK SMILES O=c1c(O)c(-c2ccc(O)cc2O)oc2cc(O)cc(O)c12
REMARK SMILES IDX 5 1 3 2 2 3 1 4 22 5 20 6 19 7 17 8 16 9 15 10 14 11 6 12
REMARK SMILES IDX 8 13 7 14 9 15 11 16 12 17 10 18 13 20 4 22 21 24 18 26
REMARK H PARENT 10 19 13 21 4 23 21 25 18 27
REMARK Flexibility Score: inf
ROOT
ATOM      1  C   UNL     1      16.321 -14.251  19.797  1.00  0.00     0.184 A 
ATOM      2  C   UNL     1      16.541 -14.817  21.060  1.00  0.00     0.208 A 
ATOM      3  C   UNL     1      15.868 -16.001  21.403  1.00  0.00     0.238 A 
ATOM      4  O   UNL     1      16.024 -16.470  22.560  1.00  0.00    -0.285 OA
ATOM      5  C   UNL     1      15.006 -16.616  20.464  1.00  0.00     0.111 A 
ATOM      6  C   UNL     1      14.304 -17.839  20.688  1.00  0.00     0.134 A 
ATOM      7  C   UNL     1      13.383 -18.291  19.735  1.00  0.00     0.093 A 
ATOM      8  C   UNL     1      13.188 -17.600  18.537  1.00  0.00     0.123 A 
ATOM      9  C   UNL     1      13.912 -16.437  18.284  1.00  0.00     0.094 A 
ATOM     10  C   UNL     1      14.810 -15.941  19.230  1.00  0.00     0.146 A 
ATOM     11  O   UNL     1      15.468 -14.822  18.954  1.00  0.00    -0.451 OA
ENDROOT
BRANCH   1  12
ATOM     12  C   UNL     1      17.019 -13.019  19.372  1.00  0.00     0.063 A 
ATOM     13  C   UNL     1      16.921 -10.642  18.851  1.00  0.00     0.047 A 
ATOM     14  C   UNL     1      16.281 -11.834  19.197  1.00  0.00     0.020 A 
ATOM     15  C   UNL     1      18.311 -10.615  18.681  1.00  0.00     0.119 A 
ATOM     16  C   UNL     1      19.053 -11.786  18.854  1.00  0.00     0.093 A 
ATOM     17  C   UNL     1      18.422 -12.989  19.191  1.00  0.00     0.130 A 
BRANCH  15  18
ATOM     18  O   UNL     1      18.960  -9.431  18.340  1.00  0.00    -0.508 OA
ATOM     19  H   UNL     1      19.438  -8.870  19.035  1.00  0.00     0.293 HD
ENDBRANCH  15  18
BRANCH  17  20
ATOM     20  O   UNL     1      19.210 -14.136  19.316  1.00  0.00    -0.507 OA
ATOM     21  H   UNL     1      19.652 -14.411  20.183  1.00  0.00     0.293 HD
ENDBRANCH  17  20
ENDBRANCH   1  12
BRANCH   2  22
ATOM     22  O   UNL     1      17.401 -14.189  21.966  1.00  0.00    -0.502 OA
ATOM     23  H   UNL     1      17.491 -14.491  22.928  1.00  0.00     0.293 HD
ENDBRANCH   2  22
BRANCH   6  24
ATOM     24  O   UNL     1      14.491 -18.654  21.809  1.00  0.00    -0.507 OA
ATOM     25  H   UNL     1      14.255 -18.396  22.754  1.00  0.00     0.293 HD
ENDBRANCH   6  24
BRANCH   8  26
ATOM     26  O   UNL     1      12.281 -18.066  17.586  1.00  0.00    -0.508 OA
ATOM     27  H   UNL     1      12.302 -19.025  17.261  1.00  0.00     0.293 HD
ENDBRANCH   8  26
TORSDOF 6
ENDMDL
MODEL 7
REMARK VINA RESULT:    -5.077      8.989     11.230
REMARK INTER + INTRA:          -6.298
REMARK INTER:                  -5.915
REMARK INTRA:                  -0.383
REMARK UNBOUND:                -0.182
REMARK SMILES O=c1c(O)c(-c2ccc(O)cc2O)oc2cc(O)cc(O)c12
REMARK SMILES IDX 5 1 3 2 2 3 1 4 22 5 20 6 19 7 17 8 16 9 15 10 14 11 6 12
REMARK SMILES IDX 8 13 7 14 9 15 11 16 12 17 10 18 13 20 4 22 21 24 18 26
REMARK H PARENT 10 19 13 21 4 23 21 25 18 27
REMARK Flexibility Score: inf
ROOT
ATOM      1  C   UNL     1      14.199 -11.117  11.438  1.00  0.00     0.184 A 
ATOM      2  C   UNL     1      14.303 -10.646  10.121  1.00  0.00     0.208 A 
ATOM      3  C   UNL     1      14.679  -9.312   9.902  1.00  0.00     0.238 A 
ATOM      4  O   UNL     1      14.712  -8.879   8.721  1.00  0.00    -0.285 OA
ATOM      5  C   UNL     1      14.973  -8.475  11.006  1.00  0.00     0.111 A 
ATOM      6  C   UNL     1      15.403  -7.117  10.901  1.00  0.00     0.134 A 
ATOM      7  C   UNL     1      15.547  -6.347  12.062  1.00  0.00     0.093 A 
ATOM      8  C   UNL     1      15.341  -6.904  13.327  1.00  0.00     0.123 A 
ATOM      9  C   UNL     1      14.978  -8.244  13.441  1.00  0.00     0.094 A 
ATOM     10  C   UNL     1      14.791  -9.028  12.301  1.00  0.00     0.146 A 
ATOM     11  O   UNL     1      14.431 -10.296  12.455  1.00  0.00    -0.451 OA
ENDROOT
BRANCH   1  12
ATOM     12  C   UNL     1      13.829 -12.519  11.728  1.00  0.00     0.063 A 
ATOM     13  C   UNL     1      12.093 -14.205  11.989  1.00  0.00     0.047 A 
ATOM     14  C   UNL     1      12.470 -12.878  11.772  1.00  0.00     0.020 A 
ATOM     15  C   UNL     1      13.069 -15.194  12.159  1.00  0.00     0.119 A 
ATOM     16  C   UNL     1      14.422 -14.848  12.116  1.00  0.00     0.093 A 
ATOM     17  C   UNL     1      14.813 -13.520  11.909  1.00  0.00     0.130 A 
BRANCH  15  18
ATOM     18  O   UNL     1      12.704 -16.522  12.371  1.00  0.00    -0.508 OA
ATOM     19  H   UNL     1      12.952 -17.009  13.223  1.00  0.00     0.293 HD
ENDBRANCH  15  18
BRANCH  17  20
ATOM     20  O   UNL     1      16.179 -13.226  11.911  1.00  0.00    -0.507 OA
ATOM     21  H   UNL     1      16.857 -13.746  11.372  1.00  0.00     0.293 HD
ENDBRANCH  17  20
ENDBRANCH   1  12
BRANCH   2  22
ATOM     22  O   UNL     1      14.010 -11.497   9.051  1.00  0.00    -0.502 OA
ATOM     23  H   UNL     1      14.364 -11.335   8.116  1.00  0.00     0.293 HD
ENDBRANCH   2  22
BRANCH   6  24
ATOM     24  O   UNL     1      15.723  -6.490   9.694  1.00  0.00    -0.507 OA
ATOM     25  H   UNL     1      16.461  -5.812   9.575  1.00  0.00     0.293 HD
ENDBRANCH   6  24
BRANCH   8  26
ATOM     26  O   UNL     1      15.502  -6.135  14.477  1.00  0.00    -0.508 OA
ATOM     27  H   UNL     1      16.241  -6.328  15.144  1.00  0.00     0.293 HD
ENDBRANCH   8  26
TORSDOF 6
ENDMDL
MODEL 8
REMARK VINA RESULT:    -4.947      9.337     12.436
REMARK INTER + INTRA:          -6.141
REMARK INTER:                  -5.735
REMARK INTRA:                  -0.406
REMARK UNBOUND:                -0.182
REMARK SMILES O=c1c(O)c(-c2ccc(O)cc2O)oc2cc(O)cc(O)c12
REMARK SMILES IDX 5 1 3 2 2 3 1 4 22 5 20 6 19 7 17 8 16 9 15 10 14 11 6 12
REMARK SMILES IDX 8 13 7 14 9 15 11 16 12 17 10 18 13 20 4 22 21 24 18 26
REMARK H PARENT 10 19 13 21 4 23 21 25 18 27
REMARK Flexibility Score: inf
ROOT
ATOM      1  C   UNL     1      25.168 -12.825  17.963  1.00  0.00     0.184 A 
ATOM      2  C   UNL     1      25.649 -11.970  18.965  1.00  0.00     0.208 A 
ATOM      3  C   UNL     1      26.075 -10.679  18.612  1.00  0.00     0.238 A 
ATOM      4  O   UNL     1      26.561  -9.939  19.506  1.00  0.00    -0.285 OA
ATOM      5  C   UNL     1      25.984 -10.253  17.265  1.00  0.00     0.111 A 
ATOM      6  C   UNL     1      26.348  -8.953  16.800  1.00  0.00     0.134 A 
ATOM      7  C   UNL     1      26.333  -8.682  15.427  1.00  0.00     0.093 A 
ATOM      8  C   UNL     1      25.904  -9.642  14.507  1.00  0.00     0.123 A 
ATOM      9  C   UNL     1      25.492 -10.894  14.956  1.00  0.00     0.094 A 
ATOM     10  C   UNL     1      25.531 -11.208  16.317  1.00  0.00     0.146 A 
ATOM     11  O   UNL     1      25.143 -12.417  16.700  1.00  0.00    -0.451 OA
ENDROOT
BRANCH   1  12
ATOM     12  C   UNL     1      24.686 -14.187  18.279  1.00  0.00     0.063 A 
ATOM     13  C   UNL     1      22.916 -15.626  19.128  1.00  0.00     0.047 A 
ATOM     14  C   UNL     1      23.421 -14.350  18.870  1.00  0.00     0.020 A 
ATOM     15  C   UNL     1      23.666 -16.759  18.792  1.00  0.00     0.119 A 
ATOM     16  C   UNL     1      24.924 -16.608  18.203  1.00  0.00     0.093 A 
ATOM     17  C   UNL     1      25.446 -15.334  17.949  1.00  0.00     0.130 A 
BRANCH  15  18
ATOM     18  O   UNL     1      23.171 -18.037  19.041  1.00  0.00    -0.508 OA
ATOM     19  H   UNL     1      22.694 -18.262  19.905  1.00  0.00     0.293 HD
ENDBRANCH  15  18
BRANCH  17  20
ATOM     20  O   UNL     1      26.724 -15.243  17.391  1.00  0.00    -0.507 OA
ATOM     21  H   UNL     1      27.192 -14.362  17.226  1.00  0.00     0.293 HD
ENDBRANCH  17  20
ENDBRANCH   1  12
BRANCH   2  22
ATOM     22  O   UNL     1      25.724 -12.417  20.288  1.00  0.00    -0.502 OA
ATOM     23  H   UNL     1      26.361 -13.147  20.579  1.00  0.00     0.293 HD
ENDBRANCH   2  22
BRANCH   6  24
ATOM     24  O   UNL     1      26.704  -7.894  17.641  1.00  0.00    -0.507 OA
ATOM     25  H   UNL     1      26.968  -6.973  17.326  1.00  0.00     0.293 HD
ENDBRANCH   6  24
BRANCH   8  26
ATOM     26  O   UNL     1      25.877  -9.358  13.143  1.00  0.00    -0.508 OA
ATOM     27  H   UNL     1      25.070  -9.581  12.572  1.00  0.00     0.293 HD
ENDBRANCH   8  26
TORSDOF 6
ENDMDL
MODEL 9
REMARK VINA RESULT:    -4.816     11.702     14.570
REMARK INTER + INTRA:          -5.983
REMARK INTER:                  -5.667
REMARK INTRA:                  -0.316
REMARK UNBOUND:                -0.182
REMARK SMILES O=c1c(O)c(-c2ccc(O)cc2O)oc2cc(O)cc(O)c12
REMARK SMILES IDX 5 1 3 2 2 3 1 4 22 5 20 6 19 7 17 8 16 9 15 10 14 11 6 12
REMARK SMILES IDX 8 13 7 14 9 15 11 16 12 17 10 18 13 20 4 22 21 24 18 26
REMARK H PARENT 10 19 13 21 4 23 21 25 18 27
REMARK Flexibility Score: inf
ROOT
ATOM      1  C   UNL     1      14.918  -6.490  10.585  1.00  0.00     0.184 A 
ATOM      2  C   UNL     1      15.117  -7.721  11.225  1.00  0.00     0.208 A 
ATOM      3  C   UNL     1      15.198  -7.756  12.626  1.00  0.00     0.238 A 
ATOM      4  O   UNL     1      15.437  -8.855  13.191  1.00  0.00    -0.285 OA
ATOM      5  C   UNL     1      15.048  -6.559  13.368  1.00  0.00     0.111 A 
ATOM      6  C   UNL     1      15.072  -6.482  14.794  1.00  0.00     0.134 A 
ATOM      7  C   UNL     1      15.036  -5.228  15.418  1.00  0.00     0.093 A 
ATOM      8  C   UNL     1      14.912  -4.054  14.670  1.00  0.00     0.123 A 
ATOM      9  C   UNL     1      14.830  -4.125  13.282  1.00  0.00     0.094 A 
ATOM     10  C   UNL     1      14.900  -5.357  12.628  1.00  0.00     0.146 A 
ATOM     11  O   UNL     1      14.832  -5.377  11.303  1.00  0.00    -0.451 OA
ENDROOT
BRANCH   1  12
ATOM     12  C   UNL     1      14.803  -6.396   9.114  1.00  0.00     0.063 A 
ATOM     13  C   UNL     1      13.461  -5.840   7.160  1.00  0.00     0.047 A 
ATOM     14  C   UNL     1      13.583  -5.992   8.543  1.00  0.00     0.020 A 
ATOM     15  C   UNL     1      14.559  -6.084   6.327  1.00  0.00     0.119 A 
ATOM     16  C   UNL     1      15.776  -6.485   6.885  1.00  0.00     0.093 A 
ATOM     17  C   UNL     1      15.909  -6.650   8.268  1.00  0.00     0.130 A 
BRANCH  15  18
ATOM     18  O   UNL     1      14.451  -5.931   4.947  1.00  0.00    -0.508 OA
ATOM     19  H   UNL     1      13.565  -6.044   4.470  1.00  0.00     0.293 HD
ENDBRANCH  15  18
BRANCH  17  20
ATOM     20  O   UNL     1      17.138  -7.087   8.767  1.00  0.00    -0.507 OA
ATOM     21  H   UNL     1      17.235  -7.581   9.644  1.00  0.00     0.293 HD
ENDBRANCH  17  20
ENDBRANCH   1  12
BRANCH   2  22
ATOM     22  O   UNL     1      15.258  -8.888  10.467  1.00  0.00    -0.502 OA
ATOM     23  H   UNL     1      14.628  -9.674  10.559  1.00  0.00     0.293 HD
ENDBRANCH   2  22
BRANCH   6  24
ATOM     24  O   UNL     1      15.102  -7.596  15.637  1.00  0.00    -0.507 OA
ATOM     25  H   UNL     1      14.297  -7.994  16.094  1.00  0.00     0.293 HD
ENDBRANCH   6  24
BRANCH   8  26
ATOM     26  O   UNL     1      14.861  -2.812  15.300  1.00  0.00    -0.508 OA
ATOM     27  H   UNL     1      14.374  -2.027  14.884  1.00  0.00     0.293 HD
ENDBRANCH   8  26
TORSDOF 6
ENDMDL
