MODEL 1
REMARK VINA RESULT:    -3.598      0.000      0.000
REMARK INTER + INTRA:         -11.513
REMARK INTER:                  -8.225
REMARK INTRA:                  -3.288
REMARK UNBOUND:                -3.288
REMARK SMILES CCCCCCCCCCCCCCCCCCCCCCCC(=O)[O-]
REMARK SMILES IDX 13 1 14 2 15 3 16 4 17 5 18 6 19 7 20 8 21 9 22 10 23 11
REMARK SMILES IDX 24 12 25 13 26 14 12 15 11 16 10 17 9 18 8 19 7 20 6 21 5 22
REMARK SMILES IDX 4 23 3 24 2 25 1 26
REMARK H PARENT
REMARK Flexibility Score: inf
ROOT
ATOM      1  C   UNL     1       2.548   8.075  -9.751  1.00  0.00     0.000 C 
ENDROOT
BRANCH   1   2
ATOM      2  C   UNL     1       1.998   7.780 -11.161  1.00  0.00     0.000 C 
BRANCH   2   3
ATOM      3  C   UNL     1       1.502   9.014 -11.937  1.00  0.00     0.000 C 
BRANCH   3   4
ATOM      4  C   UNL     1       0.217   9.612 -11.344  1.00  0.00     0.000 C 
BRANCH   4   5
ATOM      5  C   UNL     1       0.399  11.106 -11.042  1.00  0.00     0.000 C 
BRANCH   5   6
ATOM      6  C   UNL     1       1.868  11.492 -10.788  1.00  0.00     0.000 C 
BRANCH   6   7
ATOM      7  C   UNL     1       2.270  11.576  -9.303  1.00  0.00     0.000 C 
BRANCH   7   8
ATOM      8  C   UNL     1       2.040  12.969  -8.697  1.00  0.00     0.000 C 
BRANCH   8   9
ATOM      9  C   UNL     1       3.201  13.914  -9.038  1.00  0.00     0.000 C 
BRANCH   9  10
ATOM     10  C   UNL     1       4.579  13.330  -8.684  1.00  0.00     0.006 C 
BRANCH  10  11
ATOM     11  C   UNL     1       5.730  13.871  -9.553  1.00  0.00     0.053 C 
BRANCH  11  12
ATOM     12  C   UNL     1       5.966  13.044 -10.780  1.00  0.00     0.041 C 
ATOM     13  O   UNL     1       6.296  13.595 -11.865  1.00  0.00    -0.550 OA
ATOM     14  O   UNL     1       5.787  11.668 -10.737  1.00  0.00    -0.550 OA
ENDBRANCH  11  12
ENDBRANCH  10  11
ENDBRANCH   9  10
ENDBRANCH   8   9
ENDBRANCH   7   8
ENDBRANCH   6   7
ENDBRANCH   5   6
ENDBRANCH   4   5
ENDBRANCH   3   4
ENDBRANCH   2   3
ENDBRANCH   1   2
BRANCH   1  15
ATOM     15  C   UNL     1       1.791   7.393  -8.594  1.00  0.00     0.000 C 
BRANCH  15  16
ATOM     16  C   UNL     1       0.819   8.308  -7.827  1.00  0.00     0.000 C 
BRANCH  16  17
ATOM     17  C   UNL     1      -0.653   8.053  -8.195  1.00  0.00     0.000 C 
BRANCH  17  18
ATOM     18  C   UNL     1      -0.835   6.811  -9.082  1.00  0.00    -0.000 C 
BRANCH  18  19
ATOM     19  C   UNL     1      -2.187   6.806  -9.816  1.00  0.00    -0.000 C 
BRANCH  19  20
ATOM     20  C   UNL     1      -2.029   6.745 -11.345  1.00  0.00    -0.000 C 
BRANCH  20  21
ATOM     21  C   UNL     1      -3.349   6.997 -12.088  1.00  0.00    -0.000 C 
BRANCH  21  22
ATOM     22  C   UNL     1      -4.143   8.133 -11.423  1.00  0.00    -0.000 C 
BRANCH  22  23
ATOM     23  C   UNL     1      -3.536   9.518 -11.690  1.00  0.00    -0.000 C 
BRANCH  23  24
ATOM     24  C   UNL     1      -3.532  10.415 -10.442  1.00  0.00    -0.000 C 
BRANCH  24  25
ATOM     25  C   UNL     1      -4.603  11.507 -10.550  1.00  0.00    -0.003 C 
ATOM     26  C   UNL     1      -4.395  12.588  -9.493  1.00  0.00     0.004 C 
ENDBRANCH  24  25
ENDBRANCH  23  24
ENDBRANCH  22  23
ENDBRANCH  21  22
ENDBRANCH  20  21
ENDBRANCH  19  20
ENDBRANCH  18  19
ENDBRANCH  17  18
ENDBRANCH  16  17
ENDBRANCH  15  16
ENDBRANCH   1  15
TORSDOF 22
ENDMDL
MODEL 2
REMARK VINA RESULT:    -3.542      3.478      9.232
REMARK INTER + INTRA:         -11.386
REMARK INTER:                  -9.223
REMARK INTRA:                  -2.162
REMARK UNBOUND:                -3.288
REMARK SMILES CCCCCCCCCCCCCCCCCCCCCCCC(=O)[O-]
REMARK SMILES IDX 13 1 14 2 15 3 16 4 17 5 18 6 19 7 20 8 21 9 22 10 23 11
REMARK SMILES IDX 24 12 25 13 26 14 12 15 11 16 10 17 9 18 8 19 7 20 6 21 5 22
REMARK SMILES IDX 4 23 3 24 2 25 1 26
REMARK H PARENT
REMARK Flexibility Score: inf
ROOT
ATOM      1  C   UNL     1       2.712  10.427 -10.659  1.00  0.00     0.000 C 
ENDROOT
BRANCH   1   2
ATOM      2  C   UNL     1       1.638  10.270 -11.754  1.00  0.00     0.000 C 
BRANCH   2   3
ATOM      3  C   UNL     1       0.393  11.157 -11.575  1.00  0.00     0.000 C 
BRANCH   3   4
ATOM      4  C   UNL     1      -0.884  10.345 -11.315  1.00  0.00     0.000 C 
BRANCH   4   5
ATOM      5  C   UNL     1      -2.122  11.096 -11.828  1.00  0.00     0.000 C 
BRANCH   5   6
ATOM      6  C   UNL     1      -3.445  10.436 -11.396  1.00  0.00     0.000 C 
BRANCH   6   7
ATOM      7  C   UNL     1      -3.293   9.250 -10.424  1.00  0.00     0.000 C 
BRANCH   7   8
ATOM      8  C   UNL     1      -3.693   7.906 -11.051  1.00  0.00     0.000 C 
BRANCH   8   9
ATOM      9  C   UNL     1      -2.566   6.874 -10.904  1.00  0.00     0.000 C 
BRANCH   9  10
ATOM     10  C   UNL     1      -1.699   7.101  -9.654  1.00  0.00     0.006 C 
BRANCH  10  11
ATOM     11  C   UNL     1      -0.184   7.057  -9.926  1.00  0.00     0.053 C 
BRANCH  11  12
ATOM     12  C   UNL     1       0.633   7.249  -8.685  1.00  0.00     0.041 C 
ATOM     13  O   UNL     1       0.098   7.691  -7.633  1.00  0.00    -0.550 OA
ATOM     14  O   UNL     1       1.994   6.976  -8.699  1.00  0.00    -0.550 OA
ENDBRANCH  11  12
ENDBRANCH  10  11
ENDBRANCH   9  10
ENDBRANCH   8   9
ENDBRANCH   7   8
ENDBRANCH   6   7
ENDBRANCH   5   6
ENDBRANCH   4   5
ENDBRANCH   3   4
ENDBRANCH   2   3
ENDBRANCH   1   2
BRANCH   1  15
ATOM     15  C   UNL     1       2.170  10.592  -9.226  1.00  0.00     0.000 C 
BRANCH  15  16
ATOM     16  C   UNL     1       2.633  11.869  -8.500  1.00  0.00     0.000 C 
BRANCH  16  17
ATOM     17  C   UNL     1       3.690  12.655  -9.296  1.00  0.00     0.000 C 
BRANCH  17  18
ATOM     18  C   UNL     1       4.655  13.435  -8.388  1.00  0.00    -0.000 C 
BRANCH  18  19
ATOM     19  C   UNL     1       6.120  13.304  -8.839  1.00  0.00    -0.000 C 
BRANCH  19  20
ATOM     20  C   UNL     1       7.095  13.195  -7.654  1.00  0.00    -0.000 C 
BRANCH  20  21
ATOM     21  C   UNL     1       6.379  13.186  -6.296  1.00  0.00    -0.000 C 
BRANCH  21  22
ATOM     22  C   UNL     1       7.251  12.518  -5.221  1.00  0.00    -0.000 C 
BRANCH  22  23
ATOM     23  C   UNL     1       8.678  13.084  -5.177  1.00  0.00    -0.000 C 
BRANCH  23  24
ATOM     24  C   UNL     1       9.750  11.985  -5.107  1.00  0.00    -0.000 C 
BRANCH  24  25
ATOM     25  C   UNL     1       9.252  10.692  -5.762  1.00  0.00    -0.003 C 
ATOM     26  C   UNL     1      10.101   9.497  -5.338  1.00  0.00     0.004 C 
ENDBRANCH  24  25
ENDBRANCH  23  24
ENDBRANCH  22  23
ENDBRANCH  21  22
ENDBRANCH  20  21
ENDBRANCH  19  20
ENDBRANCH  18  19
ENDBRANCH  17  18
ENDBRANCH  16  17
ENDBRANCH  15  16
ENDBRANCH   1  15
TORSDOF 22
ENDMDL
MODEL 3
REMARK VINA RESULT:    -3.461      3.974      6.010
REMARK INTER + INTRA:         -11.201
REMARK INTER:                  -9.380
REMARK INTRA:                  -1.821
REMARK UNBOUND:                -3.288
REMARK SMILES CCCCCCCCCCCCCCCCCCCCCCCC(=O)[O-]
REMARK SMILES IDX 13 1 14 2 15 3 16 4 17 5 18 6 19 7 20 8 21 9 22 10 23 11
REMARK SMILES IDX 24 12 25 13 26 14 12 15 11 16 10 17 9 18 8 19 7 20 6 21 5 22
REMARK SMILES IDX 4 23 3 24 2 25 1 26
REMARK H PARENT
REMARK Flexibility Score: inf
ROOT
ATOM      1  C   UNL     1       2.199  11.045  -9.139  1.00  0.00     0.000 C 
ENDROOT
BRANCH   1   2
ATOM      2  C   UNL     1       2.665  12.402  -8.573  1.00  0.00     0.000 C 
BRANCH   2   3
ATOM      3  C   UNL     1       3.833  13.056  -9.334  1.00  0.00     0.000 C 
BRANCH   3   4
ATOM      4  C   UNL     1       4.752  13.879  -8.419  1.00  0.00     0.000 C 
BRANCH   4   5
ATOM      5  C   UNL     1       5.990  13.065  -8.014  1.00  0.00     0.000 C 
BRANCH   5   6
ATOM      6  C   UNL     1       6.687  13.619  -6.757  1.00  0.00     0.000 C 
BRANCH   6   7
ATOM      7  C   UNL     1       6.546  12.743  -5.497  1.00  0.00     0.000 C 
BRANCH   7   8
ATOM      8  C   UNL     1       7.897  12.251  -4.955  1.00  0.00     0.000 C 
BRANCH   8   9
ATOM      9  C   UNL     1       8.694  11.523  -6.047  1.00  0.00     0.000 C 
BRANCH   9  10
ATOM     10  C   UNL     1       9.233  10.156  -5.590  1.00  0.00     0.006 C 
BRANCH  10  11
ATOM     11  C   UNL     1      10.749   9.981  -5.797  1.00  0.00     0.053 C 
BRANCH  11  12
ATOM     12  C   UNL     1      11.180   8.547  -5.729  1.00  0.00     0.041 C 
ATOM     13  O   UNL     1      11.748   8.006  -6.715  1.00  0.00    -0.550 OA
ATOM     14  O   UNL     1      10.924   7.798  -4.589  1.00  0.00    -0.550 OA
ENDBRANCH  11  12
ENDBRANCH  10  11
ENDBRANCH   9  10
ENDBRANCH   8   9
ENDBRANCH   7   8
ENDBRANCH   6   7
ENDBRANCH   5   6
ENDBRANCH   4   5
ENDBRANCH   3   4
ENDBRANCH   2   3
ENDBRANCH   1   2
BRANCH   1  15
ATOM     15  C   UNL     1       2.083  10.978 -10.674  1.00  0.00     0.000 C 
BRANCH  15  16
ATOM     16  C   UNL     1       0.666  10.693 -11.206  1.00  0.00     0.000 C 
BRANCH  16  17
ATOM     17  C   UNL     1       0.035  11.913 -11.898  1.00  0.00     0.000 C 
BRANCH  17  18
ATOM     18  C   UNL     1      -1.501  11.850 -11.925  1.00  0.00    -0.000 C 
BRANCH  18  19
ATOM     19  C   UNL     1      -2.036  10.438 -11.630  1.00  0.00    -0.000 C 
BRANCH  19  20
ATOM     20  C   UNL     1      -3.338  10.458 -10.811  1.00  0.00    -0.000 C 
BRANCH  20  21
ATOM     21  C   UNL     1      -3.460   9.256  -9.863  1.00  0.00    -0.000 C 
BRANCH  21  22
ATOM     22  C   UNL     1      -2.917   7.979 -10.524  1.00  0.00    -0.000 C 
BRANCH  22  23
ATOM     23  C   UNL     1      -2.071   7.127  -9.565  1.00  0.00    -0.000 C 
BRANCH  23  24
ATOM     24  C   UNL     1      -1.008   7.950  -8.822  1.00  0.00    -0.000 C 
BRANCH  24  25
ATOM     25  C   UNL     1       0.404   7.474  -9.183  1.00  0.00    -0.003 C 
ATOM     26  C   UNL     1       1.312   7.466  -7.957  1.00  0.00     0.004 C 
ENDBRANCH  24  25
ENDBRANCH  23  24
ENDBRANCH  22  23
ENDBRANCH  21  22
ENDBRANCH  20  21
ENDBRANCH  19  20
ENDBRANCH  18  19
ENDBRANCH  17  18
ENDBRANCH  16  17
ENDBRANCH  15  16
ENDBRANCH   1  15
TORSDOF 22
ENDMDL
MODEL 4
REMARK VINA RESULT:    -3.384      3.896      5.504
REMARK INTER + INTRA:         -11.024
REMARK INTER:                  -9.318
REMARK INTRA:                  -1.706
REMARK UNBOUND:                -3.288
REMARK SMILES CCCCCCCCCCCCCCCCCCCCCCCC(=O)[O-]
REMARK SMILES IDX 13 1 14 2 15 3 16 4 17 5 18 6 19 7 20 8 21 9 22 10 23 11
REMARK SMILES IDX 24 12 25 13 26 14 12 15 11 16 10 17 9 18 8 19 7 20 6 21 5 22
REMARK SMILES IDX 4 23 3 24 2 25 1 26
REMARK H PARENT
REMARK Flexibility Score: inf
ROOT
ATOM      1  C   UNL     1       2.247  11.525  -8.962  1.00  0.00     0.000 C 
ENDROOT
BRANCH   1   2
ATOM      2  C   UNL     1       2.864  12.924  -8.763  1.00  0.00     0.000 C 
BRANCH   2   3
ATOM      3  C   UNL     1       4.332  13.057  -9.209  1.00  0.00     0.000 C 
BRANCH   3   4
ATOM      4  C   UNL     1       5.289  13.311  -8.036  1.00  0.00     0.000 C 
BRANCH   4   5
ATOM      5  C   UNL     1       6.740  13.416  -8.528  1.00  0.00     0.000 C 
BRANCH   5   6
ATOM      6  C   UNL     1       7.762  12.900  -7.498  1.00  0.00     0.000 C 
BRANCH   6   7
ATOM      7  C   UNL     1       7.370  13.126  -6.025  1.00  0.00     0.000 C 
BRANCH   7   8
ATOM      8  C   UNL     1       7.755  11.950  -5.115  1.00  0.00     0.000 C 
BRANCH   8   9
ATOM      9  C   UNL     1       9.191  11.485  -5.397  1.00  0.00     0.000 C 
BRANCH   9  10
ATOM     10  C   UNL     1       9.287   9.986  -5.730  1.00  0.00     0.006 C 
BRANCH  10  11
ATOM     11  C   UNL     1      10.369   9.644  -6.771  1.00  0.00     0.053 C 
BRANCH  11  12
ATOM     12  C   UNL     1      11.212   8.474  -6.365  1.00  0.00     0.041 C 
ATOM     13  O   UNL     1      11.248   8.101  -5.161  1.00  0.00    -0.550 OA
ATOM     14  O   UNL     1      11.988   7.814  -7.310  1.00  0.00    -0.550 OA
ENDBRANCH  11  12
ENDBRANCH  10  11
ENDBRANCH   9  10
ENDBRANCH   8   9
ENDBRANCH   7   8
ENDBRANCH   6   7
ENDBRANCH   5   6
ENDBRANCH   4   5
ENDBRANCH   3   4
ENDBRANCH   2   3
ENDBRANCH   1   2
BRANCH   1  15
ATOM     15  C   UNL     1       2.146  11.054 -10.426  1.00  0.00     0.000 C 
BRANCH  15  16
ATOM     16  C   UNL     1       1.705   9.589 -10.607  1.00  0.00     0.000 C 
BRANCH  16  17
ATOM     17  C   UNL     1       2.617   8.598  -9.864  1.00  0.00     0.000 C 
BRANCH  17  18
ATOM     18  C   UNL     1       1.833   7.655  -8.936  1.00  0.00    -0.000 C 
BRANCH  18  19
ATOM     19  C   UNL     1       0.475   8.241  -8.513  1.00  0.00    -0.000 C 
BRANCH  19  20
ATOM     20  C   UNL     1      -0.687   7.256  -8.730  1.00  0.00    -0.000 C 
BRANCH  20  21
ATOM     21  C   UNL     1      -1.035   7.069 -10.214  1.00  0.00    -0.000 C 
BRANCH  21  22
ATOM     22  C   UNL     1      -2.556   6.973 -10.412  1.00  0.00    -0.000 C 
BRANCH  22  23
ATOM     23  C   UNL     1      -3.091   8.010 -11.413  1.00  0.00    -0.000 C 
BRANCH  23  24
ATOM     24  C   UNL     1      -2.695   9.448 -11.044  1.00  0.00    -0.000 C 
BRANCH  24  25
ATOM     25  C   UNL     1      -3.728  10.075 -10.101  1.00  0.00    -0.003 C 
ATOM     26  C   UNL     1      -5.115  10.093 -10.737  1.00  0.00     0.004 C 
ENDBRANCH  24  25
ENDBRANCH  23  24
ENDBRANCH  22  23
ENDBRANCH  21  22
ENDBRANCH  20  21
ENDBRANCH  19  20
ENDBRANCH  18  19
ENDBRANCH  17  18
ENDBRANCH  16  17
ENDBRANCH  15  16
ENDBRANCH   1  15
TORSDOF 22
ENDMDL
MODEL 5
REMARK VINA RESULT:    -3.363      5.288     10.890
REMARK INTER + INTRA:         -10.976
REMARK INTER:                  -8.446
REMARK INTRA:                  -2.529
REMARK UNBOUND:                -3.288
REMARK SMILES CCCCCCCCCCCCCCCCCCCCCCCC(=O)[O-]
REMARK SMILES IDX 13 1 14 2 15 3 16 4 17 5 18 6 19 7 20 8 21 9 22 10 23 11
REMARK SMILES IDX 24 12 25 13 26 14 12 15 11 16 10 17 9 18 8 19 7 20 6 21 5 22
REMARK SMILES IDX 4 23 3 24 2 25 1 26
REMARK H PARENT
REMARK Flexibility Score: inf
ROOT
ATOM      1  C   UNL     1       6.393  13.848  -6.513  1.00  0.00     0.000 C 
ENDROOT
BRANCH   1   2
ATOM      2  C   UNL     1       6.000  13.355  -7.920  1.00  0.00     0.000 C 
BRANCH   2   3
ATOM      3  C   UNL     1       4.601  13.789  -8.394  1.00  0.00     0.000 C 
BRANCH   3   4
ATOM      4  C   UNL     1       3.690  12.599  -8.730  1.00  0.00     0.000 C 
BRANCH   4   5
ATOM      5  C   UNL     1       3.742  12.278 -10.231  1.00  0.00     0.000 C 
BRANCH   5   6
ATOM      6  C   UNL     1       2.717  11.208 -10.651  1.00  0.00     0.000 C 
BRANCH   6   7
ATOM      7  C   UNL     1       2.243  10.282  -9.515  1.00  0.00     0.000 C 
BRANCH   7   8
ATOM      8  C   UNL     1       2.168   8.806  -9.936  1.00  0.00     0.000 C 
BRANCH   8   9
ATOM      9  C   UNL     1       1.814   7.911  -8.740  1.00  0.00     0.000 C 
BRANCH   9  10
ATOM     10  C   UNL     1       0.359   7.412  -8.769  1.00  0.00     0.006 C 
BRANCH  10  11
ATOM     11  C   UNL     1      -0.387   7.733 -10.078  1.00  0.00     0.053 C 
BRANCH  11  12
ATOM     12  C   UNL     1      -1.352   6.658 -10.472  1.00  0.00     0.041 C 
ATOM     13  O   UNL     1      -2.362   6.415  -9.757  1.00  0.00    -0.550 OA
ATOM     14  O   UNL     1      -1.120   5.898 -11.611  1.00  0.00    -0.550 OA
ENDBRANCH  11  12
ENDBRANCH  10  11
ENDBRANCH   9  10
ENDBRANCH   8   9
ENDBRANCH   7   8
ENDBRANCH   6   7
ENDBRANCH   5   6
ENDBRANCH   4   5
ENDBRANCH   3   4
ENDBRANCH   2   3
ENDBRANCH   1   2
BRANCH   1  15
ATOM     15  C   UNL     1       6.786  12.741  -5.515  1.00  0.00     0.000 C 
BRANCH  15  16
ATOM     16  C   UNL     1       8.102  12.990  -4.756  1.00  0.00     0.000 C 
BRANCH  16  17
ATOM     17  C   UNL     1       9.081  13.881  -5.540  1.00  0.00     0.000 C 
BRANCH  17  18
ATOM     18  C   UNL     1      10.543  13.425  -5.394  1.00  0.00    -0.000 C 
BRANCH  18  19
ATOM     19  C   UNL     1      10.868  12.941  -3.971  1.00  0.00    -0.000 C 
BRANCH  19  20
ATOM     20  C   UNL     1      11.696  11.645  -3.962  1.00  0.00    -0.000 C 
BRANCH  20  21
ATOM     21  C   UNL     1      12.231  11.274  -5.352  1.00  0.00    -0.000 C 
BRANCH  21  22
ATOM     22  C   UNL     1      11.730   9.885  -5.781  1.00  0.00    -0.000 C 
BRANCH  22  23
ATOM     23  C   UNL     1      10.367   9.531  -5.167  1.00  0.00    -0.000 C 
BRANCH  23  24
ATOM     24  C   UNL     1       9.193   9.851  -6.106  1.00  0.00    -0.000 C 
BRANCH  24  25
ATOM     25  C   UNL     1       9.687  10.094  -7.537  1.00  0.00    -0.003 C 
ATOM     26  C   UNL     1       8.958  11.271  -8.178  1.00  0.00     0.004 C 
ENDBRANCH  24  25
ENDBRANCH  23  24
ENDBRANCH  22  23
ENDBRANCH  21  22
ENDBRANCH  20  21
ENDBRANCH  19  20
ENDBRANCH  18  19
ENDBRANCH  17  18
ENDBRANCH  16  17
ENDBRANCH  15  16
ENDBRANCH   1  15
TORSDOF 22
ENDMDL
MODEL 6
REMARK VINA RESULT:    -3.223      5.372     10.801
REMARK INTER + INTRA:         -10.656
REMARK INTER:                  -8.142
REMARK INTRA:                  -2.514
REMARK UNBOUND:                -3.288
REMARK SMILES CCCCCCCCCCCCCCCCCCCCCCCC(=O)[O-]
REMARK SMILES IDX 13 1 14 2 15 3 16 4 17 5 18 6 19 7 20 8 21 9 22 10 23 11
REMARK SMILES IDX 24 12 25 13 26 14 12 15 11 16 10 17 9 18 8 19 7 20 6 21 5 22
REMARK SMILES IDX 4 23 3 24 2 25 1 26
REMARK H PARENT
REMARK Flexibility Score: inf
ROOT
ATOM      1  C   UNL     1       6.639  12.802  -5.437  1.00  0.00     0.000 C 
ENDROOT
BRANCH   1   2
ATOM      2  C   UNL     1       6.932  13.463  -6.799  1.00  0.00     0.000 C 
BRANCH   2   3
ATOM      3  C   UNL     1       5.722  13.568  -7.744  1.00  0.00     0.000 C 
BRANCH   3   4
ATOM      4  C   UNL     1       6.078  13.250  -9.204  1.00  0.00     0.000 C 
BRANCH   4   5
ATOM      5  C   UNL     1       4.809  13.011 -10.036  1.00  0.00     0.000 C 
BRANCH   5   6
ATOM      6  C   UNL     1       3.628  12.495  -9.193  1.00  0.00     0.000 C 
BRANCH   6   7
ATOM      7  C   UNL     1       2.497  11.828 -10.000  1.00  0.00     0.000 C 
BRANCH   7   8
ATOM      8  C   UNL     1       2.123  10.435  -9.470  1.00  0.00     0.000 C 
BRANCH   8   9
ATOM      9  C   UNL     1       2.781   9.332 -10.311  1.00  0.00     0.000 C 
BRANCH   9  10
ATOM     10  C   UNL     1       1.926   8.057 -10.410  1.00  0.00     0.006 C 
BRANCH  10  11
ATOM     11  C   UNL     1       0.526   8.193  -9.783  1.00  0.00     0.053 C 
BRANCH  11  12
ATOM     12  C   UNL     1       0.294   7.216  -8.670  1.00  0.00     0.041 C 
ATOM     13  O   UNL     1       0.900   7.346  -7.573  1.00  0.00    -0.550 OA
ATOM     14  O   UNL     1      -0.566   6.141  -8.856  1.00  0.00    -0.550 OA
ENDBRANCH  11  12
ENDBRANCH  10  11
ENDBRANCH   9  10
ENDBRANCH   8   9
ENDBRANCH   7   8
ENDBRANCH   6   7
ENDBRANCH   5   6
ENDBRANCH   4   5
ENDBRANCH   3   4
ENDBRANCH   2   3
ENDBRANCH   1   2
BRANCH   1  15
ATOM     15  C   UNL     1       7.837  12.088  -4.781  1.00  0.00     0.000 C 
BRANCH  15  16
ATOM     16  C   UNL     1       9.134  12.916  -4.723  1.00  0.00     0.000 C 
BRANCH  16  17
ATOM     17  C   UNL     1      10.262  12.316  -5.579  1.00  0.00     0.000 C 
BRANCH  17  18
ATOM     18  C   UNL     1      11.571  12.137  -4.792  1.00  0.00    -0.000 C 
BRANCH  18  19
ATOM     19  C   UNL     1      11.946  10.657  -4.604  1.00  0.00    -0.000 C 
BRANCH  19  20
ATOM     20  C   UNL     1      10.816   9.702  -5.029  1.00  0.00    -0.000 C 
BRANCH  20  21
ATOM     21  C   UNL     1      11.318   8.542  -5.901  1.00  0.00    -0.000 C 
BRANCH  21  22
ATOM     22  C   UNL     1      12.321   9.041  -6.953  1.00  0.00    -0.000 C 
BRANCH  22  23
ATOM     23  C   UNL     1      11.671   9.291  -8.322  1.00  0.00    -0.000 C 
BRANCH  23  24
ATOM     24  C   UNL     1      11.543  10.787  -8.653  1.00  0.00    -0.000 C 
BRANCH  24  25
ATOM     25  C   UNL     1      10.123  11.124  -9.121  1.00  0.00    -0.003 C 
ATOM     26  C   UNL     1       9.083  10.318  -8.348  1.00  0.00     0.004 C 
ENDBRANCH  24  25
ENDBRANCH  23  24
ENDBRANCH  22  23
ENDBRANCH  21  22
ENDBRANCH  20  21
ENDBRANCH  19  20
ENDBRANCH  18  19
ENDBRANCH  17  18
ENDBRANCH  16  17
ENDBRANCH  15  16
ENDBRANCH   1  15
TORSDOF 22
ENDMDL
MODEL 7
REMARK VINA RESULT:    -3.220      1.154      2.032
REMARK INTER + INTRA:         -10.650
REMARK INTER:                  -7.606
REMARK INTRA:                  -3.044
REMARK UNBOUND:                -3.288
REMARK SMILES CCCCCCCCCCCCCCCCCCCCCCCC(=O)[O-]
REMARK SMILES IDX 13 1 14 2 15 3 16 4 17 5 18 6 19 7 20 8 21 9 22 10 23 11
REMARK SMILES IDX 24 12 25 13 26 14 12 15 11 16 10 17 9 18 8 19 7 20 6 21 5 22
REMARK SMILES IDX 4 23 3 24 2 25 1 26
REMARK H PARENT
REMARK Flexibility Score: inf
ROOT
ATOM      1  C   UNL     1       1.185   7.328  -8.329  1.00  0.00     0.000 C 
ENDROOT
BRANCH   1   2
ATOM      2  C   UNL     1       2.284   7.746  -9.326  1.00  0.00     0.000 C 
BRANCH   2   3
ATOM      3  C   UNL     1       1.843   7.786 -10.801  1.00  0.00     0.000 C 
BRANCH   3   4
ATOM      4  C   UNL     1       2.079   9.155 -11.455  1.00  0.00     0.000 C 
BRANCH   4   5
ATOM      5  C   UNL     1       0.850  10.061 -11.283  1.00  0.00     0.000 C 
BRANCH   5   6
ATOM      6  C   UNL     1       1.164  11.358 -10.514  1.00  0.00     0.000 C 
BRANCH   6   7
ATOM      7  C   UNL     1       2.273  11.230  -9.452  1.00  0.00     0.000 C 
BRANCH   7   8
ATOM      8  C   UNL     1       2.670  12.580  -8.835  1.00  0.00     0.000 C 
BRANCH   8   9
ATOM      9  C   UNL     1       4.092  12.979  -9.257  1.00  0.00     0.000 C 
BRANCH   9  10
ATOM     10  C   UNL     1       4.138  13.709 -10.610  1.00  0.00     0.006 C 
BRANCH  10  11
ATOM     11  C   UNL     1       4.610  12.827 -11.781  1.00  0.00     0.053 C 
BRANCH  11  12
ATOM     12  C   UNL     1       5.652  11.831 -11.372  1.00  0.00     0.041 C 
ATOM     13  O   UNL     1       6.817  12.212 -11.079  1.00  0.00    -0.550 OA
ATOM     14  O   UNL     1       5.347  10.476 -11.348  1.00  0.00    -0.550 OA
ENDBRANCH  11  12
ENDBRANCH  10  11
ENDBRANCH   9  10
ENDBRANCH   8   9
ENDBRANCH   7   8
ENDBRANCH   6   7
ENDBRANCH   5   6
ENDBRANCH   4   5
ENDBRANCH   3   4
ENDBRANCH   2   3
ENDBRANCH   1   2
BRANCH   1  15
ATOM     15  C   UNL     1       0.154   8.423  -7.990  1.00  0.00     0.000 C 
BRANCH  15  16
ATOM     16  C   UNL     1      -1.301   8.081  -8.357  1.00  0.00     0.000 C 
BRANCH  16  17
ATOM     17  C   UNL     1      -1.404   6.916  -9.357  1.00  0.00     0.000 C 
BRANCH  17  18
ATOM     18  C   UNL     1      -1.768   7.385 -10.775  1.00  0.00    -0.000 C 
BRANCH  18  19
ATOM     19  C   UNL     1      -3.288   7.485 -10.989  1.00  0.00    -0.000 C 
BRANCH  19  20
ATOM     20  C   UNL     1      -3.692   8.740 -11.782  1.00  0.00    -0.000 C 
BRANCH  20  21
ATOM     21  C   UNL     1      -3.055  10.021 -11.227  1.00  0.00    -0.000 C 
BRANCH  21  22
ATOM     22  C   UNL     1      -4.034  10.768 -10.307  1.00  0.00    -0.000 C 
BRANCH  22  23
ATOM     23  C   UNL     1      -5.433  10.916 -10.924  1.00  0.00    -0.000 C 
BRANCH  23  24
ATOM     24  C   UNL     1      -5.643  12.281 -11.599  1.00  0.00    -0.000 C 
BRANCH  24  25
ATOM     25  C   UNL     1      -4.920  13.390 -10.825  1.00  0.00    -0.003 C 
ATOM     26  C   UNL     1      -3.779  13.981 -11.648  1.00  0.00     0.004 C 
ENDBRANCH  24  25
ENDBRANCH  23  24
ENDBRANCH  22  23
ENDBRANCH  21  22
ENDBRANCH  20  21
ENDBRANCH  19  20
ENDBRANCH  18  19
ENDBRANCH  17  18
ENDBRANCH  16  17
ENDBRANCH  15  16
ENDBRANCH   1  15
TORSDOF 22
ENDMDL
MODEL 8
REMARK VINA RESULT:    -3.200      4.794     10.083
REMARK INTER + INTRA:         -10.603
REMARK INTER:                  -7.836
REMARK INTRA:                  -2.767
REMARK UNBOUND:                -3.288
REMARK SMILES CCCCCCCCCCCCCCCCCCCCCCCC(=O)[O-]
REMARK SMILES IDX 13 1 14 2 15 3 16 4 17 5 18 6 19 7 20 8 21 9 22 10 23 11
REMARK SMILES IDX 24 12 25 13 26 14 12 15 11 16 10 17 9 18 8 19 7 20 6 21 5 22
REMARK SMILES IDX 4 23 3 24 2 25 1 26
REMARK H PARENT
REMARK Flexibility Score: inf
ROOT
ATOM      1  C   UNL     1       6.732  13.745  -8.880  1.00  0.00     0.000 C 
ENDROOT
BRANCH   1   2
ATOM      2  C   UNL     1       5.478  13.371  -8.064  1.00  0.00     0.000 C 
BRANCH   2   3
ATOM      3  C   UNL     1       4.247  12.984  -8.903  1.00  0.00     0.000 C 
BRANCH   3   4
ATOM      4  C   UNL     1       4.334  13.484 -10.353  1.00  0.00     0.000 C 
BRANCH   4   5
ATOM      5  C   UNL     1       3.603  12.527 -11.306  1.00  0.00     0.000 C 
BRANCH   5   6
ATOM      6  C   UNL     1       4.325  11.177 -11.470  1.00  0.00     0.000 C 
BRANCH   6   7
ATOM      7  C   UNL     1       3.401   9.944 -11.489  1.00  0.00     0.000 C 
BRANCH   7   8
ATOM      8  C   UNL     1       2.015  10.225 -10.888  1.00  0.00     0.000 C 
BRANCH   8   9
ATOM      9  C   UNL     1       1.920   9.690  -9.452  1.00  0.00     0.000 C 
BRANCH   9  10
ATOM     10  C   UNL     1       2.202   8.181  -9.350  1.00  0.00     0.006 C 
BRANCH  10  11
ATOM     11  C   UNL     1       1.372   7.461  -8.272  1.00  0.00     0.053 C 
BRANCH  11  12
ATOM     12  C   UNL     1      -0.058   7.267  -8.676  1.00  0.00     0.041 C 
ATOM     13  O   UNL     1      -0.984   7.821  -8.025  1.00  0.00    -0.550 OA
ATOM     14  O   UNL     1      -0.372   6.445  -9.751  1.00  0.00    -0.550 OA
ENDBRANCH  11  12
ENDBRANCH  10  11
ENDBRANCH   9  10
ENDBRANCH   8   9
ENDBRANCH   7   8
ENDBRANCH   6   7
ENDBRANCH   5   6
ENDBRANCH   4   5
ENDBRANCH   3   4
ENDBRANCH   2   3
ENDBRANCH   1   2
BRANCH   1  15
ATOM     15  C   UNL     1       7.807  12.645  -8.974  1.00  0.00     0.000 C 
BRANCH  15  16
ATOM     16  C   UNL     1       7.818  11.859 -10.297  1.00  0.00     0.000 C 
BRANCH  16  17
ATOM     17  C   UNL     1       8.824  10.695 -10.289  1.00  0.00     0.000 C 
BRANCH  17  18
ATOM     18  C   UNL     1       9.652  10.637  -8.995  1.00  0.00    -0.000 C 
BRANCH  18  19
ATOM     19  C   UNL     1      10.217   9.232  -8.722  1.00  0.00    -0.000 C 
BRANCH  19  20
ATOM     20  C   UNL     1      11.645   9.271  -8.149  1.00  0.00    -0.000 C 
BRANCH  20  21
ATOM     21  C   UNL     1      11.786   8.459  -6.854  1.00  0.00    -0.000 C 
BRANCH  21  22
ATOM     22  C   UNL     1      10.734   8.891  -5.819  1.00  0.00    -0.000 C 
BRANCH  22  23
ATOM     23  C   UNL     1      11.131  10.172  -5.068  1.00  0.00    -0.000 C 
BRANCH  23  24
ATOM     24  C   UNL     1      10.207  11.358  -5.390  1.00  0.00    -0.000 C 
BRANCH  24  25
ATOM     25  C   UNL     1       8.744  10.907  -5.465  1.00  0.00    -0.003 C 
ATOM     26  C   UNL     1       7.795  12.087  -5.279  1.00  0.00     0.004 C 
ENDBRANCH  24  25
ENDBRANCH  23  24
ENDBRANCH  22  23
ENDBRANCH  21  22
ENDBRANCH  20  21
ENDBRANCH  19  20
ENDBRANCH  18  19
ENDBRANCH  17  18
ENDBRANCH  16  17
ENDBRANCH  15  16
ENDBRANCH   1  15
TORSDOF 22
ENDMDL
MODEL 9
REMARK VINA RESULT:    -3.175      3.225      8.003
REMARK INTER + INTRA:         -10.546
REMARK INTER:                  -7.910
REMARK INTRA:                  -2.635
REMARK UNBOUND:                -3.288
REMARK SMILES CCCCCCCCCCCCCCCCCCCCCCCC(=O)[O-]
REMARK SMILES IDX 13 1 14 2 15 3 16 4 17 5 18 6 19 7 20 8 21 9 22 10 23 11
REMARK SMILES IDX 24 12 25 13 26 14 12 15 11 16 10 17 9 18 8 19 7 20 6 21 5 22
REMARK SMILES IDX 4 23 3 24 2 25 1 26
REMARK H PARENT
REMARK Flexibility Score: inf
ROOT
ATOM      1  C   UNL     1       2.472   8.046  -9.844  1.00  0.00     0.000 C 
ENDROOT
BRANCH   1   2
ATOM      2  C   UNL     1       1.879   7.348  -8.604  1.00  0.00     0.000 C 
BRANCH   2   3
ATOM      3  C   UNL     1       0.380   7.010  -8.703  1.00  0.00     0.000 C 
BRANCH   3   4
ATOM      4  C   UNL     1      -0.519   8.127  -8.151  1.00  0.00     0.000 C 
BRANCH   4   5
ATOM      5  C   UNL     1      -1.909   8.081  -8.804  1.00  0.00     0.000 C 
BRANCH   5   6
ATOM      6  C   UNL     1      -2.035   6.977  -9.870  1.00  0.00     0.000 C 
BRANCH   6   7
ATOM      7  C   UNL     1      -2.701   7.420 -11.187  1.00  0.00     0.000 C 
BRANCH   7   8
ATOM      8  C   UNL     1      -3.020   8.922 -11.222  1.00  0.00     0.000 C 
BRANCH   8   9
ATOM      9  C   UNL     1      -4.536   9.162 -11.213  1.00  0.00     0.000 C 
BRANCH   9  10
ATOM     10  C   UNL     1      -4.912  10.646 -11.061  1.00  0.00     0.006 C 
BRANCH  10  11
ATOM     11  C   UNL     1      -3.893  11.469 -10.252  1.00  0.00     0.053 C 
BRANCH  11  12
ATOM     12  C   UNL     1      -4.466  12.753  -9.734  1.00  0.00     0.041 C 
ATOM     13  O   UNL     1      -5.709  12.869  -9.556  1.00  0.00    -0.550 OA
ATOM     14  O   UNL     1      -3.634  13.835  -9.482  1.00  0.00    -0.550 OA
ENDBRANCH  11  12
ENDBRANCH  10  11
ENDBRANCH   9  10
ENDBRANCH   8   9
ENDBRANCH   7   8
ENDBRANCH   6   7
ENDBRANCH   5   6
ENDBRANCH   4   5
ENDBRANCH   3   4
ENDBRANCH   2   3
ENDBRANCH   1   2
BRANCH   1  15
ATOM     15  C   UNL     1       1.770   7.724 -11.178  1.00  0.00     0.000 C 
BRANCH  15  16
ATOM     16  C   UNL     1       1.450   8.948 -12.055  1.00  0.00     0.000 C 
BRANCH  16  17
ATOM     17  C   UNL     1       0.545   9.968 -11.343  1.00  0.00     0.000 C 
BRANCH  17  18
ATOM     18  C   UNL     1       1.302  11.238 -10.919  1.00  0.00    -0.000 C 
BRANCH  18  19
ATOM     19  C   UNL     1       2.696  11.332 -11.563  1.00  0.00    -0.000 C 
BRANCH  19  20
ATOM     20  C   UNL     1       3.468  12.587 -11.119  1.00  0.00    -0.000 C 
BRANCH  20  21
ATOM     21  C   UNL     1       2.687  13.436 -10.106  1.00  0.00    -0.000 C 
BRANCH  21  22
ATOM     22  C   UNL     1       3.436  13.518  -8.767  1.00  0.00    -0.000 C 
BRANCH  22  23
ATOM     23  C   UNL     1       4.954  13.678  -8.944  1.00  0.00    -0.000 C 
BRANCH  23  24
ATOM     24  C   UNL     1       5.657  14.125  -7.652  1.00  0.00    -0.000 C 
BRANCH  24  25
ATOM     25  C   UNL     1       6.522  12.995  -7.082  1.00  0.00    -0.003 C 
ATOM     26  C   UNL     1       6.749  13.178  -5.584  1.00  0.00     0.004 C 
ENDBRANCH  24  25
ENDBRANCH  23  24
ENDBRANCH  22  23
ENDBRANCH  21  22
ENDBRANCH  20  21
ENDBRANCH  19  20
ENDBRANCH  18  19
ENDBRANCH  17  18
ENDBRANCH  16  17
ENDBRANCH  15  16
ENDBRANCH   1  15
TORSDOF 22
ENDMDL
