MODEL 1
REMARK VINA RESULT:    18.499      0.000      0.000
REMARK INTER + INTRA:          47.232
REMARK INTER:                  48.779
REMARK INTRA:                  -1.547
REMARK UNBOUND:                -1.547
REMARK SMILES CCCCCCCCCCCCCCCCCCCCCCCCCCCCCC(=O)[O-]
REMARK SMILES IDX 16 1 17 2 18 3 19 4 20 5 21 6 22 7 23 8 24 9 25 10 26 11
REMARK SMILES IDX 27 12 28 13 29 14 30 15 31 16 32 17 15 18 14 19 13 20 12 21
REMARK SMILES IDX 11 22 10 23 9 24 8 25 7 26 6 27 5 28 4 29 3 30 2 31 1 32
REMARK H PARENT
REMARK Flexibility Score: inf
ROOT
ATOM      1  C   UNL     1      -6.143  14.498 -16.084  1.00  0.00     0.000 C 
ENDROOT
BRANCH   1   2
ATOM      2  C   UNL     1      -6.688  13.898 -14.774  1.00  0.00     0.000 C 
BRANCH   2   3
ATOM      3  C   UNL     1      -7.847  14.683 -14.132  1.00  0.00     0.000 C 
BRANCH   3   4
ATOM      4  C   UNL     1      -8.065  16.059 -14.783  1.00  0.00     0.000 C 
BRANCH   4   5
ATOM      5  C   UNL     1      -8.412  17.152 -13.759  1.00  0.00     0.000 C 
BRANCH   5   6
ATOM      6  C   UNL     1      -9.923  17.445 -13.694  1.00  0.00     0.000 C 
BRANCH   6   7
ATOM      7  C   UNL     1     -10.338  18.659 -14.553  1.00  0.00     0.000 C 
BRANCH   7   8
ATOM      8  C   UNL     1     -11.256  19.660 -13.826  1.00  0.00     0.000 C 
BRANCH   8   9
ATOM      9  C   UNL     1     -12.767  19.446 -14.033  1.00  0.00     0.000 C 
BRANCH   9  10
ATOM     10  C   UNL     1     -13.540  18.984 -12.784  1.00  0.00     0.000 C 
BRANCH  10  11
ATOM     11  C   UNL     1     -12.737  19.156 -11.486  1.00  0.00     0.000 C 
BRANCH  11  12
ATOM     12  C   UNL     1     -13.057  18.029 -10.493  1.00  0.00     0.000 C 
BRANCH  12  13
ATOM     13  C   UNL     1     -12.722  18.404  -9.037  1.00  0.00     0.006 C 
BRANCH  13  14
ATOM     14  C   UNL     1     -13.511  19.607  -8.495  1.00  0.00     0.053 C 
BRANCH  14  15
ATOM     15  C   UNL     1     -12.638  20.557  -7.733  1.00  0.00     0.041 C 
ATOM     16  O   UNL     1     -11.844  21.317  -8.347  1.00  0.00    -0.550 OA
ATOM     17  O   UNL     1     -12.736  20.634  -6.350  1.00  0.00    -0.550 OA
ENDBRANCH  14  15
ENDBRANCH  13  14
ENDBRANCH  12  13
ENDBRANCH  11  12
ENDBRANCH  10  11
ENDBRANCH   9  10
ENDBRANCH   8   9
ENDBRANCH   7   8
ENDBRANCH   6   7
ENDBRANCH   5   6
ENDBRANCH   4   5
ENDBRANCH   3   4
ENDBRANCH   2   3
ENDBRANCH   1   2
BRANCH   1  18
ATOM     18  C   UNL     1      -4.696  14.103 -16.441  1.00  0.00     0.000 C 
BRANCH  18  19
ATOM     19  C   UNL     1      -4.527  12.622 -16.839  1.00  0.00     0.000 C 
BRANCH  19  20
ATOM     20  C   UNL     1      -5.223  12.274 -18.163  1.00  0.00     0.000 C 
BRANCH  20  21
ATOM     21  C   UNL     1      -6.736  12.116 -17.958  1.00  0.00     0.000 C 
BRANCH  21  22
ATOM     22  C   UNL     1      -7.045  11.058 -16.890  1.00  0.00     0.000 C 
BRANCH  22  23
ATOM     23  C   UNL     1      -8.311  10.271 -17.251  1.00  0.00     0.000 C 
BRANCH  23  24
ATOM     24  C   UNL     1      -8.234   9.714 -18.680  1.00  0.00    -0.000 C 
BRANCH  24  25
ATOM     25  C   UNL     1      -8.357   8.181 -18.737  1.00  0.00    -0.000 C 
BRANCH  25  26
ATOM     26  C   UNL     1      -7.012   7.448 -18.922  1.00  0.00    -0.000 C 
BRANCH  26  27
ATOM     27  C   UNL     1      -7.098   5.961 -18.542  1.00  0.00    -0.000 C 
BRANCH  27  28
ATOM     28  C   UNL     1      -8.509   5.407 -18.791  1.00  0.00    -0.000 C 
BRANCH  28  29
ATOM     29  C   UNL     1      -8.675   4.817 -20.202  1.00  0.00    -0.000 C 
BRANCH  29  30
ATOM     30  C   UNL     1      -7.357   4.551 -20.955  1.00  0.00    -0.000 C 
BRANCH  30  31
ATOM     31  C   UNL     1      -7.553   4.140 -22.429  1.00  0.00    -0.003 C 
ATOM     32  C   UNL     1      -6.458   3.196 -22.926  1.00  0.00     0.004 C 
ENDBRANCH  30  31
ENDBRANCH  29  30
ENDBRANCH  28  29
ENDBRANCH  27  28
ENDBRANCH  26  27
ENDBRANCH  25  26
ENDBRANCH  24  25
ENDBRANCH  23  24
ENDBRANCH  22  23
ENDBRANCH  21  22
ENDBRANCH  20  21
ENDBRANCH  19  20
ENDBRANCH  18  19
ENDBRANCH   1  18
TORSDOF 28
ENDMDL
MODEL 2
REMARK VINA RESULT:    18.875      5.656     14.611
REMARK INTER + INTRA:          48.224
REMARK INTER:                  49.362
REMARK INTRA:                  -1.138
REMARK UNBOUND:                -1.547
REMARK SMILES CCCCCCCCCCCCCCCCCCCCCCCCCCCCCC(=O)[O-]
REMARK SMILES IDX 16 1 17 2 18 3 19 4 20 5 21 6 22 7 23 8 24 9 25 10 26 11
REMARK SMILES IDX 27 12 28 13 29 14 30 15 31 16 32 17 15 18 14 19 13 20 12 21
REMARK SMILES IDX 11 22 10 23 9 24 8 25 7 26 6 27 5 28 4 29 3 30 2 31 1 32
REMARK H PARENT
REMARK Flexibility Score: inf
ROOT
ATOM      1  C   UNL     1      -7.656  14.799 -14.104  1.00  0.00     0.000 C 
ENDROOT
BRANCH   1   2
ATOM      2  C   UNL     1      -7.027  13.920 -15.200  1.00  0.00     0.000 C 
BRANCH   2   3
ATOM      3  C   UNL     1      -6.065  14.655 -16.152  1.00  0.00     0.000 C 
BRANCH   3   4
ATOM      4  C   UNL     1      -4.996  13.724 -16.751  1.00  0.00     0.000 C 
BRANCH   4   5
ATOM      5  C   UNL     1      -5.587  12.418 -17.304  1.00  0.00     0.000 C 
BRANCH   5   6
ATOM      6  C   UNL     1      -5.954  12.518 -18.797  1.00  0.00     0.000 C 
BRANCH   6   7
ATOM      7  C   UNL     1      -6.905  11.394 -19.259  1.00  0.00     0.000 C 
BRANCH   7   8
ATOM      8  C   UNL     1      -7.465  10.531 -18.112  1.00  0.00     0.000 C 
BRANCH   8   9
ATOM      9  C   UNL     1      -8.398   9.383 -18.541  1.00  0.00     0.000 C 
BRANCH   9  10
ATOM     10  C   UNL     1      -7.990   7.986 -18.038  1.00  0.00     0.000 C 
BRANCH  10  11
ATOM     11  C   UNL     1      -6.881   7.345 -18.885  1.00  0.00     0.000 C 
BRANCH  11  12
ATOM     12  C   UNL     1      -7.118   5.836 -19.044  1.00  0.00     0.000 C 
BRANCH  12  13
ATOM     13  C   UNL     1      -8.454   5.512 -19.738  1.00  0.00     0.006 C 
BRANCH  13  14
ATOM     14  C   UNL     1      -8.440   4.214 -20.563  1.00  0.00     0.053 C 
BRANCH  14  15
ATOM     15  C   UNL     1      -8.313   4.482 -22.031  1.00  0.00     0.041 C 
ATOM     16  O   UNL     1      -9.257   5.030 -22.658  1.00  0.00    -0.550 OA
ATOM     17  O   UNL     1      -7.133   4.169 -22.696  1.00  0.00    -0.550 OA
ENDBRANCH  14  15
ENDBRANCH  13  14
ENDBRANCH  12  13
ENDBRANCH  11  12
ENDBRANCH  10  11
ENDBRANCH   9  10
ENDBRANCH   8   9
ENDBRANCH   7   8
ENDBRANCH   6   7
ENDBRANCH   5   6
ENDBRANCH   4   5
ENDBRANCH   3   4
ENDBRANCH   2   3
ENDBRANCH   1   2
BRANCH   1  18
ATOM     18  C   UNL     1      -7.578  16.319 -14.349  1.00  0.00     0.000 C 
BRANCH  18  19
ATOM     19  C   UNL     1      -8.518  17.151 -13.452  1.00  0.00     0.000 C 
BRANCH  19  20
ATOM     20  C   UNL     1      -9.210  18.296 -14.206  1.00  0.00     0.000 C 
BRANCH  20  21
ATOM     21  C   UNL     1     -10.715  18.029 -14.340  1.00  0.00     0.000 C 
BRANCH  21  22
ATOM     22  C   UNL     1     -11.508  19.340 -14.426  1.00  0.00     0.000 C 
BRANCH  22  23
ATOM     23  C   UNL     1     -12.918  19.166 -13.848  1.00  0.00     0.000 C 
BRANCH  23  24
ATOM     24  C   UNL     1     -13.162  20.125 -12.674  1.00  0.00    -0.000 C 
BRANCH  24  25
ATOM     25  C   UNL     1     -12.711  19.549 -11.321  1.00  0.00    -0.000 C 
BRANCH  25  26
ATOM     26  C   UNL     1     -13.222  18.120 -11.043  1.00  0.00    -0.000 C 
BRANCH  26  27
ATOM     27  C   UNL     1     -12.352  17.375 -10.018  1.00  0.00    -0.000 C 
BRANCH  27  28
ATOM     28  C   UNL     1     -12.556  17.941  -8.604  1.00  0.00    -0.000 C 
BRANCH  28  29
ATOM     29  C   UNL     1     -13.328  19.272  -8.603  1.00  0.00    -0.000 C 
BRANCH  29  30
ATOM     30  C   UNL     1     -13.360  20.004  -7.247  1.00  0.00    -0.000 C 
BRANCH  30  31
ATOM     31  C   UNL     1     -12.245  21.058  -7.081  1.00  0.00    -0.003 C 
ATOM     32  C   UNL     1     -11.723  21.577  -8.421  1.00  0.00     0.004 C 
ENDBRANCH  30  31
ENDBRANCH  29  30
ENDBRANCH  28  29
ENDBRANCH  27  28
ENDBRANCH  26  27
ENDBRANCH  25  26
ENDBRANCH  24  25
ENDBRANCH  23  24
ENDBRANCH  22  23
ENDBRANCH  21  22
ENDBRANCH  20  21
ENDBRANCH  19  20
ENDBRANCH  18  19
ENDBRANCH   1  18
TORSDOF 28
ENDMDL
MODEL 3
REMARK VINA RESULT:    18.914      1.055      1.465
REMARK INTER + INTRA:          48.327
REMARK INTER:                  49.918
REMARK INTRA:                  -1.591
REMARK UNBOUND:                -1.547
REMARK SMILES CCCCCCCCCCCCCCCCCCCCCCCCCCCCCC(=O)[O-]
REMARK SMILES IDX 16 1 17 2 18 3 19 4 20 5 21 6 22 7 23 8 24 9 25 10 26 11
REMARK SMILES IDX 27 12 28 13 29 14 30 15 31 16 32 17 15 18 14 19 13 20 12 21
REMARK SMILES IDX 11 22 10 23 9 24 8 25 7 26 6 27 5 28 4 29 3 30 2 31 1 32
REMARK H PARENT
REMARK Flexibility Score: inf
ROOT
ATOM      1  C   UNL     1      -4.947  14.446 -15.835  1.00  0.00     0.000 C 
ENDROOT
BRANCH   1   2
ATOM      2  C   UNL     1      -6.486  14.472 -15.861  1.00  0.00     0.000 C 
BRANCH   2   3
ATOM      3  C   UNL     1      -7.160  14.491 -14.476  1.00  0.00     0.000 C 
BRANCH   3   4
ATOM      4  C   UNL     1      -8.427  15.363 -14.444  1.00  0.00     0.000 C 
BRANCH   4   5
ATOM      5  C   UNL     1      -8.140  16.814 -14.028  1.00  0.00     0.000 C 
BRANCH   5   6
ATOM      6  C   UNL     1      -9.394  17.539 -13.505  1.00  0.00     0.000 C 
BRANCH   6   7
ATOM      7  C   UNL     1      -9.834  18.709 -14.411  1.00  0.00     0.000 C 
BRANCH   7   8
ATOM      8  C   UNL     1     -11.355  18.957 -14.426  1.00  0.00     0.000 C 
BRANCH   8   9
ATOM      9  C   UNL     1     -11.876  19.939 -13.361  1.00  0.00     0.000 C 
BRANCH   9  10
ATOM     10  C   UNL     1     -13.077  19.436 -12.538  1.00  0.00     0.000 C 
BRANCH  10  11
ATOM     11  C   UNL     1     -12.687  18.990 -11.121  1.00  0.00     0.000 C 
BRANCH  11  12
ATOM     12  C   UNL     1     -13.848  19.212 -10.140  1.00  0.00     0.000 C 
BRANCH  12  13
ATOM     13  C   UNL     1     -13.602  18.557  -8.767  1.00  0.00     0.006 C 
BRANCH  13  14
ATOM     14  C   UNL     1     -12.334  19.046  -8.050  1.00  0.00     0.053 C 
BRANCH  14  15
ATOM     15  C   UNL     1     -12.406  20.503  -7.711  1.00  0.00     0.041 C 
ATOM     16  O   UNL     1     -13.240  20.915  -6.862  1.00  0.00    -0.550 OA
ATOM     17  O   UNL     1     -11.520  21.399  -8.298  1.00  0.00    -0.550 OA
ENDBRANCH  14  15
ENDBRANCH  13  14
ENDBRANCH  12  13
ENDBRANCH  11  12
ENDBRANCH  10  11
ENDBRANCH   9  10
ENDBRANCH   8   9
ENDBRANCH   7   8
ENDBRANCH   6   7
ENDBRANCH   5   6
ENDBRANCH   4   5
ENDBRANCH   3   4
ENDBRANCH   2   3
ENDBRANCH   1   2
BRANCH   1  18
ATOM     18  C   UNL     1      -4.282  13.524 -16.876  1.00  0.00     0.000 C 
BRANCH  18  19
ATOM     19  C   UNL     1      -5.099  12.257 -17.206  1.00  0.00     0.000 C 
BRANCH  19  20
ATOM     20  C   UNL     1      -5.689  12.276 -18.624  1.00  0.00     0.000 C 
BRANCH  20  21
ATOM     21  C   UNL     1      -7.004  11.486 -18.676  1.00  0.00     0.000 C 
BRANCH  21  22
ATOM     22  C   UNL     1      -7.242  10.713 -17.372  1.00  0.00     0.000 C 
BRANCH  22  23
ATOM     23  C   UNL     1      -8.361   9.679 -17.546  1.00  0.00     0.000 C 
BRANCH  23  24
ATOM     24  C   UNL     1      -8.160   8.847 -18.821  1.00  0.00    -0.000 C 
BRANCH  24  25
ATOM     25  C   UNL     1      -8.270   7.333 -18.576  1.00  0.00    -0.000 C 
BRANCH  25  26
ATOM     26  C   UNL     1      -7.558   6.470 -19.639  1.00  0.00    -0.000 C 
BRANCH  26  27
ATOM     27  C   UNL     1      -7.477   4.989 -19.234  1.00  0.00    -0.000 C 
BRANCH  27  28
ATOM     28  C   UNL     1      -6.805   4.151 -20.333  1.00  0.00    -0.000 C 
BRANCH  28  29
ATOM     29  C   UNL     1      -7.822   3.464 -21.261  1.00  0.00    -0.000 C 
BRANCH  29  30
ATOM     30  C   UNL     1      -9.134   4.243 -21.479  1.00  0.00    -0.000 C 
BRANCH  30  31
ATOM     31  C   UNL     1      -9.385   4.641 -22.948  1.00  0.00    -0.003 C 
ATOM     32  C   UNL     1      -9.655   6.136 -23.114  1.00  0.00     0.004 C 
ENDBRANCH  30  31
ENDBRANCH  29  30
ENDBRANCH  28  29
ENDBRANCH  27  28
ENDBRANCH  26  27
ENDBRANCH  25  26
ENDBRANCH  24  25
ENDBRANCH  23  24
ENDBRANCH  22  23
ENDBRANCH  21  22
ENDBRANCH  20  21
ENDBRANCH  19  20
ENDBRANCH  18  19
ENDBRANCH   1  18
TORSDOF 28
ENDMDL
MODEL 4
REMARK VINA RESULT:    19.603      5.743     14.810
REMARK INTER + INTRA:          50.145
REMARK INTER:                  51.200
REMARK INTRA:                  -1.054
REMARK UNBOUND:                -1.547
REMARK SMILES CCCCCCCCCCCCCCCCCCCCCCCCCCCCCC(=O)[O-]
REMARK SMILES IDX 16 1 17 2 18 3 19 4 20 5 21 6 22 7 23 8 24 9 25 10 26 11
REMARK SMILES IDX 27 12 28 13 29 14 30 15 31 16 32 17 15 18 14 19 13 20 12 21
REMARK SMILES IDX 11 22 10 23 9 24 8 25 7 26 6 27 5 28 4 29 3 30 2 31 1 32
REMARK H PARENT
REMARK Flexibility Score: inf
ROOT
ATOM      1  C   UNL     1      -7.639  16.224 -14.699  1.00  0.00     0.000 C 
ENDROOT
BRANCH   1   2
ATOM      2  C   UNL     1      -7.484  14.697 -14.574  1.00  0.00     0.000 C 
BRANCH   2   3
ATOM      3  C   UNL     1      -6.161  14.130 -15.120  1.00  0.00     0.000 C 
BRANCH   3   4
ATOM      4  C   UNL     1      -6.189  13.918 -16.643  1.00  0.00     0.000 C 
BRANCH   4   5
ATOM      5  C   UNL     1      -5.032  13.038 -17.143  1.00  0.00     0.000 C 
BRANCH   5   6
ATOM      6  C   UNL     1      -5.429  12.166 -18.349  1.00  0.00     0.000 C 
BRANCH   6   7
ATOM      7  C   UNL     1      -6.954  11.946 -18.456  1.00  0.00     0.000 C 
BRANCH   7   8
ATOM      8  C   UNL     1      -7.442  10.616 -17.850  1.00  0.00     0.000 C 
BRANCH   8   9
ATOM      9  C   UNL     1      -7.880   9.547 -18.868  1.00  0.00     0.000 C 
BRANCH   9  10
ATOM     10  C   UNL     1      -8.254   8.181 -18.262  1.00  0.00     0.000 C 
BRANCH  10  11
ATOM     11  C   UNL     1      -7.199   7.098 -18.531  1.00  0.00     0.000 C 
BRANCH  11  12
ATOM     12  C   UNL     1      -7.848   5.837 -19.120  1.00  0.00     0.000 C 
BRANCH  12  13
ATOM     13  C   UNL     1      -7.677   5.735 -20.647  1.00  0.00     0.006 C 
BRANCH  13  14
ATOM     14  C   UNL     1      -7.747   4.301 -21.197  1.00  0.00     0.053 C 
BRANCH  14  15
ATOM     15  C   UNL     1      -8.602   4.210 -22.424  1.00  0.00     0.041 C 
ATOM     16  O   UNL     1      -8.592   3.164 -23.125  1.00  0.00    -0.550 OA
ATOM     17  O   UNL     1      -9.443   5.261 -22.766  1.00  0.00    -0.550 OA
ENDBRANCH  14  15
ENDBRANCH  13  14
ENDBRANCH  12  13
ENDBRANCH  11  12
ENDBRANCH  10  11
ENDBRANCH   9  10
ENDBRANCH   8   9
ENDBRANCH   7   8
ENDBRANCH   6   7
ENDBRANCH   5   6
ENDBRANCH   4   5
ENDBRANCH   3   4
ENDBRANCH   2   3
ENDBRANCH   1   2
BRANCH   1  18
ATOM     18  C   UNL     1      -8.518  16.891 -13.622  1.00  0.00     0.000 C 
BRANCH  18  19
ATOM     19  C   UNL     1      -9.368  18.069 -14.144  1.00  0.00     0.000 C 
BRANCH  19  20
ATOM     20  C   UNL     1     -10.859  17.929 -13.807  1.00  0.00     0.000 C 
BRANCH  20  21
ATOM     21  C   UNL     1     -11.689  18.973 -14.564  1.00  0.00     0.000 C 
BRANCH  21  22
ATOM     22  C   UNL     1     -12.890  19.442 -13.732  1.00  0.00     0.000 C 
BRANCH  22  23
ATOM     23  C   UNL     1     -12.426  20.176 -12.467  1.00  0.00     0.000 C 
BRANCH  23  24
ATOM     24  C   UNL     1     -12.909  19.459 -11.198  1.00  0.00    -0.000 C 
BRANCH  24  25
ATOM     25  C   UNL     1     -13.150  17.955 -11.409  1.00  0.00    -0.000 C 
BRANCH  25  26
ATOM     26  C   UNL     1     -12.426  17.052 -10.388  1.00  0.00    -0.000 C 
BRANCH  26  27
ATOM     27  C   UNL     1     -12.309  17.709  -9.003  1.00  0.00    -0.000 C 
BRANCH  27  28
ATOM     28  C   UNL     1     -13.680  18.187  -8.500  1.00  0.00    -0.000 C 
BRANCH  28  29
ATOM     29  C   UNL     1     -13.578  19.405  -7.566  1.00  0.00    -0.000 C 
BRANCH  29  30
ATOM     30  C   UNL     1     -13.041  20.689  -8.228  1.00  0.00    -0.000 C 
BRANCH  30  31
ATOM     31  C   UNL     1     -12.096  21.509  -7.324  1.00  0.00    -0.003 C 
ATOM     32  C   UNL     1     -10.630  21.377  -7.735  1.00  0.00     0.004 C 
ENDBRANCH  30  31
ENDBRANCH  29  30
ENDBRANCH  28  29
ENDBRANCH  27  28
ENDBRANCH  26  27
ENDBRANCH  25  26
ENDBRANCH  24  25
ENDBRANCH  23  24
ENDBRANCH  22  23
ENDBRANCH  21  22
ENDBRANCH  20  21
ENDBRANCH  19  20
ENDBRANCH  18  19
ENDBRANCH   1  18
TORSDOF 28
ENDMDL
MODEL 5
REMARK VINA RESULT:    19.709      0.995      2.043
REMARK INTER + INTRA:          50.423
REMARK INTER:                  51.402
REMARK INTRA:                  -0.978
REMARK UNBOUND:                -1.547
REMARK SMILES CCCCCCCCCCCCCCCCCCCCCCCCCCCCCC(=O)[O-]
REMARK SMILES IDX 16 1 17 2 18 3 19 4 20 5 21 6 22 7 23 8 24 9 25 10 26 11
REMARK SMILES IDX 27 12 28 13 29 14 30 15 31 16 32 17 15 18 14 19 13 20 12 21
REMARK SMILES IDX 11 22 10 23 9 24 8 25 7 26 6 27 5 28 4 29 3 30 2 31 1 32
REMARK H PARENT
REMARK Flexibility Score: inf
ROOT
ATOM      1  C   UNL     1      -7.756  14.551 -14.174  1.00  0.00     0.000 C 
ENDROOT
BRANCH   1   2
ATOM      2  C   UNL     1      -7.803  15.970 -14.770  1.00  0.00     0.000 C 
BRANCH   2   3
ATOM      3  C   UNL     1      -8.121  17.090 -13.762  1.00  0.00     0.000 C 
BRANCH   3   4
ATOM      4  C   UNL     1      -8.885  18.264 -14.398  1.00  0.00     0.000 C 
BRANCH   4   5
ATOM      5  C   UNL     1     -10.286  18.456 -13.799  1.00  0.00     0.000 C 
BRANCH   5   6
ATOM      6  C   UNL     1     -11.303  18.987 -14.827  1.00  0.00     0.000 C 
BRANCH   6   7
ATOM      7  C   UNL     1     -12.700  19.237 -14.219  1.00  0.00     0.000 C 
BRANCH   7   8
ATOM      8  C   UNL     1     -12.676  19.644 -12.733  1.00  0.00     0.000 C 
BRANCH   8   9
ATOM      9  C   UNL     1     -13.089  18.543 -11.739  1.00  0.00     0.000 C 
BRANCH   9  10
ATOM     10  C   UNL     1     -13.491  19.043 -10.339  1.00  0.00     0.000 C 
BRANCH  10  11
ATOM     11  C   UNL     1     -12.601  18.476  -9.222  1.00  0.00     0.000 C 
BRANCH  11  12
ATOM     12  C   UNL     1     -13.380  18.368  -7.904  1.00  0.00     0.000 C 
BRANCH  12  13
ATOM     13  C   UNL     1     -12.832  19.300  -6.808  1.00  0.00     0.006 C 
BRANCH  13  14
ATOM     14  C   UNL     1     -13.046  20.797  -7.085  1.00  0.00     0.053 C 
BRANCH  14  15
ATOM     15  C   UNL     1     -11.966  21.369  -7.952  1.00  0.00     0.041 C 
ATOM     16  O   UNL     1     -12.256  21.898  -9.057  1.00  0.00    -0.550 OA
ATOM     17  O   UNL     1     -10.646  21.359  -7.517  1.00  0.00    -0.550 OA
ENDBRANCH  14  15
ENDBRANCH  13  14
ENDBRANCH  12  13
ENDBRANCH  11  12
ENDBRANCH  10  11
ENDBRANCH   9  10
ENDBRANCH   8   9
ENDBRANCH   7   8
ENDBRANCH   6   7
ENDBRANCH   5   6
ENDBRANCH   4   5
ENDBRANCH   3   4
ENDBRANCH   2   3
ENDBRANCH   1   2
BRANCH   1  18
ATOM     18  C   UNL     1      -6.928  13.525 -14.972  1.00  0.00     0.000 C 
BRANCH  18  19
ATOM     19  C   UNL     1      -5.436  13.891 -15.112  1.00  0.00     0.000 C 
BRANCH  19  20
ATOM     20  C   UNL     1      -5.030  14.209 -16.558  1.00  0.00     0.000 C 
BRANCH  20  21
ATOM     21  C   UNL     1      -6.092  13.708 -17.545  1.00  0.00     0.000 C 
BRANCH  21  22
ATOM     22  C   UNL     1      -5.885  12.225 -17.882  1.00  0.00     0.000 C 
BRANCH  22  23
ATOM     23  C   UNL     1      -7.136  11.406 -17.544  1.00  0.00     0.000 C 
BRANCH  23  24
ATOM     24  C   UNL     1      -7.534  10.487 -18.709  1.00  0.00    -0.000 C 
BRANCH  24  25
ATOM     25  C   UNL     1      -8.342   9.259 -18.258  1.00  0.00    -0.000 C 
BRANCH  25  26
ATOM     26  C   UNL     1      -8.260   8.062 -19.229  1.00  0.00    -0.000 C 
BRANCH  26  27
ATOM     27  C   UNL     1      -7.160   7.062 -18.837  1.00  0.00    -0.000 C 
BRANCH  27  28
ATOM     28  C   UNL     1      -7.750   5.670 -18.560  1.00  0.00    -0.000 C 
BRANCH  28  29
ATOM     29  C   UNL     1      -8.393   5.040 -19.807  1.00  0.00    -0.000 C 
BRANCH  29  30
ATOM     30  C   UNL     1      -7.397   4.547 -20.874  1.00  0.00    -0.000 C 
BRANCH  30  31
ATOM     31  C   UNL     1      -8.057   4.182 -22.221  1.00  0.00    -0.003 C 
ATOM     32  C   UNL     1      -9.322   4.995 -22.495  1.00  0.00     0.004 C 
ENDBRANCH  30  31
ENDBRANCH  29  30
ENDBRANCH  28  29
ENDBRANCH  27  28
ENDBRANCH  26  27
ENDBRANCH  25  26
ENDBRANCH  24  25
ENDBRANCH  23  24
ENDBRANCH  22  23
ENDBRANCH  21  22
ENDBRANCH  20  21
ENDBRANCH  19  20
ENDBRANCH  18  19
ENDBRANCH   1  18
TORSDOF 28
ENDMDL
MODEL 6
REMARK VINA RESULT:    19.947      5.461     14.720
REMARK INTER + INTRA:          51.052
REMARK INTER:                  52.416
REMARK INTRA:                  -1.364
REMARK UNBOUND:                -1.547
REMARK SMILES CCCCCCCCCCCCCCCCCCCCCCCCCCCCCC(=O)[O-]
REMARK SMILES IDX 16 1 17 2 18 3 19 4 20 5 21 6 22 7 23 8 24 9 25 10 26 11
REMARK SMILES IDX 27 12 28 13 29 14 30 15 31 16 32 17 15 18 14 19 13 20 12 21
REMARK SMILES IDX 11 22 10 23 9 24 8 25 7 26 6 27 5 28 4 29 3 30 2 31 1 32
REMARK H PARENT
REMARK Flexibility Score: inf
ROOT
ATOM      1  C   UNL     1      -7.324  14.893 -14.908  1.00  0.00     0.000 C 
ENDROOT
BRANCH   1   2
ATOM      2  C   UNL     1      -6.783  14.476 -16.289  1.00  0.00     0.000 C 
BRANCH   2   3
ATOM      3  C   UNL     1      -5.406  13.787 -16.268  1.00  0.00     0.000 C 
BRANCH   3   4
ATOM      4  C   UNL     1      -5.407  12.436 -17.004  1.00  0.00     0.000 C 
BRANCH   4   5
ATOM      5  C   UNL     1      -6.820  11.969 -17.388  1.00  0.00     0.000 C 
BRANCH   5   6
ATOM      6  C   UNL     1      -7.440  11.032 -16.334  1.00  0.00     0.000 C 
BRANCH   6   7
ATOM      7  C   UNL     1      -8.070   9.765 -16.952  1.00  0.00     0.000 C 
BRANCH   7   8
ATOM      8  C   UNL     1      -8.280   9.846 -18.476  1.00  0.00     0.000 C 
BRANCH   8   9
ATOM      9  C   UNL     1      -7.595   8.738 -19.298  1.00  0.00     0.000 C 
BRANCH   9  10
ATOM     10  C   UNL     1      -7.539   7.358 -18.618  1.00  0.00     0.000 C 
BRANCH  10  11
ATOM     11  C   UNL     1      -7.368   6.204 -19.618  1.00  0.00     0.000 C 
BRANCH  11  12
ATOM     12  C   UNL     1      -8.529   5.205 -19.504  1.00  0.00     0.000 C 
BRANCH  12  13
ATOM     13  C   UNL     1      -8.353   3.979 -20.418  1.00  0.00     0.006 C 
BRANCH  13  14
ATOM     14  C   UNL     1      -8.925   4.158 -21.834  1.00  0.00     0.053 C 
BRANCH  14  15
ATOM     15  C   UNL     1      -8.326   5.337 -22.538  1.00  0.00     0.041 C 
ATOM     16  O   UNL     1      -7.218   5.227 -23.125  1.00  0.00    -0.550 OA
ATOM     17  O   UNL     1      -9.015   6.543 -22.585  1.00  0.00    -0.550 OA
ENDBRANCH  14  15
ENDBRANCH  13  14
ENDBRANCH  12  13
ENDBRANCH  11  12
ENDBRANCH  10  11
ENDBRANCH   9  10
ENDBRANCH   8   9
ENDBRANCH   7   8
ENDBRANCH   6   7
ENDBRANCH   5   6
ENDBRANCH   4   5
ENDBRANCH   3   4
ENDBRANCH   2   3
ENDBRANCH   1   2
BRANCH   1  18
ATOM     18  C   UNL     1      -7.744  16.370 -14.780  1.00  0.00     0.000 C 
BRANCH  18  19
ATOM     19  C   UNL     1      -9.077  16.583 -14.032  1.00  0.00     0.000 C 
BRANCH  19  20
ATOM     20  C   UNL     1      -9.381  18.063 -13.758  1.00  0.00     0.000 C 
BRANCH  20  21
ATOM     21  C   UNL     1     -10.202  18.672 -14.903  1.00  0.00     0.000 C 
BRANCH  21  22
ATOM     22  C   UNL     1     -11.647  18.159 -14.886  1.00  0.00     0.000 C 
BRANCH  22  23
ATOM     23  C   UNL     1     -12.607  19.243 -14.379  1.00  0.00     0.000 C 
BRANCH  23  24
ATOM     24  C   UNL     1     -11.884  20.246 -13.468  1.00  0.00    -0.000 C 
BRANCH  24  25
ATOM     25  C   UNL     1     -11.970  19.878 -11.977  1.00  0.00    -0.000 C 
BRANCH  25  26
ATOM     26  C   UNL     1     -13.189  19.004 -11.614  1.00  0.00    -0.000 C 
BRANCH  26  27
ATOM     27  C   UNL     1     -13.619  19.178 -10.148  1.00  0.00    -0.000 C 
BRANCH  27  28
ATOM     28  C   UNL     1     -12.942  18.134  -9.246  1.00  0.00    -0.000 C 
BRANCH  28  29
ATOM     29  C   UNL     1     -12.299  18.759  -7.996  1.00  0.00    -0.000 C 
BRANCH  29  30
ATOM     30  C   UNL     1     -13.172  19.797  -7.264  1.00  0.00    -0.000 C 
BRANCH  30  31
ATOM     31  C   UNL     1     -12.663  21.247  -7.401  1.00  0.00    -0.003 C 
ATOM     32  C   UNL     1     -11.350  21.337  -8.178  1.00  0.00     0.004 C 
ENDBRANCH  30  31
ENDBRANCH  29  30
ENDBRANCH  28  29
ENDBRANCH  27  28
ENDBRANCH  26  27
ENDBRANCH  25  26
ENDBRANCH  24  25
ENDBRANCH  23  24
ENDBRANCH  22  23
ENDBRANCH  21  22
ENDBRANCH  20  21
ENDBRANCH  19  20
ENDBRANCH  18  19
ENDBRANCH   1  18
TORSDOF 28
ENDMDL
MODEL 7
REMARK VINA RESULT:    20.193      5.577     15.073
REMARK INTER + INTRA:          51.700
REMARK INTER:                  49.828
REMARK INTRA:                   1.872
REMARK UNBOUND:                -1.547
REMARK SMILES CCCCCCCCCCCCCCCCCCCCCCCCCCCCCC(=O)[O-]
REMARK SMILES IDX 16 1 17 2 18 3 19 4 20 5 21 6 22 7 23 8 24 9 25 10 26 11
REMARK SMILES IDX 27 12 28 13 29 14 30 15 31 16 32 17 15 18 14 19 13 20 12 21
REMARK SMILES IDX 11 22 10 23 9 24 8 25 7 26 6 27 5 28 4 29 3 30 2 31 1 32
REMARK H PARENT
REMARK Flexibility Score: inf
ROOT
ATOM      1  C   UNL     1      -6.102  13.778 -17.085  1.00  0.00     0.000 C 
ENDROOT
BRANCH   1   2
ATOM      2  C   UNL     1      -5.820  12.587 -18.019  1.00  0.00     0.000 C 
BRANCH   2   3
ATOM      3  C   UNL     1      -7.073  11.885 -18.576  1.00  0.00     0.000 C 
BRANCH   3   4
ATOM      4  C   UNL     1      -7.506  10.679 -17.725  1.00  0.00     0.000 C 
BRANCH   4   5
ATOM      5  C   UNL     1      -8.322   9.651 -18.523  1.00  0.00     0.000 C 
BRANCH   5   6
ATOM      6  C   UNL     1      -7.475   8.445 -18.974  1.00  0.00     0.000 C 
BRANCH   6   7
ATOM      7  C   UNL     1      -7.549   7.257 -17.991  1.00  0.00     0.000 C 
BRANCH   7   8
ATOM      8  C   UNL     1      -6.672   6.054 -18.390  1.00  0.00     0.000 C 
BRANCH   8   9
ATOM      9  C   UNL     1      -7.437   4.765 -18.745  1.00  0.00     0.000 C 
BRANCH   9  10
ATOM     10  C   UNL     1      -8.268   4.833 -20.039  1.00  0.00     0.000 C 
BRANCH  10  11
ATOM     11  C   UNL     1      -8.467   3.457 -20.695  1.00  0.00     0.000 C 
BRANCH  11  12
ATOM     12  C   UNL     1      -7.378   3.190 -21.745  1.00  0.00     0.000 C 
BRANCH  12  13
ATOM     13  C   UNL     1      -7.113   4.406 -22.653  1.00  0.00     0.006 C 
BRANCH  13  14
ATOM     14  C   UNL     1      -8.102   5.567 -22.460  1.00  0.00     0.053 C 
BRANCH  14  15
ATOM     15  C   UNL     1      -9.497   5.190 -22.854  1.00  0.00     0.041 C 
ATOM     16  O   UNL     1      -9.776   3.992 -23.124  1.00  0.00    -0.550 OA
ATOM     17  O   UNL     1     -10.498   6.153 -22.877  1.00  0.00    -0.550 OA
ENDBRANCH  14  15
ENDBRANCH  13  14
ENDBRANCH  12  13
ENDBRANCH  11  12
ENDBRANCH  10  11
ENDBRANCH   9  10
ENDBRANCH   8   9
ENDBRANCH   7   8
ENDBRANCH   6   7
ENDBRANCH   5   6
ENDBRANCH   4   5
ENDBRANCH   3   4
ENDBRANCH   2   3
ENDBRANCH   1   2
BRANCH   1  18
ATOM     18  C   UNL     1      -5.718  13.566 -15.607  1.00  0.00     0.000 C 
BRANCH  18  19
ATOM     19  C   UNL     1      -6.872  13.820 -14.614  1.00  0.00     0.000 C 
BRANCH  19  20
ATOM     20  C   UNL     1      -7.604  15.145 -14.872  1.00  0.00     0.000 C 
BRANCH  20  21
ATOM     21  C   UNL     1      -8.184  15.709 -13.568  1.00  0.00     0.000 C 
BRANCH  21  22
ATOM     22  C   UNL     1      -8.651  17.160 -13.748  1.00  0.00     0.000 C 
BRANCH  22  23
ATOM     23  C   UNL     1     -10.178  17.260 -13.638  1.00  0.00     0.000 C 
BRANCH  23  24
ATOM     24  C   UNL     1     -10.709  18.503 -14.366  1.00  0.00    -0.000 C 
BRANCH  24  25
ATOM     25  C   UNL     1     -11.637  19.364 -13.491  1.00  0.00    -0.000 C 
BRANCH  25  26
ATOM     26  C   UNL     1     -12.444  18.560 -12.450  1.00  0.00    -0.000 C 
BRANCH  26  27
ATOM     27  C   UNL     1     -13.215  19.468 -11.477  1.00  0.00    -0.000 C 
BRANCH  27  28
ATOM     28  C   UNL     1     -14.081  18.639 -10.516  1.00  0.00    -0.000 C 
BRANCH  28  29
ATOM     29  C   UNL     1     -13.354  18.299  -9.204  1.00  0.00    -0.000 C 
BRANCH  29  30
ATOM     30  C   UNL     1     -13.237  19.466  -8.204  1.00  0.00    -0.000 C 
BRANCH  30  31
ATOM     31  C   UNL     1     -12.111  20.465  -8.540  1.00  0.00    -0.003 C 
ATOM     32  C   UNL     1     -12.036  21.623  -7.545  1.00  0.00     0.004 C 
ENDBRANCH  30  31
ENDBRANCH  29  30
ENDBRANCH  28  29
ENDBRANCH  27  28
ENDBRANCH  26  27
ENDBRANCH  25  26
ENDBRANCH  24  25
ENDBRANCH  23  24
ENDBRANCH  22  23
ENDBRANCH  21  22
ENDBRANCH  20  21
ENDBRANCH  19  20
ENDBRANCH  18  19
ENDBRANCH   1  18
TORSDOF 28
ENDMDL
MODEL 8
REMARK VINA RESULT:    20.655      1.061      2.015
REMARK INTER + INTRA:          52.917
REMARK INTER:                  54.605
REMARK INTRA:                  -1.688
REMARK UNBOUND:                -1.547
REMARK SMILES CCCCCCCCCCCCCCCCCCCCCCCCCCCCCC(=O)[O-]
REMARK SMILES IDX 16 1 17 2 18 3 19 4 20 5 21 6 22 7 23 8 24 9 25 10 26 11
REMARK SMILES IDX 27 12 28 13 29 14 30 15 31 16 32 17 15 18 14 19 13 20 12 21
REMARK SMILES IDX 11 22 10 23 9 24 8 25 7 26 6 27 5 28 4 29 3 30 2 31 1 32
REMARK H PARENT
REMARK Flexibility Score: inf
ROOT
ATOM      1  C   UNL     1      -4.472  13.487 -16.738  1.00  0.00     0.000 C 
ENDROOT
BRANCH   1   2
ATOM      2  C   UNL     1      -5.137  14.633 -15.954  1.00  0.00     0.000 C 
BRANCH   2   3
ATOM      3  C   UNL     1      -6.666  14.522 -15.809  1.00  0.00     0.000 C 
BRANCH   3   4
ATOM      4  C   UNL     1      -7.149  14.797 -14.375  1.00  0.00     0.000 C 
BRANCH   4   5
ATOM      5  C   UNL     1      -8.366  15.734 -14.327  1.00  0.00     0.000 C 
BRANCH   5   6
ATOM      6  C   UNL     1      -7.981  17.215 -14.508  1.00  0.00     0.000 C 
BRANCH   6   7
ATOM      7  C   UNL     1      -8.974  18.182 -13.827  1.00  0.00     0.000 C 
BRANCH   7   8
ATOM      8  C   UNL     1     -10.384  17.596 -13.623  1.00  0.00     0.000 C 
BRANCH   8   9
ATOM      9  C   UNL     1     -11.507  18.278 -14.426  1.00  0.00     0.000 C 
BRANCH   9  10
ATOM     10  C   UNL     1     -11.739  19.764 -14.095  1.00  0.00     0.000 C 
BRANCH  10  11
ATOM     11  C   UNL     1     -12.211  19.989 -12.650  1.00  0.00     0.000 C 
BRANCH  11  12
ATOM     12  C   UNL     1     -13.150  18.860 -12.201  1.00  0.00     0.000 C 
BRANCH  12  13
ATOM     13  C   UNL     1     -13.602  19.007 -10.736  1.00  0.00     0.006 C 
BRANCH  13  14
ATOM     14  C   UNL     1     -12.462  19.310  -9.750  1.00  0.00     0.053 C 
BRANCH  14  15
ATOM     15  C   UNL     1     -12.957  19.451  -8.343  1.00  0.00     0.041 C 
ATOM     16  O   UNL     1     -12.794  20.533  -7.720  1.00  0.00    -0.550 OA
ATOM     17  O   UNL     1     -13.640  18.403  -7.737  1.00  0.00    -0.550 OA
ENDBRANCH  14  15
ENDBRANCH  13  14
ENDBRANCH  12  13
ENDBRANCH  11  12
ENDBRANCH  10  11
ENDBRANCH   9  10
ENDBRANCH   8   9
ENDBRANCH   7   8
ENDBRANCH   6   7
ENDBRANCH   5   6
ENDBRANCH   4   5
ENDBRANCH   3   4
ENDBRANCH   2   3
ENDBRANCH   1   2
BRANCH   1  18
ATOM     18  C   UNL     1      -5.433  12.409 -17.277  1.00  0.00     0.000 C 
BRANCH  18  19
ATOM     19  C   UNL     1      -6.068  12.756 -18.639  1.00  0.00     0.000 C 
BRANCH  19  20
ATOM     20  C   UNL     1      -7.074  11.699 -19.120  1.00  0.00     0.000 C 
BRANCH  20  21
ATOM     21  C   UNL     1      -7.535  10.817 -17.952  1.00  0.00     0.000 C 
BRANCH  21  22
ATOM     22  C   UNL     1      -8.298   9.584 -18.454  1.00  0.00     0.000 C 
BRANCH  22  23
ATOM     23  C   UNL     1      -7.840   8.320 -17.716  1.00  0.00     0.000 C 
BRANCH  23  24
ATOM     24  C   UNL     1      -6.674   7.639 -18.448  1.00  0.00    -0.000 C 
BRANCH  24  25
ATOM     25  C   UNL     1      -7.008   6.214 -18.922  1.00  0.00    -0.000 C 
BRANCH  25  26
ATOM     26  C   UNL     1      -8.375   5.692 -18.431  1.00  0.00    -0.000 C 
BRANCH  26  27
ATOM     27  C   UNL     1      -9.139   4.928 -19.525  1.00  0.00    -0.000 C 
BRANCH  27  28
ATOM     28  C   UNL     1      -8.423   5.041 -20.880  1.00  0.00    -0.000 C 
BRANCH  28  29
ATOM     29  C   UNL     1      -8.984   4.066 -21.930  1.00  0.00    -0.000 C 
BRANCH  29  30
ATOM     30  C   UNL     1      -7.922   3.243 -22.685  1.00  0.00    -0.000 C 
BRANCH  30  31
ATOM     31  C   UNL     1      -6.509   3.335 -22.071  1.00  0.00    -0.003 C 
ATOM     32  C   UNL     1      -5.404   3.250 -23.125  1.00  0.00     0.004 C 
ENDBRANCH  30  31
ENDBRANCH  29  30
ENDBRANCH  28  29
ENDBRANCH  27  28
ENDBRANCH  26  27
ENDBRANCH  25  26
ENDBRANCH  24  25
ENDBRANCH  23  24
ENDBRANCH  22  23
ENDBRANCH  21  22
ENDBRANCH  20  21
ENDBRANCH  19  20
ENDBRANCH  18  19
ENDBRANCH   1  18
TORSDOF 28
ENDMDL
MODEL 9
REMARK VINA RESULT:    21.217      1.457      2.069
REMARK INTER + INTRA:          54.400
REMARK INTER:                  54.073
REMARK INTRA:                   0.327
REMARK UNBOUND:                -1.547
REMARK SMILES CCCCCCCCCCCCCCCCCCCCCCCCCCCCCC(=O)[O-]
REMARK SMILES IDX 16 1 17 2 18 3 19 4 20 5 21 6 22 7 23 8 24 9 25 10 26 11
REMARK SMILES IDX 27 12 28 13 29 14 30 15 31 16 32 17 15 18 14 19 13 20 12 21
REMARK SMILES IDX 11 22 10 23 9 24 8 25 7 26 6 27 5 28 4 29 3 30 2 31 1 32
REMARK H PARENT
REMARK Flexibility Score: inf
ROOT
ATOM      1  C   UNL     1      -6.973  14.541 -14.913  1.00  0.00     0.000 C 
ENDROOT
BRANCH   1   2
ATOM      2  C   UNL     1      -7.250  16.050 -15.048  1.00  0.00     0.000 C 
BRANCH   2   3
ATOM      3  C   UNL     1      -7.957  16.693 -13.841  1.00  0.00     0.000 C 
BRANCH   3   4
ATOM      4  C   UNL     1      -8.451  18.120 -14.133  1.00  0.00     0.000 C 
BRANCH   4   5
ATOM      5  C   UNL     1      -9.980  18.203 -14.274  1.00  0.00     0.000 C 
BRANCH   5   6
ATOM      6  C   UNL     1     -10.423  19.266 -15.297  1.00  0.00     0.000 C 
BRANCH   6   7
ATOM      7  C   UNL     1     -11.714  20.001 -14.879  1.00  0.00     0.000 C 
BRANCH   7   8
ATOM      8  C   UNL     1     -12.545  19.259 -13.814  1.00  0.00     0.000 C 
BRANCH   8   9
ATOM      9  C   UNL     1     -12.079  19.450 -12.359  1.00  0.00     0.000 C 
BRANCH   9  10
ATOM     10  C   UNL     1     -13.209  19.620 -11.326  1.00  0.00     0.000 C 
BRANCH  10  11
ATOM     11  C   UNL     1     -13.248  18.487 -10.289  1.00  0.00     0.000 C 
BRANCH  11  12
ATOM     12  C   UNL     1     -12.368  18.825  -9.077  1.00  0.00     0.000 C 
BRANCH  12  13
ATOM     13  C   UNL     1     -13.039  19.821  -8.112  1.00  0.00     0.006 C 
BRANCH  13  14
ATOM     14  C   UNL     1     -14.264  19.258  -7.373  1.00  0.00     0.053 C 
BRANCH  14  15
ATOM     15  C   UNL     1     -15.217  18.572  -8.303  1.00  0.00     0.041 C 
ATOM     16  O   UNL     1     -16.102  19.237  -8.904  1.00  0.00    -0.550 OA
ATOM     17  O   UNL     1     -15.097  17.209  -8.543  1.00  0.00    -0.550 OA
ENDBRANCH  14  15
ENDBRANCH  13  14
ENDBRANCH  12  13
ENDBRANCH  11  12
ENDBRANCH  10  11
ENDBRANCH   9  10
ENDBRANCH   8   9
ENDBRANCH   7   8
ENDBRANCH   6   7
ENDBRANCH   5   6
ENDBRANCH   4   5
ENDBRANCH   3   4
ENDBRANCH   2   3
ENDBRANCH   1   2
BRANCH   1  18
ATOM     18  C   UNL     1      -5.826  13.998 -15.788  1.00  0.00     0.000 C 
BRANCH  18  19
ATOM     19  C   UNL     1      -6.247  13.645 -17.230  1.00  0.00     0.000 C 
BRANCH  19  20
ATOM     20  C   UNL     1      -5.882  12.207 -17.627  1.00  0.00     0.000 C 
BRANCH  20  21
ATOM     21  C   UNL     1      -7.068  11.513 -18.310  1.00  0.00     0.000 C 
BRANCH  21  22
ATOM     22  C   UNL     1      -7.448  10.215 -17.585  1.00  0.00     0.000 C 
BRANCH  22  23
ATOM     23  C   UNL     1      -8.507   9.437 -18.376  1.00  0.00     0.000 C 
BRANCH  23  24
ATOM     24  C   UNL     1      -7.866   8.332 -19.228  1.00  0.00    -0.000 C 
BRANCH  24  25
ATOM     25  C   UNL     1      -7.065   7.316 -18.395  1.00  0.00    -0.000 C 
BRANCH  25  26
ATOM     26  C   UNL     1      -7.352   5.843 -18.753  1.00  0.00    -0.000 C 
BRANCH  26  27
ATOM     27  C   UNL     1      -8.445   5.702 -19.825  1.00  0.00    -0.000 C 
BRANCH  27  28
ATOM     28  C   UNL     1      -8.586   4.242 -20.284  1.00  0.00    -0.000 C 
BRANCH  28  29
ATOM     29  C   UNL     1      -8.626   4.102 -21.815  1.00  0.00    -0.000 C 
BRANCH  29  30
ATOM     30  C   UNL     1      -7.765   5.123 -22.585  1.00  0.00    -0.000 C 
BRANCH  30  31
ATOM     31  C   UNL     1      -6.442   4.541 -23.125  1.00  0.00    -0.003 C 
ATOM     32  C   UNL     1      -6.375   3.019 -23.001  1.00  0.00     0.004 C 
ENDBRANCH  30  31
ENDBRANCH  29  30
ENDBRANCH  28  29
ENDBRANCH  27  28
ENDBRANCH  26  27
ENDBRANCH  25  26
ENDBRANCH  24  25
ENDBRANCH  23  24
ENDBRANCH  22  23
ENDBRANCH  21  22
ENDBRANCH  20  21
ENDBRANCH  19  20
ENDBRANCH  18  19
ENDBRANCH   1  18
TORSDOF 28
ENDMDL
