MODEL 1
REMARK VINA RESULT:    -4.014      0.000      0.000
REMARK INTER + INTRA:          -5.244
REMARK INTER:                  -4.952
REMARK INTRA:                  -0.292
REMARK UNBOUND:                -0.292
REMARK SMILES C=CC(=C)CCC=C(C)C
REMARK SMILES IDX 5 1 6 2 7 3 9 4 8 5 10 6 3 7 4 8 2 9 1 10
REMARK H PARENT
REMARK Flexibility Score: inf
ROOT
ATOM      1  C   UNL     1     133.207 138.146 132.565  1.00  0.00     0.039 C 
ENDROOT
BRANCH   1   2
ATOM      2  C   UNL     1     134.150 138.917 131.631  1.00  0.00     0.032 C 
BRANCH   2   3
ATOM      3  C   UNL     1     135.482 139.213 132.278  1.00  0.00    -0.028 C 
ATOM      4  C   UNL     1     137.525 140.484 132.775  1.00  0.00     0.039 C 
ATOM      5  C   UNL     1     136.238 140.300 132.012  1.00  0.00    -0.080 C 
ATOM      6  C   UNL     1     135.834 141.323 130.976  1.00  0.00     0.039 C 
ENDBRANCH   2   3
ENDBRANCH   1   2
BRANCH   1   7
ATOM      7  C   UNL     1     133.244 136.651 132.307  1.00  0.00    -0.055 C 
ATOM      8  C   UNL     1     133.991 135.880 133.106  1.00  0.00     0.012 C 
BRANCH   7   9
ATOM      9  C   UNL     1     132.456 135.997 131.228  1.00  0.00    -0.005 C 
ATOM     10  C   UNL     1     132.925 135.043 130.421  1.00  0.00     0.009 C 
ENDBRANCH   7   9
ENDBRANCH   1   7
TORSDOF 4
ENDMDL
MODEL 2
REMARK VINA RESULT:    -4.000      3.413      5.307
REMARK INTER + INTRA:          -5.227
REMARK INTER:                  -4.929
REMARK INTRA:                  -0.299
REMARK UNBOUND:                -0.292
REMARK SMILES C=CC(=C)CCC=C(C)C
REMARK SMILES IDX 5 1 6 2 7 3 9 4 8 5 10 6 3 7 4 8 2 9 1 10
REMARK H PARENT
REMARK Flexibility Score: inf
ROOT
ATOM      1  C   UNL     1     135.547 133.259 132.682  1.00  0.00     0.039 C 
ENDROOT
BRANCH   1   2
ATOM      2  C   UNL     1     134.740 134.120 131.699  1.00  0.00     0.032 C 
BRANCH   2   3
ATOM      3  C   UNL     1     134.462 135.502 132.243  1.00  0.00    -0.028 C 
ATOM      4  C   UNL     1     133.216 137.591 132.587  1.00  0.00     0.039 C 
ATOM      5  C   UNL     1     133.381 136.246 131.926  1.00  0.00    -0.080 C 
ATOM      6  C   UNL     1     132.346 135.773 130.932  1.00  0.00     0.039 C 
ENDBRANCH   2   3
ENDBRANCH   1   2
BRANCH   1   7
ATOM      7  C   UNL     1     137.032 133.278 132.370  1.00  0.00    -0.055 C 
ATOM      8  C   UNL     1     137.844 133.994 133.155  1.00  0.00     0.012 C 
BRANCH   7   9
ATOM      9  C   UNL     1     137.632 132.504 131.250  1.00  0.00    -0.005 C 
ATOM     10  C   UNL     1     138.591 132.962 130.443  1.00  0.00     0.009 C 
ENDBRANCH   7   9
ENDBRANCH   1   7
TORSDOF 4
ENDMDL
MODEL 3
REMARK VINA RESULT:    -3.975      4.296      5.865
REMARK INTER + INTRA:          -5.196
REMARK INTER:                  -4.492
REMARK INTRA:                  -0.703
REMARK UNBOUND:                -0.292
REMARK SMILES C=CC(=C)CCC=C(C)C
REMARK SMILES IDX 5 1 6 2 7 3 9 4 8 5 10 6 3 7 4 8 2 9 1 10
REMARK H PARENT
REMARK Flexibility Score: inf
ROOT
ATOM      1  C   UNL     1     135.500 133.235 132.597  1.00  0.00     0.039 C 
ENDROOT
BRANCH   1   2
ATOM      2  C   UNL     1     134.833 134.540 132.138  1.00  0.00     0.032 C 
BRANCH   2   3
ATOM      3  C   UNL     1     134.076 134.371 130.842  1.00  0.00    -0.028 C 
ATOM      4  C   UNL     1     133.698 134.442 128.416  1.00  0.00     0.039 C 
ATOM      5  C   UNL     1     134.553 134.715 129.627  1.00  0.00    -0.080 C 
ATOM      6  C   UNL     1     135.906 135.366 129.451  1.00  0.00     0.039 C 
ENDBRANCH   2   3
ENDBRANCH   1   2
BRANCH   1   7
ATOM      7  C   UNL     1     137.000 133.251 132.371  1.00  0.00    -0.055 C 
ATOM      8  C   UNL     1     137.768 133.964 133.202  1.00  0.00     0.012 C 
BRANCH   7   9
ATOM      9  C   UNL     1     137.662 132.476 131.287  1.00  0.00    -0.005 C 
ATOM     10  C   UNL     1     138.588 132.969 130.462  1.00  0.00     0.009 C 
ENDBRANCH   7   9
ENDBRANCH   1   7
TORSDOF 4
ENDMDL
MODEL 4
REMARK VINA RESULT:    -3.973      4.779      7.540
REMARK INTER + INTRA:          -5.194
REMARK INTER:                  -4.900
REMARK INTRA:                  -0.294
REMARK UNBOUND:                -0.292
REMARK SMILES C=CC(=C)CCC=C(C)C
REMARK SMILES IDX 5 1 6 2 7 3 9 4 8 5 10 6 3 7 4 8 2 9 1 10
REMARK H PARENT
REMARK Flexibility Score: inf
ROOT
ATOM      1  C   UNL     1     140.535 135.550 132.571  1.00  0.00     0.039 C 
ENDROOT
BRANCH   1   2
ATOM      2  C   UNL     1     139.584 134.796 131.629  1.00  0.00     0.032 C 
BRANCH   2   3
ATOM      3  C   UNL     1     138.245 134.520 132.269  1.00  0.00    -0.028 C 
ATOM      4  C   UNL     1     136.179 133.280 132.753  1.00  0.00     0.039 C 
ATOM      5  C   UNL     1     137.473 133.445 131.997  1.00  0.00    -0.080 C 
ATOM      6  C   UNL     1     137.866 132.419 130.960  1.00  0.00     0.039 C 
ENDBRANCH   2   3
ENDBRANCH   1   2
BRANCH   1   7
ATOM      7  C   UNL     1     140.507 137.048 132.330  1.00  0.00    -0.055 C 
ATOM      8  C   UNL     1     139.771 137.815 133.143  1.00  0.00     0.012 C 
BRANCH   7   9
ATOM      9  C   UNL     1     141.293 137.709 131.254  1.00  0.00    -0.005 C 
ATOM     10  C   UNL     1     140.814 138.647 130.436  1.00  0.00     0.009 C 
ENDBRANCH   7   9
ENDBRANCH   1   7
TORSDOF 4
ENDMDL
MODEL 5
REMARK VINA RESULT:    -3.947      3.313      4.973
REMARK INTER + INTRA:          -5.161
REMARK INTER:                  -4.469
REMARK INTRA:                  -0.693
REMARK UNBOUND:                -0.292
REMARK SMILES C=CC(=C)CCC=C(C)C
REMARK SMILES IDX 5 1 6 2 7 3 9 4 8 5 10 6 3 7 4 8 2 9 1 10
REMARK H PARENT
REMARK Flexibility Score: inf
ROOT
ATOM      1  C   UNL     1     137.994 140.669 132.423  1.00  0.00     0.039 C 
ENDROOT
BRANCH   1   2
ATOM      2  C   UNL     1     138.862 139.438 132.123  1.00  0.00     0.032 C 
BRANCH   2   3
ATOM      3  C   UNL     1     139.589 139.558 130.805  1.00  0.00    -0.028 C 
ATOM      4  C   UNL     1     139.991 139.233 128.403  1.00  0.00     0.039 C 
ATOM      5  C   UNL     1     139.184 138.984 129.652  1.00  0.00    -0.080 C 
ATOM      6  C   UNL     1     137.959 138.102 129.583  1.00  0.00     0.039 C 
ENDBRANCH   2   3
ENDBRANCH   1   2
BRANCH   1   7
ATOM      7  C   UNL     1     136.541 140.449 132.045  1.00  0.00    -0.055 C 
ATOM      8  C   UNL     1     135.796 139.637 132.803  1.00  0.00     0.012 C 
BRANCH   7   9
ATOM      9  C   UNL     1     135.896 141.126 130.888  1.00  0.00    -0.005 C 
ATOM     10  C   UNL     1     134.779 140.705 130.292  1.00  0.00     0.009 C 
ENDBRANCH   7   9
ENDBRANCH   1   7
TORSDOF 4
ENDMDL
MODEL 6
REMARK VINA RESULT:    -3.934      3.402      5.329
REMARK INTER + INTRA:          -5.145
REMARK INTER:                  -4.858
REMARK INTRA:                  -0.288
REMARK UNBOUND:                -0.292
REMARK SMILES C=CC(=C)CCC=C(C)C
REMARK SMILES IDX 5 1 6 2 7 3 9 4 8 5 10 6 3 7 4 8 2 9 1 10
REMARK H PARENT
REMARK Flexibility Score: inf
ROOT
ATOM      1  C   UNL     1     138.151 140.416 132.638  1.00  0.00     0.039 C 
ENDROOT
BRANCH   1   2
ATOM      2  C   UNL     1     138.953 139.485 131.718  1.00  0.00     0.032 C 
BRANCH   2   3
ATOM      3  C   UNL     1     139.197 138.132 132.343  1.00  0.00    -0.028 C 
ATOM      4  C   UNL     1     140.428 136.075 132.880  1.00  0.00     0.039 C 
ATOM      5  C   UNL     1     140.307 137.388 132.149  1.00  0.00    -0.080 C 
ATOM      6  C   UNL     1     141.416 137.829 131.222  1.00  0.00     0.039 C 
ENDBRANCH   2   3
ENDBRANCH   1   2
BRANCH   1   7
ATOM      7  C   UNL     1     136.664 140.375 132.336  1.00  0.00    -0.055 C 
ATOM      8  C   UNL     1     135.874 139.614 133.102  1.00  0.00     0.012 C 
BRANCH   7   9
ATOM      9  C   UNL     1     136.038 141.174 131.248  1.00  0.00    -0.005 C 
ATOM     10  C   UNL     1     135.039 140.745 130.475  1.00  0.00     0.009 C 
ENDBRANCH   7   9
ENDBRANCH   1   7
TORSDOF 4
ENDMDL
MODEL 7
REMARK VINA RESULT:    -3.929      2.280      4.589
REMARK INTER + INTRA:          -5.140
REMARK INTER:                  -4.229
REMARK INTRA:                  -0.910
REMARK UNBOUND:                -0.292
REMARK SMILES C=CC(=C)CCC=C(C)C
REMARK SMILES IDX 5 1 6 2 7 3 9 4 8 5 10 6 3 7 4 8 2 9 1 10
REMARK H PARENT
REMARK Flexibility Score: inf
ROOT
ATOM      1  C   UNL     1     132.553 136.316 131.650  1.00  0.00     0.039 C 
ENDROOT
BRANCH   1   2
ATOM      2  C   UNL     1     133.495 135.594 130.676  1.00  0.00     0.032 C 
BRANCH   2   3
ATOM      3  C   UNL     1     134.122 134.365 131.290  1.00  0.00    -0.028 C 
ATOM      4  C   UNL     1     135.854 133.020 132.397  1.00  0.00     0.039 C 
ATOM      5  C   UNL     1     135.383 134.306 131.768  1.00  0.00    -0.080 C 
ATOM      6  C   UNL     1     136.328 135.482 131.683  1.00  0.00     0.039 C 
ENDBRANCH   2   3
ENDBRANCH   1   2
BRANCH   1   7
ATOM      7  C   UNL     1     133.287 137.334 132.504  1.00  0.00    -0.055 C 
ATOM      8  C   UNL     1     133.674 138.484 131.942  1.00  0.00     0.012 C 
BRANCH   7   9
ATOM      9  C   UNL     1     133.560 137.127 133.952  1.00  0.00    -0.005 C 
ATOM     10  C   UNL     1     133.519 135.944 134.568  1.00  0.00     0.009 C 
ENDBRANCH   7   9
ENDBRANCH   1   7
TORSDOF 4
ENDMDL
MODEL 8
REMARK VINA RESULT:    -3.928      4.007      6.119
REMARK INTER + INTRA:          -5.138
REMARK INTER:                  -4.232
REMARK INTRA:                  -0.906
REMARK UNBOUND:                -0.292
REMARK SMILES C=CC(=C)CCC=C(C)C
REMARK SMILES IDX 5 1 6 2 7 3 9 4 8 5 10 6 3 7 4 8 2 9 1 10
REMARK H PARENT
REMARK Flexibility Score: inf
ROOT
ATOM      1  C   UNL     1     141.135 137.336 131.643  1.00  0.00     0.039 C 
ENDROOT
BRANCH   1   2
ATOM      2  C   UNL     1     140.164 138.024 130.672  1.00  0.00     0.032 C 
BRANCH   2   3
ATOM      3  C   UNL     1     139.573 139.287 131.251  1.00  0.00    -0.028 C 
ATOM      4  C   UNL     1     137.905 140.698 132.375  1.00  0.00     0.039 C 
ATOM      5  C   UNL     1     138.339 139.377 131.793  1.00  0.00    -0.080 C 
ATOM      6  C   UNL     1     137.391 138.201 131.826  1.00  0.00     0.039 C 
ENDBRANCH   2   3
ENDBRANCH   1   2
BRANCH   1   7
ATOM      7  C   UNL     1     140.432 136.328 132.534  1.00  0.00    -0.055 C 
ATOM      8  C   UNL     1     140.068 135.152 132.010  1.00  0.00     0.012 C 
BRANCH   7   9
ATOM      9  C   UNL     1     140.163 136.573 133.976  1.00  0.00    -0.005 C 
ATOM     10  C   UNL     1     140.238 137.767 134.567  1.00  0.00     0.009 C 
ENDBRANCH   7   9
ENDBRANCH   1   7
TORSDOF 4
ENDMDL
MODEL 9
REMARK VINA RESULT:    -3.908      2.425      5.232
REMARK INTER + INTRA:          -5.114
REMARK INTER:                  -4.595
REMARK INTRA:                  -0.519
REMARK UNBOUND:                -0.292
REMARK SMILES C=CC(=C)CCC=C(C)C
REMARK SMILES IDX 5 1 6 2 7 3 9 4 8 5 10 6 3 7 4 8 2 9 1 10
REMARK H PARENT
REMARK Flexibility Score: inf
ROOT
ATOM      1  C   UNL     1     138.120 140.676 132.410  1.00  0.00     0.039 C 
ENDROOT
BRANCH   1   2
ATOM      2  C   UNL     1     136.586 140.744 132.438  1.00  0.00     0.032 C 
BRANCH   2   3
ATOM      3  C   UNL     1     135.991 140.825 131.052  1.00  0.00    -0.028 C 
ATOM      4  C   UNL     1     134.424 140.323 129.228  1.00  0.00     0.039 C 
ATOM      5  C   UNL     1     134.936 140.097 130.628  1.00  0.00    -0.080 C 
ATOM      6  C   UNL     1     134.267 139.068 131.508  1.00  0.00     0.039 C 
ENDBRANCH   2   3
ENDBRANCH   1   2
BRANCH   1   7
ATOM      7  C   UNL     1     138.622 139.363 131.838  1.00  0.00    -0.055 C 
ATOM      8  C   UNL     1     138.341 138.229 132.490  1.00  0.00     0.012 C 
BRANCH   7   9
ATOM      9  C   UNL     1     139.381 139.276 130.561  1.00  0.00    -0.005 C 
ATOM     10  C   UNL     1     140.659 138.905 130.465  1.00  0.00     0.009 C 
ENDBRANCH   7   9
ENDBRANCH   1   7
TORSDOF 4
ENDMDL
