MODEL 1
REMARK VINA RESULT:    -3.000      0.000      0.000
REMARK INTER + INTRA:         -13.308
REMARK INTER:                  -7.560
REMARK INTRA:                  -5.748
REMARK UNBOUND:                -5.748
REMARK SMILES CCCCCCCCCCCCCCCCCCCCCCCCCCCC(=O)[O-]
REMARK SMILES IDX 15 1 16 2 17 3 18 4 19 5 20 6 21 7 22 8 23 9 24 10 25 11
REMARK SMILES IDX 26 12 27 13 28 14 29 15 30 16 14 17 13 18 12 19 11 20 10 21
REMARK SMILES IDX 9 22 8 23 7 24 6 25 5 26 4 27 3 28 2 29 1 30
REMARK H PARENT
REMARK Flexibility Score: inf
ROOT
ATOM      1  C   UNL     1     135.768 142.403 130.249  1.00  0.00     0.000 C 
ENDROOT
BRANCH   1   2
ATOM      2  C   UNL     1     135.580 141.512 129.008  1.00  0.00     0.000 C 
BRANCH   2   3
ATOM      3  C   UNL     1     136.356 140.188 129.097  1.00  0.00     0.000 C 
BRANCH   3   4
ATOM      4  C   UNL     1     137.427 140.203 130.201  1.00  0.00     0.000 C 
BRANCH   4   5
ATOM      5  C   UNL     1     138.853 139.910 129.686  1.00  0.00     0.000 C 
BRANCH   5   6
ATOM      6  C   UNL     1     139.068 140.411 128.246  1.00  0.00     0.000 C 
BRANCH   6   7
ATOM      7  C   UNL     1     139.762 141.790 128.197  1.00  0.00     0.000 C 
BRANCH   7   8
ATOM      8  C   UNL     1     138.784 142.978 128.110  1.00  0.00     0.000 C 
BRANCH   8   9
ATOM      9  C   UNL     1     139.004 144.084 129.159  1.00  0.00     0.000 C 
BRANCH   9  10
ATOM     10  C   UNL     1     139.830 143.656 130.386  1.00  0.00     0.000 C 
BRANCH  10  11
ATOM     11  C   UNL     1     138.957 143.338 131.613  1.00  0.00     0.000 C 
BRANCH  11  12
ATOM     12  C   UNL     1     138.124 144.545 132.083  1.00  0.00     0.006 C 
BRANCH  12  13
ATOM     13  C   UNL     1     137.675 144.458 133.553  1.00  0.00     0.053 C 
BRANCH  13  14
ATOM     14  C   UNL     1     138.787 144.061 134.476  1.00  0.00     0.041 C 
ATOM     15  O   UNL     1     139.744 144.850 134.695  1.00  0.00    -0.550 OA
ATOM     16  O   UNL     1     138.782 142.805 135.071  1.00  0.00    -0.550 OA
ENDBRANCH  13  14
ENDBRANCH  12  13
ENDBRANCH  11  12
ENDBRANCH  10  11
ENDBRANCH   9  10
ENDBRANCH   8   9
ENDBRANCH   7   8
ENDBRANCH   6   7
ENDBRANCH   5   6
ENDBRANCH   4   5
ENDBRANCH   3   4
ENDBRANCH   2   3
ENDBRANCH   1   2
BRANCH   1  17
ATOM     17  C   UNL     1     134.702 143.505 130.360  1.00  0.00     0.000 C 
BRANCH  17  18
ATOM     18  C   UNL     1     133.523 143.287 129.397  1.00  0.00     0.000 C 
BRANCH  18  19
ATOM     19  C   UNL     1     132.159 143.533 130.063  1.00  0.00     0.000 C 
BRANCH  19  20
ATOM     20  C   UNL     1     131.898 142.597 131.257  1.00  0.00     0.000 C 
BRANCH  20  21
ATOM     21  C   UNL     1     131.098 141.329 130.890  1.00  0.00     0.000 C 
BRANCH  21  22
ATOM     22  C   UNL     1     131.742 140.051 131.456  1.00  0.00    -0.000 C 
BRANCH  22  23
ATOM     23  C   UNL     1     133.152 139.794 130.897  1.00  0.00    -0.000 C 
BRANCH  23  24
ATOM     24  C   UNL     1     134.188 139.437 131.986  1.00  0.00    -0.000 C 
BRANCH  24  25
ATOM     25  C   UNL     1     133.960 140.225 133.286  1.00  0.00    -0.000 C 
BRANCH  25  26
ATOM     26  C   UNL     1     135.057 141.270 133.557  1.00  0.00    -0.000 C 
BRANCH  26  27
ATOM     27  C   UNL     1     134.511 142.688 133.831  1.00  0.00    -0.000 C 
BRANCH  27  28
ATOM     28  C   UNL     1     133.287 142.669 134.763  1.00  0.00    -0.000 C 
BRANCH  28  29
ATOM     29  C   UNL     1     132.678 144.066 134.964  1.00  0.00    -0.003 C 
ATOM     30  C   UNL     1     131.228 144.151 134.487  1.00  0.00     0.004 C 
ENDBRANCH  28  29
ENDBRANCH  27  28
ENDBRANCH  26  27
ENDBRANCH  25  26
ENDBRANCH  24  25
ENDBRANCH  23  24
ENDBRANCH  22  23
ENDBRANCH  21  22
ENDBRANCH  20  21
ENDBRANCH  19  20
ENDBRANCH  18  19
ENDBRANCH  17  18
ENDBRANCH   1  17
TORSDOF 26
ENDMDL
MODEL 2
REMARK VINA RESULT:    -2.981      8.554     12.350
REMARK INTER + INTRA:         -13.259
REMARK INTER:                  -8.659
REMARK INTRA:                  -4.600
REMARK UNBOUND:                -5.748
REMARK SMILES CCCCCCCCCCCCCCCCCCCCCCCCCCCC(=O)[O-]
REMARK SMILES IDX 15 1 16 2 17 3 18 4 19 5 20 6 21 7 22 8 23 9 24 10 25 11
REMARK SMILES IDX 26 12 27 13 28 14 29 15 30 16 14 17 13 18 12 19 11 20 10 21
REMARK SMILES IDX 9 22 8 23 7 24 6 25 5 26 4 27 3 28 2 29 1 30
REMARK H PARENT
REMARK Flexibility Score: inf
ROOT
ATOM      1  C   UNL     1     131.490 144.372 140.242  1.00  0.00     0.000 C 
ENDROOT
BRANCH   1   2
ATOM      2  C   UNL     1     132.842 145.068 140.006  1.00  0.00     0.000 C 
BRANCH   2   3
ATOM      3  C   UNL     1     133.386 144.854 138.584  1.00  0.00     0.000 C 
BRANCH   3   4
ATOM      4  C   UNL     1     132.695 143.689 137.855  1.00  0.00     0.000 C 
BRANCH   4   5
ATOM      5  C   UNL     1     133.617 142.942 136.866  1.00  0.00     0.000 C 
BRANCH   5   6
ATOM      6  C   UNL     1     134.440 141.838 137.555  1.00  0.00     0.000 C 
BRANCH   6   7
ATOM      7  C   UNL     1     134.132 141.725 139.064  1.00  0.00     0.000 C 
BRANCH   7   8
ATOM      8  C   UNL     1     133.262 140.507 139.433  1.00  0.00     0.000 C 
BRANCH   8   9
ATOM      9  C   UNL     1     132.833 139.625 138.246  1.00  0.00     0.000 C 
BRANCH   9  10
ATOM     10  C   UNL     1     131.352 139.757 137.845  1.00  0.00     0.000 C 
BRANCH  10  11
ATOM     11  C   UNL     1     130.590 140.783 138.702  1.00  0.00     0.000 C 
BRANCH  11  12
ATOM     12  C   UNL     1     129.381 140.171 139.434  1.00  0.00     0.006 C 
BRANCH  12  13
ATOM     13  C   UNL     1     129.132 138.690 139.095  1.00  0.00     0.053 C 
BRANCH  13  14
ATOM     14  C   UNL     1     128.648 137.898 140.271  1.00  0.00     0.041 C 
ATOM     15  O   UNL     1     127.415 137.775 140.491  1.00  0.00    -0.550 OA
ATOM     16  O   UNL     1     129.563 137.321 141.145  1.00  0.00    -0.550 OA
ENDBRANCH  13  14
ENDBRANCH  12  13
ENDBRANCH  11  12
ENDBRANCH  10  11
ENDBRANCH   9  10
ENDBRANCH   8   9
ENDBRANCH   7   8
ENDBRANCH   6   7
ENDBRANCH   5   6
ENDBRANCH   4   5
ENDBRANCH   3   4
ENDBRANCH   2   3
ENDBRANCH   1   2
BRANCH   1  17
ATOM     17  C   UNL     1     131.559 143.286 141.329  1.00  0.00     0.000 C 
BRANCH  17  18
ATOM     18  C   UNL     1     132.799 143.428 142.228  1.00  0.00     0.000 C 
BRANCH  18  19
ATOM     19  C   UNL     1     132.440 143.777 143.682  1.00  0.00     0.000 C 
BRANCH  19  20
ATOM     20  C   UNL     1     132.607 142.587 144.643  1.00  0.00     0.000 C 
BRANCH  20  21
ATOM     21  C   UNL     1     131.451 142.438 145.656  1.00  0.00     0.000 C 
BRANCH  21  22
ATOM     22  C   UNL     1     130.269 141.643 145.076  1.00  0.00    -0.000 C 
BRANCH  22  23
ATOM     23  C   UNL     1     129.226 141.260 146.140  1.00  0.00    -0.000 C 
BRANCH  23  24
ATOM     24  C   UNL     1     128.933 139.745 146.195  1.00  0.00    -0.000 C 
BRANCH  24  25
ATOM     25  C   UNL     1     129.872 138.938 145.282  1.00  0.00    -0.000 C 
BRANCH  25  26
ATOM     26  C   UNL     1     131.054 138.308 146.040  1.00  0.00    -0.000 C 
BRANCH  26  27
ATOM     27  C   UNL     1     132.435 138.786 145.544  1.00  0.00    -0.000 C 
BRANCH  27  28
ATOM     28  C   UNL     1     132.764 138.253 144.139  1.00  0.00    -0.000 C 
BRANCH  28  29
ATOM     29  C   UNL     1     132.951 139.380 143.110  1.00  0.00    -0.003 C 
ATOM     30  C   UNL     1     131.651 139.739 142.388  1.00  0.00     0.004 C 
ENDBRANCH  28  29
ENDBRANCH  27  28
ENDBRANCH  26  27
ENDBRANCH  25  26
ENDBRANCH  24  25
ENDBRANCH  23  24
ENDBRANCH  22  23
ENDBRANCH  21  22
ENDBRANCH  20  21
ENDBRANCH  19  20
ENDBRANCH  18  19
ENDBRANCH  17  18
ENDBRANCH   1  17
TORSDOF 26
ENDMDL
MODEL 3
REMARK VINA RESULT:    -2.949      8.557     13.234
REMARK INTER + INTRA:         -13.179
REMARK INTER:                  -8.518
REMARK INTRA:                  -4.662
REMARK UNBOUND:                -5.748
REMARK SMILES CCCCCCCCCCCCCCCCCCCCCCCCCCCC(=O)[O-]
REMARK SMILES IDX 15 1 16 2 17 3 18 4 19 5 20 6 21 7 22 8 23 9 24 10 25 11
REMARK SMILES IDX 26 12 27 13 28 14 29 15 30 16 14 17 13 18 12 19 11 20 10 21
REMARK SMILES IDX 9 22 8 23 7 24 6 25 5 26 4 27 3 28 2 29 1 30
REMARK H PARENT
REMARK Flexibility Score: inf
ROOT
ATOM      1  C   UNL     1     130.269 138.631 144.230  1.00  0.00     0.000 C 
ENDROOT
BRANCH   1   2
ATOM      2  C   UNL     1     130.191 138.756 145.762  1.00  0.00     0.000 C 
BRANCH   2   3
ATOM      3  C   UNL     1     129.124 139.760 146.227  1.00  0.00     0.000 C 
BRANCH   3   4
ATOM      4  C   UNL     1     129.465 141.209 145.839  1.00  0.00     0.000 C 
BRANCH   4   5
ATOM      5  C   UNL     1     130.928 141.603 146.138  1.00  0.00     0.000 C 
BRANCH   5   6
ATOM      6  C   UNL     1     131.549 142.444 145.007  1.00  0.00     0.000 C 
BRANCH   6   7
ATOM      7  C   UNL     1     130.982 142.078 143.618  1.00  0.00     0.000 C 
BRANCH   7   8
ATOM      8  C   UNL     1     131.101 143.209 142.578  1.00  0.00     0.000 C 
BRANCH   8   9
ATOM      9  C   UNL     1     131.007 142.758 141.108  1.00  0.00     0.000 C 
BRANCH   9  10
ATOM     10  C   UNL     1     131.330 141.273 140.866  1.00  0.00     0.000 C 
BRANCH  10  11
ATOM     11  C   UNL     1     130.767 140.747 139.534  1.00  0.00     0.000 C 
BRANCH  11  12
ATOM     12  C   UNL     1     129.541 139.833 139.722  1.00  0.00     0.006 C 
BRANCH  12  13
ATOM     13  C   UNL     1     129.841 138.543 140.506  1.00  0.00     0.053 C 
BRANCH  13  14
ATOM     14  C   UNL     1     128.715 137.555 140.451  1.00  0.00     0.041 C 
ATOM     15  O   UNL     1     128.941 136.325 140.596  1.00  0.00    -0.550 OA
ATOM     16  O   UNL     1     127.419 137.993 140.208  1.00  0.00    -0.550 OA
ENDBRANCH  13  14
ENDBRANCH  12  13
ENDBRANCH  11  12
ENDBRANCH  10  11
ENDBRANCH   9  10
ENDBRANCH   8   9
ENDBRANCH   7   8
ENDBRANCH   6   7
ENDBRANCH   5   6
ENDBRANCH   4   5
ENDBRANCH   3   4
ENDBRANCH   2   3
ENDBRANCH   1   2
BRANCH   1  17
ATOM     17  C   UNL     1     131.612 138.061 143.745  1.00  0.00     0.000 C 
BRANCH  17  18
ATOM     18  C   UNL     1     132.816 138.869 144.255  1.00  0.00     0.000 C 
BRANCH  18  19
ATOM     19  C   UNL     1     133.588 139.565 143.121  1.00  0.00     0.000 C 
BRANCH  19  20
ATOM     20  C   UNL     1     134.514 140.685 143.626  1.00  0.00     0.000 C 
BRANCH  20  21
ATOM     21  C   UNL     1     134.566 141.916 142.696  1.00  0.00     0.000 C 
BRANCH  21  22
ATOM     22  C   UNL     1     135.001 141.548 141.267  1.00  0.00    -0.000 C 
BRANCH  22  23
ATOM     23  C   UNL     1     136.123 142.454 140.732  1.00  0.00    -0.000 C 
BRANCH  23  24
ATOM     24  C   UNL     1     135.668 143.381 139.583  1.00  0.00    -0.000 C 
BRANCH  24  25
ATOM     25  C   UNL     1     134.271 143.012 139.058  1.00  0.00    -0.000 C 
BRANCH  25  26
ATOM     26  C   UNL     1     133.473 144.231 138.561  1.00  0.00    -0.000 C 
BRANCH  26  27
ATOM     27  C   UNL     1     132.129 143.865 137.895  1.00  0.00    -0.000 C 
BRANCH  27  28
ATOM     28  C   UNL     1     132.302 142.832 136.768  1.00  0.00    -0.000 C 
BRANCH  28  29
ATOM     29  C   UNL     1     132.845 143.458 135.473  1.00  0.00    -0.003 C 
ATOM     30  C   UNL     1     131.766 144.186 134.672  1.00  0.00     0.004 C 
ENDBRANCH  28  29
ENDBRANCH  27  28
ENDBRANCH  26  27
ENDBRANCH  25  26
ENDBRANCH  24  25
ENDBRANCH  23  24
ENDBRANCH  22  23
ENDBRANCH  21  22
ENDBRANCH  20  21
ENDBRANCH  19  20
ENDBRANCH  18  19
ENDBRANCH  17  18
ENDBRANCH   1  17
TORSDOF 26
ENDMDL
MODEL 4
REMARK VINA RESULT:    -2.885      9.308     13.433
REMARK INTER + INTRA:         -13.018
REMARK INTER:                  -7.971
REMARK INTRA:                  -5.047
REMARK UNBOUND:                -5.748
REMARK SMILES CCCCCCCCCCCCCCCCCCCCCCCCCCCC(=O)[O-]
REMARK SMILES IDX 15 1 16 2 17 3 18 4 19 5 20 6 21 7 22 8 23 9 24 10 25 11
REMARK SMILES IDX 26 12 27 13 28 14 29 15 30 16 14 17 13 18 12 19 11 20 10 21
REMARK SMILES IDX 9 22 8 23 7 24 6 25 5 26 4 27 3 28 2 29 1 30
REMARK H PARENT
REMARK Flexibility Score: inf
ROOT
ATOM      1  C   UNL     1     131.237 142.075 144.991  1.00  0.00     0.000 C 
ENDROOT
BRANCH   1   2
ATOM      2  C   UNL     1     130.897 141.931 143.497  1.00  0.00     0.000 C 
BRANCH   2   3
ATOM      3  C   UNL     1     131.465 143.075 142.641  1.00  0.00     0.000 C 
BRANCH   3   4
ATOM      4  C   UNL     1     132.877 142.773 142.111  1.00  0.00     0.000 C 
BRANCH   4   5
ATOM      5  C   UNL     1     133.446 143.880 141.196  1.00  0.00     0.000 C 
BRANCH   5   6
ATOM      6  C   UNL     1     132.343 144.612 140.410  1.00  0.00     0.000 C 
BRANCH   6   7
ATOM      7  C   UNL     1     132.481 144.423 138.883  1.00  0.00     0.000 C 
BRANCH   7   8
ATOM      8  C   UNL     1     132.195 142.986 138.404  1.00  0.00     0.000 C 
BRANCH   8   9
ATOM      9  C   UNL     1     130.770 142.746 137.872  1.00  0.00     0.000 C 
BRANCH   9  10
ATOM     10  C   UNL     1     130.175 141.368 138.217  1.00  0.00     0.000 C 
BRANCH  10  11
ATOM     11  C   UNL     1     130.131 141.098 139.731  1.00  0.00     0.000 C 
BRANCH  11  12
ATOM     12  C   UNL     1     129.967 139.604 140.068  1.00  0.00     0.006 C 
BRANCH  12  13
ATOM     13  C   UNL     1     128.577 139.038 139.728  1.00  0.00     0.053 C 
BRANCH  13  14
ATOM     14  C   UNL     1     128.326 137.700 140.355  1.00  0.00     0.041 C 
ATOM     15  O   UNL     1     127.167 137.208 140.362  1.00  0.00    -0.550 OA
ATOM     16  O   UNL     1     129.369 137.009 140.960  1.00  0.00    -0.550 OA
ENDBRANCH  13  14
ENDBRANCH  12  13
ENDBRANCH  11  12
ENDBRANCH  10  11
ENDBRANCH   9  10
ENDBRANCH   8   9
ENDBRANCH   7   8
ENDBRANCH   6   7
ENDBRANCH   5   6
ENDBRANCH   4   5
ENDBRANCH   3   4
ENDBRANCH   2   3
ENDBRANCH   1   2
BRANCH   1  17
ATOM     17  C   UNL     1     130.314 141.241 145.896  1.00  0.00     0.000 C 
BRANCH  17  18
ATOM     18  C   UNL     1     129.786 139.977 145.197  1.00  0.00     0.000 C 
BRANCH  18  19
ATOM     19  C   UNL     1     129.589 138.801 146.168  1.00  0.00     0.000 C 
BRANCH  19  20
ATOM     20  C   UNL     1     130.468 138.908 147.426  1.00  0.00     0.000 C 
BRANCH  20  21
ATOM     21  C   UNL     1     131.793 138.121 147.329  1.00  0.00     0.000 C 
BRANCH  21  22
ATOM     22  C   UNL     1     133.023 139.028 147.507  1.00  0.00    -0.000 C 
BRANCH  22  23
ATOM     23  C   UNL     1     133.639 139.470 146.169  1.00  0.00    -0.000 C 
BRANCH  23  24
ATOM     24  C   UNL     1     133.305 138.522 144.996  1.00  0.00    -0.000 C 
BRANCH  24  25
ATOM     25  C   UNL     1     133.460 139.212 143.630  1.00  0.00    -0.000 C 
BRANCH  25  26
ATOM     26  C   UNL     1     132.423 138.741 142.596  1.00  0.00    -0.000 C 
BRANCH  26  27
ATOM     27  C   UNL     1     132.958 137.671 141.621  1.00  0.00    -0.000 C 
BRANCH  27  28
ATOM     28  C   UNL     1     133.993 138.246 140.638  1.00  0.00    -0.000 C 
BRANCH  28  29
ATOM     29  C   UNL     1     133.535 139.570 140.007  1.00  0.00    -0.003 C 
ATOM     30  C   UNL     1     134.676 140.575 139.851  1.00  0.00     0.004 C 
ENDBRANCH  28  29
ENDBRANCH  27  28
ENDBRANCH  26  27
ENDBRANCH  25  26
ENDBRANCH  24  25
ENDBRANCH  23  24
ENDBRANCH  22  23
ENDBRANCH  21  22
ENDBRANCH  20  21
ENDBRANCH  19  20
ENDBRANCH  18  19
ENDBRANCH  17  18
ENDBRANCH   1  17
TORSDOF 26
ENDMDL
MODEL 5
REMARK VINA RESULT:    -2.859      6.031      9.628
REMARK INTER + INTRA:         -12.953
REMARK INTER:                  -8.847
REMARK INTRA:                  -4.106
REMARK UNBOUND:                -5.748
REMARK SMILES CCCCCCCCCCCCCCCCCCCCCCCCCCCC(=O)[O-]
REMARK SMILES IDX 15 1 16 2 17 3 18 4 19 5 20 6 21 7 22 8 23 9 24 10 25 11
REMARK SMILES IDX 26 12 27 13 28 14 29 15 30 16 14 17 13 18 12 19 11 20 10 21
REMARK SMILES IDX 9 22 8 23 7 24 6 25 5 26 4 27 3 28 2 29 1 30
REMARK H PARENT
REMARK Flexibility Score: inf
ROOT
ATOM      1  C   UNL     1     130.256 141.292 139.095  1.00  0.00     0.000 C 
ENDROOT
BRANCH   1   2
ATOM      2  C   UNL     1     131.385 140.518 138.392  1.00  0.00     0.000 C 
BRANCH   2   3
ATOM      3  C   UNL     1     132.672 140.444 139.229  1.00  0.00     0.000 C 
BRANCH   3   4
ATOM      4  C   UNL     1     133.938 140.705 138.395  1.00  0.00     0.000 C 
BRANCH   4   5
ATOM      5  C   UNL     1     133.645 141.073 136.923  1.00  0.00     0.000 C 
BRANCH   5   6
ATOM      6  C   UNL     1     134.618 142.137 136.383  1.00  0.00     0.000 C 
BRANCH   6   7
ATOM      7  C   UNL     1     133.910 143.198 135.513  1.00  0.00     0.000 C 
BRANCH   7   8
ATOM      8  C   UNL     1     132.405 143.344 135.808  1.00  0.00     0.000 C 
BRANCH   8   9
ATOM      9  C   UNL     1     131.571 143.957 134.667  1.00  0.00     0.000 C 
BRANCH   9  10
ATOM     10  C   UNL     1     132.334 144.155 133.344  1.00  0.00     0.000 C 
BRANCH  10  11
ATOM     11  C   UNL     1     131.804 143.262 132.209  1.00  0.00     0.000 C 
BRANCH  11  12
ATOM     12  C   UNL     1     132.696 142.034 131.947  1.00  0.00     0.006 C 
BRANCH  12  13
ATOM     13  C   UNL     1     131.991 140.907 131.171  1.00  0.00     0.053 C 
BRANCH  13  14
ATOM     14  C   UNL     1     131.919 141.173 129.698  1.00  0.00     0.041 C 
ATOM     15  O   UNL     1     132.803 140.717 128.926  1.00  0.00    -0.550 OA
ATOM     16  O   UNL     1     130.890 141.952 129.182  1.00  0.00    -0.550 OA
ENDBRANCH  13  14
ENDBRANCH  12  13
ENDBRANCH  11  12
ENDBRANCH  10  11
ENDBRANCH   9  10
ENDBRANCH   8   9
ENDBRANCH   7   8
ENDBRANCH   6   7
ENDBRANCH   5   6
ENDBRANCH   4   5
ENDBRANCH   3   4
ENDBRANCH   2   3
ENDBRANCH   1   2
BRANCH   1  17
ATOM     17  C   UNL     1     128.953 140.482 139.200  1.00  0.00     0.000 C 
BRANCH  17  18
ATOM     18  C   UNL     1     129.198 138.964 139.192  1.00  0.00     0.000 C 
BRANCH  18  19
ATOM     19  C   UNL     1     128.832 138.297 140.529  1.00  0.00     0.000 C 
BRANCH  19  20
ATOM     20  C   UNL     1     130.019 137.562 141.176  1.00  0.00     0.000 C 
BRANCH  20  21
ATOM     21  C   UNL     1     130.380 138.082 142.585  1.00  0.00     0.000 C 
BRANCH  21  22
ATOM     22  C   UNL     1     131.110 139.435 142.536  1.00  0.00    -0.000 C 
BRANCH  22  23
ATOM     23  C   UNL     1     131.102 140.168 143.888  1.00  0.00    -0.000 C 
BRANCH  23  24
ATOM     24  C   UNL     1     131.424 141.674 143.772  1.00  0.00    -0.000 C 
BRANCH  24  25
ATOM     25  C   UNL     1     131.978 142.045 142.387  1.00  0.00    -0.000 C 
BRANCH  25  26
ATOM     26  C   UNL     1     131.302 143.286 141.779  1.00  0.00    -0.000 C 
BRANCH  26  27
ATOM     27  C   UNL     1     132.295 144.303 141.176  1.00  0.00    -0.000 C 
BRANCH  27  28
ATOM     28  C   UNL     1     132.111 144.462 139.657  1.00  0.00    -0.000 C 
BRANCH  28  29
ATOM     29  C   UNL     1     133.436 144.738 138.929  1.00  0.00    -0.003 C 
ATOM     30  C   UNL     1     134.634 144.077 139.613  1.00  0.00     0.004 C 
ENDBRANCH  28  29
ENDBRANCH  27  28
ENDBRANCH  26  27
ENDBRANCH  25  26
ENDBRANCH  24  25
ENDBRANCH  23  24
ENDBRANCH  22  23
ENDBRANCH  21  22
ENDBRANCH  20  21
ENDBRANCH  19  20
ENDBRANCH  18  19
ENDBRANCH  17  18
ENDBRANCH   1  17
TORSDOF 26
ENDMDL
MODEL 6
REMARK VINA RESULT:    -2.826      3.253      6.284
REMARK INTER + INTRA:         -12.868
REMARK INTER:                  -7.785
REMARK INTRA:                  -5.083
REMARK UNBOUND:                -5.748
REMARK SMILES CCCCCCCCCCCCCCCCCCCCCCCCCCCC(=O)[O-]
REMARK SMILES IDX 15 1 16 2 17 3 18 4 19 5 20 6 21 7 22 8 23 9 24 10 25 11
REMARK SMILES IDX 26 12 27 13 28 14 29 15 30 16 14 17 13 18 12 19 11 20 10 21
REMARK SMILES IDX 9 22 8 23 7 24 6 25 5 26 4 27 3 28 2 29 1 30
REMARK H PARENT
REMARK Flexibility Score: inf
ROOT
ATOM      1  C   UNL     1     135.479 140.813 129.489  1.00  0.00     0.000 C 
ENDROOT
BRANCH   1   2
ATOM      2  C   UNL     1     136.006 142.070 130.205  1.00  0.00     0.000 C 
BRANCH   2   3
ATOM      3  C   UNL     1     134.941 143.169 130.348  1.00  0.00     0.000 C 
BRANCH   3   4
ATOM      4  C   UNL     1     135.434 144.366 131.179  1.00  0.00     0.000 C 
BRANCH   4   5
ATOM      5  C   UNL     1     134.361 144.946 132.127  1.00  0.00     0.000 C 
BRANCH   5   6
ATOM      6  C   UNL     1     132.971 144.331 131.882  1.00  0.00     0.000 C 
BRANCH   6   7
ATOM      7  C   UNL     1     132.342 143.760 133.171  1.00  0.00     0.000 C 
BRANCH   7   8
ATOM      8  C   UNL     1     132.681 144.564 134.441  1.00  0.00     0.000 C 
BRANCH   8   9
ATOM      9  C   UNL     1     132.856 143.725 135.720  1.00  0.00     0.000 C 
BRANCH   9  10
ATOM     10  C   UNL     1     133.646 144.418 136.845  1.00  0.00     0.000 C 
BRANCH  10  11
ATOM     11  C   UNL     1     132.954 144.309 138.216  1.00  0.00     0.000 C 
BRANCH  11  12
ATOM     12  C   UNL     1     131.688 143.433 138.179  1.00  0.00     0.006 C 
BRANCH  12  13
ATOM     13  C   UNL     1     131.902 142.006 138.715  1.00  0.00     0.053 C 
BRANCH  13  14
ATOM     14  C   UNL     1     130.826 141.056 138.283  1.00  0.00     0.041 C 
ATOM     15  O   UNL     1     129.614 141.391 138.358  1.00  0.00    -0.550 OA
ATOM     16  O   UNL     1     131.161 139.787 137.825  1.00  0.00    -0.550 OA
ENDBRANCH  13  14
ENDBRANCH  12  13
ENDBRANCH  11  12
ENDBRANCH  10  11
ENDBRANCH   9  10
ENDBRANCH   8   9
ENDBRANCH   7   8
ENDBRANCH   6   7
ENDBRANCH   5   6
ENDBRANCH   4   5
ENDBRANCH   3   4
ENDBRANCH   2   3
ENDBRANCH   1   2
BRANCH   1  17
ATOM     17  C   UNL     1     134.353 141.124 128.490  1.00  0.00     0.000 C 
BRANCH  17  18
ATOM     18  C   UNL     1     133.057 140.359 128.804  1.00  0.00     0.000 C 
BRANCH  18  19
ATOM     19  C   UNL     1     131.937 141.277 129.323  1.00  0.00     0.000 C 
BRANCH  19  20
ATOM     20  C   UNL     1     131.599 141.030 130.804  1.00  0.00     0.000 C 
BRANCH  20  21
ATOM     21  C   UNL     1     132.369 139.847 131.430  1.00  0.00     0.000 C 
BRANCH  21  22
ATOM     22  C   UNL     1     133.351 140.305 132.522  1.00  0.00    -0.000 C 
BRANCH  22  23
ATOM     23  C   UNL     1     134.559 139.366 132.673  1.00  0.00    -0.000 C 
BRANCH  23  24
ATOM     24  C   UNL     1     135.742 140.003 133.435  1.00  0.00    -0.000 C 
BRANCH  24  25
ATOM     25  C   UNL     1     135.432 141.439 133.891  1.00  0.00    -0.000 C 
BRANCH  25  26
ATOM     26  C   UNL     1     136.674 142.347 133.906  1.00  0.00    -0.000 C 
BRANCH  26  27
ATOM     27  C   UNL     1     136.507 143.616 134.769  1.00  0.00    -0.000 C 
BRANCH  27  28
ATOM     28  C   UNL     1     137.452 144.747 134.327  1.00  0.00    -0.000 C 
BRANCH  28  29
ATOM     29  C   UNL     1     138.933 144.390 134.527  1.00  0.00    -0.003 C 
ATOM     30  C   UNL     1     139.258 144.010 135.973  1.00  0.00     0.004 C 
ENDBRANCH  28  29
ENDBRANCH  27  28
ENDBRANCH  26  27
ENDBRANCH  25  26
ENDBRANCH  24  25
ENDBRANCH  23  24
ENDBRANCH  22  23
ENDBRANCH  21  22
ENDBRANCH  20  21
ENDBRANCH  19  20
ENDBRANCH  18  19
ENDBRANCH  17  18
ENDBRANCH   1  17
TORSDOF 26
ENDMDL
MODEL 7
REMARK VINA RESULT:    -2.791      2.272      6.400
REMARK INTER + INTRA:         -12.780
REMARK INTER:                  -7.226
REMARK INTRA:                  -5.554
REMARK UNBOUND:                -5.748
REMARK SMILES CCCCCCCCCCCCCCCCCCCCCCCCCCCC(=O)[O-]
REMARK SMILES IDX 15 1 16 2 17 3 18 4 19 5 20 6 21 7 22 8 23 9 24 10 25 11
REMARK SMILES IDX 26 12 27 13 28 14 29 15 30 16 14 17 13 18 12 19 11 20 10 21
REMARK SMILES IDX 9 22 8 23 7 24 6 25 5 26 4 27 3 28 2 29 1 30
REMARK H PARENT
REMARK Flexibility Score: inf
ROOT
ATOM      1  C   UNL     1     134.698 140.202 131.729  1.00  0.00     0.000 C 
ENDROOT
BRANCH   1   2
ATOM      2  C   UNL     1     134.114 139.327 130.606  1.00  0.00     0.000 C 
BRANCH   2   3
ATOM      3  C   UNL     1     132.617 139.583 130.364  1.00  0.00     0.000 C 
BRANCH   3   4
ATOM      4  C   UNL     1     132.090 140.797 131.148  1.00  0.00     0.000 C 
BRANCH   4   5
ATOM      5  C   UNL     1     131.239 141.764 130.297  1.00  0.00     0.000 C 
BRANCH   5   6
ATOM      6  C   UNL     1     131.885 143.156 130.173  1.00  0.00     0.000 C 
BRANCH   6   7
ATOM      7  C   UNL     1     133.331 143.092 129.636  1.00  0.00     0.000 C 
BRANCH   7   8
ATOM      8  C   UNL     1     134.334 143.942 130.440  1.00  0.00     0.000 C 
BRANCH   8   9
ATOM      9  C   UNL     1     133.730 144.724 131.621  1.00  0.00     0.000 C 
BRANCH   9  10
ATOM     10  C   UNL     1     134.572 144.700 132.910  1.00  0.00     0.000 C 
BRANCH  10  11
ATOM     11  C   UNL     1     134.465 143.366 133.670  1.00  0.00     0.000 C 
BRANCH  11  12
ATOM     12  C   UNL     1     133.028 143.053 134.129  1.00  0.00     0.006 C 
BRANCH  12  13
ATOM     13  C   UNL     1     132.406 144.145 135.018  1.00  0.00     0.053 C 
BRANCH  13  14
ATOM     14  C   UNL     1     131.944 143.620 136.343  1.00  0.00     0.041 C 
ATOM     15  O   UNL     1     130.750 143.250 136.499  1.00  0.00    -0.550 OA
ATOM     16  O   UNL     1     132.825 143.570 137.416  1.00  0.00    -0.550 OA
ENDBRANCH  13  14
ENDBRANCH  12  13
ENDBRANCH  11  12
ENDBRANCH  10  11
ENDBRANCH   9  10
ENDBRANCH   8   9
ENDBRANCH   7   8
ENDBRANCH   6   7
ENDBRANCH   5   6
ENDBRANCH   4   5
ENDBRANCH   3   4
ENDBRANCH   2   3
ENDBRANCH   1   2
BRANCH   1  17
ATOM     17  C   UNL     1     136.031 140.863 131.339  1.00  0.00     0.000 C 
BRANCH  17  18
ATOM     18  C   UNL     1     136.560 140.371 129.981  1.00  0.00     0.000 C 
BRANCH  18  19
ATOM     19  C   UNL     1     136.662 141.498 128.940  1.00  0.00     0.000 C 
BRANCH  19  20
ATOM     20  C   UNL     1     137.976 141.458 128.140  1.00  0.00     0.000 C 
BRANCH  20  21
ATOM     21  C   UNL     1     139.242 141.498 129.023  1.00  0.00     0.000 C 
BRANCH  21  22
ATOM     22  C   UNL     1     140.141 142.703 128.697  1.00  0.00    -0.000 C 
BRANCH  22  23
ATOM     23  C   UNL     1     140.040 143.825 129.744  1.00  0.00    -0.000 C 
BRANCH  23  24
ATOM     24  C   UNL     1     139.001 144.910 129.384  1.00  0.00    -0.000 C 
BRANCH  24  25
ATOM     25  C   UNL     1     137.899 145.035 130.450  1.00  0.00    -0.000 C 
BRANCH  25  26
ATOM     26  C   UNL     1     137.934 143.901 131.489  1.00  0.00    -0.000 C 
BRANCH  26  27
ATOM     27  C   UNL     1     138.290 144.373 132.914  1.00  0.00    -0.000 C 
BRANCH  27  28
ATOM     28  C   UNL     1     138.999 143.278 133.729  1.00  0.00    -0.000 C 
BRANCH  28  29
ATOM     29  C   UNL     1     139.720 142.253 132.838  1.00  0.00    -0.003 C 
ATOM     30  C   UNL     1     139.258 140.819 133.097  1.00  0.00     0.004 C 
ENDBRANCH  28  29
ENDBRANCH  27  28
ENDBRANCH  26  27
ENDBRANCH  25  26
ENDBRANCH  24  25
ENDBRANCH  23  24
ENDBRANCH  22  23
ENDBRANCH  21  22
ENDBRANCH  20  21
ENDBRANCH  19  20
ENDBRANCH  18  19
ENDBRANCH  17  18
ENDBRANCH   1  17
TORSDOF 26
ENDMDL
MODEL 8
REMARK VINA RESULT:    -2.790      2.247      5.208
REMARK INTER + INTRA:         -12.777
REMARK INTER:                  -7.254
REMARK INTRA:                  -5.523
REMARK UNBOUND:                -5.748
REMARK SMILES CCCCCCCCCCCCCCCCCCCCCCCCCCCC(=O)[O-]
REMARK SMILES IDX 15 1 16 2 17 3 18 4 19 5 20 6 21 7 22 8 23 9 24 10 25 11
REMARK SMILES IDX 26 12 27 13 28 14 29 15 30 16 14 17 13 18 12 19 11 20 10 21
REMARK SMILES IDX 9 22 8 23 7 24 6 25 5 26 4 27 3 28 2 29 1 30
REMARK H PARENT
REMARK Flexibility Score: inf
ROOT
ATOM      1  C   UNL     1     138.046 141.412 130.322  1.00  0.00     0.000 C 
ENDROOT
BRANCH   1   2
ATOM      2  C   UNL     1     138.292 142.247 129.053  1.00  0.00     0.000 C 
BRANCH   2   3
ATOM      3  C   UNL     1     139.318 143.372 129.265  1.00  0.00     0.000 C 
BRANCH   3   4
ATOM      4  C   UNL     1     138.661 144.755 129.404  1.00  0.00     0.000 C 
BRANCH   4   5
ATOM      5  C   UNL     1     138.292 145.123 130.858  1.00  0.00     0.000 C 
BRANCH   5   6
ATOM      6  C   UNL     1     139.397 144.734 131.857  1.00  0.00     0.000 C 
BRANCH   6   7
ATOM      7  C   UNL     1     138.834 144.086 133.141  1.00  0.00     0.000 C 
BRANCH   7   8
ATOM      8  C   UNL     1     137.299 144.167 133.259  1.00  0.00     0.000 C 
BRANCH   8   9
ATOM      9  C   UNL     1     136.620 142.908 133.827  1.00  0.00     0.000 C 
BRANCH   9  10
ATOM     10  C   UNL     1     135.101 143.037 134.050  1.00  0.00     0.000 C 
BRANCH  10  11
ATOM     11  C   UNL     1     134.623 144.500 134.073  1.00  0.00     0.000 C 
BRANCH  11  12
ATOM     12  C   UNL     1     133.302 144.685 134.843  1.00  0.00     0.006 C 
BRANCH  12  13
ATOM     13  C   UNL     1     133.407 144.364 136.345  1.00  0.00     0.053 C 
BRANCH  13  14
ATOM     14  C   UNL     1     132.471 143.274 136.773  1.00  0.00     0.041 C 
ATOM     15  O   UNL     1     131.387 143.557 137.348  1.00  0.00    -0.550 OA
ATOM     16  O   UNL     1     132.812 141.943 136.563  1.00  0.00    -0.550 OA
ENDBRANCH  13  14
ENDBRANCH  12  13
ENDBRANCH  11  12
ENDBRANCH  10  11
ENDBRANCH   9  10
ENDBRANCH   8   9
ENDBRANCH   7   8
ENDBRANCH   6   7
ENDBRANCH   5   6
ENDBRANCH   4   5
ENDBRANCH   3   4
ENDBRANCH   2   3
ENDBRANCH   1   2
BRANCH   1  17
ATOM     17  C   UNL     1     136.571 141.405 130.756  1.00  0.00     0.000 C 
BRANCH  17  18
ATOM     18  C   UNL     1     135.658 142.137 129.758  1.00  0.00     0.000 C 
BRANCH  18  19
ATOM     19  C   UNL     1     135.045 143.419 130.345  1.00  0.00     0.000 C 
BRANCH  19  20
ATOM     20  C   UNL     1     133.560 143.595 129.981  1.00  0.00     0.000 C 
BRANCH  20  21
ATOM     21  C   UNL     1     132.651 143.884 131.195  1.00  0.00     0.000 C 
BRANCH  21  22
ATOM     22  C   UNL     1     131.867 142.638 131.644  1.00  0.00    -0.000 C 
BRANCH  22  23
ATOM     23  C   UNL     1     131.607 141.649 130.495  1.00  0.00    -0.000 C 
BRANCH  23  24
ATOM     24  C   UNL     1     132.309 140.287 130.685  1.00  0.00    -0.000 C 
BRANCH  24  25
ATOM     25  C   UNL     1     133.216 140.270 131.928  1.00  0.00    -0.000 C 
BRANCH  25  26
ATOM     26  C   UNL     1     134.122 139.028 131.995  1.00  0.00    -0.000 C 
BRANCH  26  27
ATOM     27  C   UNL     1     134.059 138.143 130.732  1.00  0.00    -0.000 C 
BRANCH  27  28
ATOM     28  C   UNL     1     135.449 137.919 130.110  1.00  0.00    -0.000 C 
BRANCH  28  29
ATOM     29  C   UNL     1     135.401 137.829 128.577  1.00  0.00    -0.003 C 
ATOM     30  C   UNL     1     136.021 139.049 127.895  1.00  0.00     0.004 C 
ENDBRANCH  28  29
ENDBRANCH  27  28
ENDBRANCH  26  27
ENDBRANCH  25  26
ENDBRANCH  24  25
ENDBRANCH  23  24
ENDBRANCH  22  23
ENDBRANCH  21  22
ENDBRANCH  20  21
ENDBRANCH  19  20
ENDBRANCH  18  19
ENDBRANCH  17  18
ENDBRANCH   1  17
TORSDOF 26
ENDMDL
MODEL 9
REMARK VINA RESULT:    -2.745      7.814     11.663
REMARK INTER + INTRA:         -12.666
REMARK INTER:                  -7.767
REMARK INTRA:                  -4.898
REMARK UNBOUND:                -5.748
REMARK SMILES CCCCCCCCCCCCCCCCCCCCCCCCCCCC(=O)[O-]
REMARK SMILES IDX 15 1 16 2 17 3 18 4 19 5 20 6 21 7 22 8 23 9 24 10 25 11
REMARK SMILES IDX 26 12 27 13 28 14 29 15 30 16 14 17 13 18 12 19 11 20 10 21
REMARK SMILES IDX 9 22 8 23 7 24 6 25 5 26 4 27 3 28 2 29 1 30
REMARK H PARENT
REMARK Flexibility Score: inf
ROOT
ATOM      1  C   UNL     1     133.763 142.273 142.246  1.00  0.00     0.000 C 
ENDROOT
BRANCH   1   2
ATOM      2  C   UNL     1     132.991 143.519 141.776  1.00  0.00     0.000 C 
BRANCH   2   3
ATOM      3  C   UNL     1     133.701 144.270 140.638  1.00  0.00     0.000 C 
BRANCH   3   4
ATOM      4  C   UNL     1     134.724 143.393 139.897  1.00  0.00     0.000 C 
BRANCH   4   5
ATOM      5  C   UNL     1     134.673 143.543 138.361  1.00  0.00     0.000 C 
BRANCH   5   6
ATOM      6  C   UNL     1     133.463 144.373 137.896  1.00  0.00     0.000 C 
BRANCH   6   7
ATOM      7  C   UNL     1     132.746 143.744 136.681  1.00  0.00     0.000 C 
BRANCH   7   8
ATOM      8  C   UNL     1     131.289 143.329 136.962  1.00  0.00     0.000 C 
BRANCH   8   9
ATOM      9  C   UNL     1     130.897 143.287 138.451  1.00  0.00     0.000 C 
BRANCH   9  10
ATOM     10  C   UNL     1     130.697 141.872 139.026  1.00  0.00     0.000 C 
BRANCH  10  11
ATOM     11  C   UNL     1     132.011 141.079 139.130  1.00  0.00     0.000 C 
BRANCH  11  12
ATOM     12  C   UNL     1     132.094 139.922 138.116  1.00  0.00     0.006 C 
BRANCH  12  13
ATOM     13  C   UNL     1     133.357 139.954 137.237  1.00  0.00     0.053 C 
BRANCH  13  14
ATOM     14  C   UNL     1     134.522 139.254 137.870  1.00  0.00     0.041 C 
ATOM     15  O   UNL     1     134.398 138.079 138.304  1.00  0.00    -0.550 OA
ATOM     16  O   UNL     1     135.738 139.914 138.007  1.00  0.00    -0.550 OA
ENDBRANCH  13  14
ENDBRANCH  12  13
ENDBRANCH  11  12
ENDBRANCH  10  11
ENDBRANCH   9  10
ENDBRANCH   8   9
ENDBRANCH   7   8
ENDBRANCH   6   7
ENDBRANCH   5   6
ENDBRANCH   4   5
ENDBRANCH   3   4
ENDBRANCH   2   3
ENDBRANCH   1   2
BRANCH   1  17
ATOM     17  C   UNL     1     133.151 141.629 143.500  1.00  0.00     0.000 C 
BRANCH  17  18
ATOM     18  C   UNL     1     131.787 142.236 143.871  1.00  0.00     0.000 C 
BRANCH  18  19
ATOM     19  C   UNL     1     131.730 142.721 145.330  1.00  0.00     0.000 C 
BRANCH  19  20
ATOM     20  C   UNL     1     130.973 141.751 146.254  1.00  0.00     0.000 C 
BRANCH  20  21
ATOM     21  C   UNL     1     129.563 141.380 145.746  1.00  0.00     0.000 C 
BRANCH  21  22
ATOM     22  C   UNL     1     129.307 139.864 145.797  1.00  0.00    -0.000 C 
BRANCH  22  23
ATOM     23  C   UNL     1     130.567 139.056 146.150  1.00  0.00    -0.000 C 
BRANCH  23  24
ATOM     24  C   UNL     1     131.339 138.549 144.912  1.00  0.00    -0.000 C 
BRANCH  24  25
ATOM     25  C   UNL     1     130.421 138.358 143.693  1.00  0.00    -0.000 C 
BRANCH  25  26
ATOM     26  C   UNL     1     130.968 139.022 142.417  1.00  0.00    -0.000 C 
BRANCH  26  27
ATOM     27  C   UNL     1     130.669 138.229 141.127  1.00  0.00    -0.000 C 
BRANCH  27  28
ATOM     28  C   UNL     1     129.427 137.332 141.270  1.00  0.00    -0.000 C 
BRANCH  28  29
ATOM     29  C   UNL     1     128.331 137.675 140.249  1.00  0.00    -0.003 C 
ATOM     30  C   UNL     1     128.622 138.967 139.483  1.00  0.00     0.004 C 
ENDBRANCH  28  29
ENDBRANCH  27  28
ENDBRANCH  26  27
ENDBRANCH  25  26
ENDBRANCH  24  25
ENDBRANCH  23  24
ENDBRANCH  22  23
ENDBRANCH  21  22
ENDBRANCH  20  21
ENDBRANCH  19  20
ENDBRANCH  18  19
ENDBRANCH  17  18
ENDBRANCH   1  17
TORSDOF 26
ENDMDL
