MODEL 1
REMARK VINA RESULT:    -4.777      0.000      0.000
REMARK INTER + INTRA:          -5.419
REMARK INTER:                  -5.196
REMARK INTRA:                  -0.223
REMARK UNBOUND:                -0.223
REMARK SMILES C[C@H]1[C@H]2C3=CC[C@@H]4[C@@]5(C)CC[C@@H](O)C(C)(C)[C@@H]5CC[C@]4(C)[C@]3(C)CC[C@@]2(C(=O)[O-])CC[C@@H]1C
REMARK SMILES IDX 26 1 30 2 25 3 3 4 31 5 24 6 4 7 2 8 32 9 22 10 5 11 1 12
REMARK SMILES IDX 33 13 23 14 20 15 6 16 7 17 19 18 21 19 8 20 18 21 17 22
REMARK SMILES IDX 10 23 9 24 14 25 11 26 12 27 15 28 16 29 27 30 28 31 29 32
REMARK SMILES IDX 13 33
REMARK H PARENT 13 34
REMARK Flexibility Score: inf
ROOT
ATOM      1  C   UNL     1     -23.819  51.429  45.115  1.00  0.00     0.017 C 
ATOM      2  C   UNL     1     -23.230  52.891  45.125  1.00  0.00     0.014 C 
ATOM      3  C   UNL     1     -22.761  50.468  44.497  1.00  0.00     0.014 C 
ATOM      4  C   UNL     1     -25.215  51.394  44.348  1.00  0.00     0.030 C 
ATOM      5  C   UNL     1     -23.701  53.734  43.928  1.00  0.00     0.004 C 
ATOM      6  C   UNL     1     -23.390  49.300  43.734  1.00  0.00     0.013 C 
ATOM      7  C   UNL     1     -25.110  50.920  42.862  1.00  0.00    -0.063 C 
ATOM      8  C   UNL     1     -25.958  52.744  44.633  1.00  0.00    -0.003 C 
ATOM      9  C   UNL     1     -25.242  53.928  43.926  1.00  0.00    -0.011 C 
ATOM     10  C   UNL     1     -24.160  49.786  42.466  1.00  0.00    -0.006 C 
ATOM     11  C   UNL     1     -26.030  51.267  41.947  1.00  0.00    -0.027 C 
ATOM     12  C   UNL     1     -27.495  52.713  44.433  1.00  0.00     0.008 C 
ATOM     13  C   UNL     1     -25.617  55.271  44.572  1.00  0.00     0.008 C 
ATOM     14  C   UNL     1     -23.097  50.367  41.470  1.00  0.00     0.017 C 
ATOM     15  C   UNL     1     -25.024  48.597  41.805  1.00  0.00    -0.020 C 
ATOM     16  C   UNL     1     -26.128  50.643  40.574  1.00  0.00     0.032 C 
ATOM     17  C   UNL     1     -25.773  49.098  40.480  1.00  0.00     0.006 C 
ATOM     18  C   UNL     1     -26.083  48.060  42.864  1.00  0.00     0.008 C 
ATOM     19  C   UNL     1     -24.022  47.446  41.436  1.00  0.00     0.012 C 
ATOM     20  C   UNL     1     -26.925  48.102  39.874  1.00  0.00    -0.025 C 
ATOM     21  C   UNL     1     -27.479  47.707  42.311  1.00  0.00     0.005 C 
ATOM     22  C   UNL     1     -27.319  47.029  40.949  1.00  0.00     0.003 C 
ATOM     23  C   UNL     1     -26.389  47.311  38.634  1.00  0.00     0.010 C 
ATOM     24  C   UNL     1     -28.163  48.917  39.367  1.00  0.00     0.012 C 
ATOM     25  C   UNL     1     -28.348  45.909  40.533  1.00  0.00    -0.006 C 
ATOM     26  C   UNL     1     -27.350  46.203  38.131  1.00  0.00     0.033 C 
ATOM     27  C   UNL     1     -27.791  45.212  39.236  1.00  0.00     0.120 C 
ATOM     28  C   UNL     1     -29.800  46.421  40.316  1.00  0.00     0.014 C 
ATOM     29  C   UNL     1     -28.434  44.824  41.656  1.00  0.00     0.014 C 
ENDROOT
BRANCH   1  30
ATOM     30  C   UNL     1     -24.039  50.949  46.553  1.00  0.00     0.048 C 
ATOM     31  O   UNL     1     -23.209  51.225  47.467  1.00  0.00    -0.550 OA
ATOM     32  O   UNL     1     -25.087  50.081  46.845  1.00  0.00    -0.550 OA
ENDBRANCH   1  30
BRANCH  27  33
ATOM     33  O   UNL     1     -26.690  44.394  39.565  1.00  0.00    -0.393 OA
ATOM     34  H   UNL     1     -25.915  44.996  39.735  1.00  0.00     0.210 HD
ENDBRANCH  27  33
TORSDOF 2
ENDMDL
MODEL 2
REMARK VINA RESULT:    -4.441      2.141      7.699
REMARK INTER + INTRA:          -5.053
REMARK INTER:                  -5.074
REMARK INTRA:                   0.021
REMARK UNBOUND:                -0.223
REMARK SMILES C[C@H]1[C@H]2C3=CC[C@@H]4[C@@]5(C)CC[C@@H](O)C(C)(C)[C@@H]5CC[C@]4(C)[C@]3(C)CC[C@@]2(C(=O)[O-])CC[C@@H]1C
REMARK SMILES IDX 26 1 30 2 25 3 3 4 31 5 24 6 4 7 2 8 32 9 22 10 5 11 1 12
REMARK SMILES IDX 33 13 23 14 20 15 6 16 7 17 19 18 21 19 8 20 18 21 17 22
REMARK SMILES IDX 10 23 9 24 14 25 11 26 12 27 15 28 16 29 27 30 28 31 29 32
REMARK SMILES IDX 13 33
REMARK H PARENT 13 34
REMARK Flexibility Score: inf
ROOT
ATOM      1  C   UNL     1     -27.197  47.302  40.854  1.00  0.00     0.017 C 
ATOM      2  C   UNL     1     -26.648  45.889  40.422  1.00  0.00     0.014 C 
ATOM      3  C   UNL     1     -26.741  48.357  39.805  1.00  0.00     0.014 C 
ATOM      4  C   UNL     1     -26.728  47.655  42.335  1.00  0.00     0.030 C 
ATOM      5  C   UNL     1     -25.346  45.506  41.144  1.00  0.00     0.004 C 
ATOM      6  C   UNL     1     -26.500  49.740  40.414  1.00  0.00     0.013 C 
ATOM      7  C   UNL     1     -25.470  48.580  42.398  1.00  0.00    -0.063 C 
ATOM      8  C   UNL     1     -26.698  46.324  43.163  1.00  0.00    -0.003 C 
ATOM      9  C   UNL     1     -25.544  45.400  42.682  1.00  0.00    -0.011 C 
ATOM     10  C   UNL     1     -25.295  49.733  41.405  1.00  0.00    -0.006 C 
ATOM     11  C   UNL     1     -24.663  48.597  43.472  1.00  0.00    -0.027 C 
ATOM     12  C   UNL     1     -26.781  46.495  44.702  1.00  0.00     0.008 C 
ATOM     13  C   UNL     1     -25.791  43.940  43.094  1.00  0.00     0.008 C 
ATOM     14  C   UNL     1     -24.002  49.455  40.561  1.00  0.00     0.017 C 
ATOM     15  C   UNL     1     -25.196  51.113  42.230  1.00  0.00    -0.020 C 
ATOM     16  C   UNL     1     -23.592  49.637  43.703  1.00  0.00     0.032 C 
ATOM     17  C   UNL     1     -23.927  51.109  43.209  1.00  0.00     0.006 C 
ATOM     18  C   UNL     1     -26.533  51.329  43.065  1.00  0.00     0.008 C 
ATOM     19  C   UNL     1     -25.041  52.271  41.179  1.00  0.00     0.012 C 
ATOM     20  C   UNL     1     -23.868  52.304  44.329  1.00  0.00    -0.025 C 
ATOM     21  C   UNL     1     -26.363  51.911  44.482  1.00  0.00     0.005 C 
ATOM     22  C   UNL     1     -25.276  52.987  44.453  1.00  0.00     0.003 C 
ATOM     23  C   UNL     1     -22.866  53.428  43.900  1.00  0.00     0.010 C 
ATOM     24  C   UNL     1     -23.349  51.762  45.704  1.00  0.00     0.012 C 
ATOM     25  C   UNL     1     -25.412  54.232  45.411  1.00  0.00    -0.006 C 
ATOM     26  C   UNL     1     -22.906  54.686  44.806  1.00  0.00     0.033 C 
ATOM     27  C   UNL     1     -24.324  55.284  44.979  1.00  0.00     0.120 C 
ATOM     28  C   UNL     1     -25.295  53.891  46.923  1.00  0.00     0.014 C 
ATOM     29  C   UNL     1     -26.816  54.895  45.223  1.00  0.00     0.014 C 
ENDROOT
BRANCH   1  30
ATOM     30  C   UNL     1     -28.728  47.298  40.814  1.00  0.00     0.048 C 
ATOM     31  O   UNL     1     -29.404  46.789  41.755  1.00  0.00    -0.550 OA
ATOM     32  O   UNL     1     -29.397  47.732  39.673  1.00  0.00    -0.550 OA
ENDBRANCH   1  30
BRANCH  27  33
ATOM     33  O   UNL     1     -24.701  55.895  43.765  1.00  0.00    -0.393 OA
ATOM     34  H   UNL     1     -24.178  55.456  43.038  1.00  0.00     0.210 HD
ENDBRANCH  27  33
TORSDOF 2
ENDMDL
MODEL 3
REMARK VINA RESULT:    -4.436      1.808      2.709
REMARK INTER + INTRA:          -5.048
REMARK INTER:                  -4.845
REMARK INTRA:                  -0.202
REMARK UNBOUND:                -0.223
REMARK SMILES C[C@H]1[C@H]2C3=CC[C@@H]4[C@@]5(C)CC[C@@H](O)C(C)(C)[C@@H]5CC[C@]4(C)[C@]3(C)CC[C@@]2(C(=O)[O-])CC[C@@H]1C
REMARK SMILES IDX 26 1 30 2 25 3 3 4 31 5 24 6 4 7 2 8 32 9 22 10 5 11 1 12
REMARK SMILES IDX 33 13 23 14 20 15 6 16 7 17 19 18 21 19 8 20 18 21 17 22
REMARK SMILES IDX 10 23 9 24 14 25 11 26 12 27 15 28 16 29 27 30 28 31 29 32
REMARK SMILES IDX 13 33
REMARK H PARENT 13 34
REMARK Flexibility Score: inf
ROOT
ATOM      1  C   UNL     1     -25.069  52.987  44.812  1.00  0.00     0.017 C 
ATOM      2  C   UNL     1     -23.854  53.867  45.297  1.00  0.00     0.014 C 
ATOM      3  C   UNL     1     -24.987  51.596  45.506  1.00  0.00     0.014 C 
ATOM      4  C   UNL     1     -25.088  52.888  43.222  1.00  0.00     0.030 C 
ATOM      5  C   UNL     1     -22.674  53.853  44.312  1.00  0.00     0.004 C 
ATOM      6  C   UNL     1     -25.535  50.462  44.637  1.00  0.00     0.013 C 
ATOM      7  C   UNL     1     -24.445  51.579  42.661  1.00  0.00    -0.063 C 
ATOM      8  C   UNL     1     -24.581  54.255  42.646  1.00  0.00    -0.003 C 
ATOM      9  C   UNL     1     -23.065  54.446  42.930  1.00  0.00    -0.011 C 
ATOM     10  C   UNL     1     -24.661  50.236  43.364  1.00  0.00    -0.006 C 
ATOM     11  C   UNL     1     -23.942  51.521  41.416  1.00  0.00    -0.027 C 
ATOM     12  C   UNL     1     -25.003  54.560  41.186  1.00  0.00     0.008 C 
ATOM     13  C   UNL     1     -22.665  55.928  42.846  1.00  0.00     0.008 C 
ATOM     14  C   UNL     1     -23.264  49.709  43.845  1.00  0.00     0.017 C 
ATOM     15  C   UNL     1     -25.368  49.221  42.331  1.00  0.00    -0.020 C 
ATOM     16  C   UNL     1     -23.545  50.235  40.729  1.00  0.00     0.032 C 
ATOM     17  C   UNL     1     -24.440  48.963  41.050  1.00  0.00     0.006 C 
ATOM     18  C   UNL     1     -26.773  49.818  41.880  1.00  0.00     0.008 C 
ATOM     19  C   UNL     1     -25.595  47.867  43.094  1.00  0.00     0.012 C 
ATOM     20  C   UNL     1     -25.147  48.207  39.780  1.00  0.00    -0.025 C 
ATOM     21  C   UNL     1     -27.148  49.627  40.397  1.00  0.00     0.005 C 
ATOM     22  C   UNL     1     -26.707  48.234  39.946  1.00  0.00     0.003 C 
ATOM     23  C   UNL     1     -24.733  46.697  39.723  1.00  0.00     0.010 C 
ATOM     24  C   UNL     1     -24.684  48.835  38.422  1.00  0.00     0.012 C 
ATOM     25  C   UNL     1     -27.577  47.470  38.875  1.00  0.00    -0.006 C 
ATOM     26  C   UNL     1     -25.517  45.870  38.673  1.00  0.00     0.033 C 
ATOM     27  C   UNL     1     -27.054  45.987  38.808  1.00  0.00     0.120 C 
ATOM     28  C   UNL     1     -27.581  48.129  37.466  1.00  0.00     0.014 C 
ATOM     29  C   UNL     1     -29.071  47.428  39.337  1.00  0.00     0.014 C 
ENDROOT
BRANCH   1  30
ATOM     30  C   UNL     1     -26.385  53.616  45.279  1.00  0.00     0.048 C 
ATOM     31  O   UNL     1     -27.487  53.298  44.744  1.00  0.00    -0.550 OA
ATOM     32  O   UNL     1     -26.371  54.654  46.206  1.00  0.00    -0.550 OA
ENDBRANCH   1  30
BRANCH  27  33
ATOM     33  O   UNL     1     -27.455  45.284  39.963  1.00  0.00    -0.393 OA
ATOM     34  H   UNL     1     -28.443  45.162  39.907  1.00  0.00     0.210 HD
ENDBRANCH  27  33
TORSDOF 2
ENDMDL
MODEL 4
REMARK VINA RESULT:    -4.317      3.092      5.548
REMARK INTER + INTRA:          -4.918
REMARK INTER:                  -4.698
REMARK INTRA:                  -0.220
REMARK UNBOUND:                -0.223
REMARK SMILES C[C@H]1[C@H]2C3=CC[C@@H]4[C@@]5(C)CC[C@@H](O)C(C)(C)[C@@H]5CC[C@]4(C)[C@]3(C)CC[C@@]2(C(=O)[O-])CC[C@@H]1C
REMARK SMILES IDX 26 1 30 2 25 3 3 4 31 5 24 6 4 7 2 8 32 9 22 10 5 11 1 12
REMARK SMILES IDX 33 13 23 14 20 15 6 16 7 17 19 18 21 19 8 20 18 21 17 22
REMARK SMILES IDX 10 23 9 24 14 25 11 26 12 27 15 28 16 29 27 30 28 31 29 32
REMARK SMILES IDX 13 33
REMARK H PARENT 13 34
REMARK Flexibility Score: inf
ROOT
ATOM      1  C   UNL     1     -24.489  55.494  46.555  1.00  0.00     0.017 C 
ATOM      2  C   UNL     1     -25.180  55.585  47.970  1.00  0.00     0.014 C 
ATOM      3  C   UNL     1     -25.525  55.902  45.466  1.00  0.00     0.014 C 
ATOM      4  C   UNL     1     -23.883  54.040  46.322  1.00  0.00     0.030 C 
ATOM      5  C   UNL     1     -25.696  54.226  48.472  1.00  0.00     0.004 C 
ATOM      6  C   UNL     1     -25.317  55.168  44.140  1.00  0.00     0.013 C 
ATOM      7  C   UNL     1     -24.800  53.098  45.478  1.00  0.00    -0.063 C 
ATOM      8  C   UNL     1     -23.359  53.507  47.700  1.00  0.00    -0.003 C 
ATOM      9  C   UNL     1     -24.543  53.201  48.660  1.00  0.00    -0.011 C 
ATOM     10  C   UNL     1     -25.587  53.637  44.280  1.00  0.00    -0.006 C 
ATOM     11  C   UNL     1     -24.714  51.761  45.575  1.00  0.00    -0.027 C 
ATOM     12  C   UNL     1     -22.295  52.383  47.619  1.00  0.00     0.008 C 
ATOM     13  C   UNL     1     -24.080  53.174  50.125  1.00  0.00     0.008 C 
ATOM     14  C   UNL     1     -27.116  53.459  44.581  1.00  0.00     0.017 C 
ATOM     15  C   UNL     1     -25.131  52.832  42.960  1.00  0.00    -0.020 C 
ATOM     16  C   UNL     1     -25.381  50.803  44.616  1.00  0.00     0.032 C 
ATOM     17  C   UNL     1     -25.455  51.268  43.099  1.00  0.00     0.006 C 
ATOM     18  C   UNL     1     -23.574  53.050  42.718  1.00  0.00     0.008 C 
ATOM     19  C   UNL     1     -25.939  53.428  41.752  1.00  0.00     0.012 C 
ATOM     20  C   UNL     1     -24.777  50.282  41.980  1.00  0.00    -0.025 C 
ATOM     21  C   UNL     1     -22.782  51.818  42.233  1.00  0.00     0.005 C 
ATOM     22  C   UNL     1     -23.632  51.044  41.224  1.00  0.00     0.003 C 
ATOM     23  C   UNL     1     -25.822  49.861  40.893  1.00  0.00     0.010 C 
ATOM     24  C   UNL     1     -24.272  48.952  42.635  1.00  0.00     0.012 C 
ATOM     25  C   UNL     1     -22.911  50.302  40.034  1.00  0.00    -0.006 C 
ATOM     26  C   UNL     1     -25.208  49.095  39.693  1.00  0.00     0.033 C 
ATOM     27  C   UNL     1     -24.023  49.833  39.024  1.00  0.00     0.120 C 
ATOM     28  C   UNL     1     -22.012  49.111  40.473  1.00  0.00     0.014 C 
ATOM     29  C   UNL     1     -21.971  51.299  39.279  1.00  0.00     0.014 C 
ENDROOT
BRANCH   1  30
ATOM     30  C   UNL     1     -23.354  56.518  46.466  1.00  0.00     0.048 C 
ATOM     31  O   UNL     1     -23.494  57.689  46.924  1.00  0.00    -0.550 OA
ATOM     32  O   UNL     1     -22.197  56.216  45.754  1.00  0.00    -0.550 OA
ENDBRANCH   1  30
BRANCH  27  33
ATOM     33  O   UNL     1     -24.531  50.944  38.319  1.00  0.00    -0.393 OA
ATOM     34  H   UNL     1     -25.109  50.591  37.588  1.00  0.00     0.210 HD
ENDBRANCH  27  33
TORSDOF 2
ENDMDL
MODEL 5
REMARK VINA RESULT:    -4.144      2.551      7.788
REMARK INTER + INTRA:          -4.730
REMARK INTER:                  -4.507
REMARK INTRA:                  -0.223
REMARK UNBOUND:                -0.223
REMARK SMILES C[C@H]1[C@H]2C3=CC[C@@H]4[C@@]5(C)CC[C@@H](O)C(C)(C)[C@@H]5CC[C@]4(C)[C@]3(C)CC[C@@]2(C(=O)[O-])CC[C@@H]1C
REMARK SMILES IDX 26 1 30 2 25 3 3 4 31 5 24 6 4 7 2 8 32 9 22 10 5 11 1 12
REMARK SMILES IDX 33 13 23 14 20 15 6 16 7 17 19 18 21 19 8 20 18 21 17 22
REMARK SMILES IDX 10 23 9 24 14 25 11 26 12 27 15 28 16 29 27 30 28 31 29 32
REMARK SMILES IDX 13 33
REMARK H PARENT 13 34
REMARK Flexibility Score: inf
ROOT
ATOM      1  C   UNL     1     -24.653  47.878  42.263  1.00  0.00     0.017 C 
ATOM      2  C   UNL     1     -24.084  47.339  40.895  1.00  0.00     0.014 C 
ATOM      3  C   UNL     1     -26.054  48.506  42.009  1.00  0.00     0.014 C 
ATOM      4  C   UNL     1     -23.627  48.897  42.932  1.00  0.00     0.030 C 
ATOM      5  C   UNL     1     -23.115  48.323  40.221  1.00  0.00     0.004 C 
ATOM      6  C   UNL     1     -26.362  49.678  42.943  1.00  0.00     0.013 C 
ATOM      7  C   UNL     1     -23.965  50.400  42.671  1.00  0.00    -0.063 C 
ATOM      8  C   UNL     1     -22.175  48.406  42.604  1.00  0.00    -0.003 C 
ATOM      9  C   UNL     1     -21.858  48.591  41.094  1.00  0.00    -0.011 C 
ATOM     10  C   UNL     1     -25.415  50.890  42.680  1.00  0.00    -0.006 C 
ATOM     11  C   UNL     1     -23.018  51.352  42.721  1.00  0.00    -0.027 C 
ATOM     12  C   UNL     1     -21.067  48.921  43.558  1.00  0.00     0.008 C 
ATOM     13  C   UNL     1     -20.694  47.687  40.655  1.00  0.00     0.008 C 
ATOM     14  C   UNL     1     -25.752  51.442  41.251  1.00  0.00     0.017 C 
ATOM     15  C   UNL     1     -25.569  52.021  43.818  1.00  0.00    -0.020 C 
ATOM     16  C   UNL     1     -23.315  52.833  42.732  1.00  0.00     0.032 C 
ATOM     17  C   UNL     1     -24.625  53.280  43.511  1.00  0.00     0.006 C 
ATOM     18  C   UNL     1     -25.208  51.398  45.237  1.00  0.00     0.008 C 
ATOM     19  C   UNL     1     -27.071  52.481  43.814  1.00  0.00     0.012 C 
ATOM     20  C   UNL     1     -24.440  54.364  44.725  1.00  0.00    -0.025 C 
ATOM     21  C   UNL     1     -24.408  52.304  46.194  1.00  0.00     0.005 C 
ATOM     22  C   UNL     1     -24.930  53.737  46.078  1.00  0.00     0.003 C 
ATOM     23  C   UNL     1     -25.319  55.637  44.482  1.00  0.00     0.010 C 
ATOM     24  C   UNL     1     -22.960  54.869  44.808  1.00  0.00     0.012 C 
ATOM     25  C   UNL     1     -24.928  54.654  47.361  1.00  0.00    -0.006 C 
ATOM     26  C   UNL     1     -25.354  56.616  45.683  1.00  0.00     0.033 C 
ATOM     27  C   UNL     1     -25.756  55.948  47.020  1.00  0.00     0.120 C 
ATOM     28  C   UNL     1     -23.511  55.015  47.887  1.00  0.00     0.014 C 
ATOM     29  C   UNL     1     -25.654  53.921  48.537  1.00  0.00     0.014 C 
ENDROOT
BRANCH   1  30
ATOM     30  C   UNL     1     -24.881  46.709  43.227  1.00  0.00     0.048 C 
ATOM     31  O   UNL     1     -25.321  45.598  42.812  1.00  0.00    -0.550 OA
ATOM     32  O   UNL     1     -24.738  46.899  44.598  1.00  0.00    -0.550 OA
ENDBRANCH   1  30
BRANCH  27  33
ATOM     33  O   UNL     1     -27.131  55.640  46.969  1.00  0.00    -0.393 OA
ATOM     34  H   UNL     1     -27.234  54.846  46.376  1.00  0.00     0.210 HD
ENDBRANCH  27  33
TORSDOF 2
ENDMDL
MODEL 6
REMARK VINA RESULT:    -4.098      8.749     10.241
REMARK INTER + INTRA:          -4.680
REMARK INTER:                  -4.457
REMARK INTRA:                  -0.223
REMARK UNBOUND:                -0.223
REMARK SMILES C[C@H]1[C@H]2C3=CC[C@@H]4[C@@]5(C)CC[C@@H](O)C(C)(C)[C@@H]5CC[C@]4(C)[C@]3(C)CC[C@@]2(C(=O)[O-])CC[C@@H]1C
REMARK SMILES IDX 26 1 30 2 25 3 3 4 31 5 24 6 4 7 2 8 32 9 22 10 5 11 1 12
REMARK SMILES IDX 33 13 23 14 20 15 6 16 7 17 19 18 21 19 8 20 18 21 17 22
REMARK SMILES IDX 10 23 9 24 14 25 11 26 12 27 15 28 16 29 27 30 28 31 29 32
REMARK SMILES IDX 13 33
REMARK H PARENT 13 34
REMARK Flexibility Score: inf
ROOT
ATOM      1  C   UNL     1     -24.797  58.721  36.090  1.00  0.00     0.017 C 
ATOM      2  C   UNL     1     -25.512  60.124  36.163  1.00  0.00     0.014 C 
ATOM      3  C   UNL     1     -23.961  58.654  34.778  1.00  0.00     0.014 C 
ATOM      4  C   UNL     1     -25.863  57.543  36.209  1.00  0.00     0.030 C 
ATOM      5  C   UNL     1     -26.968  60.079  35.671  1.00  0.00     0.004 C 
ATOM      6  C   UNL     1     -23.876  57.241  34.196  1.00  0.00     0.013 C 
ATOM      7  C   UNL     1     -26.293  56.936  34.835  1.00  0.00    -0.063 C 
ATOM      8  C   UNL     1     -26.995  58.012  37.187  1.00  0.00    -0.003 C 
ATOM      9  C   UNL     1     -27.847  59.142  36.543  1.00  0.00    -0.011 C 
ATOM     10  C   UNL     1     -25.269  56.730  33.714  1.00  0.00    -0.006 C 
ATOM     11  C   UNL     1     -27.472  56.311  34.681  1.00  0.00    -0.027 C 
ATOM     12  C   UNL     1     -27.824  56.877  37.839  1.00  0.00     0.008 C 
ATOM     13  C   UNL     1     -28.600  59.949  37.613  1.00  0.00     0.008 C 
ATOM     14  C   UNL     1     -25.696  57.621  32.496  1.00  0.00     0.017 C 
ATOM     15  C   UNL     1     -25.228  55.164  33.335  1.00  0.00    -0.020 C 
ATOM     16  C   UNL     1     -27.836  55.488  33.467  1.00  0.00     0.032 C 
ATOM     17  C   UNL     1     -26.654  54.664  32.800  1.00  0.00     0.006 C 
ATOM     18  C   UNL     1     -24.796  54.321  34.614  1.00  0.00     0.008 C 
ATOM     19  C   UNL     1     -24.154  54.989  32.204  1.00  0.00     0.012 C 
ATOM     20  C   UNL     1     -26.855  53.042  32.669  1.00  0.00    -0.025 C 
ATOM     21  C   UNL     1     -25.527  52.980  34.823  1.00  0.00     0.005 C 
ATOM     22  C   UNL     1     -25.724  52.301  33.466  1.00  0.00     0.003 C 
ATOM     23  C   UNL     1     -26.725  52.578  31.180  1.00  0.00     0.010 C 
ATOM     24  C   UNL     1     -28.287  52.614  33.135  1.00  0.00     0.012 C 
ATOM     25  C   UNL     1     -25.676  50.727  33.389  1.00  0.00    -0.006 C 
ATOM     26  C   UNL     1     -26.701  51.038  31.001  1.00  0.00     0.033 C 
ATOM     27  C   UNL     1     -25.633  50.327  31.867  1.00  0.00     0.120 C 
ATOM     28  C   UNL     1     -26.847  50.015  34.124  1.00  0.00     0.014 C 
ATOM     29  C   UNL     1     -24.362  50.202  34.057  1.00  0.00     0.014 C 
ENDROOT
BRANCH   1  30
ATOM     30  C   UNL     1     -23.792  58.590  37.239  1.00  0.00     0.048 C 
ATOM     31  O   UNL     1     -23.127  59.589  37.641  1.00  0.00    -0.550 OA
ATOM     32  O   UNL     1     -23.495  57.337  37.766  1.00  0.00    -0.550 OA
ENDBRANCH   1  30
BRANCH  27  33
ATOM     33  O   UNL     1     -24.360  50.615  31.331  1.00  0.00    -0.393 OA
ATOM     34  H   UNL     1     -23.689  50.424  32.043  1.00  0.00     0.210 HD
ENDBRANCH  27  33
TORSDOF 2
ENDMDL
MODEL 7
REMARK VINA RESULT:    -4.082      3.491      6.486
REMARK INTER + INTRA:          -4.663
REMARK INTER:                  -4.446
REMARK INTRA:                  -0.217
REMARK UNBOUND:                -0.223
REMARK SMILES C[C@H]1[C@H]2C3=CC[C@@H]4[C@@]5(C)CC[C@@H](O)C(C)(C)[C@@H]5CC[C@]4(C)[C@]3(C)CC[C@@]2(C(=O)[O-])CC[C@@H]1C
REMARK SMILES IDX 26 1 30 2 25 3 3 4 31 5 24 6 4 7 2 8 32 9 22 10 5 11 1 12
REMARK SMILES IDX 33 13 23 14 20 15 6 16 7 17 19 18 21 19 8 20 18 21 17 22
REMARK SMILES IDX 10 23 9 24 14 25 11 26 12 27 15 28 16 29 27 30 28 31 29 32
REMARK SMILES IDX 13 33
REMARK H PARENT 13 34
REMARK Flexibility Score: inf
ROOT
ATOM      1  C   UNL     1     -23.086  57.050  48.179  1.00  0.00     0.017 C 
ATOM      2  C   UNL     1     -23.673  58.426  48.675  1.00  0.00     0.014 C 
ATOM      3  C   UNL     1     -22.274  57.295  46.873  1.00  0.00     0.014 C 
ATOM      4  C   UNL     1     -24.250  55.979  47.995  1.00  0.00     0.030 C 
ATOM      5  C   UNL     1     -25.133  58.644  48.244  1.00  0.00     0.004 C 
ATOM      6  C   UNL     1     -22.321  56.108  45.909  1.00  0.00     0.013 C 
ATOM      7  C   UNL     1     -24.748  55.829  46.521  1.00  0.00    -0.063 C 
ATOM      8  C   UNL     1     -25.326  56.237  49.106  1.00  0.00    -0.003 C 
ATOM      9  C   UNL     1     -26.082  57.569  48.843  1.00  0.00    -0.011 C 
ATOM     10  C   UNL     1     -23.759  55.872  45.352  1.00  0.00    -0.006 C 
ATOM     11  C   UNL     1     -25.979  55.373  46.238  1.00  0.00    -0.027 C 
ATOM     12  C   UNL     1     -26.244  55.033  49.437  1.00  0.00     0.008 C 
ATOM     13  C   UNL     1     -26.749  58.093  50.125  1.00  0.00     0.008 C 
ATOM     14  C   UNL     1     -24.119  57.107  44.456  1.00  0.00     0.017 C 
ATOM     15  C   UNL     1     -23.861  54.483  44.541  1.00  0.00    -0.020 C 
ATOM     16  C   UNL     1     -26.428  54.967  44.854  1.00  0.00     0.032 C 
ATOM     17  C   UNL     1     -25.331  54.276  43.936  1.00  0.00     0.006 C 
ATOM     18  C   UNL     1     -23.491  53.276  45.508  1.00  0.00     0.008 C 
ATOM     19  C   UNL     1     -22.819  54.554  43.368  1.00  0.00     0.012 C 
ATOM     20  C   UNL     1     -25.676  52.783  43.356  1.00  0.00    -0.025 C 
ATOM     21  C   UNL     1     -24.335  51.995  45.352  1.00  0.00     0.005 C 
ATOM     22  C   UNL     1     -24.606  51.754  43.866  1.00  0.00     0.003 C 
ATOM     23  C   UNL     1     -25.604  52.757  41.791  1.00  0.00     0.010 C 
ATOM     24  C   UNL     1     -27.135  52.356  43.730  1.00  0.00     0.012 C 
ATOM     25  C   UNL     1     -24.698  50.270  43.341  1.00  0.00    -0.006 C 
ATOM     26  C   UNL     1     -25.718  51.337  41.180  1.00  0.00     0.033 C 
ATOM     27  C   UNL     1     -24.707  50.323  41.768  1.00  0.00     0.120 C 
ATOM     28  C   UNL     1     -25.919  49.474  43.883  1.00  0.00     0.014 C 
ATOM     29  C   UNL     1     -23.429  49.470  43.784  1.00  0.00     0.014 C 
ENDROOT
BRANCH   1  30
ATOM     30  C   UNL     1     -22.084  56.513  49.206  1.00  0.00     0.048 C 
ATOM     31  O   UNL     1     -21.934  55.269  49.382  1.00  0.00    -0.550 OA
ATOM     32  O   UNL     1     -21.424  57.391  50.060  1.00  0.00    -0.550 OA
ENDBRANCH   1  30
BRANCH  27  33
ATOM     33  O   UNL     1     -23.421  50.648  41.291  1.00  0.00    -0.393 OA
ATOM     34  H   UNL     1     -22.936  51.104  42.033  1.00  0.00     0.210 HD
ENDBRANCH  27  33
TORSDOF 2
ENDMDL
MODEL 8
REMARK VINA RESULT:    -4.041      3.012      4.962
REMARK INTER + INTRA:          -4.618
REMARK INTER:                  -4.401
REMARK INTRA:                  -0.218
REMARK UNBOUND:                -0.223
REMARK SMILES C[C@H]1[C@H]2C3=CC[C@@H]4[C@@]5(C)CC[C@@H](O)C(C)(C)[C@@H]5CC[C@]4(C)[C@]3(C)CC[C@@]2(C(=O)[O-])CC[C@@H]1C
REMARK SMILES IDX 26 1 30 2 25 3 3 4 31 5 24 6 4 7 2 8 32 9 22 10 5 11 1 12
REMARK SMILES IDX 33 13 23 14 20 15 6 16 7 17 19 18 21 19 8 20 18 21 17 22
REMARK SMILES IDX 10 23 9 24 14 25 11 26 12 27 15 28 16 29 27 30 28 31 29 32
REMARK SMILES IDX 13 33
REMARK H PARENT 13 34
REMARK Flexibility Score: inf
ROOT
ATOM      1  C   UNL     1     -25.385  53.538  45.024  1.00  0.00     0.017 C 
ATOM      2  C   UNL     1     -25.233  53.293  46.574  1.00  0.00     0.014 C 
ATOM      3  C   UNL     1     -26.660  52.798  44.524  1.00  0.00     0.014 C 
ATOM      4  C   UNL     1     -24.064  53.089  44.255  1.00  0.00     0.030 C 
ATOM      5  C   UNL     1     -24.257  52.153  46.907  1.00  0.00     0.004 C 
ATOM      6  C   UNL     1     -26.531  52.291  43.086  1.00  0.00     0.013 C 
ATOM      7  C   UNL     1     -24.152  51.662  43.622  1.00  0.00    -0.063 C 
ATOM      8  C   UNL     1     -22.836  53.404  45.177  1.00  0.00    -0.003 C 
ATOM      9  C   UNL     1     -22.816  52.460  46.412  1.00  0.00    -0.011 C 
ATOM     10  C   UNL     1     -25.446  51.177  42.961  1.00  0.00    -0.006 C 
ATOM     11  C   UNL     1     -23.051  50.936  43.371  1.00  0.00    -0.027 C 
ATOM     12  C   UNL     1     -21.474  53.537  44.450  1.00  0.00     0.008 C 
ATOM     13  C   UNL     1     -21.969  53.049  47.550  1.00  0.00     0.008 C 
ATOM     14  C   UNL     1     -25.963  49.931  43.762  1.00  0.00     0.017 C 
ATOM     15  C   UNL     1     -25.135  50.821  41.421  1.00  0.00    -0.020 C 
ATOM     16  C   UNL     1     -23.047  49.675  42.538  1.00  0.00     0.032 C 
ATOM     17  C   UNL     1     -24.051  49.645  41.309  1.00  0.00     0.006 C 
ATOM     18  C   UNL     1     -24.609  52.123  40.672  1.00  0.00     0.008 C 
ATOM     19  C   UNL     1     -26.485  50.352  40.771  1.00  0.00     0.012 C 
ATOM     20  C   UNL     1     -23.408  49.386  39.824  1.00  0.00    -0.025 C 
ATOM     21  C   UNL     1     -23.466  51.911  39.660  1.00  0.00     0.005 C 
ATOM     22  C   UNL     1     -23.714  50.611  38.892  1.00  0.00     0.003 C 
ATOM     23  C   UNL     1     -24.056  48.136  39.140  1.00  0.00     0.010 C 
ATOM     24  C   UNL     1     -21.875  49.082  39.920  1.00  0.00     0.012 C 
ATOM     25  C   UNL     1     -23.264  50.522  37.383  1.00  0.00    -0.006 C 
ATOM     26  C   UNL     1     -23.646  47.948  37.657  1.00  0.00     0.033 C 
ATOM     27  C   UNL     1     -23.878  49.204  36.782  1.00  0.00     0.120 C 
ATOM     28  C   UNL     1     -21.724  50.572  37.170  1.00  0.00     0.014 C 
ATOM     29  C   UNL     1     -23.852  51.730  36.582  1.00  0.00     0.014 C 
ENDROOT
BRANCH   1  30
ATOM     30  C   UNL     1     -25.626  55.027  44.754  1.00  0.00     0.048 C 
ATOM     31  O   UNL     1     -26.422  55.699  45.472  1.00  0.00    -0.550 OA
ATOM     32  O   UNL     1     -25.076  55.629  43.627  1.00  0.00    -0.550 OA
ENDBRANCH   1  30
BRANCH  27  33
ATOM     33  O   UNL     1     -25.267  49.364  36.591  1.00  0.00    -0.393 OA
ATOM     34  H   UNL     1     -25.404  50.241  36.139  1.00  0.00     0.210 HD
ENDBRANCH  27  33
TORSDOF 2
ENDMDL
MODEL 9
REMARK VINA RESULT:    -3.980      9.539     11.230
REMARK INTER + INTRA:          -4.552
REMARK INTER:                  -4.569
REMARK INTRA:                   0.017
REMARK UNBOUND:                -0.223
REMARK SMILES C[C@H]1[C@H]2C3=CC[C@@H]4[C@@]5(C)CC[C@@H](O)C(C)(C)[C@@H]5CC[C@]4(C)[C@]3(C)CC[C@@]2(C(=O)[O-])CC[C@@H]1C
REMARK SMILES IDX 26 1 30 2 25 3 3 4 31 5 24 6 4 7 2 8 32 9 22 10 5 11 1 12
REMARK SMILES IDX 33 13 23 14 20 15 6 16 7 17 19 18 21 19 8 20 18 21 17 22
REMARK SMILES IDX 10 23 9 24 14 25 11 26 12 27 15 28 16 29 27 30 28 31 29 32
REMARK SMILES IDX 13 33
REMARK H PARENT 13 34
REMARK Flexibility Score: inf
ROOT
ATOM      1  C   UNL     1     -26.365  58.026  34.219  1.00  0.00     0.017 C 
ATOM      2  C   UNL     1     -25.550  59.279  33.718  1.00  0.00     0.014 C 
ATOM      3  C   UNL     1     -25.465  57.198  35.184  1.00  0.00     0.014 C 
ATOM      4  C   UNL     1     -26.898  57.175  32.983  1.00  0.00     0.030 C 
ATOM      5  C   UNL     1     -24.905  59.060  32.340  1.00  0.00     0.004 C 
ATOM      6  C   UNL     1     -25.751  55.696  35.125  1.00  0.00     0.013 C 
ATOM      7  C   UNL     1     -26.007  55.940  32.631  1.00  0.00    -0.063 C 
ATOM      8  C   UNL     1     -27.254  58.171  31.826  1.00  0.00    -0.003 C 
ATOM      9  C   UNL     1     -25.968  58.811  31.234  1.00  0.00    -0.011 C 
ATOM     10  C   UNL     1     -25.373  55.091  33.737  1.00  0.00    -0.006 C 
ATOM     11  C   UNL     1     -26.000  55.407  31.399  1.00  0.00    -0.027 C 
ATOM     12  C   UNL     1     -28.249  57.634  30.766  1.00  0.00     0.008 C 
ATOM     13  C   UNL     1     -26.288  60.117  30.489  1.00  0.00     0.008 C 
ATOM     14  C   UNL     1     -23.815  55.190  33.594  1.00  0.00     0.017 C 
ATOM     15  C   UNL     1     -25.900  53.575  33.588  1.00  0.00    -0.020 C 
ATOM     16  C   UNL     1     -25.367  54.077  31.061  1.00  0.00     0.032 C 
ATOM     17  C   UNL     1     -25.466  52.951  32.177  1.00  0.00     0.006 C 
ATOM     18  C   UNL     1     -27.484  53.547  33.737  1.00  0.00     0.008 C 
ATOM     19  C   UNL     1     -25.250  52.742  34.750  1.00  0.00     0.012 C 
ATOM     20  C   UNL     1     -26.185  51.540  31.753  1.00  0.00    -0.025 C 
ATOM     21  C   UNL     1     -28.239  52.589  32.794  1.00  0.00     0.005 C 
ATOM     22  C   UNL     1     -27.442  51.290  32.659  1.00  0.00     0.003 C 
ATOM     23  C   UNL     1     -25.222  50.327  31.986  1.00  0.00     0.010 C 
ATOM     24  C   UNL     1     -26.540  51.525  30.229  1.00  0.00     0.012 C 
ATOM     25  C   UNL     1     -28.224  49.933  32.480  1.00  0.00    -0.006 C 
ATOM     26  C   UNL     1     -25.898  48.944  31.801  1.00  0.00     0.033 C 
ATOM     27  C   UNL     1     -27.185  48.762  32.642  1.00  0.00     0.120 C 
ATOM     28  C   UNL     1     -29.000  49.814  31.138  1.00  0.00     0.014 C 
ATOM     29  C   UNL     1     -29.292  49.782  33.613  1.00  0.00     0.014 C 
ENDROOT
BRANCH   1  30
ATOM     30  C   UNL     1     -27.566  58.487  35.051  1.00  0.00     0.048 C 
ATOM     31  O   UNL     1     -28.527  59.114  34.517  1.00  0.00    -0.550 OA
ATOM     32  O   UNL     1     -27.552  58.344  36.435  1.00  0.00    -0.550 OA
ENDBRANCH   1  30
BRANCH  27  33
ATOM     33  O   UNL     1     -26.817  48.630  33.997  1.00  0.00    -0.393 OA
ATOM     34  H   UNL     1     -27.440  47.970  34.409  1.00  0.00     0.210 HD
ENDBRANCH  27  33
TORSDOF 2
ENDMDL
