MODEL 1
REMARK VINA RESULT:    -4.870      0.000      0.000
REMARK INTER + INTRA:         -13.481
REMARK INTER:                 -10.565
REMARK INTRA:                  -2.917
REMARK UNBOUND:                -2.917
REMARK SMILES CCCCCCCCCCCCCCCCCCCCCC(=O)[O-]
REMARK SMILES IDX 12 1 11 2 10 3 9 4 8 5 7 6 6 7 5 8 4 9 3 10 2 11 1 12 13 13
REMARK SMILES IDX 14 14 15 15 16 16 17 17 18 18 19 19 20 20 21 21 22 22 23 23
REMARK SMILES IDX 24 24
REMARK H PARENT
REMARK Flexibility Score: inf
ROOT
ATOM      1  C   UNL     1      -8.930 -24.604  31.520  1.00  0.00     0.000 C 
ENDROOT
BRANCH   1   2
ATOM      2  C   UNL     1      -7.464 -24.172  31.691  1.00  0.00     0.000 C 
BRANCH   2   3
ATOM      3  C   UNL     1      -6.999 -24.211  33.157  1.00  0.00     0.000 C 
BRANCH   3   4
ATOM      4  C   UNL     1      -5.766 -25.107  33.357  1.00  0.00    -0.000 C 
BRANCH   4   5
ATOM      5  C   UNL     1      -6.009 -26.217  34.396  1.00  0.00    -0.000 C 
BRANCH   5   6
ATOM      6  C   UNL     1      -4.755 -27.083  34.633  1.00  0.00    -0.000 C 
BRANCH   6   7
ATOM      7  C   UNL     1      -3.701 -26.980  33.512  1.00  0.00    -0.000 C 
BRANCH   7   8
ATOM      8  C   UNL     1      -3.302 -28.316  32.855  1.00  0.00    -0.000 C 
BRANCH   8   9
ATOM      9  C   UNL     1      -4.148 -28.693  31.622  1.00  0.00    -0.000 C 
BRANCH   9  10
ATOM     10  C   UNL     1      -4.527 -27.476  30.747  1.00  0.00    -0.000 C 
BRANCH  10  11
ATOM     11  C   UNL     1      -6.027 -27.409  30.415  1.00  0.00    -0.003 C 
ATOM     12  C   UNL     1      -6.891 -28.146  31.437  1.00  0.00     0.004 C 
ENDBRANCH  10  11
ENDBRANCH   9  10
ENDBRANCH   8   9
ENDBRANCH   7   8
ENDBRANCH   6   7
ENDBRANCH   5   6
ENDBRANCH   4   5
ENDBRANCH   3   4
ENDBRANCH   2   3
ENDBRANCH   1   2
BRANCH   1  13
ATOM     13  C   UNL     1      -9.374 -25.781  32.415  1.00  0.00     0.000 C 
BRANCH  13  14
ATOM     14  C   UNL     1     -10.786 -26.329  32.135  1.00  0.00     0.000 C 
BRANCH  14  15
ATOM     15  C   UNL     1     -11.101 -26.438  30.634  1.00  0.00     0.000 C 
BRANCH  15  16
ATOM     16  C   UNL     1     -10.084 -27.309  29.874  1.00  0.00     0.000 C 
BRANCH  16  17
ATOM     17  C   UNL     1     -10.437 -27.599  28.402  1.00  0.00     0.000 C 
BRANCH  17  18
ATOM     18  C   UNL     1      -9.623 -26.801  27.366  1.00  0.00     0.000 C 
BRANCH  18  19
ATOM     19  C   UNL     1      -9.300 -25.374  27.832  1.00  0.00     0.000 C 
BRANCH  19  20
ATOM     20  C   UNL     1     -10.426 -24.402  27.452  1.00  0.00     0.006 C 
BRANCH  20  21
ATOM     21  C   UNL     1     -10.783 -24.480  25.961  1.00  0.00     0.053 C 
BRANCH  21  22
ATOM     22  C   UNL     1     -11.696 -23.365  25.549  1.00  0.00     0.041 C 
ATOM     23  O   UNL     1     -11.449 -22.181  25.899  1.00  0.00    -0.550 OA
ATOM     24  O   UNL     1     -12.840 -23.640  24.812  1.00  0.00    -0.550 OA
ENDBRANCH  21  22
ENDBRANCH  20  21
ENDBRANCH  19  20
ENDBRANCH  18  19
ENDBRANCH  17  18
ENDBRANCH  16  17
ENDBRANCH  15  16
ENDBRANCH  14  15
ENDBRANCH  13  14
ENDBRANCH   1  13
TORSDOF 20
ENDMDL
MODEL 2
REMARK VINA RESULT:    -4.845      2.020      4.547
REMARK INTER + INTRA:         -13.427
REMARK INTER:                 -10.943
REMARK INTRA:                  -2.484
REMARK UNBOUND:                -2.917
REMARK SMILES CCCCCCCCCCCCCCCCCCCCCC(=O)[O-]
REMARK SMILES IDX 12 1 11 2 10 3 9 4 8 5 7 6 6 7 5 8 4 9 3 10 2 11 1 12 13 13
REMARK SMILES IDX 14 14 15 15 16 16 17 17 18 18 19 19 20 20 21 21 22 22 23 23
REMARK SMILES IDX 24 24
REMARK H PARENT
REMARK Flexibility Score: inf
ROOT
ATOM      1  C   UNL     1      -8.563 -27.402  27.878  1.00  0.00     0.000 C 
ENDROOT
BRANCH   1   2
ATOM      2  C   UNL     1      -7.795 -27.240  29.202  1.00  0.00     0.000 C 
BRANCH   2   3
ATOM      3  C   UNL     1      -6.270 -27.328  29.019  1.00  0.00     0.000 C 
BRANCH   3   4
ATOM      4  C   UNL     1      -5.576 -28.006  30.211  1.00  0.00    -0.000 C 
BRANCH   4   5
ATOM      5  C   UNL     1      -6.455 -28.011  31.475  1.00  0.00    -0.000 C 
BRANCH   5   6
ATOM      6  C   UNL     1      -5.885 -27.109  32.590  1.00  0.00    -0.000 C 
BRANCH   6   7
ATOM      7  C   UNL     1      -5.754 -25.625  32.190  1.00  0.00    -0.000 C 
BRANCH   7   8
ATOM      8  C   UNL     1      -6.770 -24.671  32.849  1.00  0.00    -0.000 C 
BRANCH   8   9
ATOM      9  C   UNL     1      -7.649 -23.893  31.849  1.00  0.00    -0.000 C 
BRANCH   9  10
ATOM     10  C   UNL     1      -8.719 -24.773  31.164  1.00  0.00    -0.000 C 
BRANCH  10  11
ATOM     11  C   UNL     1      -9.545 -25.610  32.155  1.00  0.00    -0.003 C 
ATOM     12  C   UNL     1     -10.805 -26.199  31.523  1.00  0.00     0.004 C 
ENDBRANCH  10  11
ENDBRANCH   9  10
ENDBRANCH   8   9
ENDBRANCH   7   8
ENDBRANCH   6   7
ENDBRANCH   5   6
ENDBRANCH   4   5
ENDBRANCH   3   4
ENDBRANCH   2   3
ENDBRANCH   1   2
BRANCH   1  13
ATOM     13  C   UNL     1     -10.095 -27.531  28.023  1.00  0.00     0.000 C 
BRANCH  13  14
ATOM     14  C   UNL     1     -10.910 -26.320  27.531  1.00  0.00     0.000 C 
BRANCH  14  15
ATOM     15  C   UNL     1     -10.225 -24.975  27.827  1.00  0.00     0.000 C 
BRANCH  15  16
ATOM     16  C   UNL     1     -10.199 -24.039  26.604  1.00  0.00     0.000 C 
BRANCH  16  17
ATOM     17  C   UNL     1     -11.076 -22.777  26.725  1.00  0.00     0.000 C 
BRANCH  17  18
ATOM     18  C   UNL     1     -12.226 -22.680  25.704  1.00  0.00     0.000 C 
BRANCH  18  19
ATOM     19  C   UNL     1     -12.272 -23.876  24.743  1.00  0.00     0.000 C 
BRANCH  19  20
ATOM     20  C   UNL     1     -13.716 -24.345  24.516  1.00  0.00     0.006 C 
BRANCH  20  21
ATOM     21  C   UNL     1     -13.782 -25.691  23.780  1.00  0.00     0.053 C 
BRANCH  21  22
ATOM     22  C   UNL     1     -14.538 -26.718  24.566  1.00  0.00     0.041 C 
ATOM     23  O   UNL     1     -15.703 -27.049  24.221  1.00  0.00    -0.550 OA
ATOM     24  O   UNL     1     -13.972 -27.280  25.703  1.00  0.00    -0.550 OA
ENDBRANCH  21  22
ENDBRANCH  20  21
ENDBRANCH  19  20
ENDBRANCH  18  19
ENDBRANCH  17  18
ENDBRANCH  16  17
ENDBRANCH  15  16
ENDBRANCH  14  15
ENDBRANCH  13  14
ENDBRANCH   1  13
TORSDOF 20
ENDMDL
MODEL 3
REMARK VINA RESULT:    -4.799      3.330      7.900
REMARK INTER + INTRA:         -13.326
REMARK INTER:                 -10.263
REMARK INTRA:                  -3.064
REMARK UNBOUND:                -2.917
REMARK SMILES CCCCCCCCCCCCCCCCCCCCCC(=O)[O-]
REMARK SMILES IDX 12 1 11 2 10 3 9 4 8 5 7 6 6 7 5 8 4 9 3 10 2 11 1 12 13 13
REMARK SMILES IDX 14 14 15 15 16 16 17 17 18 18 19 19 20 20 21 21 22 22 23 23
REMARK SMILES IDX 24 24
REMARK H PARENT
REMARK Flexibility Score: inf
ROOT
ATOM      1  C   UNL     1      -8.201 -25.369  31.415  1.00  0.00     0.000 C 
ENDROOT
BRANCH   1   2
ATOM      2  C   UNL     1      -9.444 -24.656  30.854  1.00  0.00     0.000 C 
BRANCH   2   3
ATOM      3  C   UNL     1      -9.774 -25.079  29.413  1.00  0.00     0.000 C 
BRANCH   3   4
ATOM      4  C   UNL     1      -8.572 -25.724  28.703  1.00  0.00    -0.000 C 
BRANCH   4   5
ATOM      5  C   UNL     1      -8.870 -27.159  28.233  1.00  0.00    -0.000 C 
BRANCH   5   6
ATOM      6  C   UNL     1     -10.260 -27.650  28.689  1.00  0.00    -0.000 C 
BRANCH   6   7
ATOM      7  C   UNL     1     -11.178 -28.094  27.532  1.00  0.00    -0.000 C 
BRANCH   7   8
ATOM      8  C   UNL     1     -11.833 -26.951  26.732  1.00  0.00    -0.000 C 
BRANCH   8   9
ATOM      9  C   UNL     1     -10.869 -26.206  25.786  1.00  0.00    -0.000 C 
BRANCH   9  10
ATOM     10  C   UNL     1     -11.306 -24.753  25.490  1.00  0.00    -0.000 C 
BRANCH  10  11
ATOM     11  C   UNL     1     -10.403 -23.699  26.150  1.00  0.00    -0.003 C 
ATOM     12  C   UNL     1     -11.142 -22.398  26.459  1.00  0.00     0.004 C 
ENDBRANCH  10  11
ENDBRANCH   9  10
ENDBRANCH   8   9
ENDBRANCH   7   8
ENDBRANCH   6   7
ENDBRANCH   5   6
ENDBRANCH   4   5
ENDBRANCH   3   4
ENDBRANCH   2   3
ENDBRANCH   1   2
BRANCH   1  13
ATOM     13  C   UNL     1      -8.488 -26.678  32.180  1.00  0.00     0.000 C 
BRANCH  13  14
ATOM     14  C   UNL     1      -7.520 -27.840  31.890  1.00  0.00     0.000 C 
BRANCH  14  15
ATOM     15  C   UNL     1      -6.308 -27.415  31.044  1.00  0.00     0.000 C 
BRANCH  15  16
ATOM     16  C   UNL     1      -5.170 -28.452  31.070  1.00  0.00     0.000 C 
BRANCH  16  17
ATOM     17  C   UNL     1      -3.782 -27.895  31.440  1.00  0.00     0.000 C 
BRANCH  17  18
ATOM     18  C   UNL     1      -3.051 -28.655  32.563  1.00  0.00     0.000 C 
BRANCH  18  19
ATOM     19  C   UNL     1      -3.741 -28.514  33.926  1.00  0.00     0.000 C 
BRANCH  19  20
ATOM     20  C   UNL     1      -3.818 -27.042  34.356  1.00  0.00     0.006 C 
BRANCH  20  21
ATOM     21  C   UNL     1      -5.260 -26.584  34.611  1.00  0.00     0.053 C 
BRANCH  21  22
ATOM     22  C   UNL     1      -5.530 -25.237  34.014  1.00  0.00     0.041 C 
ATOM     23  O   UNL     1      -6.443 -24.507  34.482  1.00  0.00    -0.550 OA
ATOM     24  O   UNL     1      -4.798 -24.803  32.916  1.00  0.00    -0.550 OA
ENDBRANCH  21  22
ENDBRANCH  20  21
ENDBRANCH  19  20
ENDBRANCH  18  19
ENDBRANCH  17  18
ENDBRANCH  16  17
ENDBRANCH  15  16
ENDBRANCH  14  15
ENDBRANCH  13  14
ENDBRANCH   1  13
TORSDOF 20
ENDMDL
MODEL 4
REMARK VINA RESULT:    -4.791      3.157      5.585
REMARK INTER + INTRA:         -13.309
REMARK INTER:                 -10.883
REMARK INTRA:                  -2.425
REMARK UNBOUND:                -2.917
REMARK SMILES CCCCCCCCCCCCCCCCCCCCCC(=O)[O-]
REMARK SMILES IDX 12 1 11 2 10 3 9 4 8 5 7 6 6 7 5 8 4 9 3 10 2 11 1 12 13 13
REMARK SMILES IDX 14 14 15 15 16 16 17 17 18 18 19 19 20 20 21 21 22 22 23 23
REMARK SMILES IDX 24 24
REMARK H PARENT
REMARK Flexibility Score: inf
ROOT
ATOM      1  C   UNL     1     -10.636 -25.736  28.050  1.00  0.00     0.000 C 
ENDROOT
BRANCH   1   2
ATOM      2  C   UNL     1      -9.538 -26.697  27.563  1.00  0.00     0.000 C 
BRANCH   2   3
ATOM      3  C   UNL     1      -8.786 -27.377  28.720  1.00  0.00     0.000 C 
BRANCH   3   4
ATOM      4  C   UNL     1      -7.341 -26.872  28.856  1.00  0.00    -0.000 C 
BRANCH   4   5
ATOM      5  C   UNL     1      -6.711 -27.254  30.208  1.00  0.00    -0.000 C 
BRANCH   5   6
ATOM      6  C   UNL     1      -5.348 -26.568  30.435  1.00  0.00    -0.000 C 
BRANCH   6   7
ATOM      7  C   UNL     1      -5.436 -25.247  31.227  1.00  0.00    -0.000 C 
BRANCH   7   8
ATOM      8  C   UNL     1      -6.705 -25.074  32.085  1.00  0.00    -0.000 C 
BRANCH   8   9
ATOM      9  C   UNL     1      -7.664 -23.975  31.583  1.00  0.00    -0.000 C 
BRANCH   9  10
ATOM     10  C   UNL     1      -9.074 -24.507  31.237  1.00  0.00    -0.000 C 
BRANCH  10  11
ATOM     11  C   UNL     1      -9.519 -25.678  32.128  1.00  0.00    -0.003 C 
ATOM     12  C   UNL     1     -10.848 -26.287  31.683  1.00  0.00     0.004 C 
ENDBRANCH  10  11
ENDBRANCH   9  10
ENDBRANCH   8   9
ENDBRANCH   7   8
ENDBRANCH   6   7
ENDBRANCH   5   6
ENDBRANCH   4   5
ENDBRANCH   3   4
ENDBRANCH   2   3
ENDBRANCH   1   2
BRANCH   1  13
ATOM     13  C   UNL     1     -10.467 -24.269  27.602  1.00  0.00     0.000 C 
BRANCH  13  14
ATOM     14  C   UNL     1     -10.459 -24.038  26.079  1.00  0.00     0.000 C 
BRANCH  14  15
ATOM     15  C   UNL     1     -11.521 -23.025  25.620  1.00  0.00     0.000 C 
BRANCH  15  16
ATOM     16  C   UNL     1     -12.735 -23.696  24.953  1.00  0.00     0.000 C 
BRANCH  16  17
ATOM     17  C   UNL     1     -12.619 -25.221  24.758  1.00  0.00     0.000 C 
BRANCH  17  18
ATOM     18  C   UNL     1     -13.701 -25.849  23.861  1.00  0.00     0.000 C 
BRANCH  18  19
ATOM     19  C   UNL     1     -15.126 -25.564  24.356  1.00  0.00     0.000 C 
BRANCH  19  20
ATOM     20  C   UNL     1     -15.916 -26.868  24.542  1.00  0.00     0.006 C 
BRANCH  20  21
ATOM     21  C   UNL     1     -15.599 -27.555  25.877  1.00  0.00     0.053 C 
BRANCH  21  22
ATOM     22  C   UNL     1     -16.690 -27.346  26.883  1.00  0.00     0.041 C 
ATOM     23  O   UNL     1     -17.227 -28.333  27.450  1.00  0.00    -0.550 OA
ATOM     24  O   UNL     1     -17.141 -26.063  27.163  1.00  0.00    -0.550 OA
ENDBRANCH  21  22
ENDBRANCH  20  21
ENDBRANCH  19  20
ENDBRANCH  18  19
ENDBRANCH  17  18
ENDBRANCH  16  17
ENDBRANCH  15  16
ENDBRANCH  14  15
ENDBRANCH  13  14
ENDBRANCH   1  13
TORSDOF 20
ENDMDL
MODEL 5
REMARK VINA RESULT:    -4.754      1.963      3.754
REMARK INTER + INTRA:         -13.228
REMARK INTER:                  -9.861
REMARK INTRA:                  -3.368
REMARK UNBOUND:                -2.917
REMARK SMILES CCCCCCCCCCCCCCCCCCCCCC(=O)[O-]
REMARK SMILES IDX 12 1 11 2 10 3 9 4 8 5 7 6 6 7 5 8 4 9 3 10 2 11 1 12 13 13
REMARK SMILES IDX 14 14 15 15 16 16 17 17 18 18 19 19 20 20 21 21 22 22 23 23
REMARK SMILES IDX 24 24
REMARK H PARENT
REMARK Flexibility Score: inf
ROOT
ATOM      1  C   UNL     1      -6.686 -25.496  30.990  1.00  0.00     0.000 C 
ENDROOT
BRANCH   1   2
ATOM      2  C   UNL     1      -6.756 -26.963  30.532  1.00  0.00     0.000 C 
BRANCH   2   3
ATOM      3  C   UNL     1      -5.833 -27.258  29.337  1.00  0.00     0.000 C 
BRANCH   3   4
ATOM      4  C   UNL     1      -4.660 -28.177  29.715  1.00  0.00    -0.000 C 
BRANCH   4   5
ATOM      5  C   UNL     1      -4.698 -28.595  31.197  1.00  0.00    -0.000 C 
BRANCH   5   6
ATOM      6  C   UNL     1      -3.565 -27.945  32.019  1.00  0.00    -0.000 C 
BRANCH   6   7
ATOM      7  C   UNL     1      -4.056 -26.911  33.053  1.00  0.00    -0.000 C 
BRANCH   7   8
ATOM      8  C   UNL     1      -5.107 -27.426  34.056  1.00  0.00    -0.000 C 
BRANCH   8   9
ATOM      9  C   UNL     1      -5.390 -26.464  35.227  1.00  0.00    -0.000 C 
BRANCH   9  10
ATOM     10  C   UNL     1      -5.430 -24.979  34.800  1.00  0.00    -0.000 C 
BRANCH  10  11
ATOM     11  C   UNL     1      -6.670 -24.231  35.315  1.00  0.00    -0.003 C 
ATOM     12  C   UNL     1      -7.665 -25.152  36.020  1.00  0.00     0.004 C 
ENDBRANCH  10  11
ENDBRANCH   9  10
ENDBRANCH   8   9
ENDBRANCH   7   8
ENDBRANCH   6   7
ENDBRANCH   5   6
ENDBRANCH   4   5
ENDBRANCH   3   4
ENDBRANCH   2   3
ENDBRANCH   1   2
BRANCH   1  13
ATOM     13  C   UNL     1      -7.746 -25.086  32.035  1.00  0.00     0.000 C 
BRANCH  13  14
ATOM     14  C   UNL     1      -8.632 -26.230  32.562  1.00  0.00     0.000 C 
BRANCH  14  15
ATOM     15  C   UNL     1     -10.081 -25.789  32.834  1.00  0.00     0.000 C 
BRANCH  15  16
ATOM     16  C   UNL     1     -11.049 -26.200  31.709  1.00  0.00     0.000 C 
BRANCH  16  17
ATOM     17  C   UNL     1     -10.388 -26.489  30.346  1.00  0.00     0.000 C 
BRANCH  17  18
ATOM     18  C   UNL     1     -10.269 -25.275  29.407  1.00  0.00     0.000 C 
BRANCH  18  19
ATOM     19  C   UNL     1      -9.220 -25.474  28.305  1.00  0.00     0.000 C 
BRANCH  19  20
ATOM     20  C   UNL     1      -9.528 -26.725  27.470  1.00  0.00     0.006 C 
BRANCH  20  21
ATOM     21  C   UNL     1     -10.824 -26.580  26.660  1.00  0.00     0.053 C 
BRANCH  21  22
ATOM     22  C   UNL     1     -11.805 -27.664  26.981  1.00  0.00     0.041 C 
ATOM     23  O   UNL     1     -12.976 -27.617  26.520  1.00  0.00    -0.550 OA
ATOM     24  O   UNL     1     -11.440 -28.706  27.823  1.00  0.00    -0.550 OA
ENDBRANCH  21  22
ENDBRANCH  20  21
ENDBRANCH  19  20
ENDBRANCH  18  19
ENDBRANCH  17  18
ENDBRANCH  16  17
ENDBRANCH  15  16
ENDBRANCH  14  15
ENDBRANCH  13  14
ENDBRANCH   1  13
TORSDOF 20
ENDMDL
MODEL 6
REMARK VINA RESULT:    -4.717      3.028      7.580
REMARK INTER + INTRA:         -13.150
REMARK INTER:                 -10.435
REMARK INTRA:                  -2.715
REMARK UNBOUND:                -2.917
REMARK SMILES CCCCCCCCCCCCCCCCCCCCCC(=O)[O-]
REMARK SMILES IDX 12 1 11 2 10 3 9 4 8 5 7 6 6 7 5 8 4 9 3 10 2 11 1 12 13 13
REMARK SMILES IDX 14 14 15 15 16 16 17 17 18 18 19 19 20 20 21 21 22 22 23 23
REMARK SMILES IDX 24 24
REMARK H PARENT
REMARK Flexibility Score: inf
ROOT
ATOM      1  C   UNL     1     -10.447 -26.865  31.751  1.00  0.00     0.000 C 
ENDROOT
BRANCH   1   2
ATOM      2  C   UNL     1     -10.762 -26.186  30.407  1.00  0.00     0.000 C 
BRANCH   2   3
ATOM      3  C   UNL     1      -9.719 -25.124  30.017  1.00  0.00     0.000 C 
BRANCH   3   4
ATOM      4  C   UNL     1      -8.570 -25.712  29.183  1.00  0.00    -0.000 C 
BRANCH   4   5
ATOM      5  C   UNL     1      -8.732 -27.224  28.945  1.00  0.00    -0.000 C 
BRANCH   5   6
ATOM      6  C   UNL     1      -8.969 -27.562  27.458  1.00  0.00    -0.000 C 
BRANCH   6   7
ATOM      7  C   UNL     1     -10.441 -27.866  27.112  1.00  0.00    -0.000 C 
BRANCH   7   8
ATOM      8  C   UNL     1     -11.318 -26.633  26.814  1.00  0.00    -0.000 C 
BRANCH   8   9
ATOM      9  C   UNL     1     -10.762 -25.713  25.709  1.00  0.00    -0.000 C 
BRANCH   9  10
ATOM     10  C   UNL     1     -10.372 -24.309  26.223  1.00  0.00    -0.000 C 
BRANCH  10  11
ATOM     11  C   UNL     1     -11.428 -23.234  25.921  1.00  0.00    -0.003 C 
ATOM     12  C   UNL     1     -11.071 -21.872  26.514  1.00  0.00     0.004 C 
ENDBRANCH  10  11
ENDBRANCH   9  10
ENDBRANCH   8   9
ENDBRANCH   7   8
ENDBRANCH   6   7
ENDBRANCH   5   6
ENDBRANCH   4   5
ENDBRANCH   3   4
ENDBRANCH   2   3
ENDBRANCH   1   2
BRANCH   1  13
ATOM     13  C   UNL     1     -10.784 -26.026  33.002  1.00  0.00     0.000 C 
BRANCH  13  14
ATOM     14  C   UNL     1      -9.572 -25.507  33.798  1.00  0.00     0.000 C 
BRANCH  14  15
ATOM     15  C   UNL     1      -8.227 -25.967  33.210  1.00  0.00     0.000 C 
BRANCH  15  16
ATOM     16  C   UNL     1      -7.298 -24.791  32.858  1.00  0.00     0.000 C 
BRANCH  16  17
ATOM     17  C   UNL     1      -6.073 -24.623  33.779  1.00  0.00     0.000 C 
BRANCH  17  18
ATOM     18  C   UNL     1      -6.028 -25.577  34.987  1.00  0.00     0.000 C 
BRANCH  18  19
ATOM     19  C   UNL     1      -4.905 -26.619  34.881  1.00  0.00     0.000 C 
BRANCH  19  20
ATOM     20  C   UNL     1      -4.127 -26.461  33.567  1.00  0.00     0.006 C 
BRANCH  20  21
ATOM     21  C   UNL     1      -4.231 -27.706  32.676  1.00  0.00     0.053 C 
BRANCH  21  22
ATOM     22  C   UNL     1      -5.140 -27.480  31.507  1.00  0.00     0.041 C 
ATOM     23  O   UNL     1      -4.910 -26.543  30.697  1.00  0.00    -0.550 OA
ATOM     24  O   UNL     1      -6.263 -28.277  31.335  1.00  0.00    -0.550 OA
ENDBRANCH  21  22
ENDBRANCH  20  21
ENDBRANCH  19  20
ENDBRANCH  18  19
ENDBRANCH  17  18
ENDBRANCH  16  17
ENDBRANCH  15  16
ENDBRANCH  14  15
ENDBRANCH  13  14
ENDBRANCH   1  13
TORSDOF 20
ENDMDL
MODEL 7
REMARK VINA RESULT:    -4.716      1.241      3.000
REMARK INTER + INTRA:         -13.146
REMARK INTER:                 -10.025
REMARK INTRA:                  -3.120
REMARK UNBOUND:                -2.917
REMARK SMILES CCCCCCCCCCCCCCCCCCCCCC(=O)[O-]
REMARK SMILES IDX 12 1 11 2 10 3 9 4 8 5 7 6 6 7 5 8 4 9 3 10 2 11 1 12 13 13
REMARK SMILES IDX 14 14 15 15 16 16 17 17 18 18 19 19 20 20 21 21 22 22 23 23
REMARK SMILES IDX 24 24
REMARK H PARENT
REMARK Flexibility Score: inf
ROOT
ATOM      1  C   UNL     1      -7.005 -24.799  31.184  1.00  0.00     0.000 C 
ENDROOT
BRANCH   1   2
ATOM      2  C   UNL     1      -6.687 -26.283  31.437  1.00  0.00     0.000 C 
BRANCH   2   3
ATOM      3  C   UNL     1      -5.570 -26.817  30.524  1.00  0.00     0.000 C 
BRANCH   3   4
ATOM      4  C   UNL     1      -5.187 -28.268  30.855  1.00  0.00    -0.000 C 
BRANCH   4   5
ATOM      5  C   UNL     1      -3.710 -28.406  31.264  1.00  0.00    -0.000 C 
BRANCH   5   6
ATOM      6  C   UNL     1      -3.545 -28.980  32.687  1.00  0.00    -0.000 C 
BRANCH   6   7
ATOM      7  C   UNL     1      -4.115 -28.073  33.797  1.00  0.00    -0.000 C 
BRANCH   7   8
ATOM      8  C   UNL     1      -3.603 -26.619  33.790  1.00  0.00    -0.000 C 
BRANCH   8   9
ATOM      9  C   UNL     1      -4.586 -25.599  34.400  1.00  0.00    -0.000 C 
BRANCH   9  10
ATOM     10  C   UNL     1      -5.901 -26.241  34.898  1.00  0.00    -0.000 C 
BRANCH  10  11
ATOM     11  C   UNL     1      -7.026 -25.220  35.134  1.00  0.00    -0.003 C 
ATOM     12  C   UNL     1      -6.612 -23.793  34.778  1.00  0.00     0.004 C 
ENDBRANCH  10  11
ENDBRANCH   9  10
ENDBRANCH   8   9
ENDBRANCH   7   8
ENDBRANCH   6   7
ENDBRANCH   5   6
ENDBRANCH   4   5
ENDBRANCH   3   4
ENDBRANCH   2   3
ENDBRANCH   1   2
BRANCH   1  13
ATOM     13  C   UNL     1      -8.461 -24.382  31.481  1.00  0.00     0.000 C 
BRANCH  13  14
ATOM     14  C   UNL     1      -9.459 -25.542  31.657  1.00  0.00     0.000 C 
BRANCH  14  15
ATOM     15  C   UNL     1     -10.210 -25.889  30.361  1.00  0.00     0.000 C 
BRANCH  15  16
ATOM     16  C   UNL     1      -9.729 -27.209  29.730  1.00  0.00     0.000 C 
BRANCH  16  17
ATOM     17  C   UNL     1      -8.781 -27.053  28.524  1.00  0.00     0.000 C 
BRANCH  17  18
ATOM     18  C   UNL     1      -9.387 -27.438  27.162  1.00  0.00     0.000 C 
BRANCH  18  19
ATOM     19  C   UNL     1     -10.887 -27.757  27.245  1.00  0.00     0.000 C 
BRANCH  19  20
ATOM     20  C   UNL     1     -11.722 -26.659  26.571  1.00  0.00     0.006 C 
BRANCH  20  21
ATOM     21  C   UNL     1     -10.858 -25.700  25.739  1.00  0.00     0.053 C 
BRANCH  21  22
ATOM     22  C   UNL     1     -11.013 -24.280  26.189  1.00  0.00     0.041 C 
ATOM     23  O   UNL     1     -11.420 -23.400  25.385  1.00  0.00    -0.550 OA
ATOM     24  O   UNL     1     -10.670 -23.919  27.485  1.00  0.00    -0.550 OA
ENDBRANCH  21  22
ENDBRANCH  20  21
ENDBRANCH  19  20
ENDBRANCH  18  19
ENDBRANCH  17  18
ENDBRANCH  16  17
ENDBRANCH  15  16
ENDBRANCH  14  15
ENDBRANCH  13  14
ENDBRANCH   1  13
TORSDOF 20
ENDMDL
MODEL 8
REMARK VINA RESULT:    -4.704      3.467      7.352
REMARK INTER + INTRA:         -13.122
REMARK INTER:                  -9.496
REMARK INTRA:                  -3.626
REMARK UNBOUND:                -2.917
REMARK SMILES CCCCCCCCCCCCCCCCCCCCCC(=O)[O-]
REMARK SMILES IDX 12 1 11 2 10 3 9 4 8 5 7 6 6 7 5 8 4 9 3 10 2 11 1 12 13 13
REMARK SMILES IDX 14 14 15 15 16 16 17 17 18 18 19 19 20 20 21 21 22 22 23 23
REMARK SMILES IDX 24 24
REMARK H PARENT
REMARK Flexibility Score: inf
ROOT
ATOM      1  C   UNL     1      -7.098 -24.606  32.864  1.00  0.00     0.000 C 
ENDROOT
BRANCH   1   2
ATOM      2  C   UNL     1      -6.242 -24.484  31.590  1.00  0.00     0.000 C 
BRANCH   2   3
ATOM      3  C   UNL     1      -5.657 -25.831  31.134  1.00  0.00     0.000 C 
BRANCH   3   4
ATOM      4  C   UNL     1      -6.588 -27.012  31.454  1.00  0.00    -0.000 C 
BRANCH   4   5
ATOM      5  C   UNL     1      -6.874 -27.884  30.218  1.00  0.00    -0.000 C 
BRANCH   5   6
ATOM      6  C   UNL     1      -6.867 -27.067  28.909  1.00  0.00    -0.000 C 
BRANCH   6   7
ATOM      7  C   UNL     1      -8.075 -27.345  27.991  1.00  0.00    -0.000 C 
BRANCH   7   8
ATOM      8  C   UNL     1      -9.449 -26.947  28.567  1.00  0.00    -0.000 C 
BRANCH   8   9
ATOM      9  C   UNL     1      -9.575 -25.453  28.929  1.00  0.00    -0.000 C 
BRANCH   9  10
ATOM     10  C   UNL     1      -9.759 -25.206  30.443  1.00  0.00    -0.000 C 
BRANCH  10  11
ATOM     11  C   UNL     1     -10.243 -26.448  31.209  1.00  0.00    -0.003 C 
ATOM     12  C   UNL     1     -10.817 -26.109  32.583  1.00  0.00     0.004 C 
ENDBRANCH  10  11
ENDBRANCH   9  10
ENDBRANCH   8   9
ENDBRANCH   7   8
ENDBRANCH   6   7
ENDBRANCH   5   6
ENDBRANCH   4   5
ENDBRANCH   3   4
ENDBRANCH   2   3
ENDBRANCH   1   2
BRANCH   1  13
ATOM     13  C   UNL     1      -6.595 -23.785  34.070  1.00  0.00     0.000 C 
BRANCH  13  14
ATOM     14  C   UNL     1      -6.237 -24.603  35.325  1.00  0.00     0.000 C 
BRANCH  14  15
ATOM     15  C   UNL     1      -6.252 -26.121  35.076  1.00  0.00     0.000 C 
BRANCH  15  16
ATOM     16  C   UNL     1      -4.881 -26.778  35.320  1.00  0.00     0.000 C 
BRANCH  16  17
ATOM     17  C   UNL     1      -3.953 -26.834  34.091  1.00  0.00     0.000 C 
BRANCH  17  18
ATOM     18  C   UNL     1      -3.755 -28.237  33.485  1.00  0.00     0.000 C 
BRANCH  18  19
ATOM     19  C   UNL     1      -2.280 -28.568  33.217  1.00  0.00     0.000 C 
BRANCH  19  20
ATOM     20  C   UNL     1      -2.083 -29.085  31.785  1.00  0.00     0.006 C 
BRANCH  20  21
ATOM     21  C   UNL     1      -3.218 -28.650  30.848  1.00  0.00     0.053 C 
BRANCH  21  22
ATOM     22  C   UNL     1      -2.694 -28.120  29.548  1.00  0.00     0.041 C 
ATOM     23  O   UNL     1      -3.468 -27.542  28.741  1.00  0.00    -0.550 OA
ATOM     24  O   UNL     1      -1.359 -28.300  29.212  1.00  0.00    -0.550 OA
ENDBRANCH  21  22
ENDBRANCH  20  21
ENDBRANCH  19  20
ENDBRANCH  18  19
ENDBRANCH  17  18
ENDBRANCH  16  17
ENDBRANCH  15  16
ENDBRANCH  14  15
ENDBRANCH  13  14
ENDBRANCH   1  13
TORSDOF 20
ENDMDL
MODEL 9
REMARK VINA RESULT:    -4.670      1.728      3.313
REMARK INTER + INTRA:         -13.047
REMARK INTER:                  -9.715
REMARK INTRA:                  -3.332
REMARK UNBOUND:                -2.917
REMARK SMILES CCCCCCCCCCCCCCCCCCCCCC(=O)[O-]
REMARK SMILES IDX 12 1 11 2 10 3 9 4 8 5 7 6 6 7 5 8 4 9 3 10 2 11 1 12 13 13
REMARK SMILES IDX 14 14 15 15 16 16 17 17 18 18 19 19 20 20 21 21 22 22 23 23
REMARK SMILES IDX 24 24
REMARK H PARENT
REMARK Flexibility Score: inf
ROOT
ATOM      1  C   UNL     1      -9.263 -27.259  31.672  1.00  0.00     0.000 C 
ENDROOT
BRANCH   1   2
ATOM      2  C   UNL     1      -7.757 -27.303  31.984  1.00  0.00     0.000 C 
BRANCH   2   3
ATOM      3  C   UNL     1      -6.909 -27.707  30.766  1.00  0.00     0.000 C 
BRANCH   3   4
ATOM      4  C   UNL     1      -5.940 -26.594  30.333  1.00  0.00    -0.000 C 
BRANCH   4   5
ATOM      5  C   UNL     1      -4.470 -27.050  30.372  1.00  0.00    -0.000 C 
BRANCH   5   6
ATOM      6  C   UNL     1      -4.305 -28.451  30.996  1.00  0.00    -0.000 C 
BRANCH   6   7
ATOM      7  C   UNL     1      -3.486 -28.462  32.303  1.00  0.00    -0.000 C 
BRANCH   7   8
ATOM      8  C   UNL     1      -3.714 -27.256  33.236  1.00  0.00    -0.000 C 
BRANCH   8   9
ATOM      9  C   UNL     1      -4.774 -27.493  34.331  1.00  0.00    -0.000 C 
BRANCH   9  10
ATOM     10  C   UNL     1      -5.518 -26.204  34.749  1.00  0.00    -0.000 C 
BRANCH  10  11
ATOM     11  C   UNL     1      -5.421 -25.079  33.706  1.00  0.00    -0.003 C 
ATOM     12  C   UNL     1      -6.633 -24.149  33.726  1.00  0.00     0.004 C 
ENDBRANCH  10  11
ENDBRANCH   9  10
ENDBRANCH   8   9
ENDBRANCH   7   8
ENDBRANCH   6   7
ENDBRANCH   5   6
ENDBRANCH   4   5
ENDBRANCH   3   4
ENDBRANCH   2   3
ENDBRANCH   1   2
BRANCH   1  13
ATOM     13  C   UNL     1      -9.895 -25.851  31.693  1.00  0.00     0.000 C 
BRANCH  13  14
ATOM     14  C   UNL     1      -9.454 -24.911  30.555  1.00  0.00     0.000 C 
BRANCH  14  15
ATOM     15  C   UNL     1     -10.021 -25.320  29.185  1.00  0.00     0.000 C 
BRANCH  15  16
ATOM     16  C   UNL     1      -8.935 -25.833  28.221  1.00  0.00     0.000 C 
BRANCH  16  17
ATOM     17  C   UNL     1      -9.130 -27.279  27.722  1.00  0.00     0.000 C 
BRANCH  17  18
ATOM     18  C   UNL     1     -10.392 -27.987  28.248  1.00  0.00     0.000 C 
BRANCH  18  19
ATOM     19  C   UNL     1     -11.385 -28.344  27.132  1.00  0.00     0.000 C 
BRANCH  19  20
ATOM     20  C   UNL     1     -12.407 -27.218  26.923  1.00  0.00     0.006 C 
BRANCH  20  21
ATOM     21  C   UNL     1     -13.549 -27.635  25.987  1.00  0.00     0.053 C 
BRANCH  21  22
ATOM     22  C   UNL     1     -13.902 -26.546  25.021  1.00  0.00     0.041 C 
ATOM     23  O   UNL     1     -13.023 -25.732  24.634  1.00  0.00    -0.550 OA
ATOM     24  O   UNL     1     -15.210 -26.406  24.577  1.00  0.00    -0.550 OA
ENDBRANCH  21  22
ENDBRANCH  20  21
ENDBRANCH  19  20
ENDBRANCH  18  19
ENDBRANCH  17  18
ENDBRANCH  16  17
ENDBRANCH  15  16
ENDBRANCH  14  15
ENDBRANCH  13  14
ENDBRANCH   1  13
TORSDOF 20
ENDMDL
