MODEL 1
REMARK VINA RESULT:    13.207      0.000      0.000
REMARK INTER + INTRA:          23.239
REMARK INTER:                  24.015
REMARK INTRA:                  -0.776
REMARK UNBOUND:                -0.776
REMARK SMILES CCCCCCCCCCCCCCCC(=O)[O-]
REMARK SMILES IDX 9 1 10 2 11 3 12 4 13 5 14 6 15 7 16 8 17 9 18 10 8 11 7 12
REMARK SMILES IDX 6 13 5 14 4 15 3 16 2 17 1 18
REMARK H PARENT
REMARK Flexibility Score: inf
ROOT
ATOM      1  C   UNL     1      -6.031 -18.419  24.415  1.00  0.00     0.000 C 
ENDROOT
BRANCH   1   2
ATOM      2  C   UNL     1      -4.858 -18.765  23.486  1.00  0.00     0.000 C 
BRANCH   2   3
ATOM      3  C   UNL     1      -4.686 -20.286  23.363  1.00  0.00     0.000 C 
BRANCH   3   4
ATOM      4  C   UNL     1      -3.732 -20.689  22.224  1.00  0.00     0.000 C 
BRANCH   4   5
ATOM      5  C   UNL     1      -2.264 -20.906  22.645  1.00  0.00     0.000 C 
BRANCH   5   6
ATOM      6  C   UNL     1      -1.410 -19.625  22.730  1.00  0.00     0.006 C 
BRANCH   6   7
ATOM      7  C   UNL     1      -0.678 -19.439  24.068  1.00  0.00     0.053 C 
BRANCH   7   8
ATOM      8  C   UNL     1      -0.672 -18.008  24.509  1.00  0.00     0.041 C 
ATOM      9  O   UNL     1      -0.100 -17.133  23.808  1.00  0.00    -0.550 OA
ATOM     10  O   UNL     1      -1.327 -17.636  25.676  1.00  0.00    -0.550 OA
ENDBRANCH   7   8
ENDBRANCH   6   7
ENDBRANCH   5   6
ENDBRANCH   4   5
ENDBRANCH   3   4
ENDBRANCH   2   3
ENDBRANCH   1   2
BRANCH   1  11
ATOM     11  C   UNL     1      -5.833 -18.952  25.844  1.00  0.00     0.000 C 
BRANCH  11  12
ATOM     12  C   UNL     1      -5.929 -17.846  26.906  1.00  0.00    -0.000 C 
BRANCH  12  13
ATOM     13  C   UNL     1      -7.260 -17.087  26.790  1.00  0.00    -0.000 C 
BRANCH  13  14
ATOM     14  C   UNL     1      -8.458 -17.919  27.273  1.00  0.00    -0.000 C 
BRANCH  14  15
ATOM     15  C   UNL     1      -9.304 -17.183  28.326  1.00  0.00    -0.000 C 
BRANCH  15  16
ATOM     16  C   UNL     1      -9.244 -17.850  29.712  1.00  0.00    -0.000 C 
BRANCH  16  17
ATOM     17  C   UNL     1      -8.145 -17.306  30.641  1.00  0.00    -0.003 C 
ATOM     18  C   UNL     1      -8.425 -17.571  32.121  1.00  0.00     0.004 C 
ENDBRANCH  16  17
ENDBRANCH  15  16
ENDBRANCH  14  15
ENDBRANCH  13  14
ENDBRANCH  12  13
ENDBRANCH  11  12
ENDBRANCH   1  11
TORSDOF 14
ENDMDL
MODEL 2
REMARK VINA RESULT:    13.542      1.534      2.396
REMARK INTER + INTRA:          23.850
REMARK INTER:                  24.553
REMARK INTRA:                  -0.703
REMARK UNBOUND:                -0.776
REMARK SMILES CCCCCCCCCCCCCCCC(=O)[O-]
REMARK SMILES IDX 9 1 10 2 11 3 12 4 13 5 14 6 15 7 16 8 17 9 18 10 8 11 7 12
REMARK SMILES IDX 6 13 5 14 4 15 3 16 2 17 1 18
REMARK H PARENT
REMARK Flexibility Score: inf
ROOT
ATOM      1  C   UNL     1      -5.984 -18.299  24.431  1.00  0.00     0.000 C 
ENDROOT
BRANCH   1   2
ATOM      2  C   UNL     1      -4.854 -18.684  23.465  1.00  0.00     0.000 C 
BRANCH   2   3
ATOM      3  C   UNL     1      -4.608 -20.200  23.484  1.00  0.00     0.000 C 
BRANCH   3   4
ATOM      4  C   UNL     1      -3.724 -20.677  22.318  1.00  0.00     0.000 C 
BRANCH   4   5
ATOM      5  C   UNL     1      -2.238 -20.895  22.670  1.00  0.00     0.000 C 
BRANCH   5   6
ATOM      6  C   UNL     1      -1.394 -19.609  22.780  1.00  0.00     0.006 C 
BRANCH   6   7
ATOM      7  C   UNL     1      -0.698 -19.423  24.138  1.00  0.00     0.053 C 
BRANCH   7   8
ATOM      8  C   UNL     1      -0.711 -17.993  24.582  1.00  0.00     0.041 C 
ATOM      9  O   UNL     1      -0.134 -17.111  23.893  1.00  0.00    -0.550 OA
ATOM     10  O   UNL     1      -1.388 -17.628  25.739  1.00  0.00    -0.550 OA
ENDBRANCH   7   8
ENDBRANCH   6   7
ENDBRANCH   5   6
ENDBRANCH   4   5
ENDBRANCH   3   4
ENDBRANCH   2   3
ENDBRANCH   1   2
BRANCH   1  11
ATOM     11  C   UNL     1      -5.794 -18.895  25.835  1.00  0.00     0.000 C 
BRANCH  11  12
ATOM     12  C   UNL     1      -6.138 -17.898  26.953  1.00  0.00    -0.000 C 
BRANCH  12  13
ATOM     13  C   UNL     1      -7.485 -17.212  26.681  1.00  0.00    -0.000 C 
BRANCH  13  14
ATOM     14  C   UNL     1      -8.460 -17.337  27.862  1.00  0.00    -0.000 C 
BRANCH  14  15
ATOM     15  C   UNL     1      -9.789 -16.603  27.613  1.00  0.00    -0.000 C 
BRANCH  15  16
ATOM     16  C   UNL     1      -9.603 -15.266  26.872  1.00  0.00    -0.000 C 
BRANCH  16  17
ATOM     17  C   UNL     1     -10.912 -14.559  26.483  1.00  0.00    -0.003 C 
ATOM     18  C   UNL     1     -10.934 -13.080  26.873  1.00  0.00     0.004 C 
ENDBRANCH  16  17
ENDBRANCH  15  16
ENDBRANCH  14  15
ENDBRANCH  13  14
ENDBRANCH  12  13
ENDBRANCH  11  12
ENDBRANCH   1  11
TORSDOF 14
ENDMDL
MODEL 3
REMARK VINA RESULT:    13.955      3.482      8.323
REMARK INTER + INTRA:          24.600
REMARK INTER:                  25.024
REMARK INTRA:                  -0.424
REMARK UNBOUND:                -0.776
REMARK SMILES CCCCCCCCCCCCCCCC(=O)[O-]
REMARK SMILES IDX 9 1 10 2 11 3 12 4 13 5 14 6 15 7 16 8 17 9 18 10 8 11 7 12
REMARK SMILES IDX 6 13 5 14 4 15 3 16 2 17 1 18
REMARK H PARENT
REMARK Flexibility Score: inf
ROOT
ATOM      1  C   UNL     1      -6.132 -18.293  24.967  1.00  0.00     0.000 C 
ENDROOT
BRANCH   1   2
ATOM      2  C   UNL     1      -5.911 -18.093  26.474  1.00  0.00     0.000 C 
BRANCH   2   3
ATOM      3  C   UNL     1      -7.003 -17.197  27.075  1.00  0.00     0.000 C 
BRANCH   3   4
ATOM      4  C   UNL     1      -8.420 -17.765  26.875  1.00  0.00     0.000 C 
BRANCH   4   5
ATOM      5  C   UNL     1      -9.497 -17.182  27.811  1.00  0.00     0.000 C 
BRANCH   5   6
ATOM      6  C   UNL     1      -9.461 -17.705  29.260  1.00  0.00     0.006 C 
BRANCH   6   7
ATOM      7  C   UNL     1      -8.127 -17.469  29.985  1.00  0.00     0.053 C 
BRANCH   7   8
ATOM      8  C   UNL     1      -8.260 -17.624  31.469  1.00  0.00     0.041 C 
ATOM      9  O   UNL     1      -8.991 -16.835  32.124  1.00  0.00    -0.550 OA
ATOM     10  O   UNL     1      -7.606 -18.660  32.124  1.00  0.00    -0.550 OA
ENDBRANCH   7   8
ENDBRANCH   6   7
ENDBRANCH   5   6
ENDBRANCH   4   5
ENDBRANCH   3   4
ENDBRANCH   2   3
ENDBRANCH   1   2
BRANCH   1  11
ATOM     11  C   UNL     1      -4.850 -18.708  24.228  1.00  0.00     0.000 C 
BRANCH  11  12
ATOM     12  C   UNL     1      -5.135 -19.352  22.862  1.00  0.00    -0.000 C 
BRANCH  12  13
ATOM     13  C   UNL     1      -4.412 -20.702  22.731  1.00  0.00    -0.000 C 
BRANCH  13  14
ATOM     14  C   UNL     1      -2.985 -20.555  22.182  1.00  0.00    -0.000 C 
BRANCH  14  15
ATOM     15  C   UNL     1      -1.915 -20.654  23.284  1.00  0.00    -0.000 C 
BRANCH  15  16
ATOM     16  C   UNL     1      -1.035 -19.393  23.376  1.00  0.00    -0.000 C 
BRANCH  16  17
ATOM     17  C   UNL     1      -0.418 -19.140  24.762  1.00  0.00    -0.003 C 
ATOM     18  C   UNL     1      -1.104 -18.007  25.526  1.00  0.00     0.004 C 
ENDBRANCH  16  17
ENDBRANCH  15  16
ENDBRANCH  14  15
ENDBRANCH  13  14
ENDBRANCH  12  13
ENDBRANCH  11  12
ENDBRANCH   1  11
TORSDOF 14
ENDMDL
MODEL 4
REMARK VINA RESULT:    14.276      2.128      3.070
REMARK INTER + INTRA:          25.185
REMARK INTER:                  26.034
REMARK INTRA:                  -0.849
REMARK UNBOUND:                -0.776
REMARK SMILES CCCCCCCCCCCCCCCC(=O)[O-]
REMARK SMILES IDX 9 1 10 2 11 3 12 4 13 5 14 6 15 7 16 8 17 9 18 10 8 11 7 12
REMARK SMILES IDX 6 13 5 14 4 15 3 16 2 17 1 18
REMARK H PARENT
REMARK Flexibility Score: inf
ROOT
ATOM      1  C   UNL     1      -4.393 -17.813  27.340  1.00  0.00     0.000 C 
ENDROOT
BRANCH   1   2
ATOM      2  C   UNL     1      -2.869 -17.856  27.155  1.00  0.00     0.000 C 
BRANCH   2   3
ATOM      3  C   UNL     1      -2.496 -17.808  25.666  1.00  0.00     0.000 C 
BRANCH   3   4
ATOM      4  C   UNL     1      -1.055 -18.276  25.395  1.00  0.00     0.000 C 
BRANCH   4   5
ATOM      5  C   UNL     1      -0.786 -18.768  23.959  1.00  0.00     0.000 C 
BRANCH   5   6
ATOM      6  C   UNL     1      -1.348 -20.165  23.628  1.00  0.00     0.006 C 
BRANCH   6   7
ATOM      7  C   UNL     1      -2.180 -20.224  22.337  1.00  0.00     0.053 C 
BRANCH   7   8
ATOM      8  C   UNL     1      -3.611 -20.573  22.609  1.00  0.00     0.041 C 
ATOM      9  O   UNL     1      -4.427 -19.677  22.948  1.00  0.00    -0.550 OA
ATOM     10  O   UNL     1      -4.051 -21.881  22.453  1.00  0.00    -0.550 OA
ENDBRANCH   7   8
ENDBRANCH   6   7
ENDBRANCH   5   6
ENDBRANCH   4   5
ENDBRANCH   3   4
ENDBRANCH   2   3
ENDBRANCH   1   2
BRANCH   1  11
ATOM     11  C   UNL     1      -5.157 -18.239  26.076  1.00  0.00     0.000 C 
BRANCH  11  12
ATOM     12  C   UNL     1      -6.681 -18.217  26.270  1.00  0.00    -0.000 C 
BRANCH  12  13
ATOM     13  C   UNL     1      -7.092 -17.129  27.275  1.00  0.00    -0.000 C 
BRANCH  13  14
ATOM     14  C   UNL     1      -8.616 -17.010  27.425  1.00  0.00    -0.000 C 
BRANCH  14  15
ATOM     15  C   UNL     1      -9.212 -18.116  28.312  1.00  0.00    -0.000 C 
BRANCH  15  16
ATOM     16  C   UNL     1      -9.476 -17.646  29.755  1.00  0.00    -0.000 C 
BRANCH  16  17
ATOM     17  C   UNL     1      -8.215 -17.504  30.626  1.00  0.00    -0.003 C 
ATOM     18  C   UNL     1      -8.530 -17.209  32.092  1.00  0.00     0.004 C 
ENDBRANCH  16  17
ENDBRANCH  15  16
ENDBRANCH  14  15
ENDBRANCH  13  14
ENDBRANCH  12  13
ENDBRANCH  11  12
ENDBRANCH   1  11
TORSDOF 14
ENDMDL
MODEL 5
REMARK VINA RESULT:    14.541      3.611      8.037
REMARK INTER + INTRA:          25.665
REMARK INTER:                  26.632
REMARK INTRA:                  -0.967
REMARK UNBOUND:                -0.776
REMARK SMILES CCCCCCCCCCCCCCCC(=O)[O-]
REMARK SMILES IDX 9 1 10 2 11 3 12 4 13 5 14 6 15 7 16 8 17 9 18 10 8 11 7 12
REMARK SMILES IDX 6 13 5 14 4 15 3 16 2 17 1 18
REMARK H PARENT
REMARK Flexibility Score: inf
ROOT
ATOM      1  C   UNL     1      -2.705 -17.559  25.907  1.00  0.00     0.000 C 
ENDROOT
BRANCH   1   2
ATOM      2  C   UNL     1      -3.273 -17.907  27.291  1.00  0.00     0.000 C 
BRANCH   2   3
ATOM      3  C   UNL     1      -4.789 -17.668  27.337  1.00  0.00     0.000 C 
BRANCH   3   4
ATOM      4  C   UNL     1      -5.555 -18.478  26.276  1.00  0.00     0.000 C 
BRANCH   4   5
ATOM      5  C   UNL     1      -6.835 -17.807  25.738  1.00  0.00     0.000 C 
BRANCH   5   6
ATOM      6  C   UNL     1      -7.575 -16.904  26.744  1.00  0.00     0.006 C 
BRANCH   6   7
ATOM      7  C   UNL     1      -8.478 -17.662  27.731  1.00  0.00     0.053 C 
BRANCH   7   8
ATOM      8  C   UNL     1      -9.740 -16.912  28.025  1.00  0.00     0.041 C 
ATOM      9  O   UNL     1     -10.517 -17.311  28.932  1.00  0.00    -0.550 OA
ATOM     10  O   UNL     1     -10.042 -15.753  27.321  1.00  0.00    -0.550 OA
ENDBRANCH   7   8
ENDBRANCH   6   7
ENDBRANCH   5   6
ENDBRANCH   4   5
ENDBRANCH   3   4
ENDBRANCH   2   3
ENDBRANCH   1   2
BRANCH   1  11
ATOM     11  C   UNL     1      -1.230 -17.963  25.752  1.00  0.00     0.000 C 
BRANCH  11  12
ATOM     12  C   UNL     1      -0.540 -17.246  24.581  1.00  0.00    -0.000 C 
BRANCH  12  13
ATOM     13  C   UNL     1      -0.126 -18.248  23.491  1.00  0.00    -0.000 C 
BRANCH  13  14
ATOM     14  C   UNL     1      -0.827 -19.607  23.643  1.00  0.00    -0.000 C 
BRANCH  14  15
ATOM     15  C   UNL     1      -1.662 -19.985  22.407  1.00  0.00    -0.000 C 
BRANCH  15  16
ATOM     16  C   UNL     1      -2.647 -21.136  22.682  1.00  0.00    -0.000 C 
BRANCH  16  17
ATOM     17  C   UNL     1      -4.126 -20.789  22.438  1.00  0.00    -0.003 C 
ATOM     18  C   UNL     1      -4.609 -19.602  23.272  1.00  0.00     0.004 C 
ENDBRANCH  16  17
ENDBRANCH  15  16
ENDBRANCH  14  15
ENDBRANCH  13  14
ENDBRANCH  12  13
ENDBRANCH  11  12
ENDBRANCH   1  11
TORSDOF 14
ENDMDL
MODEL 6
REMARK VINA RESULT:    14.552      2.378      3.776
REMARK INTER + INTRA:          25.686
REMARK INTER:                  26.448
REMARK INTRA:                  -0.762
REMARK UNBOUND:                -0.776
REMARK SMILES CCCCCCCCCCCCCCCC(=O)[O-]
REMARK SMILES IDX 9 1 10 2 11 3 12 4 13 5 14 6 15 7 16 8 17 9 18 10 8 11 7 12
REMARK SMILES IDX 6 13 5 14 4 15 3 16 2 17 1 18
REMARK H PARENT
REMARK Flexibility Score: inf
ROOT
ATOM      1  C   UNL     1      -3.413 -17.934  27.350  1.00  0.00     0.000 C 
ENDROOT
BRANCH   1   2
ATOM      2  C   UNL     1      -2.605 -17.456  26.134  1.00  0.00     0.000 C 
BRANCH   2   3
ATOM      3  C   UNL     1      -1.299 -18.253  25.997  1.00  0.00     0.000 C 
BRANCH   3   4
ATOM      4  C   UNL     1      -0.690 -18.163  24.586  1.00  0.00     0.000 C 
BRANCH   4   5
ATOM      5  C   UNL     1      -0.692 -19.482  23.788  1.00  0.00     0.000 C 
BRANCH   5   6
ATOM      6  C   UNL     1      -1.655 -19.520  22.584  1.00  0.00     0.006 C 
BRANCH   6   7
ATOM      7  C   UNL     1      -2.371 -20.865  22.387  1.00  0.00     0.053 C 
BRANCH   7   8
ATOM      8  C   UNL     1      -3.854 -20.739  22.548  1.00  0.00     0.041 C 
ATOM      9  O   UNL     1      -4.610 -21.690  22.216  1.00  0.00    -0.550 OA
ATOM     10  O   UNL     1      -4.400 -19.585  23.095  1.00  0.00    -0.550 OA
ENDBRANCH   7   8
ENDBRANCH   6   7
ENDBRANCH   5   6
ENDBRANCH   4   5
ENDBRANCH   3   4
ENDBRANCH   2   3
ENDBRANCH   1   2
BRANCH   1  11
ATOM     11  C   UNL     1      -4.903 -17.565  27.254  1.00  0.00     0.000 C 
BRANCH  11  12
ATOM     12  C   UNL     1      -5.620 -18.291  26.106  1.00  0.00    -0.000 C 
BRANCH  12  13
ATOM     13  C   UNL     1      -7.140 -18.309  26.333  1.00  0.00    -0.000 C 
BRANCH  13  14
ATOM     14  C   UNL     1      -7.620 -17.139  27.205  1.00  0.00    -0.000 C 
BRANCH  14  15
ATOM     15  C   UNL     1      -8.950 -17.438  27.918  1.00  0.00    -0.000 C 
BRANCH  15  16
ATOM     16  C   UNL     1     -10.068 -16.451  27.536  1.00  0.00    -0.000 C 
BRANCH  16  17
ATOM     17  C   UNL     1      -9.581 -15.162  26.851  1.00  0.00    -0.003 C 
ATOM     18  C   UNL     1     -10.704 -14.156  26.600  1.00  0.00     0.004 C 
ENDBRANCH  16  17
ENDBRANCH  15  16
ENDBRANCH  14  15
ENDBRANCH  13  14
ENDBRANCH  12  13
ENDBRANCH  11  12
ENDBRANCH   1  11
TORSDOF 14
ENDMDL
MODEL 7
REMARK VINA RESULT:    14.874      2.153      3.538
REMARK INTER + INTRA:          26.271
REMARK INTER:                  27.071
REMARK INTRA:                  -0.800
REMARK UNBOUND:                -0.776
REMARK SMILES CCCCCCCCCCCCCCCC(=O)[O-]
REMARK SMILES IDX 9 1 10 2 11 3 12 4 13 5 14 6 15 7 16 8 17 9 18 10 8 11 7 12
REMARK SMILES IDX 6 13 5 14 4 15 3 16 2 17 1 18
REMARK H PARENT
REMARK Flexibility Score: inf
ROOT
ATOM      1  C   UNL     1      -2.770 -17.382  26.048  1.00  0.00     0.000 C 
ENDROOT
BRANCH   1   2
ATOM      2  C   UNL     1      -1.371 -17.960  25.788  1.00  0.00     0.000 C 
BRANCH   2   3
ATOM      3  C   UNL     1      -0.816 -17.470  24.443  1.00  0.00     0.000 C 
BRANCH   3   4
ATOM      4  C   UNL     1      -0.321 -18.619  23.546  1.00  0.00     0.000 C 
BRANCH   4   5
ATOM      5  C   UNL     1      -0.427 -20.026  24.168  1.00  0.00     0.000 C 
BRANCH   5   6
ATOM      6  C   UNL     1      -1.482 -20.949  23.527  1.00  0.00     0.006 C 
BRANCH   6   7
ATOM      7  C   UNL     1      -2.259 -20.312  22.364  1.00  0.00     0.053 C 
BRANCH   7   8
ATOM      8  C   UNL     1      -3.740 -20.449  22.538  1.00  0.00     0.041 C 
ATOM      9  O   UNL     1      -4.348 -21.430  22.036  1.00  0.00    -0.550 OA
ATOM     10  O   UNL     1      -4.444 -19.511  23.283  1.00  0.00    -0.550 OA
ENDBRANCH   7   8
ENDBRANCH   6   7
ENDBRANCH   5   6
ENDBRANCH   4   5
ENDBRANCH   3   4
ENDBRANCH   2   3
ENDBRANCH   1   2
BRANCH   1  11
ATOM     11  C   UNL     1      -3.446 -17.996  27.285  1.00  0.00     0.000 C 
BRANCH  11  12
ATOM     12  C   UNL     1      -4.956 -17.716  27.334  1.00  0.00    -0.000 C 
BRANCH  12  13
ATOM     13  C   UNL     1      -5.681 -18.404  26.167  1.00  0.00    -0.000 C 
BRANCH  13  14
ATOM     14  C   UNL     1      -7.173 -18.045  26.106  1.00  0.00    -0.000 C 
BRANCH  14  15
ATOM     15  C   UNL     1      -7.524 -16.824  26.974  1.00  0.00    -0.000 C 
BRANCH  15  16
ATOM     16  C   UNL     1      -9.003 -16.802  27.403  1.00  0.00    -0.000 C 
BRANCH  16  17
ATOM     17  C   UNL     1      -9.382 -17.854  28.460  1.00  0.00    -0.003 C 
ATOM     18  C   UNL     1      -9.678 -19.228  27.859  1.00  0.00     0.004 C 
ENDBRANCH  16  17
ENDBRANCH  15  16
ENDBRANCH  14  15
ENDBRANCH  13  14
ENDBRANCH  12  13
ENDBRANCH  11  12
ENDBRANCH   1  11
TORSDOF 14
ENDMDL
