MODEL 1
REMARK VINA RESULT:    -3.827      0.000      0.000
REMARK INTER + INTRA:          -9.397
REMARK INTER:                  -7.407
REMARK INTRA:                  -1.989
REMARK UNBOUND:                -1.989
REMARK SMILES CCCCCCCCCCCCCCCCCC(=O)[O-]
REMARK SMILES IDX 10 1 11 2 12 3 13 4 14 5 15 6 16 7 17 8 18 9 19 10 20 11
REMARK SMILES IDX 9 12 8 13 7 14 6 15 5 16 4 17 3 18 2 19 1 20
REMARK H PARENT
REMARK Flexibility Score: inf
ROOT
ATOM      1  C   UNL     1       4.092  16.128   8.779  1.00  0.00     0.000 C 
ENDROOT
BRANCH   1   2
ATOM      2  C   UNL     1       4.527  17.608   8.763  1.00  0.00     0.000 C 
BRANCH   2   3
ATOM      3  C   UNL     1       3.355  18.553   8.444  1.00  0.00     0.000 C 
BRANCH   3   4
ATOM      4  C   UNL     1       3.403  19.086   7.004  1.00  0.00     0.000 C 
BRANCH   4   5
ATOM      5  C   UNL     1       2.273  18.518   6.127  1.00  0.00     0.000 C 
BRANCH   5   6
ATOM      6  C   UNL     1       2.796  17.777   4.884  1.00  0.00     0.000 C 
BRANCH   6   7
ATOM      7  C   UNL     1       4.170  17.105   5.061  1.00  0.00     0.006 C 
BRANCH   7   8
ATOM      8  C   UNL     1       4.078  15.582   5.215  1.00  0.00     0.053 C 
BRANCH   8   9
ATOM      9  C   UNL     1       5.444  14.975   5.236  1.00  0.00     0.041 C 
ATOM     10  O   UNL     1       5.784  14.144   4.351  1.00  0.00    -0.550 OA
ATOM     11  O   UNL     1       6.327  15.284   6.263  1.00  0.00    -0.550 OA
ENDBRANCH   8   9
ENDBRANCH   7   8
ENDBRANCH   6   7
ENDBRANCH   5   6
ENDBRANCH   4   5
ENDBRANCH   3   4
ENDBRANCH   2   3
ENDBRANCH   1   2
BRANCH   1  12
ATOM     12  C   UNL     1       2.569  15.939   8.877  1.00  0.00     0.000 C 
BRANCH  12  13
ATOM     13  C   UNL     1       2.174  14.654   9.623  1.00  0.00    -0.000 C 
BRANCH  13  14
ATOM     14  C   UNL     1       2.455  14.738  11.132  1.00  0.00    -0.000 C 
BRANCH  14  15
ATOM     15  C   UNL     1       3.711  13.949  11.542  1.00  0.00    -0.000 C 
BRANCH  15  16
ATOM     16  C   UNL     1       4.511  14.640  12.661  1.00  0.00    -0.000 C 
BRANCH  16  17
ATOM     17  C   UNL     1       4.502  16.179  12.605  1.00  0.00    -0.000 C 
BRANCH  17  18
ATOM     18  C   UNL     1       5.696  16.811  13.340  1.00  0.00    -0.000 C 
BRANCH  18  19
ATOM     19  C   UNL     1       6.223  15.923  14.477  1.00  0.00    -0.003 C 
ATOM     20  C   UNL     1       5.664  16.319  15.843  1.00  0.00     0.004 C 
ENDBRANCH  18  19
ENDBRANCH  17  18
ENDBRANCH  16  17
ENDBRANCH  15  16
ENDBRANCH  14  15
ENDBRANCH  13  14
ENDBRANCH  12  13
ENDBRANCH   1  12
TORSDOF 16
ENDMDL
MODEL 2
REMARK VINA RESULT:    -3.806      1.441      2.291
REMARK INTER + INTRA:          -9.355
REMARK INTER:                  -7.216
REMARK INTRA:                  -2.139
REMARK UNBOUND:                -1.989
REMARK SMILES CCCCCCCCCCCCCCCCCC(=O)[O-]
REMARK SMILES IDX 10 1 11 2 12 3 13 4 14 5 15 6 16 7 17 8 18 9 19 10 20 11
REMARK SMILES IDX 9 12 8 13 7 14 6 15 5 16 4 17 3 18 2 19 1 20
REMARK H PARENT
REMARK Flexibility Score: inf
ROOT
ATOM      1  C   UNL     1       4.108  16.184  10.256  1.00  0.00     0.000 C 
ENDROOT
BRANCH   1   2
ATOM      2  C   UNL     1       2.712  16.642   9.782  1.00  0.00     0.000 C 
BRANCH   2   3
ATOM      3  C   UNL     1       2.598  18.175   9.715  1.00  0.00     0.000 C 
BRANCH   3   4
ATOM      4  C   UNL     1       3.250  18.760   8.452  1.00  0.00     0.000 C 
BRANCH   4   5
ATOM      5  C   UNL     1       2.543  18.310   7.162  1.00  0.00     0.000 C 
BRANCH   5   6
ATOM      6  C   UNL     1       3.500  18.201   5.962  1.00  0.00     0.000 C 
BRANCH   6   7
ATOM      7  C   UNL     1       3.668  16.779   5.396  1.00  0.00     0.006 C 
BRANCH   7   8
ATOM      8  C   UNL     1       4.070  15.751   6.462  1.00  0.00     0.053 C 
BRANCH   8   9
ATOM      9  C   UNL     1       5.553  15.564   6.475  1.00  0.00     0.041 C 
ATOM     10  O   UNL     1       6.251  16.093   7.382  1.00  0.00    -0.550 OA
ATOM     11  O   UNL     1       6.173  14.850   5.459  1.00  0.00    -0.550 OA
ENDBRANCH   8   9
ENDBRANCH   7   8
ENDBRANCH   6   7
ENDBRANCH   5   6
ENDBRANCH   4   5
ENDBRANCH   3   4
ENDBRANCH   2   3
ENDBRANCH   1   2
BRANCH   1  12
ATOM     12  C   UNL     1       4.113  14.774  10.870  1.00  0.00     0.000 C 
BRANCH  12  13
ATOM     13  C   UNL     1       3.109  14.622  12.025  1.00  0.00    -0.000 C 
BRANCH  13  14
ATOM     14  C   UNL     1       3.797  14.378  13.377  1.00  0.00    -0.000 C 
BRANCH  14  15
ATOM     15  C   UNL     1       5.316  14.621  13.317  1.00  0.00    -0.000 C 
BRANCH  15  16
ATOM     16  C   UNL     1       5.781  15.731  14.277  1.00  0.00    -0.000 C 
BRANCH  16  17
ATOM     17  C   UNL     1       5.409  17.160  13.840  1.00  0.00    -0.000 C 
BRANCH  17  18
ATOM     18  C   UNL     1       4.872  18.017  14.999  1.00  0.00    -0.000 C 
BRANCH  18  19
ATOM     19  C   UNL     1       3.420  18.466  14.774  1.00  0.00    -0.003 C 
ATOM     20  C   UNL     1       2.843  17.957  13.453  1.00  0.00     0.004 C 
ENDBRANCH  18  19
ENDBRANCH  17  18
ENDBRANCH  16  17
ENDBRANCH  15  16
ENDBRANCH  14  15
ENDBRANCH  13  14
ENDBRANCH  12  13
ENDBRANCH   1  12
TORSDOF 16
ENDMDL
MODEL 3
REMARK VINA RESULT:    -3.746      3.266      7.350
REMARK INTER + INTRA:          -9.239
REMARK INTER:                  -6.889
REMARK INTRA:                  -2.350
REMARK UNBOUND:                -1.989
REMARK SMILES CCCCCCCCCCCCCCCCCC(=O)[O-]
REMARK SMILES IDX 10 1 11 2 12 3 13 4 14 5 15 6 16 7 17 8 18 9 19 10 20 11
REMARK SMILES IDX 9 12 8 13 7 14 6 15 5 16 4 17 3 18 2 19 1 20
REMARK H PARENT
REMARK Flexibility Score: inf
ROOT
ATOM      1  C   UNL     1       3.634  18.422   8.451  1.00  0.00     0.000 C 
ENDROOT
BRANCH   1   2
ATOM      2  C   UNL     1       2.464  17.526   8.910  1.00  0.00     0.000 C 
BRANCH   2   3
ATOM      3  C   UNL     1       2.703  16.935  10.311  1.00  0.00     0.000 C 
BRANCH   3   4
ATOM      4  C   UNL     1       4.097  16.305  10.455  1.00  0.00     0.000 C 
BRANCH   4   5
ATOM      5  C   UNL     1       4.061  14.957  11.195  1.00  0.00     0.000 C 
BRANCH   5   6
ATOM      6  C   UNL     1       4.642  15.040  12.618  1.00  0.00     0.000 C 
BRANCH   6   7
ATOM      7  C   UNL     1       5.429  16.328  12.921  1.00  0.00     0.006 C 
BRANCH   7   8
ATOM      8  C   UNL     1       5.253  16.813  14.366  1.00  0.00     0.053 C 
BRANCH   8   9
ATOM      9  C   UNL     1       4.412  18.049  14.405  1.00  0.00     0.041 C 
ATOM     10  O   UNL     1       4.811  19.068  15.030  1.00  0.00    -0.550 OA
ATOM     11  O   UNL     1       3.164  18.061  13.796  1.00  0.00    -0.550 OA
ENDBRANCH   8   9
ENDBRANCH   7   8
ENDBRANCH   6   7
ENDBRANCH   5   6
ENDBRANCH   4   5
ENDBRANCH   3   4
ENDBRANCH   2   3
ENDBRANCH   1   2
BRANCH   1  12
ATOM     12  C   UNL     1       3.527  18.861   6.980  1.00  0.00     0.000 C 
BRANCH  12  13
ATOM     13  C   UNL     1       2.079  18.873   6.465  1.00  0.00    -0.000 C 
BRANCH  13  14
ATOM     14  C   UNL     1       1.887  17.986   5.225  1.00  0.00    -0.000 C 
BRANCH  14  15
ATOM     15  C   UNL     1       3.201  17.747   4.462  1.00  0.00    -0.000 C 
BRANCH  15  16
ATOM     16  C   UNL     1       3.576  16.257   4.369  1.00  0.00    -0.000 C 
BRANCH  16  17
ATOM     17  C   UNL     1       2.979  15.371   5.477  1.00  0.00    -0.000 C 
BRANCH  17  18
ATOM     18  C   UNL     1       3.980  15.067   6.605  1.00  0.00    -0.000 C 
BRANCH  18  19
ATOM     19  C   UNL     1       5.435  15.306   6.178  1.00  0.00    -0.003 C 
ATOM     20  C   UNL     1       6.265  15.989   7.266  1.00  0.00     0.004 C 
ENDBRANCH  18  19
ENDBRANCH  17  18
ENDBRANCH  16  17
ENDBRANCH  15  16
ENDBRANCH  14  15
ENDBRANCH  13  14
ENDBRANCH  12  13
ENDBRANCH   1  12
TORSDOF 16
ENDMDL
MODEL 4
REMARK VINA RESULT:    -3.711      3.611      7.724
REMARK INTER + INTRA:          -9.172
REMARK INTER:                  -6.984
REMARK INTRA:                  -2.187
REMARK UNBOUND:                -1.989
REMARK SMILES CCCCCCCCCCCCCCCCCC(=O)[O-]
REMARK SMILES IDX 10 1 11 2 12 3 13 4 14 5 15 6 16 7 17 8 18 9 19 10 20 11
REMARK SMILES IDX 9 12 8 13 7 14 6 15 5 16 4 17 3 18 2 19 1 20
REMARK H PARENT
REMARK Flexibility Score: inf
ROOT
ATOM      1  C   UNL     1       4.513  17.961   8.504  1.00  0.00     0.000 C 
ENDROOT
BRANCH   1   2
ATOM      2  C   UNL     1       4.272  16.732   9.407  1.00  0.00     0.000 C 
BRANCH   2   3
ATOM      3  C   UNL     1       3.000  16.882  10.260  1.00  0.00     0.000 C 
BRANCH   3   4
ATOM      4  C   UNL     1       2.868  15.778  11.320  1.00  0.00     0.000 C 
BRANCH   4   5
ATOM      5  C   UNL     1       4.079  14.828  11.335  1.00  0.00     0.000 C 
BRANCH   5   6
ATOM      6  C   UNL     1       4.770  14.762  12.708  1.00  0.00     0.000 C 
BRANCH   6   7
ATOM      7  C   UNL     1       5.082  16.131  13.342  1.00  0.00     0.006 C 
BRANCH   7   8
ATOM      8  C   UNL     1       6.060  16.038  14.521  1.00  0.00     0.053 C 
BRANCH   8   9
ATOM      9  C   UNL     1       5.333  16.201  15.817  1.00  0.00     0.041 C 
ATOM     10  O   UNL     1       4.489  15.340  16.184  1.00  0.00    -0.550 OA
ATOM     11  O   UNL     1       5.547  17.330  16.597  1.00  0.00    -0.550 OA
ENDBRANCH   8   9
ENDBRANCH   7   8
ENDBRANCH   6   7
ENDBRANCH   5   6
ENDBRANCH   4   5
ENDBRANCH   3   4
ENDBRANCH   2   3
ENDBRANCH   1   2
BRANCH   1  12
ATOM     12  C   UNL     1       3.218  18.684   8.097  1.00  0.00     0.000 C 
BRANCH  12  13
ATOM     13  C   UNL     1       3.227  19.142   6.629  1.00  0.00    -0.000 C 
BRANCH  13  14
ATOM     14  C   UNL     1       2.115  18.482   5.798  1.00  0.00    -0.000 C 
BRANCH  14  15
ATOM     15  C   UNL     1       2.667  17.687   4.602  1.00  0.00    -0.000 C 
BRANCH  15  16
ATOM     16  C   UNL     1       4.172  17.390   4.725  1.00  0.00    -0.000 C 
BRANCH  16  17
ATOM     17  C   UNL     1       4.541  15.895   4.686  1.00  0.00    -0.000 C 
BRANCH  17  18
ATOM     18  C   UNL     1       4.498  15.233   6.074  1.00  0.00    -0.000 C 
BRANCH  18  19
ATOM     19  C   UNL     1       3.290  14.300   6.243  1.00  0.00    -0.003 C 
ATOM     20  C   UNL     1       2.174  14.925   7.080  1.00  0.00     0.004 C 
ENDBRANCH  18  19
ENDBRANCH  17  18
ENDBRANCH  16  17
ENDBRANCH  15  16
ENDBRANCH  14  15
ENDBRANCH  13  14
ENDBRANCH  12  13
ENDBRANCH   1  12
TORSDOF 16
ENDMDL
MODEL 5
REMARK VINA RESULT:    -3.624      3.029      7.347
REMARK INTER + INTRA:          -9.003
REMARK INTER:                  -6.575
REMARK INTRA:                  -2.427
REMARK UNBOUND:                -1.989
REMARK SMILES CCCCCCCCCCCCCCCCCC(=O)[O-]
REMARK SMILES IDX 10 1 11 2 12 3 13 4 14 5 15 6 16 7 17 8 18 9 19 10 20 11
REMARK SMILES IDX 9 12 8 13 7 14 6 15 5 16 4 17 3 18 2 19 1 20
REMARK H PARENT
REMARK Flexibility Score: inf
ROOT
ATOM      1  C   UNL     1       4.736  16.946   8.020  1.00  0.00     0.000 C 
ENDROOT
BRANCH   1   2
ATOM      2  C   UNL     1       4.468  15.505   8.505  1.00  0.00     0.000 C 
BRANCH   2   3
ATOM      3  C   UNL     1       3.070  15.008   8.095  1.00  0.00     0.000 C 
BRANCH   3   4
ATOM      4  C   UNL     1       2.120  14.865   9.295  1.00  0.00     0.000 C 
BRANCH   4   5
ATOM      5  C   UNL     1       2.870  14.594  10.610  1.00  0.00     0.000 C 
BRANCH   5   6
ATOM      6  C   UNL     1       2.392  15.490  11.767  1.00  0.00     0.000 C 
BRANCH   6   7
ATOM      7  C   UNL     1       3.445  16.481  12.295  1.00  0.00     0.006 C 
BRANCH   7   8
ATOM      8  C   UNL     1       4.871  15.914  12.268  1.00  0.00     0.053 C 
BRANCH   8   9
ATOM      9  C   UNL     1       5.267  15.431  13.626  1.00  0.00     0.041 C 
ATOM     10  O   UNL     1       6.379  15.764  14.117  1.00  0.00    -0.550 OA
ATOM     11  O   UNL     1       4.435  14.569  14.328  1.00  0.00    -0.550 OA
ENDBRANCH   8   9
ENDBRANCH   7   8
ENDBRANCH   6   7
ENDBRANCH   5   6
ENDBRANCH   4   5
ENDBRANCH   3   4
ENDBRANCH   2   3
ENDBRANCH   1   2
BRANCH   1  12
ATOM     12  C   UNL     1       3.977  18.014   8.825  1.00  0.00     0.000 C 
BRANCH  12  13
ATOM     13  C   UNL     1       2.864  18.695   8.011  1.00  0.00    -0.000 C 
BRANCH  13  14
ATOM     14  C   UNL     1       3.335  19.123   6.612  1.00  0.00    -0.000 C 
BRANCH  14  15
ATOM     15  C   UNL     1       2.334  18.735   5.509  1.00  0.00    -0.000 C 
BRANCH  15  16
ATOM     16  C   UNL     1       2.198  17.212   5.334  1.00  0.00    -0.000 C 
BRANCH  16  17
ATOM     17  C   UNL     1       2.729  16.666   3.996  1.00  0.00    -0.000 C 
BRANCH  17  18
ATOM     18  C   UNL     1       4.220  16.975   3.774  1.00  0.00    -0.000 C 
BRANCH  18  19
ATOM     19  C   UNL     1       5.062  15.705   3.589  1.00  0.00    -0.003 C 
ATOM     20  C   UNL     1       5.358  14.994   4.910  1.00  0.00     0.004 C 
ENDBRANCH  18  19
ENDBRANCH  17  18
ENDBRANCH  16  17
ENDBRANCH  15  16
ENDBRANCH  14  15
ENDBRANCH  13  14
ENDBRANCH  12  13
ENDBRANCH   1  12
TORSDOF 16
ENDMDL
MODEL 6
REMARK VINA RESULT:    -3.621      3.350      7.511
REMARK INTER + INTRA:          -8.997
REMARK INTER:                  -6.607
REMARK INTRA:                  -2.390
REMARK UNBOUND:                -1.989
REMARK SMILES CCCCCCCCCCCCCCCCCC(=O)[O-]
REMARK SMILES IDX 10 1 11 2 12 3 13 4 14 5 15 6 16 7 17 8 18 9 19 10 20 11
REMARK SMILES IDX 9 12 8 13 7 14 6 15 5 16 4 17 3 18 2 19 1 20
REMARK H PARENT
REMARK Flexibility Score: inf
ROOT
ATOM      1  C   UNL     1       3.536  17.957   6.527  1.00  0.00     0.000 C 
ENDROOT
BRANCH   1   2
ATOM      2  C   UNL     1       3.161  18.937   7.659  1.00  0.00     0.000 C 
BRANCH   2   3
ATOM      3  C   UNL     1       2.073  18.363   8.584  1.00  0.00     0.000 C 
BRANCH   3   4
ATOM      4  C   UNL     1       2.594  18.080  10.001  1.00  0.00     0.000 C 
BRANCH   4   5
ATOM      5  C   UNL     1       2.779  16.577  10.272  1.00  0.00     0.000 C 
BRANCH   5   6
ATOM      6  C   UNL     1       4.231  16.208  10.627  1.00  0.00     0.000 C 
BRANCH   6   7
ATOM      7  C   UNL     1       4.406  15.505  11.986  1.00  0.00     0.006 C 
BRANCH   7   8
ATOM      8  C   UNL     1       5.258  16.313  12.974  1.00  0.00     0.053 C 
BRANCH   8   9
ATOM      9  C   UNL     1       4.395  17.232  13.779  1.00  0.00     0.041 C 
ATOM     10  O   UNL     1       4.917  18.146  14.472  1.00  0.00    -0.550 OA
ATOM     11  O   UNL     1       3.019  17.048  13.807  1.00  0.00    -0.550 OA
ENDBRANCH   8   9
ENDBRANCH   7   8
ENDBRANCH   6   7
ENDBRANCH   5   6
ENDBRANCH   4   5
ENDBRANCH   3   4
ENDBRANCH   2   3
ENDBRANCH   1   2
BRANCH   1  12
ATOM     12  C   UNL     1       2.748  16.636   6.575  1.00  0.00     0.000 C 
BRANCH  12  13
ATOM     13  C   UNL     1       3.648  15.414   6.818  1.00  0.00    -0.000 C 
BRANCH  13  14
ATOM     14  C   UNL     1       5.134  15.788   6.931  1.00  0.00    -0.000 C 
BRANCH  14  15
ATOM     15  C   UNL     1       5.994  15.119   5.844  1.00  0.00    -0.000 C 
BRANCH  15  16
ATOM     16  C   UNL     1       5.172  14.667   4.625  1.00  0.00    -0.000 C 
BRANCH  16  17
ATOM     17  C   UNL     1       5.455  15.450   3.329  1.00  0.00    -0.000 C 
BRANCH  17  18
ATOM     18  C   UNL     1       4.702  16.790   3.264  1.00  0.00    -0.000 C 
BRANCH  18  19
ATOM     19  C   UNL     1       3.203  16.609   2.989  1.00  0.00    -0.003 C 
ATOM     20  C   UNL     1       2.478  17.937   2.773  1.00  0.00     0.004 C 
ENDBRANCH  18  19
ENDBRANCH  17  18
ENDBRANCH  16  17
ENDBRANCH  15  16
ENDBRANCH  14  15
ENDBRANCH  13  14
ENDBRANCH  12  13
ENDBRANCH   1  12
TORSDOF 16
ENDMDL
MODEL 7
REMARK VINA RESULT:    -3.610      3.787      7.859
REMARK INTER + INTRA:          -8.976
REMARK INTER:                  -7.142
REMARK INTRA:                  -1.833
REMARK UNBOUND:                -1.989
REMARK SMILES CCCCCCCCCCCCCCCCCC(=O)[O-]
REMARK SMILES IDX 10 1 11 2 12 3 13 4 14 5 15 6 16 7 17 8 18 9 19 10 20 11
REMARK SMILES IDX 9 12 8 13 7 14 6 15 5 16 4 17 3 18 2 19 1 20
REMARK H PARENT
REMARK Flexibility Score: inf
ROOT
ATOM      1  C   UNL     1       2.285  16.291   8.754  1.00  0.00     0.000 C 
ENDROOT
BRANCH   1   2
ATOM      2  C   UNL     1       2.579  15.768  10.176  1.00  0.00     0.000 C 
BRANCH   2   3
ATOM      3  C   UNL     1       4.075  15.479  10.389  1.00  0.00     0.000 C 
BRANCH   3   4
ATOM      4  C   UNL     1       4.398  15.085  11.839  1.00  0.00     0.000 C 
BRANCH   4   5
ATOM      5  C   UNL     1       3.444  15.738  12.853  1.00  0.00     0.000 C 
BRANCH   5   6
ATOM      6  C   UNL     1       4.060  16.964  13.550  1.00  0.00     0.000 C 
BRANCH   6   7
ATOM      7  C   UNL     1       5.590  16.913  13.716  1.00  0.00     0.006 C 
BRANCH   7   8
ATOM      8  C   UNL     1       6.035  16.085  14.929  1.00  0.00     0.053 C 
BRANCH   8   9
ATOM      9  C   UNL     1       5.291  16.510  16.154  1.00  0.00     0.041 C 
ATOM     10  O   UNL     1       4.581  15.681  16.784  1.00  0.00    -0.550 OA
ATOM     11  O   UNL     1       5.337  17.833  16.572  1.00  0.00    -0.550 OA
ENDBRANCH   8   9
ENDBRANCH   7   8
ENDBRANCH   6   7
ENDBRANCH   5   6
ENDBRANCH   4   5
ENDBRANCH   3   4
ENDBRANCH   2   3
ENDBRANCH   1   2
BRANCH   1  12
ATOM     12  C   UNL     1       2.190  17.824   8.672  1.00  0.00     0.000 C 
BRANCH  12  13
ATOM     13  C   UNL     1       3.509  18.481   8.235  1.00  0.00    -0.000 C 
BRANCH  13  14
ATOM     14  C   UNL     1       3.398  19.172   6.867  1.00  0.00    -0.000 C 
BRANCH  14  15
ATOM     15  C   UNL     1       2.203  18.660   6.044  1.00  0.00    -0.000 C 
BRANCH  15  16
ATOM     16  C   UNL     1       2.631  17.851   4.807  1.00  0.00    -0.000 C 
BRANCH  16  17
ATOM     17  C   UNL     1       4.051  17.259   4.882  1.00  0.00    -0.000 C 
BRANCH  17  18
ATOM     18  C   UNL     1       4.074  15.835   5.464  1.00  0.00    -0.000 C 
BRANCH  18  19
ATOM     19  C   UNL     1       5.490  15.377   5.840  1.00  0.00    -0.003 C 
ATOM     20  C   UNL     1       5.931  15.887   7.212  1.00  0.00     0.004 C 
ENDBRANCH  18  19
ENDBRANCH  17  18
ENDBRANCH  16  17
ENDBRANCH  15  16
ENDBRANCH  14  15
ENDBRANCH  13  14
ENDBRANCH  12  13
ENDBRANCH   1  12
TORSDOF 16
ENDMDL
MODEL 8
REMARK VINA RESULT:    -3.519      3.862      8.358
REMARK INTER + INTRA:          -8.799
REMARK INTER:                  -6.988
REMARK INTRA:                  -1.811
REMARK UNBOUND:                -1.989
REMARK SMILES CCCCCCCCCCCCCCCCCC(=O)[O-]
REMARK SMILES IDX 10 1 11 2 12 3 13 4 14 5 15 6 16 7 17 8 18 9 19 10 20 11
REMARK SMILES IDX 9 12 8 13 7 14 6 15 5 16 4 17 3 18 2 19 1 20
REMARK H PARENT
REMARK Flexibility Score: inf
ROOT
ATOM      1  C   UNL     1       2.710  16.353  12.506  1.00  0.00     0.000 C 
ENDROOT
BRANCH   1   2
ATOM      2  C   UNL     1       3.248  14.911  12.623  1.00  0.00     0.000 C 
BRANCH   2   3
ATOM      3  C   UNL     1       4.137  14.723  13.866  1.00  0.00     0.000 C 
BRANCH   3   4
ATOM      4  C   UNL     1       5.618  15.018  13.580  1.00  0.00     0.000 C 
BRANCH   4   5
ATOM      5  C   UNL     1       6.176  16.146  14.466  1.00  0.00     0.000 C 
BRANCH   5   6
ATOM      6  C   UNL     1       5.542  16.173  15.868  1.00  0.00     0.000 C 
BRANCH   6   7
ATOM      7  C   UNL     1       5.168  17.576  16.382  1.00  0.00     0.006 C 
BRANCH   7   8
ATOM      8  C   UNL     1       4.627  18.494  15.278  1.00  0.00     0.053 C 
BRANCH   8   9
ATOM      9  C   UNL     1       3.150  18.677  15.427  1.00  0.00     0.041 C 
ATOM     10  O   UNL     1       2.628  19.807  15.228  1.00  0.00    -0.550 OA
ATOM     11  O   UNL     1       2.355  17.614  15.835  1.00  0.00    -0.550 OA
ENDBRANCH   8   9
ENDBRANCH   7   8
ENDBRANCH   6   7
ENDBRANCH   5   6
ENDBRANCH   4   5
ENDBRANCH   3   4
ENDBRANCH   2   3
ENDBRANCH   1   2
BRANCH   1  12
ATOM     12  C   UNL     1       2.834  16.938  11.089  1.00  0.00     0.000 C 
BRANCH  12  13
ATOM     13  C   UNL     1       3.943  16.269  10.262  1.00  0.00    -0.000 C 
BRANCH  13  14
ATOM     14  C   UNL     1       4.474  17.178   9.142  1.00  0.00    -0.000 C 
BRANCH  14  15
ATOM     15  C   UNL     1       3.434  18.214   8.681  1.00  0.00    -0.000 C 
BRANCH  15  16
ATOM     16  C   UNL     1       3.633  18.652   7.219  1.00  0.00    -0.000 C 
BRANCH  16  17
ATOM     17  C   UNL     1       2.964  17.740   6.175  1.00  0.00    -0.000 C 
BRANCH  17  18
ATOM     18  C   UNL     1       3.962  17.169   5.153  1.00  0.00    -0.000 C 
BRANCH  18  19
ATOM     19  C   UNL     1       4.804  16.023   5.731  1.00  0.00    -0.003 C 
ATOM     20  C   UNL     1       3.951  14.856   6.229  1.00  0.00     0.004 C 
ENDBRANCH  18  19
ENDBRANCH  17  18
ENDBRANCH  16  17
ENDBRANCH  15  16
ENDBRANCH  14  15
ENDBRANCH  13  14
ENDBRANCH  12  13
ENDBRANCH   1  12
TORSDOF 16
ENDMDL
MODEL 9
REMARK VINA RESULT:    -3.463      7.306     10.400
REMARK INTER + INTRA:          -8.691
REMARK INTER:                  -7.281
REMARK INTRA:                  -1.410
REMARK UNBOUND:                -1.989
REMARK SMILES CCCCCCCCCCCCCCCCCC(=O)[O-]
REMARK SMILES IDX 10 1 11 2 12 3 13 4 14 5 15 6 16 7 17 8 18 9 19 10 20 11
REMARK SMILES IDX 9 12 8 13 7 14 6 15 5 16 4 17 3 18 2 19 1 20
REMARK H PARENT
REMARK Flexibility Score: inf
ROOT
ATOM      1  C   UNL     1       1.878  22.786  15.262  1.00  0.00     0.000 C 
ENDROOT
BRANCH   1   2
ATOM      2  C   UNL     1       2.637  21.478  14.953  1.00  0.00     0.000 C 
BRANCH   2   3
ATOM      3  C   UNL     1       1.875  20.236  15.448  1.00  0.00     0.000 C 
BRANCH   3   4
ATOM      4  C   UNL     1       2.677  18.939  15.259  1.00  0.00     0.000 C 
BRANCH   4   5
ATOM      5  C   UNL     1       4.196  19.167  15.345  1.00  0.00     0.000 C 
BRANCH   5   6
ATOM      6  C   UNL     1       4.870  18.307  16.429  1.00  0.00     0.000 C 
BRANCH   6   7
ATOM      7  C   UNL     1       4.833  16.790  16.166  1.00  0.00     0.006 C 
BRANCH   7   8
ATOM      8  C   UNL     1       5.763  16.355  15.026  1.00  0.00     0.053 C 
BRANCH   8   9
ATOM      9  C   UNL     1       4.995  15.615  13.979  1.00  0.00     0.041 C 
ATOM     10  O   UNL     1       5.491  14.592  13.434  1.00  0.00    -0.550 OA
ATOM     11  O   UNL     1       3.755  16.082  13.565  1.00  0.00    -0.550 OA
ENDBRANCH   8   9
ENDBRANCH   7   8
ENDBRANCH   6   7
ENDBRANCH   5   6
ENDBRANCH   4   5
ENDBRANCH   3   4
ENDBRANCH   2   3
ENDBRANCH   1   2
BRANCH   1  12
ATOM     12  C   UNL     1       2.603  24.047  14.761  1.00  0.00     0.000 C 
BRANCH  12  13
ATOM     13  C   UNL     1       2.671  25.157  15.822  1.00  0.00    -0.000 C 
BRANCH  13  14
ATOM     14  C   UNL     1       3.875  26.090  15.622  1.00  0.00    -0.000 C 
BRANCH  14  15
ATOM     15  C   UNL     1       5.080  25.370  14.992  1.00  0.00    -0.000 C 
BRANCH  15  16
ATOM     16  C   UNL     1       5.647  26.113  13.768  1.00  0.00    -0.000 C 
BRANCH  16  17
ATOM     17  C   UNL     1       5.318  27.616  13.716  1.00  0.00    -0.000 C 
BRANCH  17  18
ATOM     18  C   UNL     1       4.529  28.012  12.456  1.00  0.00    -0.000 C 
BRANCH  18  19
ATOM     19  C   UNL     1       3.566  26.909  11.995  1.00  0.00    -0.003 C 
ATOM     20  C   UNL     1       2.100  27.336  12.071  1.00  0.00     0.004 C 
ENDBRANCH  18  19
ENDBRANCH  17  18
ENDBRANCH  16  17
ENDBRANCH  15  16
ENDBRANCH  14  15
ENDBRANCH  13  14
ENDBRANCH  12  13
ENDBRANCH   1  12
TORSDOF 16
ENDMDL
