MODEL 1
REMARK VINA RESULT:    51.866      0.000      0.000
REMARK INTER + INTRA:          74.410
REMARK INTER:                  74.606
REMARK INTRA:                  -0.197
REMARK UNBOUND:                -0.197
REMARK SMILES O=c1cc(-c2ccc(O)c(O)c2)oc2cc(O[C@H]3O[C@@H](CO)[C@@H](O)[C@@H](O)[C@H]3O)cc(O)c12
REMARK SMILES IDX 17 1 16 2 4 3 3 4 13 5 2 6 14 7 1 8 32 9 15 10 30 11 29 12
REMARK SMILES IDX 5 13 6 14 7 15 8 16 12 17 10 18 9 19 11 21 31 23 18 25 27 26
REMARK SMILES IDX 19 27 25 28 20 29 23 30 28 31 26 33 21 35 22 36 24 38
REMARK H PARENT 9 20 11 22 31 24 28 32 26 34 22 37 24 39
REMARK Flexibility Score: inf
ROOT
ATOM      1  O   UNL     1      15.651  49.787  58.080  1.00  0.00    -0.462 OA
ENDROOT
BRANCH   1   2
ATOM      2  C   UNL     1      15.896  48.428  57.831  1.00  0.00     0.130 A 
ATOM      3  C   UNL     1      18.763  44.921  56.310  1.00  0.00     0.138 A 
ATOM      4  C   UNL     1      17.795  43.939  56.567  1.00  0.00     0.100 A 
ATOM      5  O   UNL     1      18.493  46.195  56.598  1.00  0.00    -0.456 OA
ATOM      6  C   UNL     1      16.550  44.314  57.076  1.00  0.00     0.197 A 
ATOM      7  C   UNL     1      17.326  46.601  57.091  1.00  0.00     0.146 A 
ATOM      8  O   UNL     1      15.676  43.424  57.269  1.00  0.00    -0.289 OA
ATOM      9  C   UNL     1      16.290  45.672  57.346  1.00  0.00     0.107 A 
ATOM     10  C   UNL     1      17.132  47.963  57.343  1.00  0.00     0.094 A 
ATOM     11  C   UNL     1      15.054  46.137  57.850  1.00  0.00     0.134 A 
ATOM     12  C   UNL     1      14.869  47.511  58.073  1.00  0.00     0.093 A 
BRANCH   3  13
ATOM     13  C   UNL     1      20.083  44.591  55.718  1.00  0.00     0.021 A 
ATOM     14  C   UNL     1      21.168  44.191  56.519  1.00  0.00     0.016 A 
ATOM     15  C   UNL     1      22.384  43.831  55.935  1.00  0.00     0.051 A 
ATOM     16  C   UNL     1      22.537  43.855  54.542  1.00  0.00     0.157 A 
ATOM     17  C   UNL     1      20.245  44.616  54.318  1.00  0.00     0.062 A 
ATOM     18  C   UNL     1      21.460  44.249  53.730  1.00  0.00     0.158 A 
BRANCH  16  19
ATOM     19  O   UNL     1      23.750  43.489  53.963  1.00  0.00    -0.504 OA
ATOM     20  H   UNL     1      24.116  43.970  53.148  1.00  0.00     0.293 HD
ENDBRANCH  16  19
BRANCH  18  21
ATOM     21  O   UNL     1      21.581  44.282  52.340  1.00  0.00    -0.504 OA
ATOM     22  H   UNL     1      22.483  44.259  51.879  1.00  0.00     0.293 HD
ENDBRANCH  18  21
ENDBRANCH   3  13
BRANCH  11  23
ATOM     23  O   UNL     1      14.018  45.250  58.147  1.00  0.00    -0.507 OA
ATOM     24  H   UNL     1      14.109  44.536  58.863  1.00  0.00     0.293 HD
ENDBRANCH  11  23
ENDBRANCH   1   2
BRANCH   1  25
ATOM     25  C   UNL     1      15.614  50.397  59.375  1.00  0.00     0.339 C 
ATOM     26  C   UNL     1      14.513  51.504  59.437  1.00  0.00     0.214 C 
ATOM     27  O   UNL     1      16.884  50.963  59.638  1.00  0.00    -0.332 OA
ATOM     28  C   UNL     1      14.929  52.679  60.359  1.00  0.00     0.180 C 
ATOM     29  C   UNL     1      17.009  51.330  61.012  1.00  0.00     0.179 C 
ATOM     30  C   UNL     1      15.764  52.128  61.532  1.00  0.00     0.177 C 
BRANCH  26  31
ATOM     31  O   UNL     1      14.152  51.978  58.160  1.00  0.00    -0.384 OA
ATOM     32  H   UNL     1      13.178  51.830  58.040  1.00  0.00     0.211 HD
ENDBRANCH  26  31
BRANCH  28  33
ATOM     33  O   UNL     1      15.686  53.626  59.643  1.00  0.00    -0.387 OA
ATOM     34  H   UNL     1      15.362  53.610  58.704  1.00  0.00     0.211 HD
ENDBRANCH  28  33
BRANCH  29  35
ATOM     35  C   UNL     1      18.331  52.097  61.174  1.00  0.00     0.191 C 
BRANCH  35  36
ATOM     36  O   UNL     1      18.332  52.797  62.389  1.00  0.00    -0.394 OA
ATOM     37  H   UNL     1      17.447  53.244  62.463  1.00  0.00     0.210 HD
ENDBRANCH  35  36
ENDBRANCH  29  35
BRANCH  30  38
ATOM     38  O   UNL     1      16.097  53.127  62.465  1.00  0.00    -0.387 OA
ATOM     39  H   UNL     1      15.799  52.835  63.369  1.00  0.00     0.211 HD
ENDBRANCH  30  38
ENDBRANCH   1  25
TORSDOF 11
ENDMDL
MODEL 2
REMARK VINA RESULT:    52.004      1.257      1.908
REMARK INTER + INTRA:          74.609
REMARK INTER:                  74.799
REMARK INTRA:                  -0.190
REMARK UNBOUND:                -0.197
REMARK SMILES O=c1cc(-c2ccc(O)c(O)c2)oc2cc(O[C@H]3O[C@@H](CO)[C@@H](O)[C@@H](O)[C@H]3O)cc(O)c12
REMARK SMILES IDX 17 1 16 2 4 3 3 4 13 5 2 6 14 7 1 8 32 9 15 10 30 11 29 12
REMARK SMILES IDX 5 13 6 14 7 15 8 16 12 17 10 18 9 19 11 21 31 23 18 25 27 26
REMARK SMILES IDX 19 27 25 28 20 29 23 30 28 31 26 33 21 35 22 36 24 38
REMARK H PARENT 9 20 11 22 31 24 28 32 26 34 22 37 24 39
REMARK Flexibility Score: inf
ROOT
ATOM      1  O   UNL     1      16.311  48.872  60.233  1.00  0.00    -0.462 OA
ENDROOT
BRANCH   1   2
ATOM      2  C   UNL     1      16.329  47.888  59.234  1.00  0.00     0.130 A 
ATOM      3  C   UNL     1      18.714  45.068  56.202  1.00  0.00     0.138 A 
ATOM      4  C   UNL     1      17.530  44.507  55.700  1.00  0.00     0.100 A 
ATOM      5  O   UNL     1      18.644  45.974  57.178  1.00  0.00    -0.456 OA
ATOM      6  C   UNL     1      16.298  44.938  56.197  1.00  0.00     0.197 A 
ATOM      7  C   UNL     1      17.497  46.412  57.689  1.00  0.00     0.146 A 
ATOM      8  O   UNL     1      15.240  44.451  55.711  1.00  0.00    -0.289 OA
ATOM      9  C   UNL     1      16.261  45.916  57.211  1.00  0.00     0.107 A 
ATOM     10  C   UNL     1      17.527  47.379  58.698  1.00  0.00     0.094 A 
ATOM     11  C   UNL     1      15.058  46.416  57.759  1.00  0.00     0.134 A 
ATOM     12  C   UNL     1      15.107  47.405  58.754  1.00  0.00     0.093 A 
BRANCH   3  13
ATOM     13  C   UNL     1      20.049  44.690  55.676  1.00  0.00     0.021 A 
ATOM     14  C   UNL     1      21.088  44.285  56.533  1.00  0.00     0.016 A 
ATOM     15  C   UNL     1      22.319  43.881  56.011  1.00  0.00     0.051 A 
ATOM     16  C   UNL     1      22.531  43.865  54.625  1.00  0.00     0.157 A 
ATOM     17  C   UNL     1      20.271  44.675  54.285  1.00  0.00     0.062 A 
ATOM     18  C   UNL     1      21.501  44.264  53.759  1.00  0.00     0.158 A 
BRANCH  16  19
ATOM     19  O   UNL     1      23.759  43.455  54.109  1.00  0.00    -0.504 OA
ATOM     20  H   UNL     1      23.817  42.827  53.315  1.00  0.00     0.293 HD
ENDBRANCH  16  19
BRANCH  18  21
ATOM     21  O   UNL     1      21.681  44.258  52.374  1.00  0.00    -0.504 OA
ATOM     22  H   UNL     1      20.899  44.225  51.732  1.00  0.00     0.293 HD
ENDBRANCH  18  21
ENDBRANCH   3  13
BRANCH  11  23
ATOM     23  O   UNL     1      13.818  45.928  57.339  1.00  0.00    -0.507 OA
ATOM     24  H   UNL     1      13.250  46.420  56.656  1.00  0.00     0.293 HD
ENDBRANCH  11  23
ENDBRANCH   1   2
BRANCH   1  25
ATOM     25  C   UNL     1      15.856  50.218  60.061  1.00  0.00     0.339 C 
ATOM     26  C   UNL     1      17.050  51.172  59.735  1.00  0.00     0.214 C 
ATOM     27  O   UNL     1      15.220  50.631  61.256  1.00  0.00    -0.332 OA
ATOM     28  C   UNL     1      16.839  52.585  60.335  1.00  0.00     0.180 C 
ATOM     29  C   UNL     1      14.494  51.844  61.058  1.00  0.00     0.179 C 
ATOM     30  C   UNL     1      15.336  52.928  60.302  1.00  0.00     0.177 C 
BRANCH  26  31
ATOM     31  O   UNL     1      18.291  50.640  60.139  1.00  0.00    -0.384 OA
ATOM     32  H   UNL     1      18.230  50.414  61.103  1.00  0.00     0.211 HD
ENDBRANCH  26  31
BRANCH  28  33
ATOM     33  O   UNL     1      17.306  52.634  61.663  1.00  0.00    -0.387 OA
ATOM     34  H   UNL     1      16.546  52.929  62.230  1.00  0.00     0.211 HD
ENDBRANCH  28  33
BRANCH  29  35
ATOM     35  C   UNL     1      13.991  52.317  62.432  1.00  0.00     0.191 C 
BRANCH  35  36
ATOM     36  O   UNL     1      14.494  53.597  62.709  1.00  0.00    -0.394 OA
ATOM     37  H   UNL     1      14.561  54.074  61.841  1.00  0.00     0.210 HD
ENDBRANCH  35  36
ENDBRANCH  29  35
BRANCH  30  38
ATOM     38  O   UNL     1      15.078  54.239  60.744  1.00  0.00    -0.387 OA
ATOM     39  H   UNL     1      15.319  54.307  61.707  1.00  0.00     0.211 HD
ENDBRANCH  30  38
ENDBRANCH   1  25
TORSDOF 11
ENDMDL
MODEL 3
REMARK VINA RESULT:    52.643      1.070      1.607
REMARK INTER + INTRA:          75.527
REMARK INTER:                  75.638
REMARK INTRA:                  -0.110
REMARK UNBOUND:                -0.197
REMARK SMILES O=c1cc(-c2ccc(O)c(O)c2)oc2cc(O[C@H]3O[C@@H](CO)[C@@H](O)[C@@H](O)[C@H]3O)cc(O)c12
REMARK SMILES IDX 17 1 16 2 4 3 3 4 13 5 2 6 14 7 1 8 32 9 15 10 30 11 29 12
REMARK SMILES IDX 5 13 6 14 7 15 8 16 12 17 10 18 9 19 11 21 31 23 18 25 27 26
REMARK SMILES IDX 19 27 25 28 20 29 23 30 28 31 26 33 21 35 22 36 24 38
REMARK H PARENT 9 20 11 22 31 24 28 32 26 34 22 37 24 39
REMARK Flexibility Score: inf
ROOT
ATOM      1  O   UNL     1      15.196  49.628  58.379  1.00  0.00    -0.462 OA
ENDROOT
BRANCH   1   2
ATOM      2  C   UNL     1      15.527  48.304  58.055  1.00  0.00     0.130 A 
ATOM      3  C   UNL     1      18.635  45.067  56.415  1.00  0.00     0.138 A 
ATOM      4  C   UNL     1      17.719  44.018  56.579  1.00  0.00     0.100 A 
ATOM      5  O   UNL     1      18.283  46.303  56.773  1.00  0.00    -0.456 OA
ATOM      6  C   UNL     1      16.440  44.289  57.069  1.00  0.00     0.197 A 
ATOM      7  C   UNL     1      17.081  46.611  57.251  1.00  0.00     0.146 A 
ATOM      8  O   UNL     1      15.614  43.341  57.177  1.00  0.00    -0.289 OA
ATOM      9  C   UNL     1      16.093  45.611  57.413  1.00  0.00     0.107 A 
ATOM     10  C   UNL     1      16.801  47.940  57.580  1.00  0.00     0.094 A 
ATOM     11  C   UNL     1      14.818  45.973  57.904  1.00  0.00     0.134 A 
ATOM     12  C   UNL     1      14.548  47.317  58.206  1.00  0.00     0.093 A 
BRANCH   3  13
ATOM     13  C   UNL     1      19.989  44.849  55.848  1.00  0.00     0.021 A 
ATOM     14  C   UNL     1      20.929  44.021  56.488  1.00  0.00     0.016 A 
ATOM     15  C   UNL     1      22.177  43.786  55.907  1.00  0.00     0.051 A 
ATOM     16  C   UNL     1      22.506  44.367  54.674  1.00  0.00     0.157 A 
ATOM     17  C   UNL     1      20.329  45.432  54.611  1.00  0.00     0.062 A 
ATOM     18  C   UNL     1      21.576  45.193  54.023  1.00  0.00     0.158 A 
BRANCH  16  19
ATOM     19  O   UNL     1      23.751  44.125  54.095  1.00  0.00    -0.504 OA
ATOM     20  H   UNL     1      24.543  44.733  54.268  1.00  0.00     0.293 HD
ENDBRANCH  16  19
BRANCH  18  21
ATOM     21  O   UNL     1      21.874  45.784  52.794  1.00  0.00    -0.504 OA
ATOM     22  H   UNL     1      21.152  46.161  52.192  1.00  0.00     0.293 HD
ENDBRANCH  18  21
ENDBRANCH   3  13
BRANCH  11  23
ATOM     23  O   UNL     1      13.827  45.012  58.111  1.00  0.00    -0.507 OA
ATOM     24  H   UNL     1      13.383  44.882  59.015  1.00  0.00     0.293 HD
ENDBRANCH  11  23
ENDBRANCH   1   2
BRANCH   1  25
ATOM     25  C   UNL     1      15.939  50.473  59.263  1.00  0.00     0.339 C 
ATOM     26  C   UNL     1      15.895  49.925  60.726  1.00  0.00     0.214 C 
ATOM     27  O   UNL     1      15.377  51.772  59.218  1.00  0.00    -0.332 OA
ATOM     28  C   UNL     1      15.899  51.069  61.771  1.00  0.00     0.180 C 
ATOM     29  C   UNL     1      16.235  52.725  59.844  1.00  0.00     0.179 C 
ATOM     30  C   UNL     1      16.755  52.235  61.239  1.00  0.00     0.177 C 
BRANCH  26  31
ATOM     31  O   UNL     1      14.807  49.056  60.944  1.00  0.00    -0.384 OA
ATOM     32  H   UNL     1      15.121  48.304  61.510  1.00  0.00     0.211 HD
ENDBRANCH  26  31
BRANCH  28  33
ATOM     33  O   UNL     1      14.587  51.518  62.018  1.00  0.00    -0.387 OA
ATOM     34  H   UNL     1      14.646  52.221  62.718  1.00  0.00     0.211 HD
ENDBRANCH  28  33
BRANCH  29  35
ATOM     35  C   UNL     1      15.478  54.061  59.915  1.00  0.00     0.191 C 
BRANCH  35  36
ATOM     36  O   UNL     1      15.127  54.341  61.244  1.00  0.00    -0.394 OA
ATOM     37  H   UNL     1      14.339  54.945  61.212  1.00  0.00     0.210 HD
ENDBRANCH  35  36
ENDBRANCH  29  35
BRANCH  30  38
ATOM     38  O   UNL     1      16.884  53.275  62.179  1.00  0.00    -0.387 OA
ATOM     39  H   UNL     1      16.645  52.925  63.079  1.00  0.00     0.211 HD
ENDBRANCH  30  38
ENDBRANCH   1  25
TORSDOF 11
ENDMDL
MODEL 4
REMARK VINA RESULT:    52.672      2.433      4.721
REMARK INTER + INTRA:          75.569
REMARK INTER:                  75.593
REMARK INTRA:                  -0.023
REMARK UNBOUND:                -0.197
REMARK SMILES O=c1cc(-c2ccc(O)c(O)c2)oc2cc(O[C@H]3O[C@@H](CO)[C@@H](O)[C@@H](O)[C@H]3O)cc(O)c12
REMARK SMILES IDX 17 1 16 2 4 3 3 4 13 5 2 6 14 7 1 8 32 9 15 10 30 11 29 12
REMARK SMILES IDX 5 13 6 14 7 15 8 16 12 17 10 18 9 19 11 21 31 23 18 25 27 26
REMARK SMILES IDX 19 27 25 28 20 29 23 30 28 31 26 33 21 35 22 36 24 38
REMARK H PARENT 9 20 11 22 31 24 28 32 26 34 22 37 24 39
REMARK Flexibility Score: inf
ROOT
ATOM      1  O   UNL     1      15.201  49.580  58.583  1.00  0.00    -0.462 OA
ENDROOT
BRANCH   1   2
ATOM      2  C   UNL     1      15.815  48.489  57.950  1.00  0.00     0.130 A 
ATOM      3  C   UNL     1      16.557  43.787  57.537  1.00  0.00     0.138 A 
ATOM      4  C   UNL     1      17.443  43.962  56.464  1.00  0.00     0.100 A 
ATOM      5  O   UNL     1      15.971  44.855  58.081  1.00  0.00    -0.456 OA
ATOM      6  C   UNL     1      17.733  45.250  56.011  1.00  0.00     0.197 A 
ATOM      7  C   UNL     1      16.208  46.101  57.681  1.00  0.00     0.146 A 
ATOM      8  O   UNL     1      18.559  45.395  55.068  1.00  0.00    -0.289 OA
ATOM      9  C   UNL     1      17.115  46.358  56.625  1.00  0.00     0.107 A 
ATOM     10  C   UNL     1      15.558  47.157  58.327  1.00  0.00     0.094 A 
ATOM     11  C   UNL     1      17.362  47.695  56.237  1.00  0.00     0.134 A 
ATOM     12  C   UNL     1      16.719  48.743  56.914  1.00  0.00     0.093 A 
BRANCH   3  13
ATOM     13  C   UNL     1      16.252  42.447  58.097  1.00  0.00     0.021 A 
ATOM     14  C   UNL     1      14.928  42.008  58.274  1.00  0.00     0.016 A 
ATOM     15  C   UNL     1      14.666  40.722  58.750  1.00  0.00     0.051 A 
ATOM     16  C   UNL     1      15.720  39.849  59.051  1.00  0.00     0.157 A 
ATOM     17  C   UNL     1      17.307  41.564  58.404  1.00  0.00     0.062 A 
ATOM     18  C   UNL     1      17.047  40.273  58.876  1.00  0.00     0.158 A 
BRANCH  16  19
ATOM     19  O   UNL     1      15.454  38.564  59.520  1.00  0.00    -0.504 OA
ATOM     20  H   UNL     1      15.482  38.344  60.510  1.00  0.00     0.293 HD
ENDBRANCH  16  19
BRANCH  18  21
ATOM     21  O   UNL     1      18.119  39.425  59.165  1.00  0.00    -0.504 OA
ATOM     22  H   UNL     1      19.035  39.783  59.405  1.00  0.00     0.293 HD
ENDBRANCH  18  21
ENDBRANCH   3  13
BRANCH  11  23
ATOM     23  O   UNL     1      18.223  47.989  55.178  1.00  0.00    -0.507 OA
ATOM     24  H   UNL     1      17.962  48.631  54.435  1.00  0.00     0.293 HD
ENDBRANCH  11  23
ENDBRANCH   1   2
BRANCH   1  25
ATOM     25  C   UNL     1      15.875  50.566  59.371  1.00  0.00     0.339 C 
ATOM     26  C   UNL     1      15.872  50.169  60.882  1.00  0.00     0.214 C 
ATOM     27  O   UNL     1      15.216  51.806  59.197  1.00  0.00    -0.332 OA
ATOM     28  C   UNL     1      15.785  51.410  61.805  1.00  0.00     0.180 C 
ATOM     29  C   UNL     1      15.997  52.882  59.716  1.00  0.00     0.179 C 
ATOM     30  C   UNL     1      16.550  52.579  61.152  1.00  0.00     0.177 C 
BRANCH  26  31
ATOM     31  O   UNL     1      14.853  49.246  61.195  1.00  0.00    -0.384 OA
ATOM     32  H   UNL     1      15.189  48.334  60.992  1.00  0.00     0.211 HD
ENDBRANCH  26  31
BRANCH  28  33
ATOM     33  O   UNL     1      14.443  51.781  62.013  1.00  0.00    -0.387 OA
ATOM     34  H   UNL     1      14.450  52.663  62.470  1.00  0.00     0.211 HD
ENDBRANCH  28  33
BRANCH  29  35
ATOM     35  C   UNL     1      15.139  54.156  59.655  1.00  0.00     0.191 C 
BRANCH  35  36
ATOM     36  O   UNL     1      15.164  54.809  60.896  1.00  0.00    -0.394 OA
ATOM     37  H   UNL     1      15.930  55.441  60.873  1.00  0.00     0.210 HD
ENDBRANCH  35  36
ENDBRANCH  29  35
BRANCH  30  38
ATOM     38  O   UNL     1      16.597  53.716  61.980  1.00  0.00    -0.387 OA
ATOM     39  H   UNL     1      15.823  54.302  61.765  1.00  0.00     0.211 HD
ENDBRANCH  30  38
ENDBRANCH   1  25
TORSDOF 11
ENDMDL
