MODEL 1
REMARK VINA RESULT:    -4.991      0.000      0.000
REMARK INTER + INTRA:         -10.246
REMARK INTER:                  -9.076
REMARK INTRA:                  -1.170
REMARK UNBOUND:                -1.170
REMARK SMILES CCCCCCCCCCCCCCCC(=O)[O-]
REMARK SMILES IDX 9 1 10 2 11 3 12 4 13 5 14 6 15 7 16 8 17 9 18 10 8 11 7 12
REMARK SMILES IDX 6 13 5 14 4 15 3 16 2 17 1 18
REMARK H PARENT
REMARK Flexibility Score: inf
ROOT
ATOM      1  C   UNL     1      -8.405  -4.666  -7.532  1.00  0.00     0.000 C 
ENDROOT
BRANCH   1   2
ATOM      2  C   UNL     1      -9.531  -5.612  -7.978  1.00  0.00     0.000 C 
BRANCH   2   3
ATOM      3  C   UNL     1     -10.511  -5.953  -6.842  1.00  0.00     0.000 C 
BRANCH   3   4
ATOM      4  C   UNL     1      -9.896  -5.804  -5.434  1.00  0.00     0.000 C 
BRANCH   4   5
ATOM      5  C   UNL     1     -10.963  -5.552  -4.355  1.00  0.00     0.000 C 
BRANCH   5   6
ATOM      6  C   UNL     1     -11.046  -4.077  -3.921  1.00  0.00     0.006 C 
BRANCH   6   7
ATOM      7  C   UNL     1     -10.630  -3.832  -2.459  1.00  0.00     0.053 C 
BRANCH   7   8
ATOM      8  C   UNL     1      -9.159  -3.592  -2.310  1.00  0.00     0.041 C 
ATOM      9  O   UNL     1      -8.491  -4.237  -1.459  1.00  0.00    -0.550 OA
ATOM     10  O   UNL     1      -8.516  -2.679  -3.137  1.00  0.00    -0.550 OA
ENDBRANCH   7   8
ENDBRANCH   6   7
ENDBRANCH   5   6
ENDBRANCH   4   5
ENDBRANCH   3   4
ENDBRANCH   2   3
ENDBRANCH   1   2
BRANCH   1  11
ATOM     11  C   UNL     1      -7.045  -5.035  -8.144  1.00  0.00     0.000 C 
BRANCH  11  12
ATOM     12  C   UNL     1      -6.498  -6.367  -7.609  1.00  0.00    -0.000 C 
BRANCH  12  13
ATOM     13  C   UNL     1      -6.343  -6.322  -6.082  1.00  0.00    -0.000 C 
BRANCH  13  14
ATOM     14  C   UNL     1      -4.932  -6.717  -5.609  1.00  0.00    -0.000 C 
BRANCH  14  15
ATOM     15  C   UNL     1      -3.810  -5.754  -6.039  1.00  0.00    -0.000 C 
BRANCH  15  16
ATOM     16  C   UNL     1      -4.230  -4.279  -5.978  1.00  0.00    -0.000 C 
BRANCH  16  17
ATOM     17  C   UNL     1      -3.044  -3.385  -5.594  1.00  0.00    -0.003 C 
ATOM     18  C   UNL     1      -3.273  -1.943  -6.035  1.00  0.00     0.004 C 
ENDBRANCH  16  17
ENDBRANCH  15  16
ENDBRANCH  14  15
ENDBRANCH  13  14
ENDBRANCH  12  13
ENDBRANCH  11  12
ENDBRANCH   1  11
TORSDOF 14
ENDMDL
MODEL 2
REMARK VINA RESULT:    -4.870      1.187      2.179
REMARK INTER + INTRA:         -10.025
REMARK INTER:                  -9.117
REMARK INTRA:                  -0.908
REMARK UNBOUND:                -1.170
REMARK SMILES CCCCCCCCCCCCCCCC(=O)[O-]
REMARK SMILES IDX 9 1 10 2 11 3 12 4 13 5 14 6 15 7 16 8 17 9 18 10 8 11 7 12
REMARK SMILES IDX 6 13 5 14 4 15 3 16 2 17 1 18
REMARK H PARENT
REMARK Flexibility Score: inf
ROOT
ATOM      1  C   UNL     1      -9.025  -4.918  -5.592  1.00  0.00     0.000 C 
ENDROOT
BRANCH   1   2
ATOM      2  C   UNL     1     -10.118  -5.773  -4.931  1.00  0.00     0.000 C 
BRANCH   2   3
ATOM      3  C   UNL     1     -11.051  -4.952  -4.025  1.00  0.00     0.000 C 
BRANCH   3   4
ATOM      4  C   UNL     1     -10.490  -3.561  -3.662  1.00  0.00     0.000 C 
BRANCH   4   5
ATOM      5  C   UNL     1     -10.977  -3.076  -2.286  1.00  0.00     0.000 C 
BRANCH   5   6
ATOM      6  C   UNL     1      -9.942  -3.293  -1.168  1.00  0.00     0.006 C 
BRANCH   6   7
ATOM      7  C   UNL     1      -8.482  -3.271  -1.656  1.00  0.00     0.053 C 
BRANCH   7   8
ATOM      8  C   UNL     1      -7.980  -1.883  -1.915  1.00  0.00     0.041 C 
ATOM      9  O   UNL     1      -7.355  -1.619  -2.976  1.00  0.00    -0.550 OA
ATOM     10  O   UNL     1      -8.235  -0.870  -0.999  1.00  0.00    -0.550 OA
ENDBRANCH   7   8
ENDBRANCH   6   7
ENDBRANCH   5   6
ENDBRANCH   4   5
ENDBRANCH   3   4
ENDBRANCH   2   3
ENDBRANCH   1   2
BRANCH   1  11
ATOM     11  C   UNL     1      -8.690  -5.384  -7.018  1.00  0.00     0.000 C 
BRANCH  11  12
ATOM     12  C   UNL     1      -7.221  -5.805  -7.172  1.00  0.00    -0.000 C 
BRANCH  12  13
ATOM     13  C   UNL     1      -6.570  -6.035  -5.800  1.00  0.00    -0.000 C 
BRANCH  13  14
ATOM     14  C   UNL     1      -5.198  -6.728  -5.894  1.00  0.00    -0.000 C 
BRANCH  14  15
ATOM     15  C   UNL     1      -4.017  -5.790  -6.209  1.00  0.00    -0.000 C 
BRANCH  15  16
ATOM     16  C   UNL     1      -4.353  -4.309  -5.987  1.00  0.00    -0.000 C 
BRANCH  16  17
ATOM     17  C   UNL     1      -3.098  -3.513  -5.609  1.00  0.00    -0.003 C 
ATOM     18  C   UNL     1      -3.241  -2.042  -5.990  1.00  0.00     0.004 C 
ENDBRANCH  16  17
ENDBRANCH  15  16
ENDBRANCH  14  15
ENDBRANCH  13  14
ENDBRANCH  12  13
ENDBRANCH  11  12
ENDBRANCH   1  11
TORSDOF 14
ENDMDL
MODEL 3
REMARK VINA RESULT:    -4.734      1.603      2.962
REMARK INTER + INTRA:          -9.778
REMARK INTER:                  -7.948
REMARK INTRA:                  -1.830
REMARK UNBOUND:                -1.170
REMARK SMILES CCCCCCCCCCCCCCCC(=O)[O-]
REMARK SMILES IDX 9 1 10 2 11 3 12 4 13 5 14 6 15 7 16 8 17 9 18 10 8 11 7 12
REMARK SMILES IDX 6 13 5 14 4 15 3 16 2 17 1 18
REMARK H PARENT
REMARK Flexibility Score: inf
ROOT
ATOM      1  C   UNL     1     -10.516  -5.969  -7.584  1.00  0.00     0.000 C 
ENDROOT
BRANCH   1   2
ATOM      2  C   UNL     1     -10.650  -6.005  -6.053  1.00  0.00     0.000 C 
BRANCH   2   3
ATOM      3  C   UNL     1      -9.329  -5.691  -5.330  1.00  0.00     0.000 C 
BRANCH   3   4
ATOM      4  C   UNL     1      -9.131  -4.188  -5.036  1.00  0.00     0.000 C 
BRANCH   4   5
ATOM      5  C   UNL     1     -10.408  -3.529  -4.486  1.00  0.00     0.000 C 
BRANCH   5   6
ATOM      6  C   UNL     1     -10.830  -4.084  -3.114  1.00  0.00     0.006 C 
BRANCH   6   7
ATOM      7  C   UNL     1     -10.402  -3.202  -1.926  1.00  0.00     0.053 C 
BRANCH   7   8
ATOM      8  C   UNL     1      -8.918  -3.197  -1.716  1.00  0.00     0.041 C 
ATOM      9  O   UNL     1      -8.309  -4.267  -1.454  1.00  0.00    -0.550 OA
ATOM     10  O   UNL     1      -8.203  -2.013  -1.846  1.00  0.00    -0.550 OA
ENDBRANCH   7   8
ENDBRANCH   6   7
ENDBRANCH   5   6
ENDBRANCH   4   5
ENDBRANCH   3   4
ENDBRANCH   2   3
ENDBRANCH   1   2
BRANCH   1  11
ATOM     11  C   UNL     1     -10.887  -4.601  -8.177  1.00  0.00     0.000 C 
BRANCH  11  12
ATOM     12  C   UNL     1      -9.805  -4.055  -9.122  1.00  0.00    -0.000 C 
BRANCH  12  13
ATOM     13  C   UNL     1      -8.620  -5.026  -9.218  1.00  0.00    -0.000 C 
BRANCH  13  14
ATOM     14  C   UNL     1      -7.339  -4.479  -8.562  1.00  0.00    -0.000 C 
BRANCH  14  15
ATOM     15  C   UNL     1      -6.430  -5.545  -7.922  1.00  0.00    -0.000 C 
BRANCH  15  16
ATOM     16  C   UNL     1      -5.696  -5.035  -6.674  1.00  0.00    -0.000 C 
BRANCH  16  17
ATOM     17  C   UNL     1      -4.979  -6.183  -5.953  1.00  0.00    -0.003 C 
ATOM     18  C   UNL     1      -5.964  -7.264  -5.519  1.00  0.00     0.004 C 
ENDBRANCH  16  17
ENDBRANCH  15  16
ENDBRANCH  14  15
ENDBRANCH  13  14
ENDBRANCH  12  13
ENDBRANCH  11  12
ENDBRANCH   1  11
TORSDOF 14
ENDMDL
MODEL 4
REMARK VINA RESULT:    -4.582      1.255      2.401
REMARK INTER + INTRA:          -9.502
REMARK INTER:                  -8.199
REMARK INTRA:                  -1.303
REMARK UNBOUND:                -1.170
REMARK SMILES CCCCCCCCCCCCCCCC(=O)[O-]
REMARK SMILES IDX 9 1 10 2 11 3 12 4 13 5 14 6 15 7 16 8 17 9 18 10 8 11 7 12
REMARK SMILES IDX 6 13 5 14 4 15 3 16 2 17 1 18
REMARK H PARENT
REMARK Flexibility Score: inf
ROOT
ATOM      1  C   UNL     1      -8.658  -4.586  -5.590  1.00  0.00     0.000 C 
ENDROOT
BRANCH   1   2
ATOM      2  C   UNL     1      -9.600  -5.597  -4.917  1.00  0.00     0.000 C 
BRANCH   2   3
ATOM      3  C   UNL     1     -10.796  -4.927  -4.221  1.00  0.00     0.000 C 
BRANCH   3   4
ATOM      4  C   UNL     1     -10.487  -3.509  -3.695  1.00  0.00     0.000 C 
BRANCH   4   5
ATOM      5  C   UNL     1     -11.009  -3.292  -2.264  1.00  0.00     0.000 C 
BRANCH   5   6
ATOM      6  C   UNL     1      -9.907  -3.407  -1.196  1.00  0.00     0.006 C 
BRANCH   6   7
ATOM      7  C   UNL     1      -8.477  -3.330  -1.763  1.00  0.00     0.053 C 
BRANCH   7   8
ATOM      8  C   UNL     1      -7.994  -1.921  -1.922  1.00  0.00     0.041 C 
ATOM      9  O   UNL     1      -8.223  -1.064  -1.028  1.00  0.00    -0.550 OA
ATOM     10  O   UNL     1      -7.257  -1.561  -3.043  1.00  0.00    -0.550 OA
ENDBRANCH   7   8
ENDBRANCH   6   7
ENDBRANCH   5   6
ENDBRANCH   4   5
ENDBRANCH   3   4
ENDBRANCH   2   3
ENDBRANCH   1   2
BRANCH   1  11
ATOM     11  C   UNL     1      -8.836  -4.536  -7.116  1.00  0.00     0.000 C 
BRANCH  11  12
ATOM     12  C   UNL     1      -8.394  -5.835  -7.805  1.00  0.00    -0.000 C 
BRANCH  12  13
ATOM     13  C   UNL     1      -6.959  -5.710  -8.340  1.00  0.00    -0.000 C 
BRANCH  13  14
ATOM     14  C   UNL     1      -5.993  -6.732  -7.715  1.00  0.00    -0.000 C 
BRANCH  14  15
ATOM     15  C   UNL     1      -5.660  -6.488  -6.231  1.00  0.00    -0.000 C 
BRANCH  15  16
ATOM     16  C   UNL     1      -4.281  -5.846  -6.023  1.00  0.00    -0.000 C 
BRANCH  16  17
ATOM     17  C   UNL     1      -4.383  -4.316  -6.015  1.00  0.00    -0.003 C 
ATOM     18  C   UNL     1      -3.058  -3.677  -5.611  1.00  0.00     0.004 C 
ENDBRANCH  16  17
ENDBRANCH  15  16
ENDBRANCH  14  15
ENDBRANCH  13  14
ENDBRANCH  12  13
ENDBRANCH  11  12
ENDBRANCH   1  11
TORSDOF 14
ENDMDL
MODEL 5
REMARK VINA RESULT:    -4.542      2.307      5.656
REMARK INTER + INTRA:          -9.429
REMARK INTER:                  -8.018
REMARK INTRA:                  -1.411
REMARK UNBOUND:                -1.170
REMARK SMILES CCCCCCCCCCCCCCCC(=O)[O-]
REMARK SMILES IDX 9 1 10 2 11 3 12 4 13 5 14 6 15 7 16 8 17 9 18 10 8 11 7 12
REMARK SMILES IDX 6 13 5 14 4 15 3 16 2 17 1 18
REMARK H PARENT
REMARK Flexibility Score: inf
ROOT
ATOM      1  C   UNL     1      -9.534  -4.839  -6.277  1.00  0.00     0.000 C 
ENDROOT
BRANCH   1   2
ATOM      2  C   UNL     1      -9.617  -5.443  -7.688  1.00  0.00     0.000 C 
BRANCH   2   3
ATOM      3  C   UNL     1      -9.170  -4.462  -8.785  1.00  0.00     0.000 C 
BRANCH   3   4
ATOM      4  C   UNL     1      -7.656  -4.518  -9.080  1.00  0.00     0.000 C 
BRANCH   4   5
ATOM      5  C   UNL     1      -7.074  -5.927  -8.877  1.00  0.00     0.000 C 
BRANCH   5   6
ATOM      6  C   UNL     1      -5.778  -5.932  -8.048  1.00  0.00     0.006 C 
BRANCH   6   7
ATOM      7  C   UNL     1      -5.988  -5.597  -6.559  1.00  0.00     0.053 C 
BRANCH   7   8
ATOM      8  C   UNL     1      -6.087  -6.820  -5.700  1.00  0.00     0.041 C 
ATOM      9  O   UNL     1      -5.520  -7.889  -6.047  1.00  0.00    -0.550 OA
ATOM     10  O   UNL     1      -6.777  -6.769  -4.495  1.00  0.00    -0.550 OA
ENDBRANCH   7   8
ENDBRANCH   6   7
ENDBRANCH   5   6
ENDBRANCH   4   5
ENDBRANCH   3   4
ENDBRANCH   2   3
ENDBRANCH   1   2
BRANCH   1  11
ATOM     11  C   UNL     1     -10.074  -5.788  -5.195  1.00  0.00     0.000 C 
BRANCH  11  12
ATOM     12  C   UNL     1     -11.119  -5.118  -4.290  1.00  0.00    -0.000 C 
BRANCH  12  13
ATOM     13  C   UNL     1     -10.851  -3.610  -4.166  1.00  0.00    -0.000 C 
BRANCH  13  14
ATOM     14  C   UNL     1     -11.114  -3.067  -2.750  1.00  0.00    -0.000 C 
BRANCH  14  15
ATOM     15  C   UNL     1     -10.155  -3.591  -1.665  1.00  0.00    -0.000 C 
BRANCH  15  16
ATOM     16  C   UNL     1      -8.678  -3.344  -2.001  1.00  0.00    -0.000 C 
BRANCH  16  17
ATOM     17  C   UNL     1      -8.124  -2.159  -1.201  1.00  0.00    -0.003 C 
ATOM     18  C   UNL     1      -7.378  -1.183  -2.107  1.00  0.00     0.004 C 
ENDBRANCH  16  17
ENDBRANCH  15  16
ENDBRANCH  14  15
ENDBRANCH  13  14
ENDBRANCH  12  13
ENDBRANCH  11  12
ENDBRANCH   1  11
TORSDOF 14
ENDMDL
MODEL 6
REMARK VINA RESULT:    -4.472      2.696      5.848
REMARK INTER + INTRA:          -9.302
REMARK INTER:                  -7.933
REMARK INTRA:                  -1.369
REMARK UNBOUND:                -1.170
REMARK SMILES CCCCCCCCCCCCCCCC(=O)[O-]
REMARK SMILES IDX 9 1 10 2 11 3 12 4 13 5 14 6 15 7 16 8 17 9 18 10 8 11 7 12
REMARK SMILES IDX 6 13 5 14 4 15 3 16 2 17 1 18
REMARK H PARENT
REMARK Flexibility Score: inf
ROOT
ATOM      1  C   UNL     1      -9.356  -4.552  -7.319  1.00  0.00     0.000 C 
ENDROOT
BRANCH   1   2
ATOM      2  C   UNL     1     -10.248  -5.714  -7.785  1.00  0.00     0.000 C 
BRANCH   2   3
ATOM      3  C   UNL     1      -9.720  -6.400  -9.056  1.00  0.00     0.000 C 
BRANCH   3   4
ATOM      4  C   UNL     1      -8.293  -5.959  -9.445  1.00  0.00     0.000 C 
BRANCH   4   5
ATOM      5  C   UNL     1      -7.233  -6.999  -9.046  1.00  0.00     0.000 C 
BRANCH   5   6
ATOM      6  C   UNL     1      -5.866  -6.372  -8.718  1.00  0.00     0.006 C 
BRANCH   6   7
ATOM      7  C   UNL     1      -5.803  -5.702  -7.333  1.00  0.00     0.053 C 
BRANCH   7   8
ATOM      8  C   UNL     1      -5.113  -6.552  -6.310  1.00  0.00     0.041 C 
ATOM      9  O   UNL     1      -4.200  -6.068  -5.591  1.00  0.00    -0.550 OA
ATOM     10  O   UNL     1      -5.503  -7.873  -6.128  1.00  0.00    -0.550 OA
ENDBRANCH   7   8
ENDBRANCH   6   7
ENDBRANCH   5   6
ENDBRANCH   4   5
ENDBRANCH   3   4
ENDBRANCH   2   3
ENDBRANCH   1   2
BRANCH   1  11
ATOM     11  C   UNL     1      -9.252  -4.464  -5.787  1.00  0.00     0.000 C 
BRANCH  11  12
ATOM     12  C   UNL     1      -9.952  -5.634  -5.080  1.00  0.00    -0.000 C 
BRANCH  12  13
ATOM     13  C   UNL     1     -11.047  -5.125  -4.131  1.00  0.00    -0.000 C 
BRANCH  13  14
ATOM     14  C   UNL     1     -10.706  -3.765  -3.494  1.00  0.00    -0.000 C 
BRANCH  14  15
ATOM     15  C   UNL     1     -11.101  -3.625  -2.012  1.00  0.00    -0.000 C 
BRANCH  15  16
ATOM     16  C   UNL     1      -9.977  -3.043  -1.144  1.00  0.00    -0.000 C 
BRANCH  16  17
ATOM     17  C   UNL     1      -8.641  -3.055  -1.895  1.00  0.00    -0.003 C 
ATOM     18  C   UNL     1      -7.810  -1.819  -1.565  1.00  0.00     0.004 C 
ENDBRANCH  16  17
ENDBRANCH  15  16
ENDBRANCH  14  15
ENDBRANCH  13  14
ENDBRANCH  12  13
ENDBRANCH  11  12
ENDBRANCH   1  11
TORSDOF 14
ENDMDL
MODEL 7
REMARK VINA RESULT:    -4.350      1.305      2.195
REMARK INTER + INTRA:          -9.080
REMARK INTER:                  -7.517
REMARK INTRA:                  -1.563
REMARK UNBOUND:                -1.170
REMARK SMILES CCCCCCCCCCCCCCCC(=O)[O-]
REMARK SMILES IDX 9 1 10 2 11 3 12 4 13 5 14 6 15 7 16 8 17 9 18 10 8 11 7 12
REMARK SMILES IDX 6 13 5 14 4 15 3 16 2 17 1 18
REMARK H PARENT
REMARK Flexibility Score: inf
ROOT
ATOM      1  C   UNL     1      -6.253  -5.914  -8.829  1.00  0.00     0.000 C 
ENDROOT
BRANCH   1   2
ATOM      2  C   UNL     1      -7.626  -5.269  -9.077  1.00  0.00     0.000 C 
BRANCH   2   3
ATOM      3  C   UNL     1      -8.767  -6.299  -9.137  1.00  0.00     0.000 C 
BRANCH   3   4
ATOM      4  C   UNL     1      -9.954  -5.956  -8.212  1.00  0.00     0.000 C 
BRANCH   4   5
ATOM      5  C   UNL     1      -9.580  -4.910  -7.147  1.00  0.00     0.000 C 
BRANCH   5   6
ATOM      6  C   UNL     1      -9.268  -5.532  -5.774  1.00  0.00     0.006 C 
BRANCH   6   7
ATOM      7  C   UNL     1      -8.389  -4.645  -4.872  1.00  0.00     0.053 C 
BRANCH   7   8
ATOM      8  C   UNL     1      -9.166  -3.994  -3.769  1.00  0.00     0.041 C 
ATOM      9  O   UNL     1      -8.905  -4.255  -2.566  1.00  0.00    -0.550 OA
ATOM     10  O   UNL     1     -10.158  -3.068  -4.071  1.00  0.00    -0.550 OA
ENDBRANCH   7   8
ENDBRANCH   6   7
ENDBRANCH   5   6
ENDBRANCH   4   5
ENDBRANCH   3   4
ENDBRANCH   2   3
ENDBRANCH   1   2
BRANCH   1  11
ATOM     11  C   UNL     1      -6.356  -7.259  -8.093  1.00  0.00     0.000 C 
BRANCH  11  12
ATOM     12  C   UNL     1      -5.962  -7.154  -6.612  1.00  0.00    -0.000 C 
BRANCH  12  13
ATOM     13  C   UNL     1      -4.473  -6.809  -6.464  1.00  0.00    -0.000 C 
BRANCH  13  14
ATOM     14  C   UNL     1      -4.235  -5.473  -5.736  1.00  0.00    -0.000 C 
BRANCH  14  15
ATOM     15  C   UNL     1      -2.765  -5.180  -5.381  1.00  0.00    -0.000 C 
BRANCH  15  16
ATOM     16  C   UNL     1      -2.374  -3.714  -5.611  1.00  0.00    -0.000 C 
BRANCH  16  17
ATOM     17  C   UNL     1      -3.614  -2.847  -5.856  1.00  0.00    -0.003 C 
ATOM     18  C   UNL     1      -3.242  -1.371  -5.970  1.00  0.00     0.004 C 
ENDBRANCH  16  17
ENDBRANCH  15  16
ENDBRANCH  14  15
ENDBRANCH  13  14
ENDBRANCH  12  13
ENDBRANCH  11  12
ENDBRANCH   1  11
TORSDOF 14
ENDMDL
MODEL 8
REMARK VINA RESULT:    -4.291      2.515      5.650
REMARK INTER + INTRA:          -8.973
REMARK INTER:                  -7.049
REMARK INTRA:                  -1.923
REMARK UNBOUND:                -1.170
REMARK SMILES CCCCCCCCCCCCCCCC(=O)[O-]
REMARK SMILES IDX 9 1 10 2 11 3 12 4 13 5 14 6 15 7 16 8 17 9 18 10 8 11 7 12
REMARK SMILES IDX 6 13 5 14 4 15 3 16 2 17 1 18
REMARK H PARENT
REMARK Flexibility Score: inf
ROOT
ATOM      1  C   UNL     1     -10.766  -3.866  -9.011  1.00  0.00     0.000 C 
ENDROOT
BRANCH   1   2
ATOM      2  C   UNL     1      -9.561  -4.636  -9.576  1.00  0.00     0.000 C 
BRANCH   2   3
ATOM      3  C   UNL     1      -8.251  -3.835  -9.498  1.00  0.00     0.000 C 
BRANCH   3   4
ATOM      4  C   UNL     1      -7.022  -4.699  -9.144  1.00  0.00     0.000 C 
BRANCH   4   5
ATOM      5  C   UNL     1      -7.419  -6.073  -8.576  1.00  0.00     0.000 C 
BRANCH   5   6
ATOM      6  C   UNL     1      -6.251  -6.805  -7.892  1.00  0.00     0.006 C 
BRANCH   6   7
ATOM      7  C   UNL     1      -6.074  -6.445  -6.405  1.00  0.00     0.053 C 
BRANCH   7   8
ATOM      8  C   UNL     1      -4.695  -5.952  -6.089  1.00  0.00     0.041 C 
ATOM      9  O   UNL     1      -4.440  -4.720  -6.107  1.00  0.00    -0.550 OA
ATOM     10  O   UNL     1      -3.698  -6.855  -5.740  1.00  0.00    -0.550 OA
ENDBRANCH   7   8
ENDBRANCH   6   7
ENDBRANCH   5   6
ENDBRANCH   4   5
ENDBRANCH   3   4
ENDBRANCH   2   3
ENDBRANCH   1   2
BRANCH   1  11
ATOM     11  C   UNL     1     -10.946  -4.075  -7.499  1.00  0.00     0.000 C 
BRANCH  11  12
ATOM     12  C   UNL     1     -10.812  -5.549  -7.088  1.00  0.00    -0.000 C 
BRANCH  12  13
ATOM     13  C   UNL     1      -9.862  -5.700  -5.891  1.00  0.00    -0.000 C 
BRANCH  13  14
ATOM     14  C   UNL     1      -9.075  -4.413  -5.582  1.00  0.00    -0.000 C 
BRANCH  14  15
ATOM     15  C   UNL     1      -9.124  -3.960  -4.111  1.00  0.00    -0.000 C 
BRANCH  15  16
ATOM     16  C   UNL     1     -10.555  -3.776  -3.587  1.00  0.00    -0.000 C 
BRANCH  16  17
ATOM     17  C   UNL     1     -10.553  -3.447  -2.089  1.00  0.00    -0.003 C 
ATOM     18  C   UNL     1      -9.131  -3.298  -1.558  1.00  0.00     0.004 C 
ENDBRANCH  16  17
ENDBRANCH  15  16
ENDBRANCH  14  15
ENDBRANCH  13  14
ENDBRANCH  12  13
ENDBRANCH  11  12
ENDBRANCH   1  11
TORSDOF 14
ENDMDL
MODEL 9
REMARK VINA RESULT:    -4.266      1.893      4.021
REMARK INTER + INTRA:          -8.928
REMARK INTER:                  -7.102
REMARK INTRA:                  -1.826
REMARK UNBOUND:                -1.170
REMARK SMILES CCCCCCCCCCCCCCCC(=O)[O-]
REMARK SMILES IDX 9 1 10 2 11 3 12 4 13 5 14 6 15 7 16 8 17 9 18 10 8 11 7 12
REMARK SMILES IDX 6 13 5 14 4 15 3 16 2 17 1 18
REMARK H PARENT
REMARK Flexibility Score: inf
ROOT
ATOM      1  C   UNL     1      -5.982  -5.940  -6.003  1.00  0.00     0.000 C 
ENDROOT
BRANCH   1   2
ATOM      2  C   UNL     1      -7.396  -5.911  -5.400  1.00  0.00     0.000 C 
BRANCH   2   3
ATOM      3  C   UNL     1      -8.402  -5.143  -6.273  1.00  0.00     0.000 C 
BRANCH   3   4
ATOM      4  C   UNL     1      -9.868  -5.569  -6.042  1.00  0.00     0.000 C 
BRANCH   4   5
ATOM      5  C   UNL     1     -10.675  -4.497  -5.289  1.00  0.00     0.000 C 
BRANCH   5   6
ATOM      6  C   UNL     1     -10.952  -4.871  -3.822  1.00  0.00     0.006 C 
BRANCH   6   7
ATOM      7  C   UNL     1     -10.665  -3.734  -2.824  1.00  0.00     0.053 C 
BRANCH   7   8
ATOM      8  C   UNL     1      -9.200  -3.523  -2.594  1.00  0.00     0.041 C 
ATOM      9  O   UNL     1      -8.562  -2.682  -3.280  1.00  0.00    -0.550 OA
ATOM     10  O   UNL     1      -8.544  -4.233  -1.596  1.00  0.00    -0.550 OA
ENDBRANCH   7   8
ENDBRANCH   6   7
ENDBRANCH   5   6
ENDBRANCH   4   5
ENDBRANCH   3   4
ENDBRANCH   2   3
ENDBRANCH   1   2
BRANCH   1  11
ATOM     11  C   UNL     1      -5.841  -6.972  -7.133  1.00  0.00     0.000 C 
BRANCH  11  12
ATOM     12  C   UNL     1      -5.848  -6.327  -8.527  1.00  0.00    -0.000 C 
BRANCH  12  13
ATOM     13  C   UNL     1      -6.932  -6.955  -9.416  1.00  0.00    -0.000 C 
BRANCH  13  14
ATOM     14  C   UNL     1      -8.024  -5.952  -9.831  1.00  0.00    -0.000 C 
BRANCH  14  15
ATOM     15  C   UNL     1      -7.617  -4.470  -9.730  1.00  0.00    -0.000 C 
BRANCH  15  16
ATOM     16  C   UNL     1      -8.785  -3.509  -9.993  1.00  0.00    -0.000 C 
BRANCH  16  17
ATOM     17  C   UNL     1     -10.108  -4.103  -9.497  1.00  0.00    -0.003 C 
ATOM     18  C   UNL     1     -11.050  -3.013  -8.995  1.00  0.00     0.004 C 
ENDBRANCH  16  17
ENDBRANCH  15  16
ENDBRANCH  14  15
ENDBRANCH  13  14
ENDBRANCH  12  13
ENDBRANCH  11  12
ENDBRANCH   1  11
TORSDOF 14
ENDMDL
