MODEL 1
REMARK VINA RESULT:     2.208      0.000      0.000
REMARK INTER + INTRA:           2.326
REMARK INTER:                   2.595
REMARK INTRA:                  -0.269
REMARK UNBOUND:                -0.269
REMARK SMILES O=c1cc(-c2ccc(O)c(O)c2)oc2cc(O)cc(O)c12
REMARK SMILES IDX 4 1 3 2 2 3 1 4 21 5 19 6 18 7 16 8 15 9 14 10 13 11 5 12
REMARK SMILES IDX 6 13 7 14 8 15 12 16 10 17 9 18 11 20 20 22 17 24
REMARK H PARENT 9 19 11 21 20 23 17 25
REMARK Flexibility Score: inf
ROOT
ATOM      1  C   UNL     1     167.462 164.293 152.489  1.00  0.00     0.138 A 
ATOM      2  C   UNL     1     167.365 163.252 153.423  1.00  0.00     0.100 A 
ATOM      3  C   UNL     1     167.282 163.552 154.784  1.00  0.00     0.197 A 
ATOM      4  O   UNL     1     167.259 162.596 155.602  1.00  0.00    -0.289 OA
ATOM      5  C   UNL     1     167.262 164.902 155.207  1.00  0.00     0.107 A 
ATOM      6  C   UNL     1     167.137 165.328 156.564  1.00  0.00     0.134 A 
ATOM      7  C   UNL     1     167.247 166.688 156.873  1.00  0.00     0.093 A 
ATOM      8  C   UNL     1     167.416 167.644 155.872  1.00  0.00     0.123 A 
ATOM      9  C   UNL     1     167.484 167.245 154.536  1.00  0.00     0.094 A 
ATOM     10  C   UNL     1     167.412 165.891 154.199  1.00  0.00     0.146 A 
ATOM     11  O   UNL     1     167.496 165.551 152.917  1.00  0.00    -0.456 OA
ENDROOT
BRANCH   1  12
ATOM     12  C   UNL     1     167.552 164.030 151.030  1.00  0.00     0.021 A 
ATOM     13  C   UNL     1     168.726 163.465 150.501  1.00  0.00     0.016 A 
ATOM     14  C   UNL     1     168.839 163.215 149.132  1.00  0.00     0.051 A 
ATOM     15  C   UNL     1     167.786 163.536 148.267  1.00  0.00     0.157 A 
ATOM     16  C   UNL     1     166.502 164.363 150.151  1.00  0.00     0.062 A 
ATOM     17  C   UNL     1     166.618 164.113 148.776  1.00  0.00     0.158 A 
BRANCH  15  18
ATOM     18  O   UNL     1     167.895 163.287 146.899  1.00  0.00    -0.504 OA
ATOM     19  H   UNL     1     168.628 163.709 146.340  1.00  0.00     0.293 HD
ENDBRANCH  15  18
BRANCH  17  20
ATOM     20  O   UNL     1     165.576 164.442 147.910  1.00  0.00    -0.504 OA
ATOM     21  H   UNL     1     165.730 165.014 147.088  1.00  0.00     0.293 HD
ENDBRANCH  17  20
ENDBRANCH   1  12
BRANCH   6  22
ATOM     22  O   UNL     1     166.883 164.463 157.633  1.00  0.00    -0.507 OA
ATOM     23  H   UNL     1     165.965 164.197 157.954  1.00  0.00     0.293 HD
ENDBRANCH   6  22
BRANCH   8  24
ATOM     24  O   UNL     1     167.506 168.991 156.215  1.00  0.00    -0.508 OA
ATOM     25  H   UNL     1     168.292 169.561 155.924  1.00  0.00     0.293 HD
ENDBRANCH   8  24
TORSDOF 5
ENDMDL
MODEL 2
REMARK VINA RESULT:     3.185      1.644      6.995
REMARK INTER + INTRA:           3.475
REMARK INTER:                   3.746
REMARK INTRA:                  -0.271
REMARK UNBOUND:                -0.269
REMARK SMILES O=c1cc(-c2ccc(O)c(O)c2)oc2cc(O)cc(O)c12
REMARK SMILES IDX 4 1 3 2 2 3 1 4 21 5 19 6 18 7 16 8 15 9 14 10 13 11 5 12
REMARK SMILES IDX 6 13 7 14 8 15 12 16 10 17 9 18 11 20 20 22 17 24
REMARK H PARENT 9 19 11 21 20 23 17 25
REMARK Flexibility Score: inf
ROOT
ATOM      1  C   UNL     1     167.515 163.902 152.309  1.00  0.00     0.138 A 
ATOM      2  C   UNL     1     168.479 163.111 151.668  1.00  0.00     0.100 A 
ATOM      3  C   UNL     1     168.531 163.083 150.274  1.00  0.00     0.197 A 
ATOM      4  O   UNL     1     169.366 162.316 149.727  1.00  0.00    -0.289 OA
ATOM      5  C   UNL     1     167.635 163.877 149.520  1.00  0.00     0.107 A 
ATOM      6  C   UNL     1     167.623 163.960 148.095  1.00  0.00     0.134 A 
ATOM      7  C   UNL     1     166.614 164.689 147.454  1.00  0.00     0.093 A 
ATOM      8  C   UNL     1     165.653 165.385 148.186  1.00  0.00     0.123 A 
ATOM      9  C   UNL     1     165.686 165.356 149.581  1.00  0.00     0.094 A 
ATOM     10  C   UNL     1     166.660 164.609 150.248  1.00  0.00     0.146 A 
ATOM     11  O   UNL     1     166.649 164.595 151.577  1.00  0.00    -0.456 OA
ENDROOT
BRANCH   1  12
ATOM     12  C   UNL     1     167.415 163.969 153.790  1.00  0.00     0.021 A 
ATOM     13  C   UNL     1     167.438 165.222 154.428  1.00  0.00     0.016 A 
ATOM     14  C   UNL     1     167.353 165.312 155.819  1.00  0.00     0.051 A 
ATOM     15  C   UNL     1     167.255 164.152 156.596  1.00  0.00     0.157 A 
ATOM     16  C   UNL     1     167.330 162.806 154.580  1.00  0.00     0.062 A 
ATOM     17  C   UNL     1     167.247 162.898 155.977  1.00  0.00     0.158 A 
BRANCH  15  18
ATOM     18  O   UNL     1     167.169 164.238 157.985  1.00  0.00    -0.504 OA
ATOM     19  H   UNL     1     167.733 164.895 158.512  1.00  0.00     0.293 HD
ENDBRANCH  15  18
BRANCH  17  20
ATOM     20  O   UNL     1     167.160 161.744 156.755  1.00  0.00    -0.504 OA
ATOM     21  H   UNL     1     167.849 161.004 156.685  1.00  0.00     0.293 HD
ENDBRANCH  17  20
ENDBRANCH   1  12
BRANCH   6  22
ATOM     22  O   UNL     1     168.587 163.371 147.270  1.00  0.00    -0.507 OA
ATOM     23  H   UNL     1     168.385 162.768 146.487  1.00  0.00     0.293 HD
ENDBRANCH   6  22
BRANCH   8  24
ATOM     24  O   UNL     1     164.672 166.112 147.514  1.00  0.00    -0.508 OA
ATOM     25  H   UNL     1     164.779 166.374 146.542  1.00  0.00     0.293 HD
ENDBRANCH   8  24
TORSDOF 5
ENDMDL
MODEL 3
REMARK VINA RESULT:     3.529      1.886      3.535
REMARK INTER + INTRA:           3.879
REMARK INTER:                   4.142
REMARK INTRA:                  -0.263
REMARK UNBOUND:                -0.269
REMARK SMILES O=c1cc(-c2ccc(O)c(O)c2)oc2cc(O)cc(O)c12
REMARK SMILES IDX 4 1 3 2 2 3 1 4 21 5 19 6 18 7 16 8 15 9 14 10 13 11 5 12
REMARK SMILES IDX 6 13 7 14 8 15 12 16 10 17 9 18 11 20 20 22 17 24
REMARK H PARENT 9 19 11 21 20 23 17 25
REMARK Flexibility Score: inf
ROOT
ATOM      1  C   UNL     1     167.398 163.699 153.610  1.00  0.00     0.138 A 
ATOM      2  C   UNL     1     167.466 164.887 154.351  1.00  0.00     0.100 A 
ATOM      3  C   UNL     1     167.364 164.839 155.742  1.00  0.00     0.197 A 
ATOM      4  O   UNL     1     167.366 165.927 156.375  1.00  0.00    -0.289 OA
ATOM      5  C   UNL     1     167.225 163.592 156.395  1.00  0.00     0.107 A 
ATOM      6  C   UNL     1     167.154 163.418 157.810  1.00  0.00     0.134 A 
ATOM      7  C   UNL     1     166.900 162.146 158.338  1.00  0.00     0.093 A 
ATOM      8  C   UNL     1     166.774 161.033 157.506  1.00  0.00     0.123 A 
ATOM      9  C   UNL     1     166.897 161.182 156.124  1.00  0.00     0.094 A 
ATOM     10  C   UNL     1     167.116 162.444 155.566  1.00  0.00     0.146 A 
ATOM     11  O   UNL     1     167.212 162.546 154.244  1.00  0.00    -0.456 OA
ENDROOT
BRANCH   1  12
ATOM     12  C   UNL     1     167.502 163.692 152.129  1.00  0.00     0.021 A 
ATOM     13  C   UNL     1     168.724 163.350 151.523  1.00  0.00     0.016 A 
ATOM     14  C   UNL     1     168.849 163.343 150.132  1.00  0.00     0.051 A 
ATOM     15  C   UNL     1     167.760 163.688 149.324  1.00  0.00     0.157 A 
ATOM     16  C   UNL     1     166.414 164.051 151.308  1.00  0.00     0.062 A 
ATOM     17  C   UNL     1     166.542 164.046 149.912  1.00  0.00     0.158 A 
BRANCH  15  18
ATOM     18  O   UNL     1     167.882 163.681 147.935  1.00  0.00    -0.504 OA
ATOM     19  H   UNL     1     168.628 164.182 147.465  1.00  0.00     0.293 HD
ENDBRANCH  15  18
BRANCH  17  20
ATOM     20  O   UNL     1     165.463 164.400 149.104  1.00  0.00    -0.504 OA
ATOM     21  H   UNL     1     165.594 164.697 148.144  1.00  0.00     0.293 HD
ENDBRANCH  17  20
ENDBRANCH   1  12
BRANCH   6  22
ATOM     22  O   UNL     1     167.348 164.449 158.735  1.00  0.00    -0.507 OA
ATOM     23  H   UNL     1     168.074 165.147 158.676  1.00  0.00     0.293 HD
ENDBRANCH   6  22
BRANCH   8  24
ATOM     24  O   UNL     1     166.536 159.780 158.067  1.00  0.00    -0.508 OA
ATOM     25  H   UNL     1     165.616 159.513 158.395  1.00  0.00     0.293 HD
ENDBRANCH   8  24
TORSDOF 5
ENDMDL
MODEL 4
REMARK VINA RESULT:     4.990     11.698     12.712
REMARK INTER + INTRA:           5.596
REMARK INTER:                   5.860
REMARK INTRA:                  -0.264
REMARK UNBOUND:                -0.269
REMARK SMILES O=c1cc(-c2ccc(O)c(O)c2)oc2cc(O)cc(O)c12
REMARK SMILES IDX 4 1 3 2 2 3 1 4 21 5 19 6 18 7 16 8 15 9 14 10 13 11 5 12
REMARK SMILES IDX 6 13 7 14 8 15 12 16 10 17 9 18 11 20 20 22 17 24
REMARK H PARENT 9 19 11 21 20 23 17 25
REMARK Flexibility Score: inf
ROOT
ATOM      1  C   UNL     1     156.075 165.065 154.917  1.00  0.00     0.138 A 
ATOM      2  C   UNL     1     157.312 164.413 155.006  1.00  0.00     0.100 A 
ATOM      3  C   UNL     1     157.439 163.282 155.814  1.00  0.00     0.197 A 
ATOM      4  O   UNL     1     158.577 162.755 155.922  1.00  0.00    -0.289 OA
ATOM      5  C   UNL     1     156.313 162.783 156.509  1.00  0.00     0.107 A 
ATOM      6  C   UNL     1     156.313 161.614 157.327  1.00  0.00     0.134 A 
ATOM      7  C   UNL     1     155.167 161.283 158.060  1.00  0.00     0.093 A 
ATOM      8  C   UNL     1     154.002 162.042 157.957  1.00  0.00     0.123 A 
ATOM      9  C   UNL     1     153.972 163.157 157.118  1.00  0.00     0.094 A 
ATOM     10  C   UNL     1     155.111 163.532 156.401  1.00  0.00     0.146 A 
ATOM     11  O   UNL     1     155.046 164.609 155.624  1.00  0.00    -0.456 OA
ENDROOT
BRANCH   1  12
ATOM     12  C   UNL     1     155.884 166.272 154.073  1.00  0.00     0.021 A 
ATOM     13  C   UNL     1     155.730 166.126 152.683  1.00  0.00     0.016 A 
ATOM     14  C   UNL     1     155.556 167.246 151.867  1.00  0.00     0.051 A 
ATOM     15  C   UNL     1     155.544 168.530 152.423  1.00  0.00     0.157 A 
ATOM     16  C   UNL     1     155.883 167.569 154.624  1.00  0.00     0.062 A 
ATOM     17  C   UNL     1     155.711 168.692 153.802  1.00  0.00     0.158 A 
BRANCH  15  18
ATOM     18  O   UNL     1     155.370 169.650 151.611  1.00  0.00    -0.504 OA
ATOM     19  H   UNL     1     155.737 170.557 151.873  1.00  0.00     0.293 HD
ENDBRANCH  15  18
BRANCH  17  20
ATOM     20  O   UNL     1     155.709 169.974 154.352  1.00  0.00    -0.504 OA
ATOM     21  H   UNL     1     156.547 170.541 154.377  1.00  0.00     0.293 HD
ENDBRANCH  17  20
ENDBRANCH   1  12
BRANCH   6  22
ATOM     22  O   UNL     1     157.398 160.738 157.436  1.00  0.00    -0.507 OA
ATOM     23  H   UNL     1     158.346 160.957 157.169  1.00  0.00     0.293 HD
ENDBRANCH   6  22
BRANCH   8  24
ATOM     24  O   UNL     1     152.875 161.675 158.690  1.00  0.00    -0.508 OA
ATOM     25  H   UNL     1     152.247 160.949 158.367  1.00  0.00     0.293 HD
ENDBRANCH   8  24
TORSDOF 5
ENDMDL
MODEL 5
REMARK VINA RESULT:     5.195      1.633      6.904
REMARK INTER + INTRA:           5.837
REMARK INTER:                   6.124
REMARK INTRA:                  -0.287
REMARK UNBOUND:                -0.269
REMARK SMILES O=c1cc(-c2ccc(O)c(O)c2)oc2cc(O)cc(O)c12
REMARK SMILES IDX 4 1 3 2 2 3 1 4 21 5 19 6 18 7 16 8 15 9 14 10 13 11 5 12
REMARK SMILES IDX 6 13 7 14 8 15 12 16 10 17 9 18 11 20 20 22 17 24
REMARK H PARENT 9 19 11 21 20 23 17 25
REMARK Flexibility Score: inf
ROOT
ATOM      1  C   UNL     1     167.568 165.029 152.757  1.00  0.00     0.138 A 
ATOM      2  C   UNL     1     168.368 163.878 152.750  1.00  0.00     0.100 A 
ATOM      3  C   UNL     1     168.507 163.141 151.573  1.00  0.00     0.197 A 
ATOM      4  O   UNL     1     169.180 162.079 151.613  1.00  0.00    -0.289 OA
ATOM      5  C   UNL     1     167.867 163.579 150.389  1.00  0.00     0.107 A 
ATOM      6  C   UNL     1     167.971 162.932 149.121  1.00  0.00     0.134 A 
ATOM      7  C   UNL     1     167.199 163.390 148.047  1.00  0.00     0.093 A 
ATOM      8  C   UNL     1     166.374 164.507 148.177  1.00  0.00     0.123 A 
ATOM      9  C   UNL     1     166.306 165.181 149.397  1.00  0.00     0.094 A 
ATOM     10  C   UNL     1     167.038 164.727 150.497  1.00  0.00     0.146 A 
ATOM     11  O   UNL     1     166.934 165.388 151.645  1.00  0.00    -0.456 OA
ENDROOT
BRANCH   1  12
ATOM     12  C   UNL     1     167.387 165.850 153.981  1.00  0.00     0.021 A 
ATOM     13  C   UNL     1     167.017 165.224 155.185  1.00  0.00     0.016 A 
ATOM     14  C   UNL     1     166.833 165.975 156.347  1.00  0.00     0.051 A 
ATOM     15  C   UNL     1     167.005 167.364 156.326  1.00  0.00     0.157 A 
ATOM     16  C   UNL     1     167.545 167.251 153.963  1.00  0.00     0.062 A 
ATOM     17  C   UNL     1     167.357 168.003 155.132  1.00  0.00     0.158 A 
BRANCH  15  18
ATOM     18  O   UNL     1     166.823 168.117 157.485  1.00  0.00    -0.504 OA
ATOM     19  H   UNL     1     166.505 169.078 157.449  1.00  0.00     0.293 HD
ENDBRANCH  15  18
BRANCH  17  20
ATOM     20  O   UNL     1     167.517 169.388 155.111  1.00  0.00    -0.504 OA
ATOM     21  H   UNL     1     168.402 169.824 155.342  1.00  0.00     0.293 HD
ENDBRANCH  17  20
ENDBRANCH   1  12
BRANCH   6  22
ATOM     22  O   UNL     1     168.829 161.859 148.860  1.00  0.00    -0.507 OA
ATOM     23  H   UNL     1     169.729 161.936 148.412  1.00  0.00     0.293 HD
ENDBRANCH   6  22
BRANCH   8  24
ATOM     24  O   UNL     1     165.631 164.943 147.082  1.00  0.00    -0.508 OA
ATOM     25  H   UNL     1     164.625 164.831 147.046  1.00  0.00     0.293 HD
ENDBRANCH   8  24
TORSDOF 5
ENDMDL
