MODEL 1
REMARK VINA RESULT:    -2.817      0.000      0.000
REMARK INTER + INTRA:          -7.627
REMARK INTER:                  -5.123
REMARK INTRA:                  -2.505
REMARK UNBOUND:                -2.505
REMARK SMILES CCCCCCCCCCCCCCCC(=O)[O-]
REMARK SMILES IDX 9 1 10 2 11 3 12 4 13 5 14 6 15 7 16 8 17 9 18 10 8 11 7 12
REMARK SMILES IDX 6 13 5 14 4 15 3 16 2 17 1 18
REMARK H PARENT
REMARK Flexibility Score: inf
ROOT
ATOM      1  C   UNL     1      22.727  67.763  18.351  1.00  0.00     0.000 C 
ENDROOT
BRANCH   1   2
ATOM      2  C   UNL     1      22.763  69.058  17.521  1.00  0.00     0.000 C 
BRANCH   2   3
ATOM      3  C   UNL     1      21.807  70.135  18.053  1.00  0.00     0.000 C 
BRANCH   3   4
ATOM      4  C   UNL     1      21.082  70.845  16.899  1.00  0.00     0.000 C 
BRANCH   4   5
ATOM      5  C   UNL     1      21.434  70.251  15.527  1.00  0.00     0.000 C 
BRANCH   5   6
ATOM      6  C   UNL     1      21.951  71.309  14.536  1.00  0.00     0.006 C 
BRANCH   6   7
ATOM      7  C   UNL     1      21.847  72.732  15.102  1.00  0.00     0.053 C 
BRANCH   7   8
ATOM      8  C   UNL     1      23.159  73.451  15.040  1.00  0.00     0.041 C 
ATOM      9  O   UNL     1      23.197  74.707  15.109  1.00  0.00    -0.550 OA
ATOM     10  O   UNL     1      24.338  72.736  14.871  1.00  0.00    -0.550 OA
ENDBRANCH   7   8
ENDBRANCH   6   7
ENDBRANCH   5   6
ENDBRANCH   4   5
ENDBRANCH   3   4
ENDBRANCH   2   3
ENDBRANCH   1   2
BRANCH   1  11
ATOM     11  C   UNL     1      21.476  67.586  19.234  1.00  0.00     0.000 C 
BRANCH  11  12
ATOM     12  C   UNL     1      20.814  66.196  19.168  1.00  0.00    -0.000 C 
BRANCH  12  13
ATOM     13  C   UNL     1      19.406  66.235  18.551  1.00  0.00    -0.000 C 
BRANCH  13  14
ATOM     14  C   UNL     1      19.040  67.619  17.985  1.00  0.00    -0.000 C 
BRANCH  14  15
ATOM     15  C   UNL     1      19.061  67.729  16.446  1.00  0.00    -0.000 C 
BRANCH  15  16
ATOM     16  C   UNL     1      19.555  66.472  15.708  1.00  0.00    -0.000 C 
BRANCH  16  17
ATOM     17  C   UNL     1      20.996  66.608  15.197  1.00  0.00    -0.003 C 
ATOM     18  C   UNL     1      21.841  65.408  15.612  1.00  0.00     0.004 C 
ENDBRANCH  16  17
ENDBRANCH  15  16
ENDBRANCH  14  15
ENDBRANCH  13  14
ENDBRANCH  12  13
ENDBRANCH  11  12
ENDBRANCH   1  11
TORSDOF 14
ENDMDL
MODEL 2
REMARK VINA RESULT:    -2.814      1.201      3.400
REMARK INTER + INTRA:          -7.622
REMARK INTER:                  -5.224
REMARK INTRA:                  -2.398
REMARK UNBOUND:                -2.505
REMARK SMILES CCCCCCCCCCCCCCCC(=O)[O-]
REMARK SMILES IDX 9 1 10 2 11 3 12 4 13 5 14 6 15 7 16 8 17 9 18 10 8 11 7 12
REMARK SMILES IDX 6 13 5 14 4 15 3 16 2 17 1 18
REMARK H PARENT
REMARK Flexibility Score: inf
ROOT
ATOM      1  C   UNL     1      21.702  65.488  15.389  1.00  0.00     0.000 C 
ENDROOT
BRANCH   1   2
ATOM      2  C   UNL     1      21.088  66.730  14.719  1.00  0.00     0.000 C 
BRANCH   2   3
ATOM      3  C   UNL     1      19.831  67.238  15.440  1.00  0.00     0.000 C 
BRANCH   3   4
ATOM      4  C   UNL     1      20.061  68.641  16.023  1.00  0.00     0.000 C 
BRANCH   4   5
ATOM      5  C   UNL     1      21.383  69.266  15.552  1.00  0.00     0.000 C 
BRANCH   5   6
ATOM      6  C   UNL     1      21.818  70.458  16.423  1.00  0.00     0.006 C 
BRANCH   6   7
ATOM      7  C   UNL     1      21.751  71.788  15.661  1.00  0.00     0.053 C 
BRANCH   7   8
ATOM      8  C   UNL     1      23.058  72.123  15.011  1.00  0.00     0.041 C 
ATOM      9  O   UNL     1      23.909  72.821  15.622  1.00  0.00    -0.550 OA
ATOM     10  O   UNL     1      23.321  71.695  13.715  1.00  0.00    -0.550 OA
ENDBRANCH   7   8
ENDBRANCH   6   7
ENDBRANCH   5   6
ENDBRANCH   4   5
ENDBRANCH   3   4
ENDBRANCH   2   3
ENDBRANCH   1   2
BRANCH   1  11
ATOM     11  C   UNL     1      23.241  65.485  15.477  1.00  0.00     0.000 C 
BRANCH  11  12
ATOM     12  C   UNL     1      23.839  66.367  16.589  1.00  0.00    -0.000 C 
BRANCH  12  13
ATOM     13  C   UNL     1      23.168  66.140  17.955  1.00  0.00    -0.000 C 
BRANCH  13  14
ATOM     14  C   UNL     1      22.612  67.438  18.570  1.00  0.00    -0.000 C 
BRANCH  14  15
ATOM     15  C   UNL     1      21.195  67.329  19.170  1.00  0.00    -0.000 C 
BRANCH  15  16
ATOM     16  C   UNL     1      20.593  65.913  19.171  1.00  0.00    -0.000 C 
BRANCH  16  17
ATOM     17  C   UNL     1      19.130  65.887  18.710  1.00  0.00    -0.003 C 
ATOM     18  C   UNL     1      18.363  67.092  19.246  1.00  0.00     0.004 C 
ENDBRANCH  16  17
ENDBRANCH  15  16
ENDBRANCH  14  15
ENDBRANCH  13  14
ENDBRANCH  12  13
ENDBRANCH  11  12
ENDBRANCH   1  11
TORSDOF 14
ENDMDL
MODEL 3
REMARK VINA RESULT:    -2.666      4.764      8.414
REMARK INTER + INTRA:          -7.353
REMARK INTER:                  -5.964
REMARK INTRA:                  -1.389
REMARK UNBOUND:                -2.505
REMARK SMILES CCCCCCCCCCCCCCCC(=O)[O-]
REMARK SMILES IDX 9 1 10 2 11 3 12 4 13 5 14 6 15 7 16 8 17 9 18 10 8 11 7 12
REMARK SMILES IDX 6 13 5 14 4 15 3 16 2 17 1 18
REMARK H PARENT
REMARK Flexibility Score: inf
ROOT
ATOM      1  C   UNL     1      25.146  71.642  12.332  1.00  0.00     0.000 C 
ENDROOT
BRANCH   1   2
ATOM      2  C   UNL     1      23.833  72.028  13.035  1.00  0.00     0.000 C 
BRANCH   2   3
ATOM      3  C   UNL     1      24.061  72.730  14.382  1.00  0.00     0.000 C 
BRANCH   3   4
ATOM      4  C   UNL     1      22.959  72.361  15.387  1.00  0.00     0.000 C 
BRANCH   4   5
ATOM      5  C   UNL     1      22.056  71.224  14.882  1.00  0.00     0.000 C 
BRANCH   5   6
ATOM      6  C   UNL     1      21.232  70.577  16.009  1.00  0.00     0.006 C 
BRANCH   6   7
ATOM      7  C   UNL     1      21.923  69.339  16.595  1.00  0.00     0.053 C 
BRANCH   7   8
ATOM      8  C   UNL     1      22.300  69.540  18.030  1.00  0.00     0.041 C 
ATOM      9  O   UNL     1      22.947  70.563  18.378  1.00  0.00    -0.550 OA
ATOM     10  O   UNL     1      21.969  68.580  18.979  1.00  0.00    -0.550 OA
ENDBRANCH   7   8
ENDBRANCH   6   7
ENDBRANCH   5   6
ENDBRANCH   4   5
ENDBRANCH   3   4
ENDBRANCH   2   3
ENDBRANCH   1   2
BRANCH   1  11
ATOM     11  C   UNL     1      26.432  72.008  13.099  1.00  0.00     0.000 C 
BRANCH  11  12
ATOM     12  C   UNL     1      27.699  71.248  12.662  1.00  0.00    -0.000 C 
BRANCH  12  13
ATOM     13  C   UNL     1      28.419  71.920  11.480  1.00  0.00    -0.000 C 
BRANCH  13  14
ATOM     14  C   UNL     1      28.234  71.155  10.156  1.00  0.00    -0.000 C 
BRANCH  14  15
ATOM     15  C   UNL     1      27.751  72.008   8.964  1.00  0.00    -0.000 C 
BRANCH  15  16
ATOM     16  C   UNL     1      26.366  72.655   9.144  1.00  0.00    -0.000 C 
BRANCH  16  17
ATOM     17  C   UNL     1      26.447  74.149   9.483  1.00  0.00    -0.003 C 
ATOM     18  C   UNL     1      25.140  74.646  10.092  1.00  0.00     0.004 C 
ENDBRANCH  16  17
ENDBRANCH  15  16
ENDBRANCH  14  15
ENDBRANCH  13  14
ENDBRANCH  12  13
ENDBRANCH  11  12
ENDBRANCH   1  11
TORSDOF 14
ENDMDL
MODEL 4
REMARK VINA RESULT:    -2.665      1.126      2.356
REMARK INTER + INTRA:          -7.352
REMARK INTER:                  -4.869
REMARK INTRA:                  -2.482
REMARK UNBOUND:                -2.505
REMARK SMILES CCCCCCCCCCCCCCCC(=O)[O-]
REMARK SMILES IDX 9 1 10 2 11 3 12 4 13 5 14 6 15 7 16 8 17 9 18 10 8 11 7 12
REMARK SMILES IDX 6 13 5 14 4 15 3 16 2 17 1 18
REMARK H PARENT
REMARK Flexibility Score: inf
ROOT
ATOM      1  C   UNL     1      20.115  67.873  19.014  1.00  0.00     0.000 C 
ENDROOT
BRANCH   1   2
ATOM      2  C   UNL     1      21.610  67.517  19.102  1.00  0.00     0.000 C 
BRANCH   2   3
ATOM      3  C   UNL     1      22.515  68.578  18.459  1.00  0.00     0.000 C 
BRANCH   3   4
ATOM      4  C   UNL     1      21.692  69.784  17.981  1.00  0.00     0.000 C 
BRANCH   4   5
ATOM      5  C   UNL     1      22.470  70.680  17.004  1.00  0.00     0.000 C 
BRANCH   5   6
ATOM      6  C   UNL     1      21.553  71.390  15.993  1.00  0.00     0.006 C 
BRANCH   6   7
ATOM      7  C   UNL     1      22.199  71.502  14.605  1.00  0.00     0.053 C 
BRANCH   7   8
ATOM      8  C   UNL     1      23.308  72.509  14.589  1.00  0.00     0.041 C 
ATOM      9  O   UNL     1      24.384  72.256  13.986  1.00  0.00    -0.550 OA
ATOM     10  O   UNL     1      23.168  73.711  15.270  1.00  0.00    -0.550 OA
ENDBRANCH   7   8
ENDBRANCH   6   7
ENDBRANCH   5   6
ENDBRANCH   4   5
ENDBRANCH   3   4
ENDBRANCH   2   3
ENDBRANCH   1   2
BRANCH   1  11
ATOM     11  C   UNL     1      19.167  66.672  18.826  1.00  0.00     0.000 C 
BRANCH  11  12
ATOM     12  C   UNL     1      19.799  65.430  18.169  1.00  0.00    -0.000 C 
BRANCH  12  13
ATOM     13  C   UNL     1      18.989  64.915  16.967  1.00  0.00    -0.000 C 
BRANCH  13  14
ATOM     14  C   UNL     1      19.554  65.394  15.617  1.00  0.00    -0.000 C 
BRANCH  14  15
ATOM     15  C   UNL     1      20.887  66.167  15.697  1.00  0.00    -0.000 C 
BRANCH  15  16
ATOM     16  C   UNL     1      20.822  67.631  15.226  1.00  0.00    -0.000 C 
BRANCH  16  17
ATOM     17  C   UNL     1      19.418  68.046  14.766  1.00  0.00    -0.003 C 
ATOM     18  C   UNL     1      18.771  68.999  15.766  1.00  0.00     0.004 C 
ENDBRANCH  16  17
ENDBRANCH  15  16
ENDBRANCH  14  15
ENDBRANCH  13  14
ENDBRANCH  12  13
ENDBRANCH  11  12
ENDBRANCH   1  11
TORSDOF 14
ENDMDL
MODEL 5
REMARK VINA RESULT:    -2.664      1.112      2.699
REMARK INTER + INTRA:          -7.350
REMARK INTER:                  -4.965
REMARK INTRA:                  -2.384
REMARK UNBOUND:                -2.505
REMARK SMILES CCCCCCCCCCCCCCCC(=O)[O-]
REMARK SMILES IDX 9 1 10 2 11 3 12 4 13 5 14 6 15 7 16 8 17 9 18 10 8 11 7 12
REMARK SMILES IDX 6 13 5 14 4 15 3 16 2 17 1 18
REMARK H PARENT
REMARK Flexibility Score: inf
ROOT
ATOM      1  C   UNL     1      18.698  67.881  18.203  1.00  0.00     0.000 C 
ENDROOT
BRANCH   1   2
ATOM      2  C   UNL     1      18.622  68.632  16.862  1.00  0.00     0.000 C 
BRANCH   2   3
ATOM      3  C   UNL     1      19.641  68.122  15.832  1.00  0.00     0.000 C 
BRANCH   3   4
ATOM      4  C   UNL     1      20.591  69.248  15.397  1.00  0.00     0.000 C 
BRANCH   4   5
ATOM      5  C   UNL     1      20.806  70.298  16.498  1.00  0.00     0.000 C 
BRANCH   5   6
ATOM      6  C   UNL     1      22.050  71.170  16.251  1.00  0.00     0.006 C 
BRANCH   6   7
ATOM      7  C   UNL     1      22.293  71.423  14.757  1.00  0.00     0.053 C 
BRANCH   7   8
ATOM      8  C   UNL     1      23.436  72.366  14.533  1.00  0.00     0.041 C 
ATOM      9  O   UNL     1      23.871  73.070  15.481  1.00  0.00    -0.550 OA
ATOM     10  O   UNL     1      23.996  72.493  13.268  1.00  0.00    -0.550 OA
ENDBRANCH   7   8
ENDBRANCH   6   7
ENDBRANCH   5   6
ENDBRANCH   4   5
ENDBRANCH   3   4
ENDBRANCH   2   3
ENDBRANCH   1   2
BRANCH   1  11
ATOM     11  C   UNL     1      19.405  66.512  18.147  1.00  0.00     0.000 C 
BRANCH  11  12
ATOM     12  C   UNL     1      20.665  66.385  19.023  1.00  0.00    -0.000 C 
BRANCH  12  13
ATOM     13  C   UNL     1      21.370  67.733  19.253  1.00  0.00    -0.000 C 
BRANCH  13  14
ATOM     14  C   UNL     1      22.673  67.871  18.445  1.00  0.00    -0.000 C 
BRANCH  14  15
ATOM     15  C   UNL     1      23.165  66.578  17.760  1.00  0.00    -0.000 C 
BRANCH  15  16
ATOM     16  C   UNL     1      23.062  66.574  16.225  1.00  0.00    -0.000 C 
BRANCH  16  17
ATOM     17  C   UNL     1      22.245  65.392  15.686  1.00  0.00    -0.003 C 
ATOM     18  C   UNL     1      21.832  65.624  14.236  1.00  0.00     0.004 C 
ENDBRANCH  16  17
ENDBRANCH  15  16
ENDBRANCH  14  15
ENDBRANCH  13  14
ENDBRANCH  12  13
ENDBRANCH  11  12
ENDBRANCH   1  11
TORSDOF 14
ENDMDL
MODEL 6
REMARK VINA RESULT:    -2.649      3.630      6.099
REMARK INTER + INTRA:          -7.321
REMARK INTER:                  -4.868
REMARK INTRA:                  -2.453
REMARK UNBOUND:                -2.505
REMARK SMILES CCCCCCCCCCCCCCCC(=O)[O-]
REMARK SMILES IDX 9 1 10 2 11 3 12 4 13 5 14 6 15 7 16 8 17 9 18 10 8 11 7 12
REMARK SMILES IDX 6 13 5 14 4 15 3 16 2 17 1 18
REMARK H PARENT
REMARK Flexibility Score: inf
ROOT
ATOM      1  C   UNL     1      21.653  65.286  15.780  1.00  0.00     0.000 C 
ENDROOT
BRANCH   1   2
ATOM      2  C   UNL     1      23.023  65.968  15.609  1.00  0.00     0.000 C 
BRANCH   2   3
ATOM      3  C   UNL     1      23.532  66.618  16.904  1.00  0.00     0.000 C 
BRANCH   3   4
ATOM      4  C   UNL     1      22.575  66.337  18.072  1.00  0.00     0.000 C 
BRANCH   4   5
ATOM      5  C   UNL     1      22.089  67.622  18.760  1.00  0.00     0.000 C 
BRANCH   5   6
ATOM      6  C   UNL     1      20.642  67.511  19.270  1.00  0.00     0.006 C 
BRANCH   6   7
ATOM      7  C   UNL     1      20.071  66.098  19.091  1.00  0.00     0.053 C 
BRANCH   7   8
ATOM      8  C   UNL     1      18.573  66.099  19.094  1.00  0.00     0.041 C 
ATOM      9  O   UNL     1      17.941  67.188  19.130  1.00  0.00    -0.550 OA
ATOM     10  O   UNL     1      17.875  64.898  19.095  1.00  0.00    -0.550 OA
ENDBRANCH   7   8
ENDBRANCH   6   7
ENDBRANCH   5   6
ENDBRANCH   4   5
ENDBRANCH   3   4
ENDBRANCH   2   3
ENDBRANCH   1   2
BRANCH   1  11
ATOM     11  C   UNL     1      20.520  65.867  14.911  1.00  0.00     0.000 C 
BRANCH  11  12
ATOM     12  C   UNL     1      19.379  66.549  15.688  1.00  0.00    -0.000 C 
BRANCH  12  13
ATOM     13  C   UNL     1      19.347  68.074  15.485  1.00  0.00    -0.000 C 
BRANCH  13  14
ATOM     14  C   UNL     1      20.611  68.609  14.787  1.00  0.00    -0.000 C 
BRANCH  14  15
ATOM     15  C   UNL     1      21.403  69.671  15.579  1.00  0.00    -0.000 C 
BRANCH  15  16
ATOM     16  C   UNL     1      20.671  70.254  16.801  1.00  0.00    -0.000 C 
BRANCH  16  17
ATOM     17  C   UNL     1      20.120  71.664  16.547  1.00  0.00    -0.003 C 
ATOM     18  C   UNL     1      18.602  71.695  16.687  1.00  0.00     0.004 C 
ENDBRANCH  16  17
ENDBRANCH  15  16
ENDBRANCH  14  15
ENDBRANCH  13  14
ENDBRANCH  12  13
ENDBRANCH  11  12
ENDBRANCH   1  11
TORSDOF 14
ENDMDL
MODEL 7
REMARK VINA RESULT:    -2.645      2.900      3.952
REMARK INTER + INTRA:          -7.315
REMARK INTER:                  -5.330
REMARK INTRA:                  -1.985
REMARK UNBOUND:                -2.505
REMARK SMILES CCCCCCCCCCCCCCCC(=O)[O-]
REMARK SMILES IDX 9 1 10 2 11 3 12 4 13 5 14 6 15 7 16 8 17 9 18 10 8 11 7 12
REMARK SMILES IDX 6 13 5 14 4 15 3 16 2 17 1 18
REMARK H PARENT
REMARK Flexibility Score: inf
ROOT
ATOM      1  C   UNL     1      22.720  69.743  18.116  1.00  0.00     0.000 C 
ENDROOT
BRANCH   1   2
ATOM      2  C   UNL     1      21.513  70.571  17.640  1.00  0.00     0.000 C 
BRANCH   2   3
ATOM      3  C   UNL     1      21.548  70.865  16.133  1.00  0.00     0.000 C 
BRANCH   3   4
ATOM      4  C   UNL     1      20.616  72.035  15.780  1.00  0.00     0.000 C 
BRANCH   4   5
ATOM      5  C   UNL     1      19.257  71.941  16.490  1.00  0.00     0.000 C 
BRANCH   5   6
ATOM      6  C   UNL     1      18.616  73.320  16.728  1.00  0.00     0.006 C 
BRANCH   6   7
ATOM      7  C   UNL     1      18.293  73.561  18.209  1.00  0.00     0.053 C 
BRANCH   7   8
ATOM      8  C   UNL     1      18.331  75.017  18.555  1.00  0.00     0.041 C 
ATOM      9  O   UNL     1      18.417  75.883  17.645  1.00  0.00    -0.550 OA
ATOM     10  O   UNL     1      18.308  75.418  19.886  1.00  0.00    -0.550 OA
ENDBRANCH   7   8
ENDBRANCH   6   7
ENDBRANCH   5   6
ENDBRANCH   4   5
ENDBRANCH   3   4
ENDBRANCH   2   3
ENDBRANCH   1   2
BRANCH   1  11
ATOM     11  C   UNL     1      22.418  68.262  18.420  1.00  0.00     0.000 C 
BRANCH  11  12
ATOM     12  C   UNL     1      22.980  67.252  17.402  1.00  0.00    -0.000 C 
BRANCH  12  13
ATOM     13  C   UNL     1      22.107  67.126  16.142  1.00  0.00    -0.000 C 
BRANCH  13  14
ATOM     14  C   UNL     1      21.116  65.951  16.218  1.00  0.00    -0.000 C 
BRANCH  14  15
ATOM     15  C   UNL     1      19.633  66.347  16.383  1.00  0.00    -0.000 C 
BRANCH  15  16
ATOM     16  C   UNL     1      19.338  67.849  16.232  1.00  0.00    -0.000 C 
BRANCH  16  17
ATOM     17  C   UNL     1      18.566  68.427  17.425  1.00  0.00    -0.003 C 
ATOM     18  C   UNL     1      18.759  67.570  18.671  1.00  0.00     0.004 C 
ENDBRANCH  16  17
ENDBRANCH  15  16
ENDBRANCH  14  15
ENDBRANCH  13  14
ENDBRANCH  12  13
ENDBRANCH  11  12
ENDBRANCH   1  11
TORSDOF 14
ENDMDL
MODEL 8
REMARK VINA RESULT:    -2.643      1.057      2.518
REMARK INTER + INTRA:          -7.311
REMARK INTER:                  -5.306
REMARK INTRA:                  -2.005
REMARK UNBOUND:                -2.505
REMARK SMILES CCCCCCCCCCCCCCCC(=O)[O-]
REMARK SMILES IDX 9 1 10 2 11 3 12 4 13 5 14 6 15 7 16 8 17 9 18 10 8 11 7 12
REMARK SMILES IDX 6 13 5 14 4 15 3 16 2 17 1 18
REMARK H PARENT
REMARK Flexibility Score: inf
ROOT
ATOM      1  C   UNL     1      23.007  66.708  18.056  1.00  0.00     0.000 C 
ENDROOT
BRANCH   1   2
ATOM      2  C   UNL     1      22.704  68.087  17.442  1.00  0.00     0.000 C 
BRANCH   2   3
ATOM      3  C   UNL     1      22.301  69.133  18.491  1.00  0.00     0.000 C 
BRANCH   3   4
ATOM      4  C   UNL     1      21.928  70.465  17.823  1.00  0.00     0.000 C 
BRANCH   4   5
ATOM      5  C   UNL     1      21.355  70.277  16.411  1.00  0.00     0.000 C 
BRANCH   5   6
ATOM      6  C   UNL     1      21.721  71.433  15.463  1.00  0.00     0.006 C 
BRANCH   6   7
ATOM      7  C   UNL     1      23.082  72.053  15.805  1.00  0.00     0.053 C 
BRANCH   7   8
ATOM      8  C   UNL     1      23.618  72.875  14.673  1.00  0.00     0.041 C 
ATOM      9  O   UNL     1      23.244  74.069  14.524  1.00  0.00    -0.550 OA
ATOM     10  O   UNL     1      24.501  72.313  13.760  1.00  0.00    -0.550 OA
ENDBRANCH   7   8
ENDBRANCH   6   7
ENDBRANCH   5   6
ENDBRANCH   4   5
ENDBRANCH   3   4
ENDBRANCH   2   3
ENDBRANCH   1   2
BRANCH   1  11
ATOM     11  C   UNL     1      23.423  65.620  17.046  1.00  0.00     0.000 C 
BRANCH  11  12
ATOM     12  C   UNL     1      22.944  65.845  15.600  1.00  0.00    -0.000 C 
BRANCH  12  13
ATOM     13  C   UNL     1      21.546  65.261  15.337  1.00  0.00    -0.000 C 
BRANCH  13  14
ATOM     14  C   UNL     1      20.482  66.346  15.092  1.00  0.00    -0.000 C 
BRANCH  14  15
ATOM     15  C   UNL     1      19.489  66.570  16.251  1.00  0.00    -0.000 C 
BRANCH  15  16
ATOM     16  C   UNL     1      19.507  65.488  17.345  1.00  0.00    -0.000 C 
BRANCH  16  17
ATOM     17  C   UNL     1      19.041  66.014  18.710  1.00  0.00    -0.003 C 
ATOM     18  C   UNL     1      19.046  67.539  18.742  1.00  0.00     0.004 C 
ENDBRANCH  16  17
ENDBRANCH  15  16
ENDBRANCH  14  15
ENDBRANCH  13  14
ENDBRANCH  12  13
ENDBRANCH  11  12
ENDBRANCH   1  11
TORSDOF 14
ENDMDL
MODEL 9
REMARK VINA RESULT:    -2.639      1.682      3.523
REMARK INTER + INTRA:          -7.303
REMARK INTER:                  -5.335
REMARK INTRA:                  -1.968
REMARK UNBOUND:                -2.505
REMARK SMILES CCCCCCCCCCCCCCCC(=O)[O-]
REMARK SMILES IDX 9 1 10 2 11 3 12 4 13 5 14 6 15 7 16 8 17 9 18 10 8 11 7 12
REMARK SMILES IDX 6 13 5 14 4 15 3 16 2 17 1 18
REMARK H PARENT
REMARK Flexibility Score: inf
ROOT
ATOM      1  C   UNL     1      21.386  69.997  15.927  1.00  0.00     0.000 C 
ENDROOT
BRANCH   1   2
ATOM      2  C   UNL     1      20.498  70.864  15.016  1.00  0.00     0.000 C 
BRANCH   2   3
ATOM      3  C   UNL     1      20.561  72.358  15.368  1.00  0.00     0.000 C 
BRANCH   3   4
ATOM      4  C   UNL     1      21.415  73.127  14.348  1.00  0.00     0.000 C 
BRANCH   4   5
ATOM      5  C   UNL     1      22.708  73.684  14.961  1.00  0.00     0.000 C 
BRANCH   5   6
ATOM      6  C   UNL     1      23.917  72.757  14.740  1.00  0.00     0.006 C 
BRANCH   6   7
ATOM      7  C   UNL     1      23.793  71.942  13.446  1.00  0.00     0.053 C 
BRANCH   7   8
ATOM      8  C   UNL     1      25.067  71.954  12.658  1.00  0.00     0.041 C 
ATOM      9  O   UNL     1      26.177  71.897  13.249  1.00  0.00    -0.550 OA
ATOM     10  O   UNL     1      25.028  72.066  11.274  1.00  0.00    -0.550 OA
ENDBRANCH   7   8
ENDBRANCH   6   7
ENDBRANCH   5   6
ENDBRANCH   4   5
ENDBRANCH   3   4
ENDBRANCH   2   3
ENDBRANCH   1   2
BRANCH   1  11
ATOM     11  C   UNL     1      21.707  70.612  17.304  1.00  0.00     0.000 C 
BRANCH  11  12
ATOM     12  C   UNL     1      22.350  69.650  18.321  1.00  0.00    -0.000 C 
BRANCH  12  13
ATOM     13  C   UNL     1      22.777  68.313  17.690  1.00  0.00    -0.000 C 
BRANCH  13  14
ATOM     14  C   UNL     1      22.540  67.110  18.621  1.00  0.00    -0.000 C 
BRANCH  14  15
ATOM     15  C   UNL     1      21.080  66.617  18.703  1.00  0.00    -0.000 C 
BRANCH  15  16
ATOM     16  C   UNL     1      20.474  66.146  17.369  1.00  0.00    -0.000 C 
BRANCH  16  17
ATOM     17  C   UNL     1      19.365  67.075  16.858  1.00  0.00    -0.003 C 
ATOM     18  C   UNL     1      18.918  68.046  17.946  1.00  0.00     0.004 C 
ENDBRANCH  16  17
ENDBRANCH  15  16
ENDBRANCH  14  15
ENDBRANCH  13  14
ENDBRANCH  12  13
ENDBRANCH  11  12
ENDBRANCH   1  11
TORSDOF 14
ENDMDL
