MODEL 1
REMARK VINA RESULT:    -5.298      0.000      0.000
REMARK INTER + INTRA:          -6.660
REMARK INTER:                  -6.382
REMARK INTRA:                  -0.278
REMARK UNBOUND:                -0.278
REMARK SMILES O=c1c(O)c(-c2ccc(O)c(O)c2)oc2cc(O)cc(O)c12
REMARK SMILES IDX 5 1 3 2 2 3 1 4 22 5 20 6 19 7 17 8 16 9 15 10 14 11 6 12
REMARK SMILES IDX 7 13 8 14 9 15 13 16 11 17 10 18 12 20 4 22 21 24 18 26
REMARK H PARENT 10 19 12 21 4 23 21 25 18 27
REMARK Flexibility Score: inf
ROOT
ATOM      1  C   UNL     1      -8.427  91.298 -13.354  1.00  0.00     0.180 A 
ATOM      2  C   UNL     1      -7.666  91.464 -12.180  1.00  0.00     0.208 A 
ATOM      3  C   UNL     1      -6.265  91.455 -12.272  1.00  0.00     0.238 A 
ATOM      4  O   UNL     1      -5.574  91.612 -11.229  1.00  0.00    -0.285 OA
ATOM      5  C   UNL     1      -5.650  91.262 -13.526  1.00  0.00     0.111 A 
ATOM      6  C   UNL     1      -4.246  91.236 -13.704  1.00  0.00     0.134 A 
ATOM      7  C   UNL     1      -3.711  91.030 -14.984  1.00  0.00     0.093 A 
ATOM      8  C   UNL     1      -4.548  90.848 -16.086  1.00  0.00     0.123 A 
ATOM      9  C   UNL     1      -5.937  90.874 -15.917  1.00  0.00     0.094 A 
ATOM     10  C   UNL     1      -6.490  91.080 -14.650  1.00  0.00     0.146 A 
ATOM     11  O   UNL     1      -7.812  91.104 -14.517  1.00  0.00    -0.452 OA
ENDROOT
BRANCH   1  12
ATOM     12  C   UNL     1      -9.906  91.315 -13.342  1.00  0.00     0.025 A 
ATOM     13  C   UNL     1     -10.624  92.516 -13.201  1.00  0.00     0.016 A 
ATOM     14  C   UNL     1     -12.021  92.510 -13.217  1.00  0.00     0.051 A 
ATOM     15  C   UNL     1     -12.722  91.312 -13.386  1.00  0.00     0.157 A 
ATOM     16  C   UNL     1     -10.613  90.116 -13.532  1.00  0.00     0.062 A 
ATOM     17  C   UNL     1     -12.015  90.108 -13.547  1.00  0.00     0.158 A 
BRANCH  15  18
ATOM     18  O   UNL     1     -14.116  91.337 -13.395  1.00  0.00    -0.504 OA
ATOM     19  H   UNL     1     -14.638  92.205 -13.390  1.00  0.00     0.293 HD
ENDBRANCH  15  18
BRANCH  17  20
ATOM     20  O   UNL     1     -12.707  88.911 -13.724  1.00  0.00    -0.504 OA
ATOM     21  H   UNL     1     -12.338  88.165 -14.301  1.00  0.00     0.293 HD
ENDBRANCH  17  20
ENDBRANCH   1  12
BRANCH   2  22
ATOM     22  O   UNL     1      -8.300  91.603 -10.943  1.00  0.00    -0.502 OA
ATOM     23  H   UNL     1      -8.070  92.347 -10.296  1.00  0.00     0.293 HD
ENDBRANCH   2  22
BRANCH   6  24
ATOM     24  O   UNL     1      -3.382  91.412 -12.623  1.00  0.00    -0.507 OA
ATOM     25  H   UNL     1      -2.375  91.347 -12.728  1.00  0.00     0.293 HD
ENDBRANCH   6  24
BRANCH   8  26
ATOM     26  O   UNL     1      -3.992  90.645 -17.346  1.00  0.00    -0.508 OA
ATOM     27  H   UNL     1      -2.991  90.696 -17.498  1.00  0.00     0.293 HD
ENDBRANCH   8  26
TORSDOF 6
ENDMDL
MODEL 2
REMARK VINA RESULT:    -5.273      7.603     10.887
REMARK INTER + INTRA:          -6.630
REMARK INTER:                  -6.306
REMARK INTRA:                  -0.324
REMARK UNBOUND:                -0.278
REMARK SMILES O=c1c(O)c(-c2ccc(O)c(O)c2)oc2cc(O)cc(O)c12
REMARK SMILES IDX 5 1 3 2 2 3 1 4 22 5 20 6 19 7 17 8 16 9 15 10 14 11 6 12
REMARK SMILES IDX 7 13 8 14 9 15 13 16 11 17 10 18 12 20 4 22 21 24 18 26
REMARK H PARENT 10 19 12 21 4 23 21 25 18 27
REMARK Flexibility Score: inf
ROOT
ATOM      1  C   UNL     1      -9.805  83.999  -8.948  1.00  0.00     0.180 A 
ATOM      2  C   UNL     1     -10.666  82.894  -9.097  1.00  0.00     0.208 A 
ATOM      3  C   UNL     1     -12.007  83.120  -9.446  1.00  0.00     0.238 A 
ATOM      4  O   UNL     1     -12.783  82.138  -9.593  1.00  0.00    -0.285 OA
ATOM      5  C   UNL     1     -12.468  84.441  -9.621  1.00  0.00     0.111 A 
ATOM      6  C   UNL     1     -13.804  84.755  -9.970  1.00  0.00     0.134 A 
ATOM      7  C   UNL     1     -14.188  86.096 -10.117  1.00  0.00     0.093 A 
ATOM      8  C   UNL     1     -13.266  87.127  -9.921  1.00  0.00     0.123 A 
ATOM      9  C   UNL     1     -11.944  86.823  -9.578  1.00  0.00     0.094 A 
ATOM     10  C   UNL     1     -11.542  85.493  -9.429  1.00  0.00     0.146 A 
ATOM     11  O   UNL     1     -10.279  85.231  -9.106  1.00  0.00    -0.452 OA
ENDROOT
BRANCH   1  12
ATOM     12  C   UNL     1      -8.376  83.841  -8.599  1.00  0.00     0.025 A 
ATOM     13  C   UNL     1      -7.944  83.833  -7.261  1.00  0.00     0.016 A 
ATOM     14  C   UNL     1      -6.592  83.659  -6.955  1.00  0.00     0.051 A 
ATOM     15  C   UNL     1      -5.654  83.477  -7.976  1.00  0.00     0.157 A 
ATOM     16  C   UNL     1      -7.433  83.638  -9.621  1.00  0.00     0.062 A 
ATOM     17  C   UNL     1      -6.076  83.464  -9.316  1.00  0.00     0.158 A 
BRANCH  15  18
ATOM     18  O   UNL     1      -4.311  83.309  -7.639  1.00  0.00    -0.504 OA
ATOM     19  H   UNL     1      -3.585  83.244  -8.342  1.00  0.00     0.293 HD
ENDBRANCH  15  18
BRANCH  17  20
ATOM     20  O   UNL     1      -5.146  83.277 -10.338  1.00  0.00    -0.504 OA
ATOM     21  H   UNL     1      -5.263  82.550 -11.035  1.00  0.00     0.293 HD
ENDBRANCH  17  20
ENDBRANCH   1  12
BRANCH   2  22
ATOM     22  O   UNL     1     -10.196  81.598  -8.869  1.00  0.00    -0.502 OA
ATOM     23  H   UNL     1     -10.300  80.856  -9.550  1.00  0.00     0.293 HD
ENDBRANCH   2  22
BRANCH   6  24
ATOM     24  O   UNL     1     -14.749  83.748 -10.170  1.00  0.00    -0.507 OA
ATOM     25  H   UNL     1     -14.553  82.940 -10.751  1.00  0.00     0.293 HD
ENDBRANCH   6  24
BRANCH   8  26
ATOM     26  O   UNL     1     -13.673  88.450 -10.073  1.00  0.00    -0.508 OA
ATOM     27  H   UNL     1     -13.026  89.173 -10.367  1.00  0.00     0.293 HD
ENDBRANCH   8  26
TORSDOF 6
ENDMDL
MODEL 3
REMARK VINA RESULT:    -5.218      4.710      6.745
REMARK INTER + INTRA:          -6.563
REMARK INTER:                  -6.243
REMARK INTRA:                  -0.320
REMARK UNBOUND:                -0.278
REMARK SMILES O=c1c(O)c(-c2ccc(O)c(O)c2)oc2cc(O)cc(O)c12
REMARK SMILES IDX 5 1 3 2 2 3 1 4 22 5 20 6 19 7 17 8 16 9 15 10 14 11 6 12
REMARK SMILES IDX 7 13 8 14 9 15 13 16 11 17 10 18 12 20 4 22 21 24 18 26
REMARK H PARENT 10 19 12 21 4 23 21 25 18 27
REMARK Flexibility Score: inf
ROOT
ATOM      1  C   UNL     1      -4.163  92.094 -15.591  1.00  0.00     0.180 A 
ATOM      2  C   UNL     1      -3.047  91.471 -16.183  1.00  0.00     0.208 A 
ATOM      3  C   UNL     1      -2.876  91.564 -17.573  1.00  0.00     0.238 A 
ATOM      4  O   UNL     1      -1.875  91.019 -18.112  1.00  0.00    -0.285 OA
ATOM      5  C   UNL     1      -3.828  92.258 -18.347  1.00  0.00     0.111 A 
ATOM      6  C   UNL     1      -3.731  92.394 -19.753  1.00  0.00     0.134 A 
ATOM      7  C   UNL     1      -4.725  93.093 -20.455  1.00  0.00     0.093 A 
ATOM      8  C   UNL     1      -5.812  93.654 -19.781  1.00  0.00     0.123 A 
ATOM      9  C   UNL     1      -5.912  93.524 -18.392  1.00  0.00     0.094 A 
ATOM     10  C   UNL     1      -4.931  92.833 -17.674  1.00  0.00     0.146 A 
ATOM     11  O   UNL     1      -5.048  92.727 -16.355  1.00  0.00    -0.452 OA
ENDROOT
BRANCH   1  12
ATOM     12  C   UNL     1      -4.403  92.057 -14.131  1.00  0.00     0.025 A 
ATOM     13  C   UNL     1      -5.075  90.980 -13.526  1.00  0.00     0.016 A 
ATOM     14  C   UNL     1      -5.270  90.955 -12.142  1.00  0.00     0.051 A 
ATOM     15  C   UNL     1      -4.785  91.994 -11.341  1.00  0.00     0.157 A 
ATOM     16  C   UNL     1      -3.900  93.089 -13.321  1.00  0.00     0.062 A 
ATOM     17  C   UNL     1      -4.095  93.066 -11.932  1.00  0.00     0.158 A 
BRANCH  15  18
ATOM     18  O   UNL     1      -4.996  91.943  -9.964  1.00  0.00    -0.504 OA
ATOM     19  H   UNL     1      -4.485  92.533  -9.319  1.00  0.00     0.293 HD
ENDBRANCH  15  18
BRANCH  17  20
ATOM     20  O   UNL     1      -3.603  94.101 -11.139  1.00  0.00    -0.504 OA
ATOM     21  H   UNL     1      -2.609  94.223 -10.981  1.00  0.00     0.293 HD
ENDBRANCH  17  20
ENDBRANCH   1  12
BRANCH   2  22
ATOM     22  O   UNL     1      -2.145  90.748 -15.398  1.00  0.00    -0.502 OA
ATOM     23  H   UNL     1      -2.028  90.921 -14.408  1.00  0.00     0.293 HD
ENDBRANCH   2  22
BRANCH   6  24
ATOM     24  O   UNL     1      -2.659  91.843 -20.456  1.00  0.00    -0.507 OA
ATOM     25  H   UNL     1      -1.710  91.885 -20.100  1.00  0.00     0.293 HD
ENDBRANCH   6  24
BRANCH   8  26
ATOM     26  O   UNL     1      -6.786  94.342 -20.500  1.00  0.00    -0.508 OA
ATOM     27  H   UNL     1      -7.717  94.487 -20.127  1.00  0.00     0.293 HD
ENDBRANCH   8  26
TORSDOF 6
ENDMDL
MODEL 4
REMARK VINA RESULT:    -5.195      3.528      5.856
REMARK INTER + INTRA:          -6.536
REMARK INTER:                  -6.212
REMARK INTRA:                  -0.324
REMARK UNBOUND:                -0.278
REMARK SMILES O=c1c(O)c(-c2ccc(O)c(O)c2)oc2cc(O)cc(O)c12
REMARK SMILES IDX 5 1 3 2 2 3 1 4 22 5 20 6 19 7 17 8 16 9 15 10 14 11 6 12
REMARK SMILES IDX 7 13 8 14 9 15 13 16 11 17 10 18 12 20 4 22 21 24 18 26
REMARK H PARENT 10 19 12 21 4 23 21 25 18 27
REMARK Flexibility Score: inf
ROOT
ATOM      1  C   UNL     1      -5.803  91.885 -14.925  1.00  0.00     0.180 A 
ATOM      2  C   UNL     1      -4.955  92.570 -14.033  1.00  0.00     0.208 A 
ATOM      3  C   UNL     1      -4.852  92.116 -12.709  1.00  0.00     0.238 A 
ATOM      4  O   UNL     1      -4.088  92.715 -11.905  1.00  0.00    -0.285 OA
ATOM      5  C   UNL     1      -5.611  91.002 -12.294  1.00  0.00     0.111 A 
ATOM      6  C   UNL     1      -5.568  90.484 -10.977  1.00  0.00     0.134 A 
ATOM      7  C   UNL     1      -6.361  89.377 -10.639  1.00  0.00     0.093 A 
ATOM      8  C   UNL     1      -7.194  88.780 -11.588  1.00  0.00     0.123 A 
ATOM      9  C   UNL     1      -7.239  89.287 -12.891  1.00  0.00     0.094 A 
ATOM     10  C   UNL     1      -6.455  90.388 -13.248  1.00  0.00     0.146 A 
ATOM     11  O   UNL     1      -6.514  90.847 -14.494  1.00  0.00    -0.452 OA
ENDROOT
BRANCH   1  12
ATOM     12  C   UNL     1      -5.950  92.291 -16.340  1.00  0.00     0.025 A 
ATOM     13  C   UNL     1      -6.938  93.209 -16.741  1.00  0.00     0.016 A 
ATOM     14  C   UNL     1      -7.043  93.596 -18.079  1.00  0.00     0.051 A 
ATOM     15  C   UNL     1      -6.157  93.086 -19.034  1.00  0.00     0.157 A 
ATOM     16  C   UNL     1      -5.050  91.797 -17.299  1.00  0.00     0.062 A 
ATOM     17  C   UNL     1      -5.154  92.184 -18.643  1.00  0.00     0.158 A 
BRANCH  15  18
ATOM     18  O   UNL     1      -6.288  93.488 -20.363  1.00  0.00    -0.504 OA
ATOM     19  H   UNL     1      -6.648  92.870 -21.079  1.00  0.00     0.293 HD
ENDBRANCH  15  18
BRANCH  17  20
ATOM     20  O   UNL     1      -4.264  91.677 -19.588  1.00  0.00    -0.504 OA
ATOM     21  H   UNL     1      -3.465  91.114 -19.318  1.00  0.00     0.293 HD
ENDBRANCH  17  20
ENDBRANCH   1  12
BRANCH   2  22
ATOM     22  O   UNL     1      -4.252  93.702 -14.457  1.00  0.00    -0.502 OA
ATOM     23  H   UNL     1      -4.688  94.441 -14.994  1.00  0.00     0.293 HD
ENDBRANCH   2  22
BRANCH   6  24
ATOM     24  O   UNL     1      -4.748  91.059 -10.005  1.00  0.00    -0.507 OA
ATOM     25  H   UNL     1      -3.937  91.615 -10.253  1.00  0.00     0.293 HD
ENDBRANCH   6  24
BRANCH   8  26
ATOM     26  O   UNL     1      -7.971  87.682 -11.227  1.00  0.00    -0.508 OA
ATOM     27  H   UNL     1      -7.596  86.741 -11.241  1.00  0.00     0.293 HD
ENDBRANCH   8  26
TORSDOF 6
ENDMDL
MODEL 5
REMARK VINA RESULT:    -5.152      8.173     11.021
REMARK INTER + INTRA:          -6.485
REMARK INTER:                  -6.252
REMARK INTRA:                  -0.233
REMARK UNBOUND:                -0.278
REMARK SMILES O=c1c(O)c(-c2ccc(O)c(O)c2)oc2cc(O)cc(O)c12
REMARK SMILES IDX 5 1 3 2 2 3 1 4 22 5 20 6 19 7 17 8 16 9 15 10 14 11 6 12
REMARK SMILES IDX 7 13 8 14 9 15 13 16 11 17 10 18 12 20 4 22 21 24 18 26
REMARK H PARENT 10 19 12 21 4 23 21 25 18 27
REMARK Flexibility Score: inf
ROOT
ATOM      1  C   UNL     1      -7.544  84.046  -8.819  1.00  0.00     0.180 A 
ATOM      2  C   UNL     1      -8.037  85.353  -8.641  1.00  0.00     0.208 A 
ATOM      3  C   UNL     1      -9.421  85.573  -8.713  1.00  0.00     0.238 A 
ATOM      4  O   UNL     1      -9.874  86.737  -8.545  1.00  0.00    -0.285 OA
ATOM      5  C   UNL     1     -10.285  84.491  -8.981  1.00  0.00     0.111 A 
ATOM      6  C   UNL     1     -11.691  84.628  -9.074  1.00  0.00     0.134 A 
ATOM      7  C   UNL     1     -12.483  83.504  -9.352  1.00  0.00     0.093 A 
ATOM      8  C   UNL     1     -11.899  82.250  -9.541  1.00  0.00     0.123 A 
ATOM      9  C   UNL     1     -10.510  82.108  -9.449  1.00  0.00     0.094 A 
ATOM     10  C   UNL     1      -9.704  83.216  -9.171  1.00  0.00     0.146 A 
ATOM     11  O   UNL     1      -8.388  83.053  -9.085  1.00  0.00    -0.452 OA
ENDROOT
BRANCH   1  12
ATOM     12  C   UNL     1      -6.100  83.731  -8.739  1.00  0.00     0.025 A 
ATOM     13  C   UNL     1      -5.401  83.803  -7.521  1.00  0.00     0.016 A 
ATOM     14  C   UNL     1      -4.044  83.478  -7.465  1.00  0.00     0.051 A 
ATOM     15  C   UNL     1      -3.367  83.062  -8.617  1.00  0.00     0.157 A 
ATOM     16  C   UNL     1      -5.423  83.293  -9.890  1.00  0.00     0.062 A 
ATOM     17  C   UNL     1      -4.060  82.967  -9.835  1.00  0.00     0.158 A 
BRANCH  15  18
ATOM     18  O   UNL     1      -2.012  82.747  -8.530  1.00  0.00    -0.504 OA
ATOM     19  H   UNL     1      -1.528  82.249  -9.267  1.00  0.00     0.293 HD
ENDBRANCH  15  18
BRANCH  17  20
ATOM     20  O   UNL     1      -3.394  82.546 -10.985  1.00  0.00    -0.504 OA
ATOM     21  H   UNL     1      -3.417  83.090 -11.841  1.00  0.00     0.293 HD
ENDBRANCH  17  20
ENDBRANCH   1  12
BRANCH   2  22
ATOM     22  O   UNL     1      -7.155  86.416  -8.426  1.00  0.00    -0.502 OA
ATOM     23  H   UNL     1      -7.290  87.326  -8.848  1.00  0.00     0.293 HD
ENDBRANCH   2  22
BRANCH   6  24
ATOM     24  O   UNL     1     -12.305  85.868  -8.892  1.00  0.00    -0.507 OA
ATOM     25  H   UNL     1     -11.809  86.656  -8.490  1.00  0.00     0.293 HD
ENDBRANCH   6  24
BRANCH   8  26
ATOM     26  O   UNL     1     -12.707  81.150  -9.817  1.00  0.00    -0.508 OA
ATOM     27  H   UNL     1     -13.667  81.262 -10.124  1.00  0.00     0.293 HD
ENDBRANCH   8  26
TORSDOF 6
ENDMDL
MODEL 6
REMARK VINA RESULT:    -5.117      3.267      6.067
REMARK INTER + INTRA:          -6.443
REMARK INTER:                  -6.111
REMARK INTRA:                  -0.331
REMARK UNBOUND:                -0.278
REMARK SMILES O=c1c(O)c(-c2ccc(O)c(O)c2)oc2cc(O)cc(O)c12
REMARK SMILES IDX 5 1 3 2 2 3 1 4 22 5 20 6 19 7 17 8 16 9 15 10 14 11 6 12
REMARK SMILES IDX 7 13 8 14 9 15 13 16 11 17 10 18 12 20 4 22 21 24 18 26
REMARK H PARENT 10 19 12 21 4 23 21 25 18 27
REMARK Flexibility Score: inf
ROOT
ATOM      1  C   UNL     1      -6.227  90.172 -12.487  1.00  0.00     0.180 A 
ATOM      2  C   UNL     1      -7.073  89.116 -12.097  1.00  0.00     0.208 A 
ATOM      3  C   UNL     1      -7.005  88.642 -10.777  1.00  0.00     0.238 A 
ATOM      4  O   UNL     1      -7.764  87.704 -10.415  1.00  0.00    -0.285 OA
ATOM      5  C   UNL     1      -6.082  89.215  -9.878  1.00  0.00     0.111 A 
ATOM      6  C   UNL     1      -5.947  88.793  -8.534  1.00  0.00     0.134 A 
ATOM      7  C   UNL     1      -4.998  89.409  -7.703  1.00  0.00     0.093 A 
ATOM      8  C   UNL     1      -4.183  90.433  -8.190  1.00  0.00     0.123 A 
ATOM      9  C   UNL     1      -4.313  90.855  -9.517  1.00  0.00     0.094 A 
ATOM     10  C   UNL     1      -5.253  90.256 -10.360  1.00  0.00     0.146 A 
ATOM     11  O   UNL     1      -5.359  90.678 -11.615  1.00  0.00    -0.452 OA
ENDROOT
BRANCH   1  12
ATOM     12  C   UNL     1      -6.253  90.739 -13.853  1.00  0.00     0.025 A 
ATOM     13  C   UNL     1      -7.133  91.781 -14.198  1.00  0.00     0.016 A 
ATOM     14  C   UNL     1      -7.123  92.316 -15.488  1.00  0.00     0.051 A 
ATOM     15  C   UNL     1      -6.229  91.833 -16.448  1.00  0.00     0.157 A 
ATOM     16  C   UNL     1      -5.342  90.269 -14.814  1.00  0.00     0.062 A 
ATOM     17  C   UNL     1      -5.332  90.806 -16.110  1.00  0.00     0.158 A 
BRANCH  15  18
ATOM     18  O   UNL     1      -6.244  92.386 -17.728  1.00  0.00    -0.504 OA
ATOM     19  H   UNL     1      -6.178  91.814 -18.561  1.00  0.00     0.293 HD
ENDBRANCH  15  18
BRANCH  17  20
ATOM     20  O   UNL     1      -4.433  90.324 -17.060  1.00  0.00    -0.504 OA
ATOM     21  H   UNL     1      -3.985  89.420 -16.958  1.00  0.00     0.293 HD
ENDBRANCH  17  20
ENDBRANCH   1  12
BRANCH   2  22
ATOM     22  O   UNL     1      -7.943  88.532 -13.022  1.00  0.00    -0.502 OA
ATOM     23  H   UNL     1      -8.950  88.572 -12.919  1.00  0.00     0.293 HD
ENDBRANCH   2  22
BRANCH   6  24
ATOM     24  O   UNL     1      -6.745  87.771  -8.019  1.00  0.00    -0.507 OA
ATOM     25  H   UNL     1      -6.513  86.793  -8.155  1.00  0.00     0.293 HD
ENDBRANCH   6  24
BRANCH   8  26
ATOM     26  O   UNL     1      -3.249  91.027  -7.345  1.00  0.00    -0.508 OA
ATOM     27  H   UNL     1      -2.646  90.472  -6.748  1.00  0.00     0.293 HD
ENDBRANCH   8  26
TORSDOF 6
ENDMDL
MODEL 7
REMARK VINA RESULT:    -5.107      4.047      6.213
REMARK INTER + INTRA:          -6.430
REMARK INTER:                  -6.110
REMARK INTRA:                  -0.320
REMARK UNBOUND:                -0.278
REMARK SMILES O=c1c(O)c(-c2ccc(O)c(O)c2)oc2cc(O)cc(O)c12
REMARK SMILES IDX 5 1 3 2 2 3 1 4 22 5 20 6 19 7 17 8 16 9 15 10 14 11 6 12
REMARK SMILES IDX 7 13 8 14 9 15 13 16 11 17 10 18 12 20 4 22 21 24 18 26
REMARK H PARENT 10 19 12 21 4 23 21 25 18 27
REMARK Flexibility Score: inf
ROOT
ATOM      1  C   UNL     1      -5.117  91.846 -12.939  1.00  0.00     0.180 A 
ATOM      2  C   UNL     1      -4.603  93.005 -12.327  1.00  0.00     0.208 A 
ATOM      3  C   UNL     1      -4.433  93.020 -10.933  1.00  0.00     0.238 A 
ATOM      4  O   UNL     1      -3.964  94.049 -10.376  1.00  0.00    -0.285 OA
ATOM      5  C   UNL     1      -4.797  91.888 -10.176  1.00  0.00     0.111 A 
ATOM      6  C   UNL     1      -4.662  91.823  -8.768  1.00  0.00     0.134 A 
ATOM      7  C   UNL     1      -5.055  90.662  -8.084  1.00  0.00     0.093 A 
ATOM      8  C   UNL     1      -5.581  89.570  -8.777  1.00  0.00     0.123 A 
ATOM      9  C   UNL     1      -5.716  89.628 -10.168  1.00  0.00     0.094 A 
ATOM     10  C   UNL     1      -5.328  90.775 -10.868  1.00  0.00     0.146 A 
ATOM     11  O   UNL     1      -5.463  90.802 -12.190  1.00  0.00    -0.452 OA
ENDROOT
BRANCH   1  12
ATOM     12  C   UNL     1      -5.308  91.747 -14.403  1.00  0.00     0.025 A 
ATOM     13  C   UNL     1      -6.480  92.215 -15.023  1.00  0.00     0.016 A 
ATOM     14  C   UNL     1      -6.628  92.132 -16.410  1.00  0.00     0.051 A 
ATOM     15  C   UNL     1      -5.605  91.596 -17.199  1.00  0.00     0.157 A 
ATOM     16  C   UNL     1      -4.275  91.228 -15.201  1.00  0.00     0.062 A 
ATOM     17  C   UNL     1      -4.421  91.144 -16.593  1.00  0.00     0.158 A 
BRANCH  15  18
ATOM     18  O   UNL     1      -5.782  91.525 -18.581  1.00  0.00    -0.504 OA
ATOM     19  H   UNL     1      -5.991  92.343 -19.139  1.00  0.00     0.293 HD
ENDBRANCH  15  18
BRANCH  17  20
ATOM     20  O   UNL     1      -3.396  90.615 -17.375  1.00  0.00    -0.504 OA
ATOM     21  H   UNL     1      -3.437  90.632 -18.387  1.00  0.00     0.293 HD
ENDBRANCH  17  20
ENDBRANCH   1  12
BRANCH   2  22
ATOM     22  O   UNL     1      -4.298  94.132 -13.095  1.00  0.00    -0.502 OA
ATOM     23  H   UNL     1      -4.877  94.962 -13.095  1.00  0.00     0.293 HD
ENDBRANCH   2  22
BRANCH   6  24
ATOM     24  O   UNL     1      -4.142  92.898  -8.046  1.00  0.00    -0.507 OA
ATOM     25  H   UNL     1      -4.634  93.296  -7.254  1.00  0.00     0.293 HD
ENDBRANCH   6  24
BRANCH   8  26
ATOM     26  O   UNL     1      -5.964  88.431  -8.075  1.00  0.00    -0.508 OA
ATOM     27  H   UNL     1      -5.428  87.572  -8.126  1.00  0.00     0.293 HD
ENDBRANCH   8  26
TORSDOF 6
ENDMDL
MODEL 8
REMARK VINA RESULT:    -5.040      4.225      7.367
REMARK INTER + INTRA:          -6.349
REMARK INTER:                  -6.080
REMARK INTRA:                  -0.268
REMARK UNBOUND:                -0.278
REMARK SMILES O=c1c(O)c(-c2ccc(O)c(O)c2)oc2cc(O)cc(O)c12
REMARK SMILES IDX 5 1 3 2 2 3 1 4 22 5 20 6 19 7 17 8 16 9 15 10 14 11 6 12
REMARK SMILES IDX 7 13 8 14 9 15 13 16 11 17 10 18 12 20 4 22 21 24 18 26
REMARK H PARENT 10 19 12 21 4 23 21 25 18 27
REMARK Flexibility Score: inf
ROOT
ATOM      1  C   UNL     1      -4.408  91.942 -17.431  1.00  0.00     0.180 A 
ATOM      2  C   UNL     1      -3.203  91.598 -18.075  1.00  0.00     0.208 A 
ATOM      3  C   UNL     1      -2.954  92.098 -19.363  1.00  0.00     0.238 A 
ATOM      4  O   UNL     1      -1.875  91.804 -19.944  1.00  0.00    -0.285 OA
ATOM      5  C   UNL     1      -3.918  92.913 -19.992  1.00  0.00     0.111 A 
ATOM      6  C   UNL     1      -3.746  93.453 -21.289  1.00  0.00     0.134 A 
ATOM      7  C   UNL     1      -4.756  94.250 -21.850  1.00  0.00     0.093 A 
ATOM      8  C   UNL     1      -5.930  94.514 -21.143  1.00  0.00     0.123 A 
ATOM      9  C   UNL     1      -6.105  93.984 -19.861  1.00  0.00     0.094 A 
ATOM     10  C   UNL     1      -5.110  93.190 -19.283  1.00  0.00     0.146 A 
ATOM     11  O   UNL     1      -5.299  92.702 -18.062  1.00  0.00    -0.452 OA
ENDROOT
BRANCH   1  12
ATOM     12  C   UNL     1      -4.734  91.471 -16.067  1.00  0.00     0.025 A 
ATOM     13  C   UNL     1      -5.624  90.403 -15.854  1.00  0.00     0.016 A 
ATOM     14  C   UNL     1      -5.899  89.959 -14.558  1.00  0.00     0.051 A 
ATOM     15  C   UNL     1      -5.282  90.563 -13.458  1.00  0.00     0.157 A 
ATOM     16  C   UNL     1      -4.101  92.062 -14.961  1.00  0.00     0.062 A 
ATOM     17  C   UNL     1      -4.376  91.618 -13.660  1.00  0.00     0.158 A 
BRANCH  15  18
ATOM     18  O   UNL     1      -5.578  90.101 -12.176  1.00  0.00    -0.504 OA
ATOM     19  H   UNL     1      -5.605  90.719 -11.375  1.00  0.00     0.293 HD
ENDBRANCH  15  18
BRANCH  17  20
ATOM     20  O   UNL     1      -3.752  92.220 -12.568  1.00  0.00    -0.504 OA
ATOM     21  H   UNL     1      -2.966  92.848 -12.686  1.00  0.00     0.293 HD
ENDBRANCH  17  20
ENDBRANCH   1  12
BRANCH   2  22
ATOM     22  O   UNL     1      -2.288  90.747 -17.449  1.00  0.00    -0.502 OA
ATOM     23  H   UNL     1      -1.384  91.068 -17.124  1.00  0.00     0.293 HD
ENDBRANCH   2  22
BRANCH   6  24
ATOM     24  O   UNL     1      -2.585  93.206 -22.022  1.00  0.00    -0.507 OA
ATOM     25  H   UNL     1      -2.039  92.362 -21.888  1.00  0.00     0.293 HD
ENDBRANCH   6  24
BRANCH   8  26
ATOM     26  O   UNL     1      -6.917  95.307 -21.723  1.00  0.00    -0.508 OA
ATOM     27  H   UNL     1      -7.828  95.419 -21.292  1.00  0.00     0.293 HD
ENDBRANCH   8  26
TORSDOF 6
ENDMDL
