MODEL 1
REMARK VINA RESULT:    -5.753      0.000      0.000
REMARK INTER + INTRA:         -13.168
REMARK INTER:                 -11.134
REMARK INTRA:                  -2.034
REMARK UNBOUND:                -2.034
REMARK SMILES CCCCCCCCCCCCCCCCCC(=O)[O-]
REMARK SMILES IDX 10 1 11 2 12 3 13 4 14 5 15 6 16 7 17 8 18 9 19 10 20 11
REMARK SMILES IDX 9 12 8 13 7 14 6 15 5 16 4 17 3 18 2 19 1 20
REMARK H PARENT
REMARK Flexibility Score: inf
ROOT
ATOM      1  C   UNL     1       0.080 -32.754 -52.388  1.00  0.00     0.000 C 
ENDROOT
BRANCH   1   2
ATOM      2  C   UNL     1       0.352 -31.255 -52.588  1.00  0.00     0.000 C 
BRANCH   2   3
ATOM      3  C   UNL     1       0.282 -30.460 -51.272  1.00  0.00     0.000 C 
BRANCH   3   4
ATOM      4  C   UNL     1      -0.671 -29.257 -51.359  1.00  0.00     0.000 C 
BRANCH   4   5
ATOM      5  C   UNL     1      -1.009 -28.874 -52.807  1.00  0.00     0.000 C 
BRANCH   5   6
ATOM      6  C   UNL     1      -2.340 -28.115 -52.880  1.00  0.00     0.000 C 
BRANCH   6   7
ATOM      7  C   UNL     1      -3.517 -29.082 -53.050  1.00  0.00     0.006 C 
BRANCH   7   8
ATOM      8  C   UNL     1      -4.826 -28.320 -53.280  1.00  0.00     0.053 C 
BRANCH   8   9
ATOM      9  C   UNL     1      -5.541 -28.853 -54.479  1.00  0.00     0.041 C 
ATOM     10  O   UNL     1      -5.183 -29.944 -54.998  1.00  0.00    -0.550 OA
ATOM     11  O   UNL     1      -6.627 -28.163 -55.006  1.00  0.00    -0.550 OA
ENDBRANCH   8   9
ENDBRANCH   7   8
ENDBRANCH   6   7
ENDBRANCH   5   6
ENDBRANCH   4   5
ENDBRANCH   3   4
ENDBRANCH   2   3
ENDBRANCH   1   2
BRANCH   1  12
ATOM     12  C   UNL     1      -0.783 -33.353 -53.509  1.00  0.00     0.000 C 
BRANCH  12  13
ATOM     13  C   UNL     1      -2.278 -33.193 -53.200  1.00  0.00    -0.000 C 
BRANCH  13  14
ATOM     14  C   UNL     1      -2.596 -33.323 -51.699  1.00  0.00    -0.000 C 
BRANCH  14  15
ATOM     15  C   UNL     1      -3.623 -32.308 -51.164  1.00  0.00    -0.000 C 
BRANCH  15  16
ATOM     16  C   UNL     1      -4.937 -32.233 -51.963  1.00  0.00    -0.000 C 
BRANCH  16  17
ATOM     17  C   UNL     1      -6.157 -31.822 -51.109  1.00  0.00    -0.000 C 
BRANCH  17  18
ATOM     18  C   UNL     1      -5.963 -30.452 -50.438  1.00  0.00    -0.000 C 
BRANCH  18  19
ATOM     19  C   UNL     1      -7.180 -30.037 -49.595  1.00  0.00    -0.003 C 
ATOM     20  C   UNL     1      -7.809 -31.217 -48.856  1.00  0.00     0.004 C 
ENDBRANCH  18  19
ENDBRANCH  17  18
ENDBRANCH  16  17
ENDBRANCH  15  16
ENDBRANCH  14  15
ENDBRANCH  13  14
ENDBRANCH  12  13
ENDBRANCH   1  12
TORSDOF 16
ENDMDL
MODEL 2
REMARK VINA RESULT:    -5.666      2.457      5.631
REMARK INTER + INTRA:         -12.999
REMARK INTER:                 -11.214
REMARK INTRA:                  -1.785
REMARK UNBOUND:                -2.034
REMARK SMILES CCCCCCCCCCCCCCCCCC(=O)[O-]
REMARK SMILES IDX 10 1 11 2 12 3 13 4 14 5 15 6 16 7 17 8 18 9 19 10 20 11
REMARK SMILES IDX 9 12 8 13 7 14 6 15 5 16 4 17 3 18 2 19 1 20
REMARK H PARENT
REMARK Flexibility Score: inf
ROOT
ATOM      1  C   UNL     1      -5.809 -27.840 -53.363  1.00  0.00     0.000 C 
ENDROOT
BRANCH   1   2
ATOM      2  C   UNL     1      -4.861 -29.046 -53.275  1.00  0.00     0.000 C 
BRANCH   2   3
ATOM      3  C   UNL     1      -5.227 -30.160 -54.272  1.00  0.00     0.000 C 
BRANCH   3   4
ATOM      4  C   UNL     1      -5.135 -31.563 -53.651  1.00  0.00     0.000 C 
BRANCH   4   5
ATOM      5  C   UNL     1      -5.679 -31.610 -52.215  1.00  0.00     0.000 C 
BRANCH   5   6
ATOM      6  C   UNL     1      -4.658 -32.238 -51.259  1.00  0.00     0.000 C 
BRANCH   6   7
ATOM      7  C   UNL     1      -3.464 -32.814 -52.030  1.00  0.00     0.006 C 
BRANCH   7   8
ATOM      8  C   UNL     1      -2.184 -32.748 -51.190  1.00  0.00     0.053 C 
BRANCH   8   9
ATOM      9  C   UNL     1      -1.286 -31.659 -51.684  1.00  0.00     0.041 C 
ATOM     10  O   UNL     1      -0.306 -31.281 -50.989  1.00  0.00    -0.550 OA
ATOM     11  O   UNL     1      -1.511 -31.084 -52.930  1.00  0.00    -0.550 OA
ENDBRANCH   8   9
ENDBRANCH   7   8
ENDBRANCH   6   7
ENDBRANCH   5   6
ENDBRANCH   4   5
ENDBRANCH   3   4
ENDBRANCH   2   3
ENDBRANCH   1   2
BRANCH   1  12
ATOM     12  C   UNL     1      -5.990 -27.131 -52.013  1.00  0.00     0.000 C 
BRANCH  12  13
ATOM     13  C   UNL     1      -5.708 -28.087 -50.845  1.00  0.00    -0.000 C 
BRANCH  13  14
ATOM     14  C   UNL     1      -6.386 -27.649 -49.535  1.00  0.00    -0.000 C 
BRANCH  14  15
ATOM     15  C   UNL     1      -6.412 -28.720 -48.428  1.00  0.00    -0.000 C 
BRANCH  15  16
ATOM     16  C   UNL     1      -6.539 -30.170 -48.933  1.00  0.00    -0.000 C 
BRANCH  16  17
ATOM     17  C   UNL     1      -7.998 -30.616 -49.168  1.00  0.00    -0.000 C 
BRANCH  17  18
ATOM     18  C   UNL     1      -8.724 -30.950 -47.854  1.00  0.00    -0.000 C 
BRANCH  18  19
ATOM     19  C   UNL     1     -10.022 -30.146 -47.683  1.00  0.00    -0.003 C 
ATOM     20  C   UNL     1     -10.776 -30.517 -46.406  1.00  0.00     0.004 C 
ENDBRANCH  18  19
ENDBRANCH  17  18
ENDBRANCH  16  17
ENDBRANCH  15  16
ENDBRANCH  14  15
ENDBRANCH  13  14
ENDBRANCH  12  13
ENDBRANCH   1  12
TORSDOF 16
ENDMDL
MODEL 3
REMARK VINA RESULT:    -5.652      1.352      4.820
REMARK INTER + INTRA:         -12.973
REMARK INTER:                 -10.885
REMARK INTRA:                  -2.087
REMARK UNBOUND:                -2.034
REMARK SMILES CCCCCCCCCCCCCCCCCC(=O)[O-]
REMARK SMILES IDX 10 1 11 2 12 3 13 4 14 5 15 6 16 7 17 8 18 9 19 10 20 11
REMARK SMILES IDX 9 12 8 13 7 14 6 15 5 16 4 17 3 18 2 19 1 20
REMARK H PARENT
REMARK Flexibility Score: inf
ROOT
ATOM      1  C   UNL     1      -2.612 -32.786 -52.977  1.00  0.00     0.000 C 
ENDROOT
BRANCH   1   2
ATOM      2  C   UNL     1      -2.660 -32.832 -51.442  1.00  0.00     0.000 C 
BRANCH   2   3
ATOM      3  C   UNL     1      -4.084 -32.653 -50.889  1.00  0.00     0.000 C 
BRANCH   3   4
ATOM      4  C   UNL     1      -4.982 -31.824 -51.822  1.00  0.00     0.000 C 
BRANCH   4   5
ATOM      5  C   UNL     1      -5.851 -30.813 -51.059  1.00  0.00     0.000 C 
BRANCH   5   6
ATOM      6  C   UNL     1      -5.397 -29.375 -51.339  1.00  0.00     0.000 C 
BRANCH   6   7
ATOM      7  C   UNL     1      -4.239 -29.349 -52.343  1.00  0.00     0.006 C 
BRANCH   7   8
ATOM      8  C   UNL     1      -4.506 -28.339 -53.464  1.00  0.00     0.053 C 
BRANCH   8   9
ATOM      9  C   UNL     1      -5.405 -28.931 -54.501  1.00  0.00     0.041 C 
ATOM     10  O   UNL     1      -6.376 -28.267 -54.952  1.00  0.00    -0.550 OA
ATOM     11  O   UNL     1      -5.152 -30.205 -54.997  1.00  0.00    -0.550 OA
ENDBRANCH   8   9
ENDBRANCH   7   8
ENDBRANCH   6   7
ENDBRANCH   5   6
ENDBRANCH   4   5
ENDBRANCH   3   4
ENDBRANCH   2   3
ENDBRANCH   1   2
BRANCH   1  12
ATOM     12  C   UNL     1      -1.176 -32.749 -53.523  1.00  0.00     0.000 C 
BRANCH  12  13
ATOM     13  C   UNL     1      -0.152 -32.739 -52.379  1.00  0.00    -0.000 C 
BRANCH  13  14
ATOM     14  C   UNL     1       0.688 -31.449 -52.339  1.00  0.00    -0.000 C 
BRANCH  14  15
ATOM     15  C   UNL     1       0.271 -30.438 -51.254  1.00  0.00    -0.000 C 
BRANCH  15  16
ATOM     16  C   UNL     1      -0.864 -29.481 -51.662  1.00  0.00    -0.000 C 
BRANCH  16  17
ATOM     17  C   UNL     1      -0.482 -28.523 -52.811  1.00  0.00    -0.000 C 
BRANCH  17  18
ATOM     18  C   UNL     1      -0.959 -27.085 -52.554  1.00  0.00    -0.000 C 
BRANCH  18  19
ATOM     19  C   UNL     1       0.179 -26.059 -52.678  1.00  0.00    -0.003 C 
ATOM     20  C   UNL     1      -0.013 -24.859 -51.752  1.00  0.00     0.004 C 
ENDBRANCH  18  19
ENDBRANCH  17  18
ENDBRANCH  16  17
ENDBRANCH  15  16
ENDBRANCH  14  15
ENDBRANCH  13  14
ENDBRANCH  12  13
ENDBRANCH   1  12
TORSDOF 16
ENDMDL
MODEL 4
REMARK VINA RESULT:    -5.618      2.605      5.369
REMARK INTER + INTRA:         -12.906
REMARK INTER:                 -10.346
REMARK INTRA:                  -2.560
REMARK UNBOUND:                -2.034
REMARK SMILES CCCCCCCCCCCCCCCCCC(=O)[O-]
REMARK SMILES IDX 10 1 11 2 12 3 13 4 14 5 15 6 16 7 17 8 18 9 19 10 20 11
REMARK SMILES IDX 9 12 8 13 7 14 6 15 5 16 4 17 3 18 2 19 1 20
REMARK H PARENT
REMARK Flexibility Score: inf
ROOT
ATOM      1  C   UNL     1      -5.671 -32.000 -52.099  1.00  0.00     0.000 C 
ENDROOT
BRANCH   1   2
ATOM      2  C   UNL     1      -5.066 -31.667 -53.471  1.00  0.00     0.000 C 
BRANCH   2   3
ATOM      3  C   UNL     1      -5.197 -30.176 -53.830  1.00  0.00     0.000 C 
BRANCH   3   4
ATOM      4  C   UNL     1      -4.010 -29.339 -53.328  1.00  0.00     0.000 C 
BRANCH   4   5
ATOM      5  C   UNL     1      -4.326 -28.588 -52.026  1.00  0.00     0.000 C 
BRANCH   5   6
ATOM      6  C   UNL     1      -5.425 -27.541 -52.247  1.00  0.00     0.000 C 
BRANCH   6   7
ATOM      7  C   UNL     1      -6.275 -27.360 -50.985  1.00  0.00     0.006 C 
BRANCH   7   8
ATOM      8  C   UNL     1      -6.300 -28.643 -50.149  1.00  0.00     0.053 C 
BRANCH   8   9
ATOM      9  C   UNL     1      -6.351 -28.320 -48.690  1.00  0.00     0.041 C 
ATOM     10  O   UNL     1      -6.706 -27.173 -48.307  1.00  0.00    -0.550 OA
ATOM     11  O   UNL     1      -6.042 -29.296 -47.750  1.00  0.00    -0.550 OA
ENDBRANCH   8   9
ENDBRANCH   7   8
ENDBRANCH   6   7
ENDBRANCH   5   6
ENDBRANCH   4   5
ENDBRANCH   3   4
ENDBRANCH   2   3
ENDBRANCH   1   2
BRANCH   1  12
ATOM     12  C   UNL     1      -4.601 -32.247 -51.025  1.00  0.00     0.000 C 
BRANCH  12  13
ATOM     13  C   UNL     1      -3.475 -33.141 -51.565  1.00  0.00    -0.000 C 
BRANCH  13  14
ATOM     14  C   UNL     1      -2.089 -32.476 -51.478  1.00  0.00    -0.000 C 
BRANCH  14  15
ATOM     15  C   UNL     1      -1.378 -32.280 -52.829  1.00  0.00    -0.000 C 
BRANCH  15  16
ATOM     16  C   UNL     1      -0.465 -31.042 -52.907  1.00  0.00    -0.000 C 
BRANCH  16  17
ATOM     17  C   UNL     1      -0.098 -30.458 -51.525  1.00  0.00    -0.000 C 
BRANCH  17  18
ATOM     18  C   UNL     1      -0.414 -28.956 -51.425  1.00  0.00    -0.000 C 
BRANCH  18  19
ATOM     19  C   UNL     1      -0.565 -28.297 -52.805  1.00  0.00    -0.003 C 
ATOM     20  C   UNL     1      -0.944 -26.819 -52.708  1.00  0.00     0.004 C 
ENDBRANCH  18  19
ENDBRANCH  17  18
ENDBRANCH  16  17
ENDBRANCH  15  16
ENDBRANCH  14  15
ENDBRANCH  13  14
ENDBRANCH  12  13
ENDBRANCH   1  12
TORSDOF 16
ENDMDL
MODEL 5
REMARK VINA RESULT:    -5.574      2.188      4.617
REMARK INTER + INTRA:         -12.821
REMARK INTER:                 -10.470
REMARK INTRA:                  -2.352
REMARK UNBOUND:                -2.034
REMARK SMILES CCCCCCCCCCCCCCCCCC(=O)[O-]
REMARK SMILES IDX 10 1 11 2 12 3 13 4 14 5 15 6 16 7 17 8 18 9 19 10 20 11
REMARK SMILES IDX 9 12 8 13 7 14 6 15 5 16 4 17 3 18 2 19 1 20
REMARK H PARENT
REMARK Flexibility Score: inf
ROOT
ATOM      1  C   UNL     1      -0.790 -32.426 -53.483  1.00  0.00     0.000 C 
ENDROOT
BRANCH   1   2
ATOM      2  C   UNL     1      -2.266 -32.782 -53.249  1.00  0.00     0.000 C 
BRANCH   2   3
ATOM      3  C   UNL     1      -2.480 -33.610 -51.970  1.00  0.00     0.000 C 
BRANCH   3   4
ATOM      4  C   UNL     1      -3.405 -32.913 -50.961  1.00  0.00     0.000 C 
BRANCH   4   5
ATOM      5  C   UNL     1      -4.223 -31.778 -51.596  1.00  0.00     0.000 C 
BRANCH   5   6
ATOM      6  C   UNL     1      -5.725 -32.075 -51.523  1.00  0.00     0.000 C 
BRANCH   6   7
ATOM      7  C   UNL     1      -6.351 -31.450 -50.270  1.00  0.00     0.006 C 
BRANCH   7   8
ATOM      8  C   UNL     1      -6.039 -29.953 -50.189  1.00  0.00     0.053 C 
BRANCH   8   9
ATOM      9  C   UNL     1      -6.979 -29.270 -49.248  1.00  0.00     0.041 C 
ATOM     10  O   UNL     1      -6.699 -28.133 -48.785  1.00  0.00    -0.550 OA
ATOM     11  O   UNL     1      -8.185 -29.875 -48.909  1.00  0.00    -0.550 OA
ENDBRANCH   8   9
ENDBRANCH   7   8
ENDBRANCH   6   7
ENDBRANCH   5   6
ENDBRANCH   4   5
ENDBRANCH   3   4
ENDBRANCH   2   3
ENDBRANCH   1   2
BRANCH   1  12
ATOM     12  C   UNL     1       0.048 -32.506 -52.198  1.00  0.00     0.000 C 
BRANCH  12  13
ATOM     13  C   UNL     1       0.519 -31.111 -51.760  1.00  0.00    -0.000 C 
BRANCH  13  14
ATOM     14  C   UNL     1      -0.632 -30.224 -51.251  1.00  0.00    -0.000 C 
BRANCH  14  15
ATOM     15  C   UNL     1      -1.018 -29.064 -52.188  1.00  0.00    -0.000 C 
BRANCH  15  16
ATOM     16  C   UNL     1      -2.455 -28.539 -52.009  1.00  0.00    -0.000 C 
BRANCH  16  17
ATOM     17  C   UNL     1      -3.225 -28.382 -53.339  1.00  0.00    -0.000 C 
BRANCH  17  18
ATOM     18  C   UNL     1      -4.701 -28.013 -53.118  1.00  0.00    -0.000 C 
BRANCH  18  19
ATOM     19  C   UNL     1      -5.613 -28.557 -54.229  1.00  0.00    -0.003 C 
ATOM     20  C   UNL     1      -5.350 -30.032 -54.531  1.00  0.00     0.004 C 
ENDBRANCH  18  19
ENDBRANCH  17  18
ENDBRANCH  16  17
ENDBRANCH  15  16
ENDBRANCH  14  15
ENDBRANCH  13  14
ENDBRANCH  12  13
ENDBRANCH   1  12
TORSDOF 16
ENDMDL
MODEL 6
REMARK VINA RESULT:    -5.548      2.413      4.819
REMARK INTER + INTRA:         -12.771
REMARK INTER:                 -10.716
REMARK INTRA:                  -2.055
REMARK UNBOUND:                -2.034
REMARK SMILES CCCCCCCCCCCCCCCCCC(=O)[O-]
REMARK SMILES IDX 10 1 11 2 12 3 13 4 14 5 15 6 16 7 17 8 18 9 19 10 20 11
REMARK SMILES IDX 9 12 8 13 7 14 6 15 5 16 4 17 3 18 2 19 1 20
REMARK H PARENT
REMARK Flexibility Score: inf
ROOT
ATOM      1  C   UNL     1      -2.266 -29.196 -52.427  1.00  0.00     0.000 C 
ENDROOT
BRANCH   1   2
ATOM      2  C   UNL     1      -2.923 -27.877 -52.859  1.00  0.00     0.000 C 
BRANCH   2   3
ATOM      3  C   UNL     1      -4.303 -28.088 -53.507  1.00  0.00     0.000 C 
BRANCH   3   4
ATOM      4  C   UNL     1      -5.458 -27.631 -52.603  1.00  0.00     0.000 C 
BRANCH   4   5
ATOM      5  C   UNL     1      -5.431 -28.308 -51.224  1.00  0.00     0.000 C 
BRANCH   5   6
ATOM      6  C   UNL     1      -6.399 -27.620 -50.254  1.00  0.00     0.000 C 
BRANCH   6   7
ATOM      7  C   UNL     1      -6.400 -28.318 -48.889  1.00  0.00     0.006 C 
BRANCH   7   8
ATOM      8  C   UNL     1      -6.281 -29.837 -49.048  1.00  0.00     0.053 C 
BRANCH   8   9
ATOM      9  C   UNL     1      -7.633 -30.474 -49.046  1.00  0.00     0.041 C 
ATOM     10  O   UNL     1      -8.602 -29.902 -48.478  1.00  0.00    -0.550 OA
ATOM     11  O   UNL     1      -7.835 -31.683 -49.702  1.00  0.00    -0.550 OA
ENDBRANCH   8   9
ENDBRANCH   7   8
ENDBRANCH   6   7
ENDBRANCH   5   6
ENDBRANCH   4   5
ENDBRANCH   3   4
ENDBRANCH   2   3
ENDBRANCH   1   2
BRANCH   1  12
ATOM     12  C   UNL     1      -0.844 -28.997 -51.879  1.00  0.00     0.000 C 
BRANCH  12  13
ATOM     13  C   UNL     1      -0.102 -30.337 -51.772  1.00  0.00    -0.000 C 
BRANCH  13  14
ATOM     14  C   UNL     1      -0.518 -31.340 -52.863  1.00  0.00    -0.000 C 
BRANCH  14  15
ATOM     15  C   UNL     1      -0.396 -32.822 -52.461  1.00  0.00    -0.000 C 
BRANCH  15  16
ATOM     16  C   UNL     1      -1.737 -33.560 -52.292  1.00  0.00    -0.000 C 
BRANCH  16  17
ATOM     17  C   UNL     1      -2.954 -32.751 -52.791  1.00  0.00    -0.000 C 
BRANCH  17  18
ATOM     18  C   UNL     1      -3.957 -32.452 -51.664  1.00  0.00    -0.000 C 
BRANCH  18  19
ATOM     19  C   UNL     1      -5.305 -31.946 -52.201  1.00  0.00    -0.003 C 
ATOM     20  C   UNL     1      -5.235 -31.547 -53.674  1.00  0.00     0.004 C 
ENDBRANCH  18  19
ENDBRANCH  17  18
ENDBRANCH  16  17
ENDBRANCH  15  16
ENDBRANCH  14  15
ENDBRANCH  13  14
ENDBRANCH  12  13
ENDBRANCH   1  12
TORSDOF 16
ENDMDL
MODEL 7
REMARK VINA RESULT:    -5.540      2.348      4.488
REMARK INTER + INTRA:         -12.757
REMARK INTER:                 -10.446
REMARK INTRA:                  -2.311
REMARK UNBOUND:                -2.034
REMARK SMILES CCCCCCCCCCCCCCCCCC(=O)[O-]
REMARK SMILES IDX 10 1 11 2 12 3 13 4 14 5 15 6 16 7 17 8 18 9 19 10 20 11
REMARK SMILES IDX 9 12 8 13 7 14 6 15 5 16 4 17 3 18 2 19 1 20
REMARK H PARENT
REMARK Flexibility Score: inf
ROOT
ATOM      1  C   UNL     1      -1.482 -29.281 -52.800  1.00  0.00     0.000 C 
ENDROOT
BRANCH   1   2
ATOM      2  C   UNL     1      -2.784 -28.512 -52.527  1.00  0.00     0.000 C 
BRANCH   2   3
ATOM      3  C   UNL     1      -3.008 -27.357 -53.518  1.00  0.00     0.000 C 
BRANCH   3   4
ATOM      4  C   UNL     1      -4.493 -27.142 -53.851  1.00  0.00     0.000 C 
BRANCH   4   5
ATOM      5  C   UNL     1      -5.427 -27.892 -52.889  1.00  0.00     0.000 C 
BRANCH   5   6
ATOM      6  C   UNL     1      -6.228 -26.911 -52.024  1.00  0.00     0.000 C 
BRANCH   6   7
ATOM      7  C   UNL     1      -6.319 -27.402 -50.574  1.00  0.00     0.006 C 
BRANCH   7   8
ATOM      8  C   UNL     1      -5.954 -28.886 -50.473  1.00  0.00     0.053 C 
BRANCH   8   9
ATOM      9  C   UNL     1      -6.530 -29.486 -49.230  1.00  0.00     0.041 C 
ATOM     10  O   UNL     1      -6.495 -30.732 -49.052  1.00  0.00    -0.550 OA
ATOM     11  O   UNL     1      -7.077 -28.664 -48.250  1.00  0.00    -0.550 OA
ENDBRANCH   8   9
ENDBRANCH   7   8
ENDBRANCH   6   7
ENDBRANCH   5   6
ENDBRANCH   4   5
ENDBRANCH   3   4
ENDBRANCH   2   3
ENDBRANCH   1   2
BRANCH   1  12
ATOM     12  C   UNL     1      -0.531 -29.281 -51.593  1.00  0.00     0.000 C 
BRANCH  12  13
ATOM     13  C   UNL     1      -0.057 -30.705 -51.266  1.00  0.00    -0.000 C 
BRANCH  13  14
ATOM     14  C   UNL     1       0.369 -31.496 -52.516  1.00  0.00    -0.000 C 
BRANCH  14  15
ATOM     15  C   UNL     1      -0.219 -32.916 -52.616  1.00  0.00    -0.000 C 
BRANCH  15  16
ATOM     16  C   UNL     1      -1.670 -32.983 -53.128  1.00  0.00    -0.000 C 
BRANCH  16  17
ATOM     17  C   UNL     1      -2.700 -33.303 -52.024  1.00  0.00    -0.000 C 
BRANCH  17  18
ATOM     18  C   UNL     1      -3.528 -32.072 -51.623  1.00  0.00    -0.000 C 
BRANCH  18  19
ATOM     19  C   UNL     1      -4.987 -32.168 -52.098  1.00  0.00    -0.003 C 
ATOM     20  C   UNL     1      -5.201 -31.518 -53.465  1.00  0.00     0.004 C 
ENDBRANCH  18  19
ENDBRANCH  17  18
ENDBRANCH  16  17
ENDBRANCH  15  16
ENDBRANCH  14  15
ENDBRANCH  13  14
ENDBRANCH  12  13
ENDBRANCH   1  12
TORSDOF 16
ENDMDL
MODEL 8
REMARK VINA RESULT:    -5.518      3.234      5.781
REMARK INTER + INTRA:         -12.713
REMARK INTER:                 -11.109
REMARK INTRA:                  -1.605
REMARK UNBOUND:                -2.034
REMARK SMILES CCCCCCCCCCCCCCCCCC(=O)[O-]
REMARK SMILES IDX 10 1 11 2 12 3 13 4 14 5 15 6 16 7 17 8 18 9 19 10 20 11
REMARK SMILES IDX 9 12 8 13 7 14 6 15 5 16 4 17 3 18 2 19 1 20
REMARK H PARENT
REMARK Flexibility Score: inf
ROOT
ATOM      1  C   UNL     1      -3.807 -32.752 -51.293  1.00  0.00     0.000 C 
ENDROOT
BRANCH   1   2
ATOM      2  C   UNL     1      -5.196 -32.372 -51.827  1.00  0.00     0.000 C 
BRANCH   2   3
ATOM      3  C   UNL     1      -5.712 -31.045 -51.243  1.00  0.00     0.000 C 
BRANCH   3   4
ATOM      4  C   UNL     1      -6.707 -31.253 -50.090  1.00  0.00     0.000 C 
BRANCH   4   5
ATOM      5  C   UNL     1      -7.086 -29.938 -49.393  1.00  0.00     0.000 C 
BRANCH   5   6
ATOM      6  C   UNL     1      -6.240 -28.772 -49.920  1.00  0.00     0.000 C 
BRANCH   6   7
ATOM      7  C   UNL     1      -6.432 -27.518 -49.059  1.00  0.00     0.006 C 
BRANCH   7   8
ATOM      8  C   UNL     1      -6.382 -27.863 -47.567  1.00  0.00     0.053 C 
BRANCH   8   9
ATOM      9  C   UNL     1      -7.016 -26.779 -46.755  1.00  0.00     0.041 C 
ATOM     10  O   UNL     1      -8.234 -26.852 -46.442  1.00  0.00    -0.550 OA
ATOM     11  O   UNL     1      -6.253 -25.704 -46.314  1.00  0.00    -0.550 OA
ENDBRANCH   8   9
ENDBRANCH   7   8
ENDBRANCH   6   7
ENDBRANCH   5   6
ENDBRANCH   4   5
ENDBRANCH   3   4
ENDBRANCH   2   3
ENDBRANCH   1   2
BRANCH   1  12
ATOM     12  C   UNL     1      -2.747 -32.826 -52.403  1.00  0.00     0.000 C 
BRANCH  12  13
ATOM     13  C   UNL     1      -1.336 -32.950 -51.809  1.00  0.00    -0.000 C 
BRANCH  13  14
ATOM     14  C   UNL     1      -0.425 -31.765 -52.177  1.00  0.00    -0.000 C 
BRANCH  14  15
ATOM     15  C   UNL     1      -0.738 -30.452 -51.433  1.00  0.00    -0.000 C 
BRANCH  15  16
ATOM     16  C   UNL     1      -1.291 -29.321 -52.320  1.00  0.00    -0.000 C 
BRANCH  16  17
ATOM     17  C   UNL     1      -2.833 -29.246 -52.334  1.00  0.00    -0.000 C 
BRANCH  17  18
ATOM     18  C   UNL     1      -3.351 -28.021 -53.105  1.00  0.00    -0.000 C 
BRANCH  18  19
ATOM     19  C   UNL     1      -4.876 -28.049 -53.292  1.00  0.00    -0.003 C 
ATOM     20  C   UNL     1      -5.310 -27.477 -54.641  1.00  0.00     0.004 C 
ENDBRANCH  18  19
ENDBRANCH  17  18
ENDBRANCH  16  17
ENDBRANCH  15  16
ENDBRANCH  14  15
ENDBRANCH  13  14
ENDBRANCH  12  13
ENDBRANCH   1  12
TORSDOF 16
ENDMDL
MODEL 9
REMARK VINA RESULT:    -5.500      2.186      5.856
REMARK INTER + INTRA:         -12.678
REMARK INTER:                 -10.697
REMARK INTRA:                  -1.982
REMARK UNBOUND:                -2.034
REMARK SMILES CCCCCCCCCCCCCCCCCC(=O)[O-]
REMARK SMILES IDX 10 1 11 2 12 3 13 4 14 5 15 6 16 7 17 8 18 9 19 10 20 11
REMARK SMILES IDX 9 12 8 13 7 14 6 15 5 16 4 17 3 18 2 19 1 20
REMARK H PARENT
REMARK Flexibility Score: inf
ROOT
ATOM      1  C   UNL     1      -4.485 -28.696 -53.653  1.00  0.00     0.000 C 
ENDROOT
BRANCH   1   2
ATOM      2  C   UNL     1      -5.404 -29.657 -52.885  1.00  0.00     0.000 C 
BRANCH   2   3
ATOM      3  C   UNL     1      -5.001 -31.131 -53.062  1.00  0.00     0.000 C 
BRANCH   3   4
ATOM      4  C   UNL     1      -5.511 -32.026 -51.921  1.00  0.00     0.000 C 
BRANCH   4   5
ATOM      5  C   UNL     1      -5.740 -31.246 -50.617  1.00  0.00     0.000 C 
BRANCH   5   6
ATOM      6  C   UNL     1      -7.155 -31.483 -50.076  1.00  0.00     0.000 C 
BRANCH   6   7
ATOM      7  C   UNL     1      -7.597 -30.330 -49.167  1.00  0.00     0.006 C 
BRANCH   7   8
ATOM      8  C   UNL     1      -6.388 -29.559 -48.629  1.00  0.00     0.053 C 
BRANCH   8   9
ATOM      9  C   UNL     1      -6.498 -28.107 -48.966  1.00  0.00     0.041 C 
ATOM     10  O   UNL     1      -6.726 -27.747 -50.151  1.00  0.00    -0.550 OA
ATOM     11  O   UNL     1      -6.383 -27.149 -47.964  1.00  0.00    -0.550 OA
ENDBRANCH   8   9
ENDBRANCH   7   8
ENDBRANCH   6   7
ENDBRANCH   5   6
ENDBRANCH   4   5
ENDBRANCH   3   4
ENDBRANCH   2   3
ENDBRANCH   1   2
BRANCH   1  12
ATOM     12  C   UNL     1      -3.476 -27.985 -52.739  1.00  0.00     0.000 C 
BRANCH  12  13
ATOM     13  C   UNL     1      -2.072 -28.587 -52.894  1.00  0.00    -0.000 C 
BRANCH  13  14
ATOM     14  C   UNL     1      -1.822 -29.775 -51.948  1.00  0.00    -0.000 C 
BRANCH  14  15
ATOM     15  C   UNL     1      -0.401 -29.848 -51.360  1.00  0.00    -0.000 C 
BRANCH  15  16
ATOM     16  C   UNL     1       0.441 -31.042 -51.847  1.00  0.00    -0.000 C 
BRANCH  16  17
ATOM     17  C   UNL     1      -0.022 -31.611 -53.206  1.00  0.00    -0.000 C 
BRANCH  17  18
ATOM     18  C   UNL     1      -0.344 -33.112 -53.131  1.00  0.00    -0.000 C 
BRANCH  18  19
ATOM     19  C   UNL     1      -1.848 -33.380 -52.957  1.00  0.00    -0.003 C 
ATOM     20  C   UNL     1      -2.235 -33.613 -51.497  1.00  0.00     0.004 C 
ENDBRANCH  18  19
ENDBRANCH  17  18
ENDBRANCH  16  17
ENDBRANCH  15  16
ENDBRANCH  14  15
ENDBRANCH  13  14
ENDBRANCH  12  13
ENDBRANCH   1  12
TORSDOF 16
ENDMDL
