MODEL 1
REMARK VINA RESULT:    -6.876      0.000      0.000
REMARK INTER + INTRA:         -10.209
REMARK INTER:                  -9.087
REMARK INTRA:                  -1.122
REMARK UNBOUND:                -1.122
REMARK SMILES CC[C@@H](C=C[C@@H](C)[C@@H]1CC[C@H]2[C@H]3CC=C4C[C@@H](O)CC[C@]4(C)[C@H]3CC[C@]21C)C(C)C
REMARK SMILES IDX 6 1 7 2 5 3 4 4 3 5 2 6 1 7 28 8 29 9 30 10 8 11 9 12 26 13
REMARK SMILES IDX 10 14 11 15 25 16 27 17 12 18 24 19 23 20 13 21 21 22 14 23
REMARK SMILES IDX 15 24 20 25 22 26 16 27 19 28 17 29 18 30
REMARK H PARENT 18 31
REMARK Flexibility Score: inf
ROOT
ATOM      1  C   UNL     1       5.482   8.516   6.001  1.00  0.00     0.012 C 
ATOM      2  C   UNL     1       6.658   9.438   5.613  1.00  0.00     0.012 C 
ENDROOT
BRANCH   1   3
ATOM      3  C   UNL     1       4.548   9.249   6.959  1.00  0.00    -0.028 C 
ATOM      4  C   UNL     1       3.356   9.827   6.698  1.00  0.00    -0.027 C 
BRANCH   4   5
ATOM      5  C   UNL     1       2.649   9.918   5.356  1.00  0.00     0.014 C 
BRANCH   5   6
ATOM      6  C   UNL     1       3.526  10.735   4.369  1.00  0.00     0.004 C 
ATOM      7  C   UNL     1       3.870  10.013   3.062  1.00  0.00     0.004 C 
ENDBRANCH   5   6
BRANCH   5   8
ATOM      8  C   UNL     1       1.204  10.482   5.534  1.00  0.00    -0.011 C 
ATOM      9  C   UNL     1       1.202  12.007   5.741  1.00  0.00     0.008 C 
ATOM     10  C   UNL     1       0.321  10.146   4.319  1.00  0.00     0.008 C 
ENDBRANCH   5   8
ENDBRANCH   4   5
ENDBRANCH   1   3
BRANCH   1  11
ATOM     11  C   UNL     1       5.894   7.072   6.488  1.00  0.00     0.002 C 
ATOM     12  C   UNL     1       7.281   6.664   5.962  1.00  0.00     0.005 C 
ATOM     13  C   UNL     1       4.974   5.875   6.006  1.00  0.00    -0.026 C 
ATOM     14  C   UNL     1       7.020   6.064   4.600  1.00  0.00     0.005 C 
ATOM     15  C   UNL     1       5.707   5.285   4.749  1.00  0.00    -0.001 C 
ATOM     16  C   UNL     1       4.877   4.829   7.155  1.00  0.00     0.007 C 
ATOM     17  C   UNL     1       3.523   6.295   5.644  1.00  0.00     0.012 C 
ATOM     18  C   UNL     1       5.872   3.725   4.714  1.00  0.00     0.000 C 
ATOM     19  C   UNL     1       4.358   3.435   6.736  1.00  0.00     0.005 C 
ATOM     20  C   UNL     1       4.589   3.048   5.243  1.00  0.00     0.003 C 
ATOM     21  C   UNL     1       7.106   3.126   5.432  1.00  0.00     0.031 C 
ATOM     22  C   UNL     1       4.598   1.488   4.984  1.00  0.00    -0.008 C 
ATOM     23  C   UNL     1       7.089   1.621   5.424  1.00  0.00    -0.027 C 
ATOM     24  C   UNL     1       5.972   0.873   5.271  1.00  0.00    -0.065 C 
ATOM     25  C   UNL     1       4.269   1.191   3.483  1.00  0.00     0.014 C 
ATOM     26  C   UNL     1       3.508   0.804   5.862  1.00  0.00     0.016 C 
ATOM     27  C   UNL     1       6.128  -0.603   4.982  1.00  0.00     0.063 C 
ATOM     28  C   UNL     1       4.452  -0.291   3.080  1.00  0.00     0.033 C 
ATOM     29  C   UNL     1       5.834  -0.844   3.490  1.00  0.00     0.118 C 
BRANCH  29  30
ATOM     30  O   UNL     1       5.934  -2.209   3.179  1.00  0.00    -0.393 OA
ATOM     31  H   UNL     1       6.448  -2.647   3.907  1.00  0.00     0.210 HD
ENDBRANCH  29  30
ENDBRANCH   1  11
TORSDOF 6
ENDMDL
MODEL 2
REMARK VINA RESULT:    -6.805      1.197      2.047
REMARK INTER + INTRA:         -10.114
REMARK INTER:                  -8.498
REMARK INTRA:                  -1.616
REMARK UNBOUND:                -1.122
REMARK SMILES CC[C@@H](C=C[C@@H](C)[C@@H]1CC[C@H]2[C@H]3CC=C4C[C@@H](O)CC[C@]4(C)[C@H]3CC[C@]21C)C(C)C
REMARK SMILES IDX 6 1 7 2 5 3 4 4 3 5 2 6 1 7 28 8 29 9 30 10 8 11 9 12 26 13
REMARK SMILES IDX 10 14 11 15 25 16 27 17 12 18 24 19 23 20 13 21 21 22 14 23
REMARK SMILES IDX 15 24 20 25 22 26 16 27 19 28 17 29 18 30
REMARK H PARENT 18 31
REMARK Flexibility Score: inf
ROOT
ATOM      1  C   UNL     1       5.816   8.277   5.169  1.00  0.00     0.012 C 
ATOM      2  C   UNL     1       6.863   8.671   4.105  1.00  0.00     0.012 C 
ENDROOT
BRANCH   1   3
ATOM      3  C   UNL     1       5.522   9.472   6.068  1.00  0.00    -0.028 C 
ATOM      4  C   UNL     1       4.416   9.723   6.803  1.00  0.00    -0.027 C 
BRANCH   4   5
ATOM      5  C   UNL     1       3.158   8.876   6.895  1.00  0.00     0.014 C 
BRANCH   5   6
ATOM      6  C   UNL     1       2.000   9.597   6.153  1.00  0.00     0.004 C 
ATOM      7  C   UNL     1       2.067   9.521   4.625  1.00  0.00     0.004 C 
ENDBRANCH   5   6
BRANCH   5   8
ATOM      8  C   UNL     1       2.837   8.530   8.384  1.00  0.00    -0.011 C 
ATOM      9  C   UNL     1       2.212   7.131   8.529  1.00  0.00     0.008 C 
ATOM     10  C   UNL     1       4.102   8.600   9.258  1.00  0.00     0.008 C 
ENDBRANCH   5   8
ENDBRANCH   4   5
ENDBRANCH   1   3
BRANCH   1  11
ATOM     11  C   UNL     1       6.128   6.944   5.956  1.00  0.00     0.002 C 
ATOM     12  C   UNL     1       7.475   6.331   5.533  1.00  0.00     0.005 C 
ATOM     13  C   UNL     1       5.118   5.743   5.742  1.00  0.00    -0.026 C 
ATOM     14  C   UNL     1       7.152   5.473   4.332  1.00  0.00     0.005 C 
ATOM     15  C   UNL     1       5.789   4.843   4.643  1.00  0.00    -0.001 C 
ATOM     16  C   UNL     1       4.961   4.979   7.088  1.00  0.00     0.007 C 
ATOM     17  C   UNL     1       3.696   6.182   5.295  1.00  0.00     0.012 C 
ATOM     18  C   UNL     1       5.839   3.305   4.945  1.00  0.00     0.000 C 
ATOM     19  C   UNL     1       4.337   3.570   6.979  1.00  0.00     0.005 C 
ATOM     20  C   UNL     1       4.518   2.855   5.604  1.00  0.00     0.003 C 
ATOM     21  C   UNL     1       7.037   2.786   5.778  1.00  0.00     0.031 C 
ATOM     22  C   UNL     1       4.411   1.279   5.688  1.00  0.00    -0.008 C 
ATOM     23  C   UNL     1       6.910   1.319   6.095  1.00  0.00    -0.027 C 
ATOM     24  C   UNL     1       5.739   0.640   6.104  1.00  0.00    -0.065 C 
ATOM     25  C   UNL     1       4.039   0.692   4.286  1.00  0.00     0.014 C 
ATOM     26  C   UNL     1       3.286   0.882   6.690  1.00  0.00     0.016 C 
ATOM     27  C   UNL     1       5.784  -0.871   6.140  1.00  0.00     0.063 C 
ATOM     28  C   UNL     1       4.109  -0.852   4.213  1.00  0.00     0.033 C 
ATOM     29  C   UNL     1       5.453  -1.404   4.734  1.00  0.00     0.118 C 
BRANCH  29  30
ATOM     30  O   UNL     1       5.449  -2.809   4.725  1.00  0.00    -0.393 OA
ATOM     31  H   UNL     1       5.207  -3.103   3.809  1.00  0.00     0.210 HD
ENDBRANCH  29  30
ENDBRANCH   1  11
TORSDOF 6
ENDMDL
MODEL 3
REMARK VINA RESULT:    -6.707      4.424      7.999
REMARK INTER + INTRA:          -9.985
REMARK INTER:                  -8.514
REMARK INTRA:                  -1.470
REMARK UNBOUND:                -1.122
REMARK SMILES CC[C@@H](C=C[C@@H](C)[C@@H]1CC[C@H]2[C@H]3CC=C4C[C@@H](O)CC[C@]4(C)[C@H]3CC[C@]21C)C(C)C
REMARK SMILES IDX 6 1 7 2 5 3 4 4 3 5 2 6 1 7 28 8 29 9 30 10 8 11 9 12 26 13
REMARK SMILES IDX 10 14 11 15 25 16 27 17 12 18 24 19 23 20 13 21 21 22 14 23
REMARK SMILES IDX 15 24 20 25 22 26 16 27 19 28 17 29 18 30
REMARK H PARENT 18 31
REMARK Flexibility Score: inf
ROOT
ATOM      1  C   UNL     1      -2.485   9.991   1.920  1.00  0.00     0.012 C 
ATOM      2  C   UNL     1      -2.332   9.251   0.574  1.00  0.00     0.012 C 
ENDROOT
BRANCH   1   3
ATOM      3  C   UNL     1      -3.639  10.985   1.832  1.00  0.00    -0.028 C 
ATOM      4  C   UNL     1      -3.918  12.027   2.645  1.00  0.00    -0.027 C 
BRANCH   4   5
ATOM      5  C   UNL     1      -3.156  12.458   3.887  1.00  0.00     0.014 C 
BRANCH   5   6
ATOM      6  C   UNL     1      -4.012  12.152   5.146  1.00  0.00     0.004 C 
ATOM      7  C   UNL     1      -3.262  11.443   6.278  1.00  0.00     0.004 C 
ENDBRANCH   5   6
BRANCH   5   8
ATOM      8  C   UNL     1      -2.715  13.952   3.770  1.00  0.00    -0.011 C 
ATOM      9  C   UNL     1      -1.199  14.124   3.971  1.00  0.00     0.008 C 
ATOM     10  C   UNL     1      -3.104  14.542   2.403  1.00  0.00     0.008 C 
ENDBRANCH   5   8
ENDBRANCH   4   5
ENDBRANCH   1   3
BRANCH   1  11
ATOM     11  C   UNL     1      -1.153  10.606   2.503  1.00  0.00     0.002 C 
ATOM     12  C   UNL     1      -0.031  10.643   1.451  1.00  0.00     0.005 C 
ATOM     13  C   UNL     1      -0.479   9.822   3.703  1.00  0.00    -0.026 C 
ATOM     14  C   UNL     1       0.630   9.286   1.538  1.00  0.00     0.005 C 
ATOM     15  C   UNL     1       0.631   8.936   3.032  1.00  0.00    -0.001 C 
ATOM     16  C   UNL     1       0.135  10.857   4.690  1.00  0.00     0.007 C 
ATOM     17  C   UNL     1      -1.464   8.938   4.517  1.00  0.00     0.012 C 
ATOM     18  C   UNL     1       2.048   8.976   3.705  1.00  0.00     0.000 C 
ATOM     19  C   UNL     1       1.158  10.283   5.696  1.00  0.00     0.005 C 
ATOM     20  C   UNL     1       1.900   8.988   5.241  1.00  0.00     0.003 C 
ATOM     21  C   UNL     1       3.008  10.109   3.268  1.00  0.00     0.031 C 
ATOM     22  C   UNL     1       3.287   8.762   5.967  1.00  0.00    -0.008 C 
ATOM     23  C   UNL     1       4.285  10.105   4.066  1.00  0.00    -0.027 C 
ATOM     24  C   UNL     1       4.416   9.547   5.292  1.00  0.00    -0.065 C 
ATOM     25  C   UNL     1       3.683   7.249   5.906  1.00  0.00     0.014 C 
ATOM     26  C   UNL     1       3.168   9.170   7.465  1.00  0.00     0.016 C 
ATOM     27  C   UNL     1       5.808   9.348   5.847  1.00  0.00     0.063 C 
ATOM     28  C   UNL     1       5.117   6.954   6.408  1.00  0.00     0.033 C 
ATOM     29  C   UNL     1       6.172   7.857   5.732  1.00  0.00     0.118 C 
BRANCH  29  30
ATOM     30  O   UNL     1       7.447   7.615   6.268  1.00  0.00    -0.393 OA
ATOM     31  H   UNL     1       7.735   6.714   5.965  1.00  0.00     0.210 HD
ENDBRANCH  29  30
ENDBRANCH   1  11
TORSDOF 6
ENDMDL
MODEL 4
REMARK VINA RESULT:    -6.452      3.383      8.900
REMARK INTER + INTRA:          -9.648
REMARK INTER:                  -8.604
REMARK INTRA:                  -1.045
REMARK UNBOUND:                -1.122
REMARK SMILES CC[C@@H](C=C[C@@H](C)[C@@H]1CC[C@H]2[C@H]3CC=C4C[C@@H](O)CC[C@]4(C)[C@H]3CC[C@]21C)C(C)C
REMARK SMILES IDX 6 1 7 2 5 3 4 4 3 5 2 6 1 7 28 8 29 9 30 10 8 11 9 12 26 13
REMARK SMILES IDX 10 14 11 15 25 16 27 17 12 18 24 19 23 20 13 21 21 22 14 23
REMARK SMILES IDX 15 24 20 25 22 26 16 27 19 28 17 29 18 30
REMARK H PARENT 18 31
REMARK Flexibility Score: inf
ROOT
ATOM      1  C   UNL     1       3.061   0.682   4.645  1.00  0.00     0.012 C 
ATOM      2  C   UNL     1       3.900  -0.309   5.479  1.00  0.00     0.012 C 
ENDROOT
BRANCH   1   3
ATOM      3  C   UNL     1       2.727   0.062   3.292  1.00  0.00    -0.028 C 
ATOM      4  C   UNL     1       3.567  -0.480   2.383  1.00  0.00    -0.027 C 
BRANCH   4   5
ATOM      5  C   UNL     1       5.080  -0.582   2.471  1.00  0.00     0.014 C 
BRANCH   5   6
ATOM      6  C   UNL     1       5.720   0.485   1.543  1.00  0.00     0.004 C 
ATOM      7  C   UNL     1       6.940   1.202   2.131  1.00  0.00     0.004 C 
ENDBRANCH   5   6
BRANCH   5   8
ATOM      8  C   UNL     1       5.549  -2.042   2.174  1.00  0.00    -0.011 C 
ATOM      9  C   UNL     1       4.387  -3.048   2.246  1.00  0.00     0.008 C 
ATOM     10  C   UNL     1       6.207  -2.145   0.786  1.00  0.00     0.008 C 
ENDBRANCH   5   8
ENDBRANCH   4   5
ENDBRANCH   1   3
BRANCH   1  11
ATOM     11  C   UNL     1       3.647   2.145   4.552  1.00  0.00     0.002 C 
ATOM     12  C   UNL     1       5.024   2.255   5.227  1.00  0.00     0.005 C 
ATOM     13  C   UNL     1       2.816   3.287   5.270  1.00  0.00    -0.026 C 
ATOM     14  C   UNL     1       4.724   2.534   6.682  1.00  0.00     0.005 C 
ATOM     15  C   UNL     1       3.509   3.470   6.668  1.00  0.00    -0.001 C 
ATOM     16  C   UNL     1       2.907   4.583   4.414  1.00  0.00     0.007 C 
ATOM     17  C   UNL     1       1.308   2.959   5.448  1.00  0.00     0.012 C 
ATOM     18  C   UNL     1       3.822   4.946   7.096  1.00  0.00     0.000 C 
ATOM     19  C   UNL     1       2.498   5.884   5.139  1.00  0.00     0.005 C 
ATOM     20  C   UNL     1       2.655   5.871   6.692  1.00  0.00     0.003 C 
ATOM     21  C   UNL     1       5.159   5.556   6.608  1.00  0.00     0.031 C 
ATOM     22  C   UNL     1       2.798   7.311   7.329  1.00  0.00    -0.008 C 
ATOM     23  C   UNL     1       5.289   7.008   6.988  1.00  0.00    -0.027 C 
ATOM     24  C   UNL     1       4.242   7.818   7.269  1.00  0.00    -0.065 C 
ATOM     25  C   UNL     1       2.389   7.272   8.839  1.00  0.00     0.014 C 
ATOM     26  C   UNL     1       1.848   8.305   6.597  1.00  0.00     0.016 C 
ATOM     27  C   UNL     1       4.521   9.153   7.922  1.00  0.00     0.063 C 
ATOM     28  C   UNL     1       2.686   8.583   9.605  1.00  0.00     0.033 C 
ATOM     29  C   UNL     1       4.142   9.058   9.411  1.00  0.00     0.118 C 
BRANCH  29  30
ATOM     30  O   UNL     1       4.353  10.288  10.055  1.00  0.00    -0.393 OA
ATOM     31  H   UNL     1       5.305  10.323  10.333  1.00  0.00     0.210 HD
ENDBRANCH  29  30
ENDBRANCH   1  11
TORSDOF 6
ENDMDL
MODEL 5
REMARK VINA RESULT:    -6.412      7.089     11.218
REMARK INTER + INTRA:          -9.596
REMARK INTER:                  -8.097
REMARK INTRA:                  -1.499
REMARK UNBOUND:                -1.122
REMARK SMILES CC[C@@H](C=C[C@@H](C)[C@@H]1CC[C@H]2[C@H]3CC=C4C[C@@H](O)CC[C@]4(C)[C@H]3CC[C@]21C)C(C)C
REMARK SMILES IDX 6 1 7 2 5 3 4 4 3 5 2 6 1 7 28 8 29 9 30 10 8 11 9 12 26 13
REMARK SMILES IDX 10 14 11 15 25 16 27 17 12 18 24 19 23 20 13 21 21 22 14 23
REMARK SMILES IDX 15 24 20 25 22 26 16 27 19 28 17 29 18 30
REMARK H PARENT 18 31
REMARK Flexibility Score: inf
ROOT
ATOM      1  C   UNL     1       0.396   7.984   7.504  1.00  0.00     0.012 C 
ATOM      2  C   UNL     1       1.356   6.778   7.415  1.00  0.00     0.012 C 
ENDROOT
BRANCH   1   3
ATOM      3  C   UNL     1       0.183   8.577   6.115  1.00  0.00    -0.028 C 
ATOM      4  C   UNL     1       0.919   9.511   5.475  1.00  0.00    -0.027 C 
BRANCH   4   5
ATOM      5  C   UNL     1       2.146  10.237   6.000  1.00  0.00     0.014 C 
BRANCH   5   6
ATOM      6  C   UNL     1       2.100  11.720   5.540  1.00  0.00     0.004 C 
ATOM      7  C   UNL     1       0.848  12.490   5.971  1.00  0.00     0.004 C 
ENDBRANCH   5   6
BRANCH   5   8
ATOM      8  C   UNL     1       3.449   9.486   5.581  1.00  0.00    -0.011 C 
ATOM      9  C   UNL     1       4.245  10.259   4.514  1.00  0.00     0.008 C 
ATOM     10  C   UNL     1       4.363   9.236   6.794  1.00  0.00     0.008 C 
ENDBRANCH   5   8
ENDBRANCH   4   5
ENDBRANCH   1   3
BRANCH   1  11
ATOM     11  C   UNL     1       0.763   9.053   8.607  1.00  0.00     0.002 C 
ATOM     12  C   UNL     1       1.673   8.462   9.697  1.00  0.00     0.005 C 
ATOM     13  C   UNL     1      -0.444   9.646   9.446  1.00  0.00    -0.026 C 
ATOM     14  C   UNL     1       0.728   7.842  10.700  1.00  0.00     0.005 C 
ATOM     15  C   UNL     1      -0.469   8.798  10.768  1.00  0.00    -0.001 C 
ATOM     16  C   UNL     1      -0.157  11.148   9.735  1.00  0.00     0.007 C 
ATOM     17  C   UNL     1      -1.817   9.571   8.723  1.00  0.00     0.012 C 
ATOM     18  C   UNL     1      -0.576   9.609  12.106  1.00  0.00     0.000 C 
ATOM     19  C   UNL     1      -1.013  11.779  10.856  1.00  0.00     0.005 C 
ATOM     20  C   UNL     1      -1.557  10.788  11.931  1.00  0.00     0.003 C 
ATOM     21  C   UNL     1       0.745  10.123  12.731  1.00  0.00     0.031 C 
ATOM     22  C   UNL     1      -1.902  11.476  13.313  1.00  0.00    -0.008 C 
ATOM     23  C   UNL     1       0.499  10.980  13.945  1.00  0.00    -0.027 C 
ATOM     24  C   UNL     1      -0.662  11.627  14.198  1.00  0.00    -0.065 C 
ATOM     25  C   UNL     1      -2.926  10.598  14.107  1.00  0.00     0.014 C 
ATOM     26  C   UNL     1      -2.555  12.867  13.058  1.00  0.00     0.016 C 
ATOM     27  C   UNL     1      -0.879  12.199  15.580  1.00  0.00     0.063 C 
ATOM     28  C   UNL     1      -3.174  11.078  15.557  1.00  0.00     0.033 C 
ATOM     29  C   UNL     1      -1.859  11.285  16.339  1.00  0.00     0.118 C 
BRANCH  29  30
ATOM     30  O   UNL     1      -2.120  11.795  17.621  1.00  0.00    -0.393 OA
ATOM     31  H   UNL     1      -3.101  11.932  17.697  1.00  0.00     0.210 HD
ENDBRANCH  29  30
ENDBRANCH   1  11
TORSDOF 6
ENDMDL
MODEL 6
REMARK VINA RESULT:    -6.351      3.211      9.094
REMARK INTER + INTRA:          -9.515
REMARK INTER:                  -8.183
REMARK INTRA:                  -1.332
REMARK UNBOUND:                -1.122
REMARK SMILES CC[C@@H](C=C[C@@H](C)[C@@H]1CC[C@H]2[C@H]3CC=C4C[C@@H](O)CC[C@]4(C)[C@H]3CC[C@]21C)C(C)C
REMARK SMILES IDX 6 1 7 2 5 3 4 4 3 5 2 6 1 7 28 8 29 9 30 10 8 11 9 12 26 13
REMARK SMILES IDX 10 14 11 15 25 16 27 17 12 18 24 19 23 20 13 21 21 22 14 23
REMARK SMILES IDX 15 24 20 25 22 26 16 27 19 28 17 29 18 30
REMARK H PARENT 18 31
REMARK Flexibility Score: inf
ROOT
ATOM      1  C   UNL     1       4.659  -1.112   6.230  1.00  0.00     0.012 C 
ATOM      2  C   UNL     1       5.873  -1.955   6.677  1.00  0.00     0.012 C 
ENDROOT
BRANCH   1   3
ATOM      3  C   UNL     1       3.730  -1.964   5.371  1.00  0.00    -0.028 C 
ATOM      4  C   UNL     1       3.928  -2.426   4.117  1.00  0.00    -0.027 C 
BRANCH   4   5
ATOM      5  C   UNL     1       5.133  -2.183   3.224  1.00  0.00     0.014 C 
BRANCH   5   6
ATOM      6  C   UNL     1       4.847  -0.973   2.294  1.00  0.00     0.004 C 
ATOM      7  C   UNL     1       3.363  -0.638   2.111  1.00  0.00     0.004 C 
ENDBRANCH   5   6
BRANCH   5   8
ATOM      8  C   UNL     1       5.523  -3.489   2.461  1.00  0.00    -0.011 C 
ATOM      9  C   UNL     1       4.479  -4.603   2.655  1.00  0.00     0.008 C 
ATOM     10  C   UNL     1       5.692  -3.225   0.955  1.00  0.00     0.008 C 
ENDBRANCH   5   8
ENDBRANCH   4   5
ENDBRANCH   1   3
BRANCH   1  11
ATOM     11  C   UNL     1       5.013   0.289   5.594  1.00  0.00     0.002 C 
ATOM     12  C   UNL     1       6.346   0.840   6.129  1.00  0.00     0.005 C 
ATOM     13  C   UNL     1       4.004   1.474   5.890  1.00  0.00    -0.026 C 
ATOM     14  C   UNL     1       5.983   1.576   7.398  1.00  0.00     0.005 C 
ATOM     15  C   UNL     1       4.638   2.250   7.100  1.00  0.00    -0.001 C 
ATOM     16  C   UNL     1       3.907   2.372   4.623  1.00  0.00     0.007 C 
ATOM     17  C   UNL     1       2.562   1.009   6.235  1.00  0.00     0.012 C 
ATOM     18  C   UNL     1       4.712   3.810   6.957  1.00  0.00     0.000 C 
ATOM     19  C   UNL     1       3.290   3.770   4.850  1.00  0.00     0.005 C 
ATOM     20  C   UNL     1       3.422   4.341   6.296  1.00  0.00     0.003 C 
ATOM     21  C   UNL     1       5.946   4.397   6.229  1.00  0.00     0.031 C 
ATOM     22  C   UNL     1       3.330   5.918   6.369  1.00  0.00    -0.008 C 
ATOM     23  C   UNL     1       5.843   5.890   6.058  1.00  0.00    -0.027 C 
ATOM     24  C   UNL     1       4.679   6.580   6.072  1.00  0.00    -0.065 C 
ATOM     25  C   UNL     1       2.907   6.365   7.807  1.00  0.00     0.014 C 
ATOM     26  C   UNL     1       2.249   6.427   5.369  1.00  0.00     0.016 C 
ATOM     27  C   UNL     1       4.737   8.086   6.191  1.00  0.00     0.063 C 
ATOM     28  C   UNL     1       2.986   7.892   8.040  1.00  0.00     0.033 C 
ATOM     29  C   UNL     1       4.354   8.479   7.630  1.00  0.00     0.118 C 
BRANCH  29  30
ATOM     30  O   UNL     1       4.361   9.875   7.781  1.00  0.00    -0.393 OA
ATOM     31  H   UNL     1       3.760  10.255   7.088  1.00  0.00     0.210 HD
ENDBRANCH  29  30
ENDBRANCH   1  11
TORSDOF 6
ENDMDL
MODEL 7
REMARK VINA RESULT:    -6.240      7.071     10.972
REMARK INTER + INTRA:          -9.368
REMARK INTER:                  -8.328
REMARK INTRA:                  -1.041
REMARK UNBOUND:                -1.122
REMARK SMILES CC[C@@H](C=C[C@@H](C)[C@@H]1CC[C@H]2[C@H]3CC=C4C[C@@H](O)CC[C@]4(C)[C@H]3CC[C@]21C)C(C)C
REMARK SMILES IDX 6 1 7 2 5 3 4 4 3 5 2 6 1 7 28 8 29 9 30 10 8 11 9 12 26 13
REMARK SMILES IDX 10 14 11 15 25 16 27 17 12 18 24 19 23 20 13 21 21 22 14 23
REMARK SMILES IDX 15 24 20 25 22 26 16 27 19 28 17 29 18 30
REMARK H PARENT 18 31
REMARK Flexibility Score: inf
ROOT
ATOM      1  C   UNL     1       1.149   9.750   7.185  1.00  0.00     0.012 C 
ATOM      2  C   UNL     1       0.617  10.812   6.199  1.00  0.00     0.012 C 
ENDROOT
BRANCH   1   3
ATOM      3  C   UNL     1       1.737   8.577   6.409  1.00  0.00    -0.028 C 
ATOM      4  C   UNL     1       2.955   8.472   5.832  1.00  0.00    -0.027 C 
BRANCH   4   5
ATOM      5  C   UNL     1       4.047   9.527   5.787  1.00  0.00     0.014 C 
BRANCH   5   6
ATOM      6  C   UNL     1       4.157  10.091   4.345  1.00  0.00     0.004 C 
ATOM      7  C   UNL     1       2.925   9.855   3.465  1.00  0.00     0.004 C 
ENDBRANCH   5   6
BRANCH   5   8
ATOM      8  C   UNL     1       5.388   8.952   6.345  1.00  0.00    -0.011 C 
ATOM      9  C   UNL     1       5.428   7.415   6.279  1.00  0.00     0.008 C 
ATOM     10  C   UNL     1       6.597   9.513   5.576  1.00  0.00     0.008 C 
ENDBRANCH   5   8
ENDBRANCH   4   5
ENDBRANCH   1   3
BRANCH   1  11
ATOM     11  C   UNL     1       0.138   9.324   8.320  1.00  0.00     0.002 C 
ATOM     12  C   UNL     1      -1.062  10.283   8.408  1.00  0.00     0.005 C 
ATOM     13  C   UNL     1       0.697   9.330   9.803  1.00  0.00    -0.026 C 
ATOM     14  C   UNL     1      -0.604  11.398   9.320  1.00  0.00     0.005 C 
ATOM     15  C   UNL     1       0.245  10.712  10.397  1.00  0.00    -0.001 C 
ATOM     16  C   UNL     1       0.063   8.139  10.578  1.00  0.00     0.007 C 
ATOM     17  C   UNL     1       2.239   9.172   9.901  1.00  0.00     0.012 C 
ATOM     18  C   UNL     1      -0.420  10.669  11.817  1.00  0.00     0.000 C 
ATOM     19  C   UNL     1       0.179   8.217  12.117  1.00  0.00     0.005 C 
ATOM     20  C   UNL     1       0.317   9.652  12.714  1.00  0.00     0.003 C 
ATOM     21  C   UNL     1      -1.945  10.402  11.877  1.00  0.00     0.031 C 
ATOM     22  C   UNL     1      -0.141   9.759  14.224  1.00  0.00    -0.008 C 
ATOM     23  C   UNL     1      -2.439  10.273  13.294  1.00  0.00    -0.027 C 
ATOM     24  C   UNL     1      -1.657   9.942  14.346  1.00  0.00    -0.065 C 
ATOM     25  C   UNL     1       0.526  11.004  14.899  1.00  0.00     0.014 C 
ATOM     26  C   UNL     1       0.313   8.488  15.001  1.00  0.00     0.016 C 
ATOM     27  C   UNL     1      -2.206  10.138  15.741  1.00  0.00     0.063 C 
ATOM     28  C   UNL     1      -0.014  11.315  16.315  1.00  0.00     0.033 C 
ATOM     29  C   UNL     1      -1.555  11.393  16.351  1.00  0.00     0.118 C 
BRANCH  29  30
ATOM     30  O   UNL     1      -2.010  11.599  17.664  1.00  0.00    -0.393 OA
ATOM     31  H   UNL     1      -2.230  10.711  18.049  1.00  0.00     0.210 HD
ENDBRANCH  29  30
ENDBRANCH   1  11
TORSDOF 6
ENDMDL
MODEL 8
REMARK VINA RESULT:    -6.179      1.666      3.269
REMARK INTER + INTRA:          -9.287
REMARK INTER:                  -8.176
REMARK INTRA:                  -1.111
REMARK UNBOUND:                -1.122
REMARK SMILES CC[C@@H](C=C[C@@H](C)[C@@H]1CC[C@H]2[C@H]3CC=C4C[C@@H](O)CC[C@]4(C)[C@H]3CC[C@]21C)C(C)C
REMARK SMILES IDX 6 1 7 2 5 3 4 4 3 5 2 6 1 7 28 8 29 9 30 10 8 11 9 12 26 13
REMARK SMILES IDX 10 14 11 15 25 16 27 17 12 18 24 19 23 20 13 21 21 22 14 23
REMARK SMILES IDX 15 24 20 25 22 26 16 27 19 28 17 29 18 30
REMARK H PARENT 18 31
REMARK Flexibility Score: inf
ROOT
ATOM      1  C   UNL     1       2.973   8.436   6.693  1.00  0.00     0.012 C 
ATOM      2  C   UNL     1       1.529   8.369   7.236  1.00  0.00     0.012 C 
ENDROOT
BRANCH   1   3
ATOM      3  C   UNL     1       3.206   9.782   6.015  1.00  0.00    -0.028 C 
ATOM      4  C   UNL     1       2.436  10.411   5.101  1.00  0.00    -0.027 C 
BRANCH   4   5
ATOM      5  C   UNL     1       1.138   9.911   4.488  1.00  0.00     0.014 C 
BRANCH   5   6
ATOM      6  C   UNL     1       1.398   9.481   3.019  1.00  0.00     0.004 C 
ATOM      7  C   UNL     1       1.014   8.034   2.694  1.00  0.00     0.004 C 
ENDBRANCH   5   6
BRANCH   5   8
ATOM      8  C   UNL     1       0.011  10.980   4.644  1.00  0.00    -0.011 C 
ATOM      9  C   UNL     1      -1.301  10.364   5.163  1.00  0.00     0.008 C 
ATOM     10  C   UNL     1       0.440  12.108   5.600  1.00  0.00     0.008 C 
ENDBRANCH   5   8
ENDBRANCH   4   5
ENDBRANCH   1   3
BRANCH   1  11
ATOM     11  C   UNL     1       3.420   7.195   5.824  1.00  0.00     0.002 C 
ATOM     12  C   UNL     1       2.288   6.165   5.671  1.00  0.00     0.005 C 
ATOM     13  C   UNL     1       4.610   6.322   6.399  1.00  0.00    -0.026 C 
ATOM     14  C   UNL     1       2.404   5.276   6.888  1.00  0.00     0.005 C 
ATOM     15  C   UNL     1       3.910   5.120   7.129  1.00  0.00    -0.001 C 
ATOM     16  C   UNL     1       5.489   5.835   5.211  1.00  0.00     0.007 C 
ATOM     17  C   UNL     1       5.544   7.086   7.378  1.00  0.00     0.012 C 
ATOM     18  C   UNL     1       4.474   3.692   6.806  1.00  0.00     0.000 C 
ATOM     19  C   UNL     1       6.448   4.667   5.534  1.00  0.00     0.005 C 
ATOM     20  C   UNL     1       6.014   3.743   6.714  1.00  0.00     0.003 C 
ATOM     21  C   UNL     1       3.905   2.971   5.559  1.00  0.00     0.031 C 
ATOM     22  C   UNL     1       6.647   2.295   6.653  1.00  0.00    -0.008 C 
ATOM     23  C   UNL     1       4.605   1.665   5.294  1.00  0.00    -0.027 C 
ATOM     24  C   UNL     1       5.848   1.364   5.736  1.00  0.00    -0.065 C 
ATOM     25  C   UNL     1       6.644   1.648   8.077  1.00  0.00     0.014 C 
ATOM     26  C   UNL     1       8.125   2.388   6.169  1.00  0.00     0.016 C 
ATOM     27  C   UNL     1       6.310  -0.074   5.660  1.00  0.00     0.063 C 
ATOM     28  C   UNL     1       7.054   0.156   8.092  1.00  0.00     0.033 C 
ATOM     29  C   UNL     1       6.253  -0.682   7.073  1.00  0.00     0.118 C 
BRANCH  29  30
ATOM     30  O   UNL     1       6.706  -2.012   7.059  1.00  0.00    -0.393 OA
ATOM     31  H   UNL     1       6.373  -2.434   6.225  1.00  0.00     0.210 HD
ENDBRANCH  29  30
ENDBRANCH   1  11
TORSDOF 6
ENDMDL
MODEL 9
REMARK VINA RESULT:    -6.137      7.197      9.911
REMARK INTER + INTRA:          -9.232
REMARK INTER:                  -7.668
REMARK INTRA:                  -1.563
REMARK UNBOUND:                -1.122
REMARK SMILES CC[C@@H](C=C[C@@H](C)[C@@H]1CC[C@H]2[C@H]3CC=C4C[C@@H](O)CC[C@]4(C)[C@H]3CC[C@]21C)C(C)C
REMARK SMILES IDX 6 1 7 2 5 3 4 4 3 5 2 6 1 7 28 8 29 9 30 10 8 11 9 12 26 13
REMARK SMILES IDX 10 14 11 15 25 16 27 17 12 18 24 19 23 20 13 21 21 22 14 23
REMARK SMILES IDX 15 24 20 25 22 26 16 27 19 28 17 29 18 30
REMARK H PARENT 18 31
REMARK Flexibility Score: inf
ROOT
ATOM      1  C   UNL     1       4.634  -3.368   3.079  1.00  0.00     0.012 C 
ATOM      2  C   UNL     1       3.990  -4.720   2.704  1.00  0.00     0.012 C 
ENDROOT
BRANCH   1   3
ATOM      3  C   UNL     1       5.522  -2.887   1.937  1.00  0.00    -0.028 C 
ATOM      4  C   UNL     1       5.884  -1.623   1.624  1.00  0.00    -0.027 C 
BRANCH   4   5
ATOM      5  C   UNL     1       5.464  -0.343   2.327  1.00  0.00     0.014 C 
BRANCH   5   6
ATOM      6  C   UNL     1       4.387   0.380   1.475  1.00  0.00     0.004 C 
ATOM      7  C   UNL     1       2.988  -0.242   1.540  1.00  0.00     0.004 C 
ENDBRANCH   5   6
BRANCH   5   8
ATOM      8  C   UNL     1       6.711   0.539   2.651  1.00  0.00    -0.011 C 
ATOM      9  C   UNL     1       7.041   0.543   4.154  1.00  0.00     0.008 C 
ATOM     10  C   UNL     1       7.950   0.059   1.874  1.00  0.00     0.008 C 
ENDBRANCH   5   8
ENDBRANCH   4   5
ENDBRANCH   1   3
BRANCH   1  11
ATOM     11  C   UNL     1       5.332  -3.327   4.495  1.00  0.00     0.002 C 
ATOM     12  C   UNL     1       5.412  -4.724   5.134  1.00  0.00     0.005 C 
ATOM     13  C   UNL     1       4.608  -2.473   5.615  1.00  0.00    -0.026 C 
ATOM     14  C   UNL     1       4.096  -4.898   5.857  1.00  0.00     0.005 C 
ATOM     15  C   UNL     1       3.774  -3.517   6.441  1.00  0.00    -0.001 C 
ATOM     16  C   UNL     1       5.693  -1.785   6.494  1.00  0.00     0.007 C 
ATOM     17  C   UNL     1       3.686  -1.352   5.063  1.00  0.00     0.012 C 
ATOM     18  C   UNL     1       3.904  -3.426   8.002  1.00  0.00     0.000 C 
ATOM     19  C   UNL     1       5.195  -1.241   7.852  1.00  0.00     0.005 C 
ATOM     20  C   UNL     1       3.936  -1.947   8.443  1.00  0.00     0.003 C 
ATOM     21  C   UNL     1       5.081  -4.188   8.660  1.00  0.00     0.031 C 
ATOM     22  C   UNL     1       3.800  -1.799  10.011  1.00  0.00    -0.008 C 
ATOM     23  C   UNL     1       5.162  -3.930  10.141  1.00  0.00    -0.027 C 
ATOM     24  C   UNL     1       4.635  -2.846  10.755  1.00  0.00    -0.065 C 
ATOM     25  C   UNL     1       2.311  -2.011  10.443  1.00  0.00     0.014 C 
ATOM     26  C   UNL     1       4.228  -0.364  10.441  1.00  0.00     0.016 C 
ATOM     27  C   UNL     1       4.524  -2.856  12.263  1.00  0.00     0.063 C 
ATOM     28  C   UNL     1       2.105  -2.088  11.975  1.00  0.00     0.033 C 
ATOM     29  C   UNL     1       3.053  -3.107  12.643  1.00  0.00     0.118 C 
BRANCH  29  30
ATOM     30  O   UNL     1       2.892  -3.092  14.038  1.00  0.00    -0.393 OA
ATOM     31  H   UNL     1       3.164  -3.983  14.382  1.00  0.00     0.210 HD
ENDBRANCH  29  30
ENDBRANCH   1  11
TORSDOF 6
ENDMDL
