MODEL 1
REMARK VINA RESULT:    -3.956      0.000      0.000
REMARK INTER + INTRA:          -9.194
REMARK INTER:                  -7.194
REMARK INTRA:                  -2.000
REMARK UNBOUND:                -2.000
REMARK SMILES CCCCCCCCCCCCCCCC(=O)[O-]
REMARK SMILES IDX 9 1 10 2 11 3 12 4 13 5 14 6 15 7 16 8 17 9 18 10 8 11 7 12
REMARK SMILES IDX 6 13 5 14 4 15 3 16 2 17 1 18
REMARK H PARENT
REMARK Flexibility Score: inf
ROOT
ATOM      1  C   UNL     1      48.880  -0.677  73.739  1.00  0.00     0.000 C 
ENDROOT
BRANCH   1   2
ATOM      2  C   UNL     1      48.833  -0.796  72.205  1.00  0.00     0.000 C 
BRANCH   2   3
ATOM      3  C   UNL     1      50.196  -1.024  71.525  1.00  0.00     0.000 C 
BRANCH   3   4
ATOM      4  C   UNL     1      51.358  -0.338  72.264  1.00  0.00     0.000 C 
BRANCH   4   5
ATOM      5  C   UNL     1      52.700  -1.071  72.085  1.00  0.00     0.000 C 
BRANCH   5   6
ATOM      6  C   UNL     1      53.029  -2.120  73.167  1.00  0.00     0.006 C 
BRANCH   6   7
ATOM      7  C   UNL     1      53.382  -3.512  72.622  1.00  0.00     0.053 C 
BRANCH   7   8
ATOM      8  C   UNL     1      53.874  -4.428  73.700  1.00  0.00     0.041 C 
ATOM      9  O   UNL     1      53.069  -4.913  74.538  1.00  0.00    -0.550 OA
ATOM     10  O   UNL     1      55.229  -4.719  73.799  1.00  0.00    -0.550 OA
ENDBRANCH   7   8
ENDBRANCH   6   7
ENDBRANCH   5   6
ENDBRANCH   4   5
ENDBRANCH   3   4
ENDBRANCH   2   3
ENDBRANCH   1   2
BRANCH   1  11
ATOM     11  C   UNL     1      48.569  -2.005  74.452  1.00  0.00     0.000 C 
BRANCH  11  12
ATOM     12  C   UNL     1      49.800  -2.916  74.573  1.00  0.00    -0.000 C 
BRANCH  12  13
ATOM     13  C   UNL     1      49.549  -4.323  74.004  1.00  0.00    -0.000 C 
BRANCH  13  14
ATOM     14  C   UNL     1      48.806  -4.291  72.658  1.00  0.00    -0.000 C 
BRANCH  14  15
ATOM     15  C   UNL     1      47.632  -5.280  72.603  1.00  0.00    -0.000 C 
BRANCH  15  16
ATOM     16  C   UNL     1      47.532  -6.083  73.908  1.00  0.00    -0.000 C 
BRANCH  16  17
ATOM     17  C   UNL     1      46.162  -5.939  74.588  1.00  0.00    -0.003 C 
ATOM     18  C   UNL     1      45.980  -4.585  75.272  1.00  0.00     0.004 C 
ENDBRANCH  16  17
ENDBRANCH  15  16
ENDBRANCH  14  15
ENDBRANCH  13  14
ENDBRANCH  12  13
ENDBRANCH  11  12
ENDBRANCH   1  11
TORSDOF 14
ENDMDL
MODEL 2
REMARK VINA RESULT:    -3.901      3.382      4.999
REMARK INTER + INTRA:          -9.093
REMARK INTER:                  -7.178
REMARK INTRA:                  -1.915
REMARK UNBOUND:                -2.000
REMARK SMILES CCCCCCCCCCCCCCCC(=O)[O-]
REMARK SMILES IDX 9 1 10 2 11 3 12 4 13 5 14 6 15 7 16 8 17 9 18 10 8 11 7 12
REMARK SMILES IDX 6 13 5 14 4 15 3 16 2 17 1 18
REMARK H PARENT
REMARK Flexibility Score: inf
ROOT
ATOM      1  C   UNL     1      51.986  -2.482  73.599  1.00  0.00     0.000 C 
ENDROOT
BRANCH   1   2
ATOM      2  C   UNL     1      52.293  -1.406  72.541  1.00  0.00     0.000 C 
BRANCH   2   3
ATOM      3  C   UNL     1      51.131  -0.444  72.230  1.00  0.00     0.000 C 
BRANCH   3   4
ATOM      4  C   UNL     1      49.908  -1.157  71.626  1.00  0.00     0.000 C 
BRANCH   4   5
ATOM      5  C   UNL     1      48.570  -0.589  72.134  1.00  0.00     0.000 C 
BRANCH   5   6
ATOM      6  C   UNL     1      48.634   0.133  73.496  1.00  0.00     0.006 C 
BRANCH   6   7
ATOM      7  C   UNL     1      47.743   1.379  73.601  1.00  0.00     0.053 C 
BRANCH   7   8
ATOM      8  C   UNL     1      48.543   2.645  73.566  1.00  0.00     0.041 C 
ATOM      9  O   UNL     1      47.995   3.734  73.253  1.00  0.00    -0.550 OA
ATOM     10  O   UNL     1      49.903   2.615  73.847  1.00  0.00    -0.550 OA
ENDBRANCH   7   8
ENDBRANCH   6   7
ENDBRANCH   5   6
ENDBRANCH   4   5
ENDBRANCH   3   4
ENDBRANCH   2   3
ENDBRANCH   1   2
BRANCH   1  11
ATOM     11  C   UNL     1      51.939  -3.903  73.010  1.00  0.00     0.000 C 
BRANCH  11  12
ATOM     12  C   UNL     1      50.609  -4.618  73.292  1.00  0.00    -0.000 C 
BRANCH  12  13
ATOM     13  C   UNL     1      49.755  -3.881  74.338  1.00  0.00    -0.000 C 
BRANCH  13  14
ATOM     14  C   UNL     1      48.264  -3.846  73.964  1.00  0.00    -0.000 C 
BRANCH  14  15
ATOM     15  C   UNL     1      47.947  -4.671  72.706  1.00  0.00    -0.000 C 
BRANCH  15  16
ATOM     16  C   UNL     1      46.899  -5.751  73.010  1.00  0.00    -0.000 C 
BRANCH  16  17
ATOM     17  C   UNL     1      47.113  -7.031  72.188  1.00  0.00    -0.003 C 
ATOM     18  C   UNL     1      48.470  -7.681  72.449  1.00  0.00     0.004 C 
ENDBRANCH  16  17
ENDBRANCH  15  16
ENDBRANCH  14  15
ENDBRANCH  13  14
ENDBRANCH  12  13
ENDBRANCH  11  12
ENDBRANCH   1  11
TORSDOF 14
ENDMDL
MODEL 3
REMARK VINA RESULT:    -3.886      3.044      5.892
REMARK INTER + INTRA:          -9.066
REMARK INTER:                  -6.933
REMARK INTRA:                  -2.133
REMARK UNBOUND:                -2.000
REMARK SMILES CCCCCCCCCCCCCCCC(=O)[O-]
REMARK SMILES IDX 9 1 10 2 11 3 12 4 13 5 14 6 15 7 16 8 17 9 18 10 8 11 7 12
REMARK SMILES IDX 6 13 5 14 4 15 3 16 2 17 1 18
REMARK H PARENT
REMARK Flexibility Score: inf
ROOT
ATOM      1  C   UNL     1      51.738  -2.987  73.921  1.00  0.00     0.000 C 
ENDROOT
BRANCH   1   2
ATOM      2  C   UNL     1      50.522  -3.907  74.128  1.00  0.00     0.000 C 
BRANCH   2   3
ATOM      3  C   UNL     1      49.882  -4.447  72.835  1.00  0.00     0.000 C 
BRANCH   3   4
ATOM      4  C   UNL     1      48.390  -4.092  72.711  1.00  0.00     0.000 C 
BRANCH   4   5
ATOM      5  C   UNL     1      47.510  -4.834  73.732  1.00  0.00     0.000 C 
BRANCH   5   6
ATOM      6  C   UNL     1      47.464  -6.368  73.574  1.00  0.00     0.006 C 
BRANCH   6   7
ATOM      7  C   UNL     1      47.114  -6.854  72.160  1.00  0.00     0.053 C 
BRANCH   7   8
ATOM      8  C   UNL     1      46.848  -8.328  72.124  1.00  0.00     0.041 C 
ATOM      9  O   UNL     1      47.574  -9.088  71.431  1.00  0.00    -0.550 OA
ATOM     10  O   UNL     1      45.775  -8.857  72.830  1.00  0.00    -0.550 OA
ENDBRANCH   7   8
ENDBRANCH   6   7
ENDBRANCH   5   6
ENDBRANCH   4   5
ENDBRANCH   3   4
ENDBRANCH   2   3
ENDBRANCH   1   2
BRANCH   1  11
ATOM     11  C   UNL     1      51.962  -2.613  72.444  1.00  0.00     0.000 C 
BRANCH  11  12
ATOM     12  C   UNL     1      52.357  -1.140  72.259  1.00  0.00    -0.000 C 
BRANCH  12  13
ATOM     13  C   UNL     1      51.137  -0.203  72.224  1.00  0.00    -0.000 C 
BRANCH  13  14
ATOM     14  C   UNL     1      49.865  -0.910  71.726  1.00  0.00    -0.000 C 
BRANCH  14  15
ATOM     15  C   UNL     1      48.592  -0.403  72.422  1.00  0.00    -0.000 C 
BRANCH  15  16
ATOM     16  C   UNL     1      48.887   0.002  73.874  1.00  0.00    -0.000 C 
BRANCH  16  17
ATOM     17  C   UNL     1      48.343  -1.012  74.893  1.00  0.00    -0.003 C 
ATOM     18  C   UNL     1      49.206  -1.109  76.149  1.00  0.00     0.004 C 
ENDBRANCH  16  17
ENDBRANCH  15  16
ENDBRANCH  14  15
ENDBRANCH  13  14
ENDBRANCH  12  13
ENDBRANCH  11  12
ENDBRANCH   1  11
TORSDOF 14
ENDMDL
MODEL 4
REMARK VINA RESULT:    -3.840      2.853      5.833
REMARK INTER + INTRA:          -8.982
REMARK INTER:                  -7.123
REMARK INTRA:                  -1.860
REMARK UNBOUND:                -2.000
REMARK SMILES CCCCCCCCCCCCCCCC(=O)[O-]
REMARK SMILES IDX 9 1 10 2 11 3 12 4 13 5 14 6 15 7 16 8 17 9 18 10 8 11 7 12
REMARK SMILES IDX 6 13 5 14 4 15 3 16 2 17 1 18
REMARK H PARENT
REMARK Flexibility Score: inf
ROOT
ATOM      1  C   UNL     1      53.422  -2.012  72.595  1.00  0.00     0.000 C 
ENDROOT
BRANCH   1   2
ATOM      2  C   UNL     1      52.623  -2.750  73.684  1.00  0.00     0.000 C 
BRANCH   2   3
ATOM      3  C   UNL     1      52.019  -4.099  73.252  1.00  0.00     0.000 C 
BRANCH   3   4
ATOM      4  C   UNL     1      50.530  -4.234  73.616  1.00  0.00     0.000 C 
BRANCH   4   5
ATOM      5  C   UNL     1      49.624  -4.409  72.384  1.00  0.00     0.000 C 
BRANCH   5   6
ATOM      6  C   UNL     1      48.216  -4.970  72.674  1.00  0.00     0.006 C 
BRANCH   6   7
ATOM      7  C   UNL     1      47.513  -4.340  73.885  1.00  0.00     0.053 C 
BRANCH   7   8
ATOM      8  C   UNL     1      46.422  -5.216  74.418  1.00  0.00     0.041 C 
ATOM      9  O   UNL     1      45.512  -4.730  75.139  1.00  0.00    -0.550 OA
ATOM     10  O   UNL     1      46.428  -6.578  74.145  1.00  0.00    -0.550 OA
ENDBRANCH   7   8
ENDBRANCH   6   7
ENDBRANCH   5   6
ENDBRANCH   4   5
ENDBRANCH   3   4
ENDBRANCH   2   3
ENDBRANCH   1   2
BRANCH   1  11
ATOM     11  C   UNL     1      52.600  -0.920  71.886  1.00  0.00     0.000 C 
BRANCH  11  12
ATOM     12  C   UNL     1      51.238  -0.676  72.552  1.00  0.00    -0.000 C 
BRANCH  12  13
ATOM     13  C   UNL     1      50.060  -0.940  71.597  1.00  0.00    -0.000 C 
BRANCH  13  14
ATOM     14  C   UNL     1      48.695  -0.802  72.292  1.00  0.00    -0.000 C 
BRANCH  14  15
ATOM     15  C   UNL     1      48.807  -0.793  73.825  1.00  0.00    -0.000 C 
BRANCH  15  16
ATOM     16  C   UNL     1      48.192   0.487  74.410  1.00  0.00    -0.000 C 
BRANCH  16  17
ATOM     17  C   UNL     1      48.218   1.661  73.420  1.00  0.00    -0.003 C 
ATOM     18  C   UNL     1      47.017   2.592  73.575  1.00  0.00     0.004 C 
ENDBRANCH  16  17
ENDBRANCH  15  16
ENDBRANCH  14  15
ENDBRANCH  13  14
ENDBRANCH  12  13
ENDBRANCH  11  12
ENDBRANCH   1  11
TORSDOF 14
ENDMDL
MODEL 5
REMARK VINA RESULT:    -3.825      3.268      4.502
REMARK INTER + INTRA:          -8.956
REMARK INTER:                  -7.536
REMARK INTRA:                  -1.420
REMARK UNBOUND:                -2.000
REMARK SMILES CCCCCCCCCCCCCCCC(=O)[O-]
REMARK SMILES IDX 9 1 10 2 11 3 12 4 13 5 14 6 15 7 16 8 17 9 18 10 8 11 7 12
REMARK SMILES IDX 6 13 5 14 4 15 3 16 2 17 1 18
REMARK H PARENT
REMARK Flexibility Score: inf
ROOT
ATOM      1  C   UNL     1      49.708  -1.909  75.683  1.00  0.00     0.000 C 
ENDROOT
BRANCH   1   2
ATOM      2  C   UNL     1      48.510  -1.272  74.958  1.00  0.00     0.000 C 
BRANCH   2   3
ATOM      3  C   UNL     1      48.834  -0.001  74.151  1.00  0.00     0.000 C 
BRANCH   3   4
ATOM      4  C   UNL     1      48.599  -0.174  72.640  1.00  0.00     0.000 C 
BRANCH   4   5
ATOM      5  C   UNL     1      49.648  -1.079  71.969  1.00  0.00     0.000 C 
BRANCH   5   6
ATOM      6  C   UNL     1      51.111  -0.610  72.110  1.00  0.00     0.006 C 
BRANCH   6   7
ATOM      7  C   UNL     1      52.046  -1.629  72.778  1.00  0.00     0.053 C 
BRANCH   7   8
ATOM      8  C   UNL     1      53.391  -1.671  72.119  1.00  0.00     0.041 C 
ATOM      9  O   UNL     1      53.833  -0.660  71.514  1.00  0.00    -0.550 OA
ATOM     10  O   UNL     1      54.140  -2.841  72.145  1.00  0.00    -0.550 OA
ENDBRANCH   7   8
ENDBRANCH   6   7
ENDBRANCH   5   6
ENDBRANCH   4   5
ENDBRANCH   3   4
ENDBRANCH   2   3
ENDBRANCH   1   2
BRANCH   1  11
ATOM     11  C   UNL     1      49.755  -1.563  77.182  1.00  0.00     0.000 C 
BRANCH  11  12
ATOM     12  C   UNL     1      48.356  -1.379  77.792  1.00  0.00    -0.000 C 
BRANCH  12  13
ATOM     13  C   UNL     1      47.840  -2.658  78.475  1.00  0.00    -0.000 C 
BRANCH  13  14
ATOM     14  C   UNL     1      48.934  -3.382  79.277  1.00  0.00    -0.000 C 
BRANCH  14  15
ATOM     15  C   UNL     1      48.988  -4.889  78.984  1.00  0.00    -0.000 C 
BRANCH  15  16
ATOM     16  C   UNL     1      50.183  -5.228  78.081  1.00  0.00    -0.000 C 
BRANCH  16  17
ATOM     17  C   UNL     1      51.527  -4.806  78.695  1.00  0.00    -0.003 C 
ATOM     18  C   UNL     1      52.545  -5.945  78.731  1.00  0.00     0.004 C 
ENDBRANCH  16  17
ENDBRANCH  15  16
ENDBRANCH  14  15
ENDBRANCH  13  14
ENDBRANCH  12  13
ENDBRANCH  11  12
ENDBRANCH   1  11
TORSDOF 14
ENDMDL
MODEL 6
REMARK VINA RESULT:    -3.791      1.265      2.459
REMARK INTER + INTRA:          -8.893
REMARK INTER:                  -7.013
REMARK INTRA:                  -1.881
REMARK UNBOUND:                -2.000
REMARK SMILES CCCCCCCCCCCCCCCC(=O)[O-]
REMARK SMILES IDX 9 1 10 2 11 3 12 4 13 5 14 6 15 7 16 8 17 9 18 10 8 11 7 12
REMARK SMILES IDX 6 13 5 14 4 15 3 16 2 17 1 18
REMARK H PARENT
REMARK Flexibility Score: inf
ROOT
ATOM      1  C   UNL     1      48.377  -2.786  74.774  1.00  0.00     0.000 C 
ENDROOT
BRANCH   1   2
ATOM      2  C   UNL     1      48.947  -1.447  75.276  1.00  0.00     0.000 C 
BRANCH   2   3
ATOM      3  C   UNL     1      48.809  -0.268  74.294  1.00  0.00     0.000 C 
BRANCH   3   4
ATOM      4  C   UNL     1      48.505  -0.719  72.855  1.00  0.00     0.000 C 
BRANCH   4   5
ATOM      5  C   UNL     1      49.718  -0.591  71.916  1.00  0.00     0.000 C 
BRANCH   5   6
ATOM      6  C   UNL     1      50.748  -1.736  72.009  1.00  0.00     0.006 C 
BRANCH   6   7
ATOM      7  C   UNL     1      52.184  -1.282  72.307  1.00  0.00     0.053 C 
BRANCH   7   8
ATOM      8  C   UNL     1      53.000  -2.374  72.928  1.00  0.00     0.041 C 
ATOM      9  O   UNL     1      52.743  -2.775  74.093  1.00  0.00    -0.550 OA
ATOM     10  O   UNL     1      54.067  -2.927  72.230  1.00  0.00    -0.550 OA
ENDBRANCH   7   8
ENDBRANCH   6   7
ENDBRANCH   5   6
ENDBRANCH   4   5
ENDBRANCH   3   4
ENDBRANCH   2   3
ENDBRANCH   1   2
BRANCH   1  11
ATOM     11  C   UNL     1      49.434  -3.904  74.719  1.00  0.00     0.000 C 
BRANCH  11  12
ATOM     12  C   UNL     1      49.343  -4.743  73.436  1.00  0.00    -0.000 C 
BRANCH  12  13
ATOM     13  C   UNL     1      48.027  -4.511  72.673  1.00  0.00    -0.000 C 
BRANCH  13  14
ATOM     14  C   UNL     1      47.225  -5.808  72.473  1.00  0.00    -0.000 C 
BRANCH  14  15
ATOM     15  C   UNL     1      47.082  -6.624  73.767  1.00  0.00    -0.000 C 
BRANCH  15  16
ATOM     16  C   UNL     1      46.146  -5.918  74.758  1.00  0.00    -0.000 C 
BRANCH  16  17
ATOM     17  C   UNL     1      44.735  -5.702  74.188  1.00  0.00    -0.003 C 
ATOM     18  C   UNL     1      43.634  -6.163  75.142  1.00  0.00     0.004 C 
ENDBRANCH  16  17
ENDBRANCH  15  16
ENDBRANCH  14  15
ENDBRANCH  13  14
ENDBRANCH  12  13
ENDBRANCH  11  12
ENDBRANCH   1  11
TORSDOF 14
ENDMDL
MODEL 7
REMARK VINA RESULT:    -3.784      3.391      4.978
REMARK INTER + INTRA:          -8.881
REMARK INTER:                  -6.866
REMARK INTRA:                  -2.015
REMARK UNBOUND:                -2.000
REMARK SMILES CCCCCCCCCCCCCCCC(=O)[O-]
REMARK SMILES IDX 9 1 10 2 11 3 12 4 13 5 14 6 15 7 16 8 17 9 18 10 8 11 7 12
REMARK SMILES IDX 6 13 5 14 4 15 3 16 2 17 1 18
REMARK H PARENT
REMARK Flexibility Score: inf
ROOT
ATOM      1  C   UNL     1      50.656  -4.362  75.511  1.00  0.00     0.000 C 
ENDROOT
BRANCH   1   2
ATOM      2  C   UNL     1      50.879  -2.844  75.637  1.00  0.00     0.000 C 
BRANCH   2   3
ATOM      3  C   UNL     1      49.594  -1.995  75.669  1.00  0.00     0.000 C 
BRANCH   3   4
ATOM      4  C   UNL     1      49.457  -1.069  74.448  1.00  0.00     0.000 C 
BRANCH   4   5
ATOM      5  C   UNL     1      49.088  -1.825  73.159  1.00  0.00     0.000 C 
BRANCH   5   6
ATOM      6  C   UNL     1      50.169  -1.821  72.059  1.00  0.00     0.006 C 
BRANCH   6   7
ATOM      7  C   UNL     1      51.305  -0.812  72.282  1.00  0.00     0.053 C 
BRANCH   7   8
ATOM      8  C   UNL     1      52.652  -1.464  72.234  1.00  0.00     0.041 C 
ATOM      9  O   UNL     1      53.636  -0.852  71.743  1.00  0.00    -0.550 OA
ATOM     10  O   UNL     1      52.813  -2.762  72.701  1.00  0.00    -0.550 OA
ENDBRANCH   7   8
ENDBRANCH   6   7
ENDBRANCH   5   6
ENDBRANCH   4   5
ENDBRANCH   3   4
ENDBRANCH   2   3
ENDBRANCH   1   2
BRANCH   1  11
ATOM     11  C   UNL     1      51.963  -5.169  75.613  1.00  0.00     0.000 C 
BRANCH  11  12
ATOM     12  C   UNL     1      51.778  -6.508  76.344  1.00  0.00    -0.000 C 
BRANCH  12  13
ATOM     13  C   UNL     1      50.402  -6.622  77.023  1.00  0.00    -0.000 C 
BRANCH  13  14
ATOM     14  C   UNL     1      50.449  -6.260  78.517  1.00  0.00    -0.000 C 
BRANCH  14  15
ATOM     15  C   UNL     1      49.366  -5.246  78.918  1.00  0.00    -0.000 C 
BRANCH  15  16
ATOM     16  C   UNL     1      49.977  -3.855  79.143  1.00  0.00    -0.000 C 
BRANCH  16  17
ATOM     17  C   UNL     1      51.510  -3.891  79.244  1.00  0.00    -0.003 C 
ATOM     18  C   UNL     1      52.116  -2.521  79.540  1.00  0.00     0.004 C 
ENDBRANCH  16  17
ENDBRANCH  15  16
ENDBRANCH  14  15
ENDBRANCH  13  14
ENDBRANCH  12  13
ENDBRANCH  11  12
ENDBRANCH   1  11
TORSDOF 14
ENDMDL
MODEL 8
REMARK VINA RESULT:    -3.771      3.076      6.211
REMARK INTER + INTRA:          -8.857
REMARK INTER:                  -6.927
REMARK INTRA:                  -1.930
REMARK UNBOUND:                -2.000
REMARK SMILES CCCCCCCCCCCCCCCC(=O)[O-]
REMARK SMILES IDX 9 1 10 2 11 3 12 4 13 5 14 6 15 7 16 8 17 9 18 10 8 11 7 12
REMARK SMILES IDX 6 13 5 14 4 15 3 16 2 17 1 18
REMARK H PARENT
REMARK Flexibility Score: inf
ROOT
ATOM      1  C   UNL     1      47.881  -2.604  75.270  1.00  0.00     0.000 C 
ENDROOT
BRANCH   1   2
ATOM      2  C   UNL     1      48.512  -3.805  74.542  1.00  0.00     0.000 C 
BRANCH   2   3
ATOM      3  C   UNL     1      48.041  -4.012  73.090  1.00  0.00     0.000 C 
BRANCH   3   4
ATOM      4  C   UNL     1      48.357  -5.417  72.551  1.00  0.00     0.000 C 
BRANCH   4   5
ATOM      5  C   UNL     1      47.096  -6.210  72.163  1.00  0.00     0.000 C 
BRANCH   5   6
ATOM      6  C   UNL     1      46.327  -6.846  73.339  1.00  0.00     0.006 C 
BRANCH   6   7
ATOM      7  C   UNL     1      47.219  -7.431  74.444  1.00  0.00     0.053 C 
BRANCH   7   8
ATOM      8  C   UNL     1      46.597  -7.292  75.799  1.00  0.00     0.041 C 
ATOM      9  O   UNL     1      46.371  -6.151  76.280  1.00  0.00    -0.550 OA
ATOM     10  O   UNL     1      46.297  -8.425  76.545  1.00  0.00    -0.550 OA
ENDBRANCH   7   8
ENDBRANCH   6   7
ENDBRANCH   5   6
ENDBRANCH   4   5
ENDBRANCH   3   4
ENDBRANCH   2   3
ENDBRANCH   1   2
BRANCH   1  11
ATOM     11  C   UNL     1      48.834  -1.399  75.373  1.00  0.00     0.000 C 
BRANCH  11  12
ATOM     12  C   UNL     1      48.217  -0.106  74.819  1.00  0.00    -0.000 C 
BRANCH  12  13
ATOM     13  C   UNL     1      48.947   0.402  73.563  1.00  0.00    -0.000 C 
BRANCH  13  14
ATOM     14  C   UNL     1      48.610  -0.423  72.310  1.00  0.00    -0.000 C 
BRANCH  14  15
ATOM     15  C   UNL     1      49.831  -1.162  71.739  1.00  0.00    -0.000 C 
BRANCH  15  16
ATOM     16  C   UNL     1      51.135  -0.469  72.160  1.00  0.00    -0.000 C 
BRANCH  16  17
ATOM     17  C   UNL     1      52.269  -1.466  72.446  1.00  0.00    -0.003 C 
ATOM     18  C   UNL     1      51.880  -2.525  73.476  1.00  0.00     0.004 C 
ENDBRANCH  16  17
ENDBRANCH  15  16
ENDBRANCH  14  15
ENDBRANCH  13  14
ENDBRANCH  12  13
ENDBRANCH  11  12
ENDBRANCH   1  11
TORSDOF 14
ENDMDL
MODEL 9
REMARK VINA RESULT:    -3.765      2.506      3.672
REMARK INTER + INTRA:          -8.845
REMARK INTER:                  -6.782
REMARK INTRA:                  -2.064
REMARK UNBOUND:                -2.000
REMARK SMILES CCCCCCCCCCCCCCCC(=O)[O-]
REMARK SMILES IDX 9 1 10 2 11 3 12 4 13 5 14 6 15 7 16 8 17 9 18 10 8 11 7 12
REMARK SMILES IDX 6 13 5 14 4 15 3 16 2 17 1 18
REMARK H PARENT
REMARK Flexibility Score: inf
ROOT
ATOM      1  C   UNL     1      48.858  -3.770  74.234  1.00  0.00     0.000 C 
ENDROOT
BRANCH   1   2
ATOM      2  C   UNL     1      48.900  -3.631  72.702  1.00  0.00     0.000 C 
BRANCH   2   3
ATOM      3  C   UNL     1      50.261  -3.203  72.121  1.00  0.00     0.000 C 
BRANCH   3   4
ATOM      4  C   UNL     1      50.484  -1.682  72.175  1.00  0.00     0.000 C 
BRANCH   4   5
ATOM      5  C   UNL     1      51.926  -1.299  72.556  1.00  0.00     0.000 C 
BRANCH   5   6
ATOM      6  C   UNL     1      52.978  -2.411  72.359  1.00  0.00     0.006 C 
BRANCH   6   7
ATOM      7  C   UNL     1      53.775  -2.768  73.622  1.00  0.00     0.053 C 
BRANCH   7   8
ATOM      8  C   UNL     1      54.382  -4.134  73.533  1.00  0.00     0.041 C 
ATOM      9  O   UNL     1      55.372  -4.342  72.783  1.00  0.00    -0.550 OA
ATOM     10  O   UNL     1      53.833  -5.187  74.255  1.00  0.00    -0.550 OA
ENDBRANCH   7   8
ENDBRANCH   6   7
ENDBRANCH   5   6
ENDBRANCH   4   5
ENDBRANCH   3   4
ENDBRANCH   2   3
ENDBRANCH   1   2
BRANCH   1  11
ATOM     11  C   UNL     1      50.016  -4.617  74.790  1.00  0.00     0.000 C 
BRANCH  11  12
ATOM     12  C   UNL     1      50.984  -3.800  75.660  1.00  0.00    -0.000 C 
BRANCH  12  13
ATOM     13  C   UNL     1      50.399  -2.436  76.068  1.00  0.00    -0.000 C 
BRANCH  13  14
ATOM     14  C   UNL     1      50.805  -2.023  77.493  1.00  0.00    -0.000 C 
BRANCH  14  15
ATOM     15  C   UNL     1      49.641  -2.116  78.493  1.00  0.00    -0.000 C 
BRANCH  15  16
ATOM     16  C   UNL     1      49.775  -3.368  79.372  1.00  0.00    -0.000 C 
BRANCH  16  17
ATOM     17  C   UNL     1      49.121  -4.607  78.740  1.00  0.00    -0.003 C 
ATOM     18  C   UNL     1      50.047  -5.821  78.721  1.00  0.00     0.004 C 
ENDBRANCH  16  17
ENDBRANCH  15  16
ENDBRANCH  14  15
ENDBRANCH  13  14
ENDBRANCH  12  13
ENDBRANCH  11  12
ENDBRANCH   1  11
TORSDOF 14
ENDMDL
