MODEL 1
REMARK VINA RESULT:    24.807      0.000      0.000
REMARK INTER + INTRA:          28.876
REMARK INTER:                  29.158
REMARK INTRA:                  -0.282
REMARK UNBOUND:                -0.282
REMARK SMILES O=c1c(O)c(-c2ccc(O)cc2)oc2cc(O)cc(O)c12
REMARK SMILES IDX 5 1 3 2 2 3 1 4 21 5 19 6 18 7 16 8 15 9 14 10 13 11 6 12
REMARK SMILES IDX 7 13 8 14 9 15 12 16 11 17 10 18 4 20 20 22 17 24
REMARK H PARENT 10 19 4 21 20 23 17 25
REMARK Flexibility Score: inf
ROOT
ATOM      1  C   UNL     1      -5.090  -0.566  14.905  1.00  0.00     0.180 A 
ATOM      2  C   UNL     1      -5.612  -1.293  15.992  1.00  0.00     0.208 A 
ATOM      3  C   UNL     1      -5.635  -2.695  15.922  1.00  0.00     0.238 A 
ATOM      4  O   UNL     1      -6.090  -3.357  16.894  1.00  0.00    -0.285 OA
ATOM      5  C   UNL     1      -5.159  -3.343  14.764  1.00  0.00     0.111 A 
ATOM      6  C   UNL     1      -5.152  -4.750  14.611  1.00  0.00     0.134 A 
ATOM      7  C   UNL     1      -4.670  -5.319  13.423  1.00  0.00     0.093 A 
ATOM      8  C   UNL     1      -4.196  -4.510  12.387  1.00  0.00     0.123 A 
ATOM      9  C   UNL     1      -4.200  -3.119  12.532  1.00  0.00     0.094 A 
ATOM     10  C   UNL     1      -4.675  -2.533  13.709  1.00  0.00     0.146 A 
ATOM     11  O   UNL     1      -4.663  -1.211  13.823  1.00  0.00    -0.452 OA
ENDROOT
BRANCH   1  12
ATOM     12  C   UNL     1      -5.013   0.913  14.912  1.00  0.00     0.021 A 
ATOM     13  C   UNL     1      -3.827   1.584  15.268  1.00  0.00     0.016 A 
ATOM     14  C   UNL     1      -3.773   2.981  15.243  1.00  0.00     0.047 A 
ATOM     15  C   UNL     1      -4.890   3.724  14.850  1.00  0.00     0.115 A 
ATOM     16  C   UNL     1      -6.125   1.665  14.499  1.00  0.00     0.016 A 
ATOM     17  C   UNL     1      -6.067   3.062  14.475  1.00  0.00     0.047 A 
BRANCH  15  18
ATOM     18  O   UNL     1      -4.821   5.115  14.832  1.00  0.00    -0.508 OA
ATOM     19  H   UNL     1      -5.641   5.683  14.657  1.00  0.00     0.293 HD
ENDBRANCH  15  18
ENDBRANCH   1  12
BRANCH   2  20
ATOM     20  O   UNL     1      -6.123  -0.625  17.108  1.00  0.00    -0.502 OA
ATOM     21  H   UNL     1      -5.527  -0.253  17.838  1.00  0.00     0.293 HD
ENDBRANCH   2  20
BRANCH   6  22
ATOM     22  O   UNL     1      -5.619  -5.586  15.627  1.00  0.00    -0.507 OA
ATOM     23  H   UNL     1      -5.972  -6.515  15.433  1.00  0.00     0.293 HD
ENDBRANCH   6  22
BRANCH   8  24
ATOM     24  O   UNL     1      -3.723  -5.100  11.218  1.00  0.00    -0.508 OA
ATOM     25  H   UNL     1      -4.353  -5.508  10.537  1.00  0.00     0.293 HD
ENDBRANCH   8  24
TORSDOF 5
ENDMDL
MODEL 2
REMARK VINA RESULT:    24.843      1.728      7.081
REMARK INTER + INTRA:          28.919
REMARK INTER:                  29.182
REMARK INTRA:                  -0.263
REMARK UNBOUND:                -0.282
REMARK SMILES O=c1c(O)c(-c2ccc(O)cc2)oc2cc(O)cc(O)c12
REMARK SMILES IDX 5 1 3 2 2 3 1 4 21 5 19 6 18 7 16 8 15 9 14 10 13 11 6 12
REMARK SMILES IDX 7 13 8 14 9 15 12 16 11 17 10 18 4 20 20 22 17 24
REMARK H PARENT 10 19 4 21 20 23 17 25
REMARK Flexibility Score: inf
ROOT
ATOM      1  C   UNL     1      -4.856  -0.402  14.971  1.00  0.00     0.180 A 
ATOM      2  C   UNL     1      -5.376   0.385  13.926  1.00  0.00     0.208 A 
ATOM      3  C   UNL     1      -5.153   1.771  13.945  1.00  0.00     0.238 A 
ATOM      4  O   UNL     1      -5.605   2.484  13.007  1.00  0.00    -0.285 OA
ATOM      5  C   UNL     1      -4.438   2.347  15.013  1.00  0.00     0.111 A 
ATOM      6  C   UNL     1      -4.174   3.735  15.110  1.00  0.00     0.134 A 
ATOM      7  C   UNL     1      -3.462   4.233  16.211  1.00  0.00     0.093 A 
ATOM      8  C   UNL     1      -3.009   3.373  17.215  1.00  0.00     0.123 A 
ATOM      9  C   UNL     1      -3.266   2.001  17.124  1.00  0.00     0.094 A 
ATOM     10  C   UNL     1      -3.973   1.485  16.035  1.00  0.00     0.146 A 
ATOM     11  O   UNL     1      -4.198   0.178  15.970  1.00  0.00    -0.452 OA
ENDROOT
BRANCH   1  12
ATOM     12  C   UNL     1      -5.032  -1.872  15.012  1.00  0.00     0.021 A 
ATOM     13  C   UNL     1      -4.248  -2.727  14.214  1.00  0.00     0.016 A 
ATOM     14  C   UNL     1      -4.416  -4.113  14.289  1.00  0.00     0.047 A 
ATOM     15  C   UNL     1      -5.354  -4.663  15.167  1.00  0.00     0.115 A 
ATOM     16  C   UNL     1      -5.958  -2.433  15.907  1.00  0.00     0.016 A 
ATOM     17  C   UNL     1      -6.124  -3.819  15.978  1.00  0.00     0.047 A 
BRANCH  15  18
ATOM     18  O   UNL     1      -5.511  -6.046  15.229  1.00  0.00    -0.508 OA
ATOM     19  H   UNL     1      -5.457  -6.621  14.396  1.00  0.00     0.293 HD
ENDBRANCH  15  18
ENDBRANCH   1  12
BRANCH   2  20
ATOM     20  O   UNL     1      -6.125  -0.205  12.903  1.00  0.00    -0.502 OA
ATOM     21  H   UNL     1      -7.110  -0.009  12.770  1.00  0.00     0.293 HD
ENDBRANCH   2  20
BRANCH   6  22
ATOM     22  O   UNL     1      -4.613   4.620  14.124  1.00  0.00    -0.507 OA
ATOM     23  H   UNL     1      -4.200   4.636  13.199  1.00  0.00     0.293 HD
ENDBRANCH   6  22
BRANCH   8  24
ATOM     24  O   UNL     1      -2.304   3.893  18.298  1.00  0.00    -0.508 OA
ATOM     25  H   UNL     1      -2.418   3.519  19.233  1.00  0.00     0.293 HD
ENDBRANCH   8  24
TORSDOF 5
ENDMDL
