MODEL 1
REMARK VINA RESULT:    -1.679      0.000      0.000
REMARK INTER + INTRA:          -6.111
REMARK INTER:                  -3.838
REMARK INTRA:                  -2.273
REMARK UNBOUND:                -2.273
REMARK SMILES CCCCCCCCCCCCCCCCCCCCCCCC(=O)[O-]
REMARK SMILES IDX 13 1 14 2 15 3 16 4 17 5 18 6 19 7 20 8 21 9 22 10 23 11
REMARK SMILES IDX 24 12 25 13 26 14 12 15 11 16 10 17 9 18 8 19 7 20 6 21 5 22
REMARK SMILES IDX 4 23 3 24 2 25 1 26
REMARK H PARENT
REMARK Flexibility Score: inf
ROOT
ATOM      1  C   UNL     1      14.350  41.772   6.195  1.00  0.00     0.000 C 
ENDROOT
BRANCH   1   2
ATOM      2  C   UNL     1      14.255  42.407   4.800  1.00  0.00     0.000 C 
BRANCH   2   3
ATOM      3  C   UNL     1      13.082  41.858   3.965  1.00  0.00     0.000 C 
BRANCH   3   4
ATOM      4  C   UNL     1      12.939  42.472   2.561  1.00  0.00     0.000 C 
BRANCH   4   5
ATOM      5  C   UNL     1      14.189  43.255   2.117  1.00  0.00     0.000 C 
BRANCH   5   6
ATOM      6  C   UNL     1      14.089  43.767   0.672  1.00  0.00     0.000 C 
BRANCH   6   7
ATOM      7  C   UNL     1      12.750  43.405   0.010  1.00  0.00     0.000 C 
BRANCH   7   8
ATOM      8  C   UNL     1      12.227  44.563  -0.854  1.00  0.00     0.000 C 
BRANCH   8   9
ATOM      9  C   UNL     1      12.687  45.940  -0.342  1.00  0.00     0.000 C 
BRANCH   9  10
ATOM     10  C   UNL     1      13.824  46.580  -1.166  1.00  0.00     0.006 C 
BRANCH  10  11
ATOM     11  C   UNL     1      15.089  46.899  -0.349  1.00  0.00     0.053 C 
BRANCH  11  12
ATOM     12  C   UNL     1      16.330  46.399  -1.027  1.00  0.00     0.041 C 
ATOM     13  O   UNL     1      16.681  46.879  -2.138  1.00  0.00    -0.550 OA
ATOM     14  O   UNL     1      17.080  45.378  -0.449  1.00  0.00    -0.550 OA
ENDBRANCH  11  12
ENDBRANCH  10  11
ENDBRANCH   9  10
ENDBRANCH   8   9
ENDBRANCH   7   8
ENDBRANCH   6   7
ENDBRANCH   5   6
ENDBRANCH   4   5
ENDBRANCH   3   4
ENDBRANCH   2   3
ENDBRANCH   1   2
BRANCH   1  15
ATOM     15  C   UNL     1      15.774  41.281   6.480  1.00  0.00     0.000 C 
BRANCH  15  16
ATOM     16  C   UNL     1      16.354  41.974   7.719  1.00  0.00     0.000 C 
BRANCH  16  17
ATOM     17  C   UNL     1      15.249  42.615   8.567  1.00  0.00     0.000 C 
BRANCH  17  18
ATOM     18  C   UNL     1      15.810  43.111   9.908  1.00  0.00    -0.000 C 
BRANCH  18  19
ATOM     19  C   UNL     1      17.108  42.393  10.310  1.00  0.00    -0.000 C 
BRANCH  19  20
ATOM     20  C   UNL     1      16.947  41.557  11.593  1.00  0.00    -0.000 C 
BRANCH  20  21
ATOM     21  C   UNL     1      17.125  40.052  11.337  1.00  0.00    -0.000 C 
BRANCH  21  22
ATOM     22  C   UNL     1      15.912  39.225  11.796  1.00  0.00    -0.000 C 
BRANCH  22  23
ATOM     23  C   UNL     1      15.516  38.165  10.755  1.00  0.00    -0.000 C 
BRANCH  23  24
ATOM     24  C   UNL     1      15.509  38.731   9.323  1.00  0.00    -0.000 C 
BRANCH  24  25
ATOM     25  C   UNL     1      14.091  39.087   8.845  1.00  0.00    -0.003 C 
ATOM     26  C   UNL     1      13.703  38.307   7.585  1.00  0.00     0.004 C 
ENDBRANCH  24  25
ENDBRANCH  23  24
ENDBRANCH  22  23
ENDBRANCH  21  22
ENDBRANCH  20  21
ENDBRANCH  19  20
ENDBRANCH  18  19
ENDBRANCH  17  18
ENDBRANCH  16  17
ENDBRANCH  15  16
ENDBRANCH   1  15
TORSDOF 22
ENDMDL
MODEL 2
REMARK VINA RESULT:    -1.046      1.380      3.852
REMARK INTER + INTRA:          -4.663
REMARK INTER:                  -2.784
REMARK INTRA:                  -1.879
REMARK UNBOUND:                -2.273
REMARK SMILES CCCCCCCCCCCCCCCCCCCCCCCC(=O)[O-]
REMARK SMILES IDX 13 1 14 2 15 3 16 4 17 5 18 6 19 7 20 8 21 9 22 10 23 11
REMARK SMILES IDX 24 12 25 13 26 14 12 15 11 16 10 17 9 18 8 19 7 20 6 21 5 22
REMARK SMILES IDX 4 23 3 24 2 25 1 26
REMARK H PARENT
REMARK Flexibility Score: inf
ROOT
ATOM      1  C   UNL     1      14.979  38.595   7.769  1.00  0.00     0.000 C 
ENDROOT
BRANCH   1   2
ATOM      2  C   UNL     1      14.682  39.583   6.631  1.00  0.00     0.000 C 
BRANCH   2   3
ATOM      3  C   UNL     1      15.490  40.890   6.741  1.00  0.00     0.000 C 
BRANCH   3   4
ATOM      4  C   UNL     1      14.796  42.135   6.158  1.00  0.00     0.000 C 
BRANCH   4   5
ATOM      5  C   UNL     1      13.787  41.794   5.047  1.00  0.00     0.000 C 
BRANCH   5   6
ATOM      6  C   UNL     1      14.041  42.578   3.750  1.00  0.00     0.000 C 
BRANCH   6   7
ATOM      7  C   UNL     1      12.847  42.521   2.783  1.00  0.00     0.000 C 
BRANCH   7   8
ATOM      8  C   UNL     1      13.318  42.434   1.324  1.00  0.00     0.000 C 
BRANCH   8   9
ATOM      9  C   UNL     1      12.592  43.434   0.405  1.00  0.00     0.000 C 
BRANCH   9  10
ATOM     10  C   UNL     1      13.251  44.828   0.333  1.00  0.00     0.006 C 
BRANCH  10  11
ATOM     11  C   UNL     1      14.789  44.797   0.334  1.00  0.00     0.053 C 
BRANCH  11  12
ATOM     12  C   UNL     1      15.370  45.954  -0.422  1.00  0.00     0.041 C 
ATOM     13  O   UNL     1      16.520  46.383  -0.136  1.00  0.00    -0.550 OA
ATOM     14  O   UNL     1      14.628  46.582  -1.419  1.00  0.00    -0.550 OA
ENDBRANCH  11  12
ENDBRANCH  10  11
ENDBRANCH   9  10
ENDBRANCH   8   9
ENDBRANCH   7   8
ENDBRANCH   6   7
ENDBRANCH   5   6
ENDBRANCH   4   5
ENDBRANCH   3   4
ENDBRANCH   2   3
ENDBRANCH   1   2
BRANCH   1  15
ATOM     15  C   UNL     1      13.758  38.426   8.682  1.00  0.00     0.000 C 
BRANCH  15  16
ATOM     16  C   UNL     1      14.184  37.993  10.090  1.00  0.00     0.000 C 
BRANCH  16  17
ATOM     17  C   UNL     1      15.570  38.545  10.447  1.00  0.00     0.000 C 
BRANCH  17  18
ATOM     18  C   UNL     1      16.036  38.007  11.808  1.00  0.00    -0.000 C 
BRANCH  18  19
ATOM     19  C   UNL     1      14.890  37.899  12.827  1.00  0.00    -0.000 C 
BRANCH  19  20
ATOM     20  C   UNL     1      14.586  39.243  13.515  1.00  0.00    -0.000 C 
BRANCH  20  21
ATOM     21  C   UNL     1      15.843  39.886  14.124  1.00  0.00    -0.000 C 
BRANCH  21  22
ATOM     22  C   UNL     1      15.879  41.411  13.935  1.00  0.00    -0.000 C 
BRANCH  22  23
ATOM     23  C   UNL     1      17.054  41.849  13.045  1.00  0.00    -0.000 C 
BRANCH  23  24
ATOM     24  C   UNL     1      16.705  41.782  11.547  1.00  0.00    -0.000 C 
BRANCH  24  25
ATOM     25  C   UNL     1      17.090  43.072  10.802  1.00  0.00    -0.003 C 
ATOM     26  C   UNL     1      16.341  43.204   9.471  1.00  0.00     0.004 C 
ENDBRANCH  24  25
ENDBRANCH  23  24
ENDBRANCH  22  23
ENDBRANCH  21  22
ENDBRANCH  20  21
ENDBRANCH  19  20
ENDBRANCH  18  19
ENDBRANCH  17  18
ENDBRANCH  16  17
ENDBRANCH  15  16
ENDBRANCH   1  15
TORSDOF 22
ENDMDL
MODEL 3
REMARK VINA RESULT:    -0.974      1.161      2.199
REMARK INTER + INTRA:          -4.500
REMARK INTER:                  -2.937
REMARK INTRA:                  -1.563
REMARK UNBOUND:                -2.273
REMARK SMILES CCCCCCCCCCCCCCCCCCCCCCCC(=O)[O-]
REMARK SMILES IDX 13 1 14 2 15 3 16 4 17 5 18 6 19 7 20 8 21 9 22 10 23 11
REMARK SMILES IDX 24 12 25 13 26 14 12 15 11 16 10 17 9 18 8 19 7 20 6 21 5 22
REMARK SMILES IDX 4 23 3 24 2 25 1 26
REMARK H PARENT
REMARK Flexibility Score: inf
ROOT
ATOM      1  C   UNL     1      16.852  42.036   7.389  1.00  0.00     0.000 C 
ENDROOT
BRANCH   1   2
ATOM      2  C   UNL     1      15.428  42.007   6.815  1.00  0.00     0.000 C 
BRANCH   2   3
ATOM      3  C   UNL     1      15.397  42.026   5.275  1.00  0.00     0.000 C 
BRANCH   3   4
ATOM      4  C   UNL     1      14.007  42.261   4.655  1.00  0.00     0.000 C 
BRANCH   4   5
ATOM      5  C   UNL     1      14.075  42.899   3.256  1.00  0.00     0.000 C 
BRANCH   5   6
ATOM      6  C   UNL     1      12.971  42.391   2.315  1.00  0.00     0.000 C 
BRANCH   6   7
ATOM      7  C   UNL     1      13.207  42.804   0.853  1.00  0.00     0.000 C 
BRANCH   7   8
ATOM      8  C   UNL     1      12.035  43.641   0.317  1.00  0.00     0.000 C 
BRANCH   8   9
ATOM      9  C   UNL     1      12.477  44.670  -0.740  1.00  0.00     0.000 C 
BRANCH   9  10
ATOM     10  C   UNL     1      13.313  45.840  -0.180  1.00  0.00     0.006 C 
BRANCH  10  11
ATOM     11  C   UNL     1      14.826  45.701  -0.420  1.00  0.00     0.053 C 
BRANCH  11  12
ATOM     12  C   UNL     1      15.409  46.937  -1.039  1.00  0.00     0.041 C 
ATOM     13  O   UNL     1      16.049  47.758  -0.330  1.00  0.00    -0.550 OA
ATOM     14  O   UNL     1      15.214  47.199  -2.392  1.00  0.00    -0.550 OA
ENDBRANCH  11  12
ENDBRANCH  10  11
ENDBRANCH   9  10
ENDBRANCH   8   9
ENDBRANCH   7   8
ENDBRANCH   6   7
ENDBRANCH   5   6
ENDBRANCH   4   5
ENDBRANCH   3   4
ENDBRANCH   2   3
ENDBRANCH   1   2
BRANCH   1  15
ATOM     15  C   UNL     1      16.937  41.232   8.692  1.00  0.00     0.000 C 
BRANCH  15  16
ATOM     16  C   UNL     1      16.844  42.156   9.912  1.00  0.00     0.000 C 
BRANCH  16  17
ATOM     17  C   UNL     1      16.227  41.431  11.114  1.00  0.00     0.000 C 
BRANCH  17  18
ATOM     18  C   UNL     1      17.125  41.569  12.353  1.00  0.00    -0.000 C 
BRANCH  18  19
ATOM     19  C   UNL     1      16.667  40.680  13.520  1.00  0.00    -0.000 C 
BRANCH  19  20
ATOM     20  C   UNL     1      16.637  39.186  13.146  1.00  0.00    -0.000 C 
BRANCH  20  21
ATOM     21  C   UNL     1      15.216  38.693  12.823  1.00  0.00    -0.000 C 
BRANCH  21  22
ATOM     22  C   UNL     1      15.183  37.727  11.628  1.00  0.00    -0.000 C 
BRANCH  22  23
ATOM     23  C   UNL     1      14.147  38.156  10.575  1.00  0.00    -0.000 C 
BRANCH  23  24
ATOM     24  C   UNL     1      14.800  38.500   9.224  1.00  0.00    -0.000 C 
BRANCH  24  25
ATOM     25  C   UNL     1      13.820  38.347   8.048  1.00  0.00    -0.003 C 
ATOM     26  C   UNL     1      14.475  38.713   6.712  1.00  0.00     0.004 C 
ENDBRANCH  24  25
ENDBRANCH  23  24
ENDBRANCH  22  23
ENDBRANCH  21  22
ENDBRANCH  20  21
ENDBRANCH  19  20
ENDBRANCH  18  19
ENDBRANCH  17  18
ENDBRANCH  16  17
ENDBRANCH  15  16
ENDBRANCH   1  15
TORSDOF 22
ENDMDL
MODEL 4
REMARK VINA RESULT:    -0.943      4.706     11.237
REMARK INTER + INTRA:          -4.429
REMARK INTER:                  -2.443
REMARK INTRA:                  -1.986
REMARK UNBOUND:                -2.273
REMARK SMILES CCCCCCCCCCCCCCCCCCCCCCCC(=O)[O-]
REMARK SMILES IDX 13 1 14 2 15 3 16 4 17 5 18 6 19 7 20 8 21 9 22 10 23 11
REMARK SMILES IDX 24 12 25 13 26 14 12 15 11 16 10 17 9 18 8 19 7 20 6 21 5 22
REMARK SMILES IDX 4 23 3 24 2 25 1 26
REMARK H PARENT
REMARK Flexibility Score: inf
ROOT
ATOM      1  C   UNL     1      13.251  42.145   4.235  1.00  0.00     0.000 C 
ENDROOT
BRANCH   1   2
ATOM      2  C   UNL     1      14.377  42.488   5.221  1.00  0.00     0.000 C 
BRANCH   2   3
ATOM      3  C   UNL     1      14.840  41.278   6.054  1.00  0.00     0.000 C 
BRANCH   3   4
ATOM      4  C   UNL     1      16.218  41.437   6.724  1.00  0.00     0.000 C 
BRANCH   4   5
ATOM      5  C   UNL     1      16.172  42.312   7.990  1.00  0.00     0.000 C 
BRANCH   5   6
ATOM      6  C   UNL     1      15.805  41.515   9.251  1.00  0.00     0.000 C 
BRANCH   6   7
ATOM      7  C   UNL     1      16.815  40.398   9.557  1.00  0.00     0.000 C 
BRANCH   7   8
ATOM      8  C   UNL     1      16.236  39.017   9.213  1.00  0.00     0.000 C 
BRANCH   8   9
ATOM      9  C   UNL     1      14.697  38.998   9.226  1.00  0.00     0.000 C 
BRANCH   9  10
ATOM     10  C   UNL     1      14.080  37.887  10.101  1.00  0.00     0.006 C 
BRANCH  10  11
ATOM     11  C   UNL     1      14.990  37.411  11.247  1.00  0.00     0.053 C 
BRANCH  11  12
ATOM     12  C   UNL     1      14.720  38.157  12.519  1.00  0.00     0.041 C 
ATOM     13  O   UNL     1      15.662  38.410  13.316  1.00  0.00    -0.550 OA
ATOM     14  O   UNL     1      13.421  38.542  12.843  1.00  0.00    -0.550 OA
ENDBRANCH  11  12
ENDBRANCH  10  11
ENDBRANCH   9  10
ENDBRANCH   8   9
ENDBRANCH   7   8
ENDBRANCH   6   7
ENDBRANCH   5   6
ENDBRANCH   4   5
ENDBRANCH   3   4
ENDBRANCH   2   3
ENDBRANCH   1   2
BRANCH   1  15
ATOM     15  C   UNL     1      13.619  42.576   2.810  1.00  0.00     0.000 C 
BRANCH  15  16
ATOM     16  C   UNL     1      14.880  43.448   2.810  1.00  0.00     0.000 C 
BRANCH  16  17
ATOM     17  C   UNL     1      15.170  44.010   1.412  1.00  0.00     0.000 C 
BRANCH  17  18
ATOM     18  C   UNL     1      16.654  44.378   1.271  1.00  0.00    -0.000 C 
BRANCH  18  19
ATOM     19  C   UNL     1      16.961  45.106  -0.048  1.00  0.00    -0.000 C 
BRANCH  19  20
ATOM     20  C   UNL     1      16.731  46.626   0.052  1.00  0.00    -0.000 C 
BRANCH  20  21
ATOM     21  C   UNL     1      16.069  47.200  -1.212  1.00  0.00    -0.000 C 
BRANCH  21  22
ATOM     22  C   UNL     1      14.822  46.409  -1.639  1.00  0.00    -0.000 C 
BRANCH  22  23
ATOM     23  C   UNL     1      13.565  46.870  -0.883  1.00  0.00    -0.000 C 
BRANCH  23  24
ATOM     24  C   UNL     1      12.904  45.721  -0.100  1.00  0.00    -0.000 C 
BRANCH  24  25
ATOM     25  C   UNL     1      12.106  44.777  -1.014  1.00  0.00    -0.003 C 
ATOM     26  C   UNL     1      12.248  43.313  -0.583  1.00  0.00     0.004 C 
ENDBRANCH  24  25
ENDBRANCH  23  24
ENDBRANCH  22  23
ENDBRANCH  21  22
ENDBRANCH  20  21
ENDBRANCH  19  20
ENDBRANCH  18  19
ENDBRANCH  17  18
ENDBRANCH  16  17
ENDBRANCH  15  16
ENDBRANCH   1  15
TORSDOF 22
ENDMDL
MODEL 5
REMARK VINA RESULT:    -0.898      2.135      3.568
REMARK INTER + INTRA:          -4.326
REMARK INTER:                  -3.203
REMARK INTRA:                  -1.124
REMARK UNBOUND:                -2.273
REMARK SMILES CCCCCCCCCCCCCCCCCCCCCCCC(=O)[O-]
REMARK SMILES IDX 13 1 14 2 15 3 16 4 17 5 18 6 19 7 20 8 21 9 22 10 23 11
REMARK SMILES IDX 24 12 25 13 26 14 12 15 11 16 10 17 9 18 8 19 7 20 6 21 5 22
REMARK SMILES IDX 4 23 3 24 2 25 1 26
REMARK H PARENT
REMARK Flexibility Score: inf
ROOT
ATOM      1  C   UNL     1      12.984  41.856   3.982  1.00  0.00     0.000 C 
ENDROOT
BRANCH   1   2
ATOM      2  C   UNL     1      13.376  42.511   2.649  1.00  0.00     0.000 C 
BRANCH   2   3
ATOM      3  C   UNL     1      14.667  43.345   2.743  1.00  0.00     0.000 C 
BRANCH   3   4
ATOM      4  C   UNL     1      15.155  43.944   1.410  1.00  0.00     0.000 C 
BRANCH   4   5
ATOM      5  C   UNL     1      16.634  44.369   1.450  1.00  0.00     0.000 C 
BRANCH   5   6
ATOM      6  C   UNL     1      17.125  44.942   0.111  1.00  0.00     0.000 C 
BRANCH   6   7
ATOM      7  C   UNL     1      16.556  46.341  -0.175  1.00  0.00     0.000 C 
BRANCH   7   8
ATOM      8  C   UNL     1      15.669  46.335  -1.429  1.00  0.00     0.000 C 
BRANCH   8   9
ATOM      9  C   UNL     1      14.481  47.309  -1.321  1.00  0.00     0.000 C 
BRANCH   9  10
ATOM     10  C   UNL     1      13.174  46.667  -0.810  1.00  0.00     0.006 C 
BRANCH  10  11
ATOM     11  C   UNL     1      13.322  45.196  -0.384  1.00  0.00     0.053 C 
BRANCH  11  12
ATOM     12  C   UNL     1      12.153  44.367  -0.827  1.00  0.00     0.041 C 
ATOM     13  O   UNL     1      11.097  44.926  -1.227  1.00  0.00    -0.550 OA
ATOM     14  O   UNL     1      12.216  42.978  -0.764  1.00  0.00    -0.550 OA
ENDBRANCH  11  12
ENDBRANCH  10  11
ENDBRANCH   9  10
ENDBRANCH   8   9
ENDBRANCH   7   8
ENDBRANCH   6   7
ENDBRANCH   5   6
ENDBRANCH   4   5
ENDBRANCH   3   4
ENDBRANCH   2   3
ENDBRANCH   1   2
BRANCH   1  15
ATOM     15  C   UNL     1      13.852  42.385   5.130  1.00  0.00     0.000 C 
BRANCH  15  16
ATOM     16  C   UNL     1      14.403  41.230   5.975  1.00  0.00     0.000 C 
BRANCH  16  17
ATOM     17  C   UNL     1      15.681  41.642   6.717  1.00  0.00     0.000 C 
BRANCH  17  18
ATOM     18  C   UNL     1      16.395  40.412   7.296  1.00  0.00    -0.000 C 
BRANCH  18  19
ATOM     19  C   UNL     1      16.492  40.449   8.830  1.00  0.00    -0.000 C 
BRANCH  19  20
ATOM     20  C   UNL     1      16.143  39.095   9.475  1.00  0.00    -0.000 C 
BRANCH  20  21
ATOM     21  C   UNL     1      14.642  38.773   9.383  1.00  0.00    -0.000 C 
BRANCH  21  22
ATOM     22  C   UNL     1      14.154  37.892  10.544  1.00  0.00    -0.000 C 
BRANCH  22  23
ATOM     23  C   UNL     1      15.325  37.328  11.366  1.00  0.00    -0.000 C 
BRANCH  23  24
ATOM     24  C   UNL     1      15.236  37.725  12.851  1.00  0.00    -0.000 C 
BRANCH  24  25
ATOM     25  C   UNL     1      15.317  39.248  13.052  1.00  0.00    -0.003 C 
ATOM     26  C   UNL     1      14.322  39.735  14.112  1.00  0.00     0.004 C 
ENDBRANCH  24  25
ENDBRANCH  23  24
ENDBRANCH  22  23
ENDBRANCH  21  22
ENDBRANCH  20  21
ENDBRANCH  19  20
ENDBRANCH  18  19
ENDBRANCH  17  18
ENDBRANCH  16  17
ENDBRANCH  15  16
ENDBRANCH   1  15
TORSDOF 22
ENDMDL
MODEL 6
REMARK VINA RESULT:    -0.823      4.081     11.812
REMARK INTER + INTRA:          -4.153
REMARK INTER:                  -2.851
REMARK INTRA:                  -1.302
REMARK UNBOUND:                -2.273
REMARK SMILES CCCCCCCCCCCCCCCCCCCCCCCC(=O)[O-]
REMARK SMILES IDX 13 1 14 2 15 3 16 4 17 5 18 6 19 7 20 8 21 9 22 10 23 11
REMARK SMILES IDX 24 12 25 13 26 14 12 15 11 16 10 17 9 18 8 19 7 20 6 21 5 22
REMARK SMILES IDX 4 23 3 24 2 25 1 26
REMARK H PARENT
REMARK Flexibility Score: inf
ROOT
ATOM      1  C   UNL     1      16.016  41.398   6.451  1.00  0.00     0.000 C 
ENDROOT
BRANCH   1   2
ATOM      2  C   UNL     1      16.146  40.936   7.909  1.00  0.00     0.000 C 
BRANCH   2   3
ATOM      3  C   UNL     1      16.875  41.957   8.803  1.00  0.00     0.000 C 
BRANCH   3   4
ATOM      4  C   UNL     1      16.099  42.392  10.060  1.00  0.00     0.000 C 
BRANCH   4   5
ATOM      5  C   UNL     1      17.020  42.707  11.254  1.00  0.00     0.000 C 
BRANCH   5   6
ATOM      6  C   UNL     1      16.584  41.997  12.545  1.00  0.00     0.000 C 
BRANCH   6   7
ATOM      7  C   UNL     1      17.114  40.556  12.633  1.00  0.00     0.000 C 
BRANCH   7   8
ATOM      8  C   UNL     1      16.560  39.835  13.871  1.00  0.00     0.000 C 
BRANCH   8   9
ATOM      9  C   UNL     1      15.022  39.757  13.872  1.00  0.00     0.000 C 
BRANCH   9  10
ATOM     10  C   UNL     1      14.451  38.405  13.394  1.00  0.00     0.006 C 
BRANCH  10  11
ATOM     11  C   UNL     1      14.063  38.378  11.905  1.00  0.00     0.053 C 
BRANCH  11  12
ATOM     12  C   UNL     1      15.124  37.733  11.064  1.00  0.00     0.041 C 
ATOM     13  O   UNL     1      15.397  38.196   9.925  1.00  0.00    -0.550 OA
ATOM     14  O   UNL     1      15.787  36.598  11.524  1.00  0.00    -0.550 OA
ENDBRANCH  11  12
ENDBRANCH  10  11
ENDBRANCH   9  10
ENDBRANCH   8   9
ENDBRANCH   7   8
ENDBRANCH   6   7
ENDBRANCH   5   6
ENDBRANCH   4   5
ENDBRANCH   3   4
ENDBRANCH   2   3
ENDBRANCH   1   2
BRANCH   1  15
ATOM     15  C   UNL     1      14.577  41.827   6.136  1.00  0.00     0.000 C 
BRANCH  15  16
ATOM     16  C   UNL     1      14.444  42.264   4.673  1.00  0.00     0.000 C 
BRANCH  16  17
ATOM     17  C   UNL     1      12.989  42.177   4.195  1.00  0.00     0.000 C 
BRANCH  17  18
ATOM     18  C   UNL     1      12.928  41.948   2.677  1.00  0.00    -0.000 C 
BRANCH  18  19
ATOM     19  C   UNL     1      13.648  43.048   1.882  1.00  0.00    -0.000 C 
BRANCH  19  20
ATOM     20  C   UNL     1      12.982  43.323   0.521  1.00  0.00    -0.000 C 
BRANCH  20  21
ATOM     21  C   UNL     1      13.237  44.756   0.024  1.00  0.00    -0.000 C 
BRANCH  21  22
ATOM     22  C   UNL     1      14.735  45.076  -0.119  1.00  0.00    -0.000 C 
BRANCH  22  23
ATOM     23  C   UNL     1      15.028  46.564   0.136  1.00  0.00    -0.000 C 
BRANCH  23  24
ATOM     24  C   UNL     1      16.354  47.012  -0.505  1.00  0.00    -0.000 C 
BRANCH  24  25
ATOM     25  C   UNL     1      16.238  47.172  -2.031  1.00  0.00    -0.003 C 
ATOM     26  C   UNL     1      15.003  47.992  -2.423  1.00  0.00     0.004 C 
ENDBRANCH  24  25
ENDBRANCH  23  24
ENDBRANCH  22  23
ENDBRANCH  21  22
ENDBRANCH  20  21
ENDBRANCH  19  20
ENDBRANCH  18  19
ENDBRANCH  17  18
ENDBRANCH  16  17
ENDBRANCH  15  16
ENDBRANCH   1  15
TORSDOF 22
ENDMDL
MODEL 7
REMARK VINA RESULT:    -0.805      4.592     11.794
REMARK INTER + INTRA:          -4.113
REMARK INTER:                  -2.589
REMARK INTRA:                  -1.525
REMARK UNBOUND:                -2.273
REMARK SMILES CCCCCCCCCCCCCCCCCCCCCCCC(=O)[O-]
REMARK SMILES IDX 13 1 14 2 15 3 16 4 17 5 18 6 19 7 20 8 21 9 22 10 23 11
REMARK SMILES IDX 24 12 25 13 26 14 12 15 11 16 10 17 9 18 8 19 7 20 6 21 5 22
REMARK SMILES IDX 4 23 3 24 2 25 1 26
REMARK H PARENT
REMARK Flexibility Score: inf
ROOT
ATOM      1  C   UNL     1      14.419  41.772   5.928  1.00  0.00     0.000 C 
ENDROOT
BRANCH   1   2
ATOM      2  C   UNL     1      15.878  41.527   6.340  1.00  0.00     0.000 C 
BRANCH   2   3
ATOM      3  C   UNL     1      16.474  42.681   7.168  1.00  0.00     0.000 C 
BRANCH   3   4
ATOM      4  C   UNL     1      17.035  42.275   8.543  1.00  0.00     0.000 C 
BRANCH   4   5
ATOM      5  C   UNL     1      16.052  41.417   9.362  1.00  0.00     0.000 C 
BRANCH   5   6
ATOM      6  C   UNL     1      16.666  40.086   9.824  1.00  0.00     0.000 C 
BRANCH   6   7
ATOM      7  C   UNL     1      16.053  38.874   9.104  1.00  0.00     0.000 C 
BRANCH   7   8
ATOM      8  C   UNL     1      14.527  38.837   9.278  1.00  0.00     0.000 C 
BRANCH   8   9
ATOM      9  C   UNL     1      14.098  38.185  10.606  1.00  0.00     0.000 C 
BRANCH   9  10
ATOM     10  C   UNL     1      15.192  37.329  11.280  1.00  0.00     0.006 C 
BRANCH  10  11
ATOM     11  C   UNL     1      15.283  37.514  12.804  1.00  0.00     0.053 C 
BRANCH  11  12
ATOM     12  C   UNL     1      15.033  38.937  13.209  1.00  0.00     0.041 C 
ATOM     13  O   UNL     1      15.972  39.776  13.184  1.00  0.00    -0.550 OA
ATOM     14  O   UNL     1      13.771  39.327  13.648  1.00  0.00    -0.550 OA
ENDBRANCH  11  12
ENDBRANCH  10  11
ENDBRANCH   9  10
ENDBRANCH   8   9
ENDBRANCH   7   8
ENDBRANCH   6   7
ENDBRANCH   5   6
ENDBRANCH   4   5
ENDBRANCH   3   4
ENDBRANCH   2   3
ENDBRANCH   1   2
BRANCH   1  15
ATOM     15  C   UNL     1      14.341  42.386   4.525  1.00  0.00     0.000 C 
BRANCH  15  16
ATOM     16  C   UNL     1      12.966  42.135   3.894  1.00  0.00     0.000 C 
BRANCH  16  17
ATOM     17  C   UNL     1      13.068  42.003   2.369  1.00  0.00     0.000 C 
BRANCH  17  18
ATOM     18  C   UNL     1      12.632  43.305   1.681  1.00  0.00    -0.000 C 
BRANCH  18  19
ATOM     19  C   UNL     1      13.388  43.563   0.367  1.00  0.00    -0.000 C 
BRANCH  19  20
ATOM     20  C   UNL     1      14.701  44.337   0.586  1.00  0.00    -0.000 C 
BRANCH  20  21
ATOM     21  C   UNL     1      14.667  45.738  -0.049  1.00  0.00    -0.000 C 
BRANCH  21  22
ATOM     22  C   UNL     1      15.949  46.542   0.222  1.00  0.00    -0.000 C 
BRANCH  22  23
ATOM     23  C   UNL     1      16.158  47.653  -0.821  1.00  0.00    -0.000 C 
BRANCH  23  24
ATOM     24  C   UNL     1      14.928  47.836  -1.728  1.00  0.00    -0.000 C 
BRANCH  24  25
ATOM     25  C   UNL     1      15.312  47.943  -3.214  1.00  0.00    -0.003 C 
ATOM     26  C   UNL     1      16.822  48.124  -3.399  1.00  0.00     0.004 C 
ENDBRANCH  24  25
ENDBRANCH  23  24
ENDBRANCH  22  23
ENDBRANCH  21  22
ENDBRANCH  20  21
ENDBRANCH  19  20
ENDBRANCH  18  19
ENDBRANCH  17  18
ENDBRANCH  16  17
ENDBRANCH  15  16
ENDBRANCH   1  15
TORSDOF 22
ENDMDL
MODEL 8
REMARK VINA RESULT:    -0.762      3.222     10.782
REMARK INTER + INTRA:          -4.014
REMARK INTER:                  -2.240
REMARK INTRA:                  -1.773
REMARK UNBOUND:                -2.273
REMARK SMILES CCCCCCCCCCCCCCCCCCCCCCCC(=O)[O-]
REMARK SMILES IDX 13 1 14 2 15 3 16 4 17 5 18 6 19 7 20 8 21 9 22 10 23 11
REMARK SMILES IDX 24 12 25 13 26 14 12 15 11 16 10 17 9 18 8 19 7 20 6 21 5 22
REMARK SMILES IDX 4 23 3 24 2 25 1 26
REMARK H PARENT
REMARK Flexibility Score: inf
ROOT
ATOM      1  C   UNL     1      16.210  42.086   8.355  1.00  0.00     0.000 C 
ENDROOT
BRANCH   1   2
ATOM      2  C   UNL     1      17.098  41.757   9.564  1.00  0.00     0.000 C 
BRANCH   2   3
ATOM      3  C   UNL     1      16.548  42.322  10.888  1.00  0.00     0.000 C 
BRANCH   3   4
ATOM      4  C   UNL     1      16.991  41.564  12.153  1.00  0.00     0.000 C 
BRANCH   4   5
ATOM      5  C   UNL     1      15.997  41.710  13.319  1.00  0.00     0.000 C 
BRANCH   5   6
ATOM      6  C   UNL     1      15.631  40.364  13.963  1.00  0.00     0.000 C 
BRANCH   6   7
ATOM      7  C   UNL     1      16.017  39.165  13.081  1.00  0.00     0.000 C 
BRANCH   7   8
ATOM      8  C   UNL     1      14.773  38.393  12.617  1.00  0.00     0.000 C 
BRANCH   8   9
ATOM      9  C   UNL     1      14.988  37.675  11.272  1.00  0.00     0.000 C 
BRANCH   9  10
ATOM     10  C   UNL     1      14.025  38.119  10.150  1.00  0.00     0.006 C 
BRANCH  10  11
ATOM     11  C   UNL     1      14.680  38.999   9.072  1.00  0.00     0.053 C 
BRANCH  11  12
ATOM     12  C   UNL     1      14.328  38.540   7.688  1.00  0.00     0.041 C 
ATOM     13  O   UNL     1      13.217  37.987   7.470  1.00  0.00    -0.550 OA
ATOM     14  O   UNL     1      15.239  38.691   6.647  1.00  0.00    -0.550 OA
ENDBRANCH  11  12
ENDBRANCH  10  11
ENDBRANCH   9  10
ENDBRANCH   8   9
ENDBRANCH   7   8
ENDBRANCH   6   7
ENDBRANCH   5   6
ENDBRANCH   4   5
ENDBRANCH   3   4
ENDBRANCH   2   3
ENDBRANCH   1   2
BRANCH   1  15
ATOM     15  C   UNL     1      16.851  41.590   7.052  1.00  0.00     0.000 C 
BRANCH  15  16
ATOM     16  C   UNL     1      16.079  42.108   5.833  1.00  0.00     0.000 C 
BRANCH  16  17
ATOM     17  C   UNL     1      14.568  42.128   6.096  1.00  0.00     0.000 C 
BRANCH  17  18
ATOM     18  C   UNL     1      13.804  41.473   4.936  1.00  0.00    -0.000 C 
BRANCH  18  19
ATOM     19  C   UNL     1      13.113  42.500   4.025  1.00  0.00    -0.000 C 
BRANCH  19  20
ATOM     20  C   UNL     1      13.379  42.236   2.532  1.00  0.00    -0.000 C 
BRANCH  20  21
ATOM     21  C   UNL     1      12.657  43.244   1.622  1.00  0.00    -0.000 C 
BRANCH  21  22
ATOM     22  C   UNL     1      13.368  43.439   0.273  1.00  0.00    -0.000 C 
BRANCH  22  23
ATOM     23  C   UNL     1      14.198  44.734   0.246  1.00  0.00    -0.000 C 
BRANCH  23  24
ATOM     24  C   UNL     1      13.724  45.705  -0.850  1.00  0.00    -0.000 C 
BRANCH  24  25
ATOM     25  C   UNL     1      14.607  46.961  -0.936  1.00  0.00    -0.003 C 
ATOM     26  C   UNL     1      16.003  46.715  -0.354  1.00  0.00     0.004 C 
ENDBRANCH  24  25
ENDBRANCH  23  24
ENDBRANCH  22  23
ENDBRANCH  21  22
ENDBRANCH  20  21
ENDBRANCH  19  20
ENDBRANCH  18  19
ENDBRANCH  17  18
ENDBRANCH  16  17
ENDBRANCH  15  16
ENDBRANCH   1  15
TORSDOF 22
ENDMDL
