MODEL 1
REMARK VINA RESULT:    -6.622      0.000      0.000
REMARK INTER + INTRA:         -11.914
REMARK INTER:                 -10.881
REMARK INTRA:                  -1.033
REMARK UNBOUND:                -1.033
REMARK SMILES C[C@H]1O[C@H](OC[C@H]2O[C@H](Oc3c(-c4ccc(O)c(O)c4)oc4cc(O)cc(O)c4c3=O)[C@@H](O)[C@@H](O)[C@@H]2O)[C@H](O)[C@@H](O)[C@@H]1O
REMARK SMILES IDX 7 1 36 2 34 3 32 4 9 5 8 6 6 7 5 8 4 9 1 10 2 11 42 12 3 13
REMARK SMILES IDX 40 14 38 15 43 16 41 18 39 20 37 22 35 24 10 26 11 27 12 28
REMARK SMILES IDX 30 29 21 30 29 31 31 32 22 33 27 34 23 35 26 36 24 37 13 38
REMARK SMILES IDX 20 39 14 40 18 41 15 42 16 43 19 44 17 46 28 48 25 50 33 52
REMARK H PARENT 43 17 41 19 39 21 37 23 35 25 19 45 17 47 28 49 25 51 33 53
REMARK Flexibility Score: inf
ROOT
ATOM      1  C   UNL     1     134.453 141.996 139.523  1.00  0.00     0.180 C 
ATOM      2  C   UNL     1     135.641 141.373 138.753  1.00  0.00     0.177 C 
ATOM      3  C   UNL     1     135.976 139.994 139.349  1.00  0.00     0.180 C 
ATOM      4  C   UNL     1     134.706 139.127 139.427  1.00  0.00     0.214 C 
ATOM      5  C   UNL     1     133.584 139.895 140.152  1.00  0.00     0.339 C 
ATOM      6  O   UNL     1     133.328 141.129 139.503  1.00  0.00    -0.332 OA
ENDROOT
BRANCH   1   7
ATOM      7  C   UNL     1     133.986 143.324 138.891  1.00  0.00     0.198 C 
BRANCH   7   8
ATOM      8  O   UNL     1     134.769 143.808 137.812  1.00  0.00    -0.347 OA
BRANCH   8   9
ATOM      9  C   UNL     1     134.631 145.192 137.487  1.00  0.00     0.281 C 
ATOM     10  C   UNL     1     138.172 146.123 137.885  1.00  0.00     0.041 C 
ATOM     11  C   UNL     1     136.961 145.378 137.307  1.00  0.00     0.150 C 
ATOM     12  C   UNL     1     136.918 145.557 135.759  1.00  0.00     0.174 C 
ATOM     13  O   UNL     1     135.787 145.884 137.936  1.00  0.00    -0.344 OA
ATOM     14  C   UNL     1     135.595 145.030 135.166  1.00  0.00     0.179 C 
ATOM     15  C   UNL     1     134.427 145.566 136.000  1.00  0.00     0.202 C 
BRANCH  12  16
ATOM     16  O   UNL     1     137.979 144.844 135.169  1.00  0.00    -0.388 OA
ATOM     17  H   UNL     1     137.771 143.873 135.270  1.00  0.00     0.211 HD
ENDBRANCH  12  16
BRANCH  14  18
ATOM     18  O   UNL     1     135.456 145.468 133.840  1.00  0.00    -0.387 OA
ATOM     19  H   UNL     1     134.717 146.135 133.834  1.00  0.00     0.211 HD
ENDBRANCH  14  18
BRANCH  15  20
ATOM     20  O   UNL     1     133.190 145.111 135.517  1.00  0.00    -0.385 OA
ATOM     21  H   UNL     1     132.502 145.334 136.194  1.00  0.00     0.211 HD
ENDBRANCH  15  20
ENDBRANCH   8   9
ENDBRANCH   7   8
ENDBRANCH   1   7
BRANCH   2  22
ATOM     22  O   UNL     1     136.763 142.209 138.849  1.00  0.00    -0.387 OA
ATOM     23  H   UNL     1     136.519 143.077 138.436  1.00  0.00     0.211 HD
ENDBRANCH   2  22
BRANCH   3  24
ATOM     24  O   UNL     1     136.961 139.364 138.572  1.00  0.00    -0.387 OA
ATOM     25  H   UNL     1     137.145 139.952 137.801  1.00  0.00     0.211 HD
ENDBRANCH   3  24
BRANCH   5  26
ATOM     26  O   UNL     1     133.878 140.106 141.540  1.00  0.00    -0.454 OA
BRANCH  26  27
ATOM     27  C   UNL     1     133.011 139.688 142.557  1.00  0.00     0.214 A 
ATOM     28  C   UNL     1     132.218 138.515 142.459  1.00  0.00     0.180 A 
ATOM     29  C   UNL     1     132.931 140.464 143.722  1.00  0.00     0.239 A 
ATOM     30  O   UNL     1     131.514 138.141 143.525  1.00  0.00    -0.452 OA
ATOM     31  C   UNL     1     132.227 139.985 144.851  1.00  0.00     0.111 A 
ATOM     32  O   UNL     1     133.459 141.602 143.721  1.00  0.00    -0.285 OA
ATOM     33  C   UNL     1     131.498 138.788 144.682  1.00  0.00     0.146 A 
ATOM     34  C   UNL     1     132.194 140.633 146.121  1.00  0.00     0.134 A 
ATOM     35  C   UNL     1     130.727 138.269 145.724  1.00  0.00     0.094 A 
ATOM     36  C   UNL     1     131.389 140.106 147.141  1.00  0.00     0.093 A 
ATOM     37  C   UNL     1     130.663 138.926 146.951  1.00  0.00     0.123 A 
BRANCH  28  38
ATOM     38  C   UNL     1     132.071 137.643 141.242  1.00  0.00     0.025 A 
ATOM     39  C   UNL     1     132.896 136.533 140.944  1.00  0.00     0.062 A 
ATOM     40  C   UNL     1     131.062 137.974 140.303  1.00  0.00     0.016 A 
ATOM     41  C   UNL     1     132.681 135.751 139.799  1.00  0.00     0.158 A 
ATOM     42  C   UNL     1     130.885 137.232 139.136  1.00  0.00     0.051 A 
ATOM     43  C   UNL     1     131.686 136.115 138.882  1.00  0.00     0.157 A 
BRANCH  41  44
ATOM     44  O   UNL     1     133.468 134.617 139.587  1.00  0.00    -0.504 OA
ATOM     45  H   UNL     1     133.066 133.700 139.422  1.00  0.00     0.293 HD
ENDBRANCH  41  44
BRANCH  43  46
ATOM     46  O   UNL     1     131.506 135.375 137.714  1.00  0.00    -0.504 OA
ATOM     47  H   UNL     1     130.823 134.629 137.652  1.00  0.00     0.293 HD
ENDBRANCH  43  46
ENDBRANCH  28  38
BRANCH  34  48
ATOM     48  O   UNL     1     132.942 141.770 146.444  1.00  0.00    -0.507 OA
ATOM     49  H   UNL     1     133.940 141.853 146.344  1.00  0.00     0.293 HD
ENDBRANCH  34  48
BRANCH  37  50
ATOM     50  O   UNL     1     129.876 138.398 147.973  1.00  0.00    -0.508 OA
ATOM     51  H   UNL     1     129.997 137.450 148.304  1.00  0.00     0.293 HD
ENDBRANCH  37  50
ENDBRANCH  26  27
ENDBRANCH   5  26
BRANCH   4  52
ATOM     52  O   UNL     1     134.279 138.808 138.126  1.00  0.00    -0.384 OA
ATOM     53  H   UNL     1     133.293 138.684 138.153  1.00  0.00     0.211 HD
ENDBRANCH   4  52
TORSDOF 16
ENDMDL
MODEL 2
REMARK VINA RESULT:    -6.576      2.806      8.664
REMARK INTER + INTRA:         -11.837
REMARK INTER:                 -10.637
REMARK INTRA:                  -1.200
REMARK UNBOUND:                -1.033
REMARK SMILES C[C@H]1O[C@H](OC[C@H]2O[C@H](Oc3c(-c4ccc(O)c(O)c4)oc4cc(O)cc(O)c4c3=O)[C@@H](O)[C@@H](O)[C@@H]2O)[C@H](O)[C@@H](O)[C@@H]1O
REMARK SMILES IDX 7 1 36 2 34 3 32 4 9 5 8 6 6 7 5 8 4 9 1 10 2 11 42 12 3 13
REMARK SMILES IDX 40 14 38 15 43 16 41 18 39 20 37 22 35 24 10 26 11 27 12 28
REMARK SMILES IDX 30 29 21 30 29 31 31 32 22 33 27 34 23 35 26 36 24 37 13 38
REMARK SMILES IDX 20 39 14 40 18 41 15 42 16 43 19 44 17 46 28 48 25 50 33 52
REMARK H PARENT 43 17 41 19 39 21 37 23 35 25 19 45 17 47 28 49 25 51 33 53
REMARK Flexibility Score: inf
ROOT
ATOM      1  C   UNL     1     132.890 139.502 140.323  1.00  0.00     0.180 C 
ATOM      2  C   UNL     1     133.569 139.474 141.713  1.00  0.00     0.177 C 
ATOM      3  C   UNL     1     134.768 140.439 141.722  1.00  0.00     0.180 C 
ATOM      4  C   UNL     1     134.333 141.829 141.222  1.00  0.00     0.214 C 
ATOM      5  C   UNL     1     133.609 141.702 139.869  1.00  0.00     0.339 C 
ATOM      6  O   UNL     1     132.502 140.824 139.979  1.00  0.00    -0.332 OA
ENDROOT
BRANCH   1   7
ATOM      7  C   UNL     1     131.604 138.651 140.290  1.00  0.00     0.198 C 
BRANCH   7   8
ATOM      8  O   UNL     1     131.319 138.002 139.062  1.00  0.00    -0.347 OA
BRANCH   8   9
ATOM      9  C   UNL     1     132.233 136.986 138.643  1.00  0.00     0.281 C 
ATOM     10  C   UNL     1     129.975 135.260 136.301  1.00  0.00     0.041 C 
ATOM     11  C   UNL     1     130.793 136.422 136.882  1.00  0.00     0.150 C 
ATOM     12  C   UNL     1     131.754 136.989 135.794  1.00  0.00     0.174 C 
ATOM     13  O   UNL     1     131.500 135.941 138.022  1.00  0.00    -0.344 OA
ATOM     14  C   UNL     1     132.759 137.993 136.396  1.00  0.00     0.179 C 
ATOM     15  C   UNL     1     133.363 137.391 137.668  1.00  0.00     0.202 C 
BRANCH  12  16
ATOM     16  O   UNL     1     131.009 137.654 134.802  1.00  0.00    -0.388 OA
ATOM     17  H   UNL     1     130.165 137.970 135.231  1.00  0.00     0.211 HD
ENDBRANCH  12  16
BRANCH  14  18
ATOM     18  O   UNL     1     133.786 138.255 135.475  1.00  0.00    -0.387 OA
ATOM     19  H   UNL     1     133.348 138.420 134.597  1.00  0.00     0.211 HD
ENDBRANCH  14  18
BRANCH  15  20
ATOM     20  O   UNL     1     134.281 138.265 138.272  1.00  0.00    -0.385 OA
ATOM     21  H   UNL     1     134.314 138.045 139.239  1.00  0.00     0.211 HD
ENDBRANCH  15  20
ENDBRANCH   8   9
ENDBRANCH   7   8
ENDBRANCH   1   7
BRANCH   2  22
ATOM     22  O   UNL     1     134.012 138.174 142.001  1.00  0.00    -0.387 OA
ATOM     23  H   UNL     1     134.784 137.990 141.406  1.00  0.00     0.211 HD
ENDBRANCH   2  22
BRANCH   3  24
ATOM     24  O   UNL     1     135.305 140.522 143.016  1.00  0.00    -0.387 OA
ATOM     25  H   UNL     1     135.031 139.705 143.499  1.00  0.00     0.211 HD
ENDBRANCH   3  24
BRANCH   5  26
ATOM     26  O   UNL     1     134.489 141.277 138.818  1.00  0.00    -0.454 OA
BRANCH  26  27
ATOM     27  C   UNL     1     135.740 141.870 138.608  1.00  0.00     0.214 A 
ATOM     28  C   UNL     1     135.904 143.098 137.916  1.00  0.00     0.180 A 
ATOM     29  C   UNL     1     136.875 141.220 139.113  1.00  0.00     0.239 A 
ATOM     30  O   UNL     1     137.121 143.636 137.871  1.00  0.00    -0.452 OA
ATOM     31  C   UNL     1     138.131 141.867 139.103  1.00  0.00     0.111 A 
ATOM     32  O   UNL     1     136.755 140.042 139.529  1.00  0.00    -0.285 OA
ATOM     33  C   UNL     1     138.200 143.106 138.429  1.00  0.00     0.146 A 
ATOM     34  C   UNL     1     139.316 141.350 139.705  1.00  0.00     0.134 A 
ATOM     35  C   UNL     1     139.411 143.792 138.319  1.00  0.00     0.094 A 
ATOM     36  C   UNL     1     140.525 142.045 139.555  1.00  0.00     0.093 A 
ATOM     37  C   UNL     1     140.576 143.264 138.873  1.00  0.00     0.123 A 
BRANCH  28  38
ATOM     38  C   UNL     1     134.827 143.859 137.193  1.00  0.00     0.025 A 
ATOM     39  C   UNL     1     134.702 143.934 135.785  1.00  0.00     0.062 A 
ATOM     40  C   UNL     1     133.892 144.588 137.968  1.00  0.00     0.016 A 
ATOM     41  C   UNL     1     133.655 144.645 135.182  1.00  0.00     0.158 A 
ATOM     42  C   UNL     1     132.884 145.344 137.369  1.00  0.00     0.051 A 
ATOM     43  C   UNL     1     132.755 145.369 135.977  1.00  0.00     0.157 A 
BRANCH  41  44
ATOM     44  O   UNL     1     133.523 144.625 133.792  1.00  0.00    -0.504 OA
ATOM     45  H   UNL     1     133.712 143.793 133.241  1.00  0.00     0.293 HD
ENDBRANCH  41  44
BRANCH  43  46
ATOM     46  O   UNL     1     131.746 146.125 135.381  1.00  0.00    -0.504 OA
ATOM     47  H   UNL     1     131.114 146.700 135.925  1.00  0.00     0.293 HD
ENDBRANCH  43  46
ENDBRANCH  28  38
BRANCH  34  48
ATOM     48  O   UNL     1     139.361 140.183 140.477  1.00  0.00    -0.507 OA
ATOM     49  H   UNL     1     140.051 139.457 140.387  1.00  0.00     0.293 HD
ENDBRANCH  34  48
BRANCH  37  50
ATOM     50  O   UNL     1     141.776 143.959 138.738  1.00  0.00    -0.508 OA
ATOM     51  H   UNL     1     141.956 144.567 137.950  1.00  0.00     0.293 HD
ENDBRANCH  37  50
ENDBRANCH  26  27
ENDBRANCH   5  26
BRANCH   4  52
ATOM     52  O   UNL     1     133.460 142.409 142.159  1.00  0.00    -0.384 OA
ATOM     53  H   UNL     1     133.958 142.508 143.015  1.00  0.00     0.211 HD
ENDBRANCH   4  52
TORSDOF 16
ENDMDL
MODEL 3
REMARK VINA RESULT:    -6.382      2.146      9.472
REMARK INTER + INTRA:         -11.518
REMARK INTER:                 -11.086
REMARK INTRA:                  -0.432
REMARK UNBOUND:                -1.033
REMARK SMILES C[C@H]1O[C@H](OC[C@H]2O[C@H](Oc3c(-c4ccc(O)c(O)c4)oc4cc(O)cc(O)c4c3=O)[C@@H](O)[C@@H](O)[C@@H]2O)[C@H](O)[C@@H](O)[C@@H]1O
REMARK SMILES IDX 7 1 36 2 34 3 32 4 9 5 8 6 6 7 5 8 4 9 1 10 2 11 42 12 3 13
REMARK SMILES IDX 40 14 38 15 43 16 41 18 39 20 37 22 35 24 10 26 11 27 12 28
REMARK SMILES IDX 30 29 21 30 29 31 31 32 22 33 27 34 23 35 26 36 24 37 13 38
REMARK SMILES IDX 20 39 14 40 18 41 15 42 16 43 19 44 17 46 28 48 25 50 33 52
REMARK H PARENT 43 17 41 19 39 21 37 23 35 25 19 45 17 47 28 49 25 51 33 53
REMARK Flexibility Score: inf
ROOT
ATOM      1  C   UNL     1     133.327 141.178 140.665  1.00  0.00     0.180 C 
ATOM      2  C   UNL     1     132.551 139.942 140.150  1.00  0.00     0.177 C 
ATOM      3  C   UNL     1     133.185 139.446 138.838  1.00  0.00     0.180 C 
ATOM      4  C   UNL     1     134.701 139.251 139.021  1.00  0.00     0.214 C 
ATOM      5  C   UNL     1     135.332 140.528 139.607  1.00  0.00     0.339 C 
ATOM      6  O   UNL     1     134.705 140.875 140.829  1.00  0.00    -0.332 OA
ENDROOT
BRANCH   1   7
ATOM      7  C   UNL     1     132.819 141.645 142.044  1.00  0.00     0.198 C 
BRANCH   7   8
ATOM      8  O   UNL     1     132.074 140.695 142.788  1.00  0.00    -0.347 OA
BRANCH   8   9
ATOM      9  C   UNL     1     132.813 139.644 143.413  1.00  0.00     0.281 C 
ATOM     10  C   UNL     1     134.177 141.623 146.202  1.00  0.00     0.041 C 
ATOM     11  C   UNL     1     133.101 140.982 145.315  1.00  0.00     0.150 C 
ATOM     12  C   UNL     1     132.147 140.110 146.185  1.00  0.00     0.174 C 
ATOM     13  O   UNL     1     133.755 140.217 144.307  1.00  0.00    -0.344 OA
ATOM     14  C   UNL     1     131.202 139.261 145.310  1.00  0.00     0.179 C 
ATOM     15  C   UNL     1     132.020 138.581 144.208  1.00  0.00     0.202 C 
BRANCH  12  16
ATOM     16  O   UNL     1     131.360 140.940 147.006  1.00  0.00    -0.388 OA
ATOM     17  H   UNL     1     130.815 141.517 146.402  1.00  0.00     0.211 HD
ENDBRANCH  12  16
BRANCH  14  18
ATOM     18  O   UNL     1     130.574 138.280 146.093  1.00  0.00    -0.387 OA
ATOM     19  H   UNL     1     131.119 138.181 146.920  1.00  0.00     0.211 HD
ENDBRANCH  14  18
BRANCH  15  20
ATOM     20  O   UNL     1     131.213 137.800 143.367  1.00  0.00    -0.385 OA
ATOM     21  H   UNL     1     130.272 137.917 143.658  1.00  0.00     0.211 HD
ENDBRANCH  15  20
ENDBRANCH   8   9
ENDBRANCH   7   8
ENDBRANCH   1   7
BRANCH   2  22
ATOM     22  O   UNL     1     131.209 140.282 139.922  1.00  0.00    -0.387 OA
ATOM     23  H   UNL     1     131.099 141.233 140.184  1.00  0.00     0.211 HD
ENDBRANCH   2  22
BRANCH   3  24
ATOM     24  O   UNL     1     132.574 138.247 138.436  1.00  0.00    -0.387 OA
ATOM     25  H   UNL     1     133.248 137.532 138.525  1.00  0.00     0.211 HD
ENDBRANCH   3  24
BRANCH   5  26
ATOM     26  O   UNL     1     135.290 141.627 138.686  1.00  0.00    -0.454 OA
BRANCH  26  27
ATOM     27  C   UNL     1     136.435 142.360 138.349  1.00  0.00     0.214 A 
ATOM     28  C   UNL     1     136.383 143.583 137.632  1.00  0.00     0.180 A 
ATOM     29  C   UNL     1     137.684 141.859 138.745  1.00  0.00     0.239 A 
ATOM     30  O   UNL     1     137.516 144.261 137.462  1.00  0.00    -0.452 OA
ATOM     31  C   UNL     1     138.846 142.651 138.605  1.00  0.00     0.111 A 
ATOM     32  O   UNL     1     137.747 140.685 139.182  1.00  0.00    -0.285 OA
ATOM     33  C   UNL     1     138.700 143.875 137.915  1.00  0.00     0.146 A 
ATOM     34  C   UNL     1     140.137 142.291 139.091  1.00  0.00     0.134 A 
ATOM     35  C   UNL     1     139.803 144.698 137.679  1.00  0.00     0.094 A 
ATOM     36  C   UNL     1     141.233 143.121 138.816  1.00  0.00     0.093 A 
ATOM     37  C   UNL     1     141.071 144.323 138.120  1.00  0.00     0.123 A 
BRANCH  28  38
ATOM     38  C   UNL     1     135.157 144.196 137.012  1.00  0.00     0.025 A 
ATOM     39  C   UNL     1     134.894 144.238 135.622  1.00  0.00     0.062 A 
ATOM     40  C   UNL     1     134.213 144.812 137.871  1.00  0.00     0.016 A 
ATOM     41  C   UNL     1     133.715 144.806 135.119  1.00  0.00     0.158 A 
ATOM     42  C   UNL     1     133.068 145.429 137.368  1.00  0.00     0.051 A 
ATOM     43  C   UNL     1     132.809 145.422 135.994  1.00  0.00     0.157 A 
BRANCH  41  44
ATOM     44  O   UNL     1     133.459 144.753 133.748  1.00  0.00    -0.504 OA
ATOM     45  H   UNL     1     132.952 145.485 133.260  1.00  0.00     0.293 HD
ENDBRANCH  41  44
BRANCH  43  46
ATOM     46  O   UNL     1     131.663 146.039 135.494  1.00  0.00    -0.504 OA
ATOM     47  H   UNL     1     131.045 146.582 136.086  1.00  0.00     0.293 HD
ENDBRANCH  43  46
ENDBRANCH  28  38
BRANCH  34  48
ATOM     48  O   UNL     1     140.397 141.154 139.866  1.00  0.00    -0.507 OA
ATOM     49  H   UNL     1     141.313 140.827 140.120  1.00  0.00     0.293 HD
ENDBRANCH  34  48
BRANCH  37  50
ATOM     50  O   UNL     1     142.161 145.152 137.861  1.00  0.00    -0.508 OA
ATOM     51  H   UNL     1     142.226 145.700 137.013  1.00  0.00     0.293 HD
ENDBRANCH  37  50
ENDBRANCH  26  27
ENDBRANCH   5  26
BRANCH   4  52
ATOM     52  O   UNL     1     134.929 138.178 139.902  1.00  0.00    -0.384 OA
ATOM     53  H   UNL     1     135.325 138.550 140.735  1.00  0.00     0.211 HD
ENDBRANCH   4  52
TORSDOF 16
ENDMDL
MODEL 4
REMARK VINA RESULT:    -6.292      2.870      9.455
REMARK INTER + INTRA:         -11.370
REMARK INTER:                 -10.442
REMARK INTRA:                  -0.928
REMARK UNBOUND:                -1.033
REMARK SMILES C[C@H]1O[C@H](OC[C@H]2O[C@H](Oc3c(-c4ccc(O)c(O)c4)oc4cc(O)cc(O)c4c3=O)[C@@H](O)[C@@H](O)[C@@H]2O)[C@H](O)[C@@H](O)[C@@H]1O
REMARK SMILES IDX 7 1 36 2 34 3 32 4 9 5 8 6 6 7 5 8 4 9 1 10 2 11 42 12 3 13
REMARK SMILES IDX 40 14 38 15 43 16 41 18 39 20 37 22 35 24 10 26 11 27 12 28
REMARK SMILES IDX 30 29 21 30 29 31 31 32 22 33 27 34 23 35 26 36 24 37 13 38
REMARK SMILES IDX 20 39 14 40 18 41 15 42 16 43 19 44 17 46 28 48 25 50 33 52
REMARK H PARENT 43 17 41 19 39 21 37 23 35 25 19 45 17 47 28 49 25 51 33 53
REMARK Flexibility Score: inf
ROOT
ATOM      1  C   UNL     1     134.586 140.719 139.802  1.00  0.00     0.180 C 
ATOM      2  C   UNL     1     134.307 140.616 141.321  1.00  0.00     0.177 C 
ATOM      3  C   UNL     1     133.961 142.008 141.878  1.00  0.00     0.180 C 
ATOM      4  C   UNL     1     132.841 142.651 141.038  1.00  0.00     0.214 C 
ATOM      5  C   UNL     1     133.216 142.622 139.545  1.00  0.00     0.339 C 
ATOM      6  O   UNL     1     133.477 141.294 139.125  1.00  0.00    -0.332 OA
ENDROOT
BRANCH   1   7
ATOM      7  C   UNL     1     134.815 139.335 139.160  1.00  0.00     0.198 C 
BRANCH   7   8
ATOM      8  O   UNL     1     133.666 138.702 138.622  1.00  0.00    -0.347 OA
BRANCH   8   9
ATOM      9  C   UNL     1     132.736 138.151 139.557  1.00  0.00     0.281 C 
ATOM     10  C   UNL     1     130.260 136.954 137.108  1.00  0.00     0.041 C 
ATOM     11  C   UNL     1     131.624 137.063 137.805  1.00  0.00     0.150 C 
ATOM     12  C   UNL     1     132.102 135.650 138.257  1.00  0.00     0.174 C 
ATOM     13  O   UNL     1     131.491 137.960 138.904  1.00  0.00    -0.344 OA
ATOM     14  C   UNL     1     133.345 135.739 139.167  1.00  0.00     0.179 C 
ATOM     15  C   UNL     1     133.105 136.811 140.234  1.00  0.00     0.202 C 
BRANCH  12  16
ATOM     16  O   UNL     1     132.437 134.878 137.129  1.00  0.00    -0.388 OA
ATOM     17  H   UNL     1     131.725 134.186 137.025  1.00  0.00     0.211 HD
ENDBRANCH  12  16
BRANCH  14  18
ATOM     18  O   UNL     1     133.570 134.503 139.793  1.00  0.00    -0.387 OA
ATOM     19  H   UNL     1     133.957 133.898 139.104  1.00  0.00     0.211 HD
ENDBRANCH  14  18
BRANCH  15  20
ATOM     20  O   UNL     1     134.209 136.949 141.090  1.00  0.00    -0.385 OA
ATOM     21  H   UNL     1     133.984 136.503 141.946  1.00  0.00     0.211 HD
ENDBRANCH  15  20
ENDBRANCH   8   9
ENDBRANCH   7   8
ENDBRANCH   1   7
BRANCH   2  22
ATOM     22  O   UNL     1     135.441 140.117 141.980  1.00  0.00    -0.387 OA
ATOM     23  H   UNL     1     135.776 139.350 141.448  1.00  0.00     0.211 HD
ENDBRANCH   2  22
BRANCH   3  24
ATOM     24  O   UNL     1     133.575 141.902 143.223  1.00  0.00    -0.387 OA
ATOM     25  H   UNL     1     132.591 141.823 143.239  1.00  0.00     0.211 HD
ENDBRANCH   3  24
BRANCH   5  26
ATOM     26  O   UNL     1     134.329 143.475 139.246  1.00  0.00    -0.454 OA
BRANCH  26  27
ATOM     27  C   UNL     1     134.555 143.983 137.960  1.00  0.00     0.214 A 
ATOM     28  C   UNL     1     135.798 143.854 137.288  1.00  0.00     0.180 A 
ATOM     29  C   UNL     1     133.500 144.642 137.312  1.00  0.00     0.239 A 
ATOM     30  O   UNL     1     135.876 144.267 136.025  1.00  0.00    -0.452 OA
ATOM     31  C   UNL     1     133.610 144.996 135.949  1.00  0.00     0.111 A 
ATOM     32  O   UNL     1     132.482 144.944 137.981  1.00  0.00    -0.285 OA
ATOM     33  C   UNL     1     134.870 144.796 135.342  1.00  0.00     0.146 A 
ATOM     34  C   UNL     1     132.554 145.548 135.166  1.00  0.00     0.134 A 
ATOM     35  C   UNL     1     135.090 145.168 134.015  1.00  0.00     0.094 A 
ATOM     36  C   UNL     1     132.810 145.940 133.843  1.00  0.00     0.093 A 
ATOM     37  C   UNL     1     134.068 145.746 133.264  1.00  0.00     0.123 A 
BRANCH  28  38
ATOM     38  C   UNL     1     137.071 143.306 137.875  1.00  0.00     0.025 A 
ATOM     39  C   UNL     1     137.151 142.141 138.673  1.00  0.00     0.062 A 
ATOM     40  C   UNL     1     138.271 144.025 137.649  1.00  0.00     0.016 A 
ATOM     41  C   UNL     1     138.380 141.678 139.165  1.00  0.00     0.158 A 
ATOM     42  C   UNL     1     139.484 143.597 138.187  1.00  0.00     0.051 A 
ATOM     43  C   UNL     1     139.547 142.420 138.938  1.00  0.00     0.157 A 
BRANCH  41  44
ATOM     44  O   UNL     1     138.424 140.479 139.880  1.00  0.00    -0.504 OA
ATOM     45  H   UNL     1     139.250 140.179 140.388  1.00  0.00     0.293 HD
ENDBRANCH  41  44
BRANCH  43  46
ATOM     46  O   UNL     1     140.762 141.995 139.474  1.00  0.00    -0.504 OA
ATOM     47  H   UNL     1     140.950 142.025 140.469  1.00  0.00     0.293 HD
ENDBRANCH  43  46
ENDBRANCH  28  38
BRANCH  34  48
ATOM     48  O   UNL     1     131.240 145.710 135.618  1.00  0.00    -0.507 OA
ATOM     49  H   UNL     1     130.633 144.963 135.907  1.00  0.00     0.293 HD
ENDBRANCH  34  48
BRANCH  37  50
ATOM     50  O   UNL     1     134.314 146.123 131.945  1.00  0.00    -0.508 OA
ATOM     51  H   UNL     1     135.114 146.688 131.692  1.00  0.00     0.293 HD
ENDBRANCH  37  50
ENDBRANCH  26  27
ENDBRANCH   5  26
BRANCH   4  52
ATOM     52  O   UNL     1     131.647 141.934 141.228  1.00  0.00    -0.384 OA
ATOM     53  H   UNL     1     131.602 141.668 142.186  1.00  0.00     0.211 HD
ENDBRANCH   4  52
TORSDOF 16
ENDMDL
MODEL 5
REMARK VINA RESULT:    -6.223      2.741      9.126
REMARK INTER + INTRA:         -11.257
REMARK INTER:                  -9.730
REMARK INTRA:                  -1.528
REMARK UNBOUND:                -1.033
REMARK SMILES C[C@H]1O[C@H](OC[C@H]2O[C@H](Oc3c(-c4ccc(O)c(O)c4)oc4cc(O)cc(O)c4c3=O)[C@@H](O)[C@@H](O)[C@@H]2O)[C@H](O)[C@@H](O)[C@@H]1O
REMARK SMILES IDX 7 1 36 2 34 3 32 4 9 5 8 6 6 7 5 8 4 9 1 10 2 11 42 12 3 13
REMARK SMILES IDX 40 14 38 15 43 16 41 18 39 20 37 22 35 24 10 26 11 27 12 28
REMARK SMILES IDX 30 29 21 30 29 31 31 32 22 33 27 34 23 35 26 36 24 37 13 38
REMARK SMILES IDX 20 39 14 40 18 41 15 42 16 43 19 44 17 46 28 48 25 50 33 52
REMARK H PARENT 43 17 41 19 39 21 37 23 35 25 19 45 17 47 28 49 25 51 33 53
REMARK Flexibility Score: inf
ROOT
ATOM      1  C   UNL     1     132.769 139.830 140.285  1.00  0.00     0.180 C 
ATOM      2  C   UNL     1     133.362 139.692 141.708  1.00  0.00     0.177 C 
ATOM      3  C   UNL     1     134.673 140.493 141.800  1.00  0.00     0.180 C 
ATOM      4  C   UNL     1     134.448 141.936 141.311  1.00  0.00     0.214 C 
ATOM      5  C   UNL     1     133.787 141.926 139.920  1.00  0.00     0.339 C 
ATOM      6  O   UNL     1     132.572 141.197 139.953  1.00  0.00    -0.332 OA
ENDROOT
BRANCH   1   7
ATOM      7  C   UNL     1     131.388 139.153 140.166  1.00  0.00     0.198 C 
BRANCH   7   8
ATOM      8  O   UNL     1     131.224 138.263 139.075  1.00  0.00    -0.347 OA
BRANCH   8   9
ATOM      9  C   UNL     1     130.671 136.978 139.369  1.00  0.00     0.281 C 
ATOM     10  C   UNL     1     130.801 135.617 135.950  1.00  0.00     0.041 C 
ATOM     11  C   UNL     1     131.341 136.210 137.259  1.00  0.00     0.150 C 
ATOM     12  C   UNL     1     132.446 135.281 137.846  1.00  0.00     0.174 C 
ATOM     13  O   UNL     1     130.247 136.375 138.156  1.00  0.00    -0.344 OA
ATOM     14  C   UNL     1     132.845 135.712 139.273  1.00  0.00     0.179 C 
ATOM     15  C   UNL     1     131.576 135.955 140.094  1.00  0.00     0.202 C 
BRANCH  12  16
ATOM     16  O   UNL     1     133.594 135.334 137.033  1.00  0.00    -0.388 OA
ATOM     17  H   UNL     1     133.740 136.292 136.794  1.00  0.00     0.211 HD
ENDBRANCH  12  16
BRANCH  14  18
ATOM     18  O   UNL     1     133.606 134.702 139.883  1.00  0.00    -0.387 OA
ATOM     19  H   UNL     1     134.078 135.123 140.652  1.00  0.00     0.211 HD
ENDBRANCH  14  18
BRANCH  15  20
ATOM     20  O   UNL     1     131.873 136.362 141.404  1.00  0.00    -0.385 OA
ATOM     21  H   UNL     1     131.020 136.405 141.907  1.00  0.00     0.211 HD
ENDBRANCH  15  20
ENDBRANCH   8   9
ENDBRANCH   7   8
ENDBRANCH   1   7
BRANCH   2  22
ATOM     22  O   UNL     1     133.619 138.341 141.987  1.00  0.00    -0.387 OA
ATOM     23  H   UNL     1     133.094 137.803 141.341  1.00  0.00     0.211 HD
ENDBRANCH   2  22
BRANCH   3  24
ATOM     24  O   UNL     1     135.146 140.484 143.122  1.00  0.00    -0.387 OA
ATOM     25  H   UNL     1     134.553 139.888 143.640  1.00  0.00     0.211 HD
ENDBRANCH   3  24
BRANCH   5  26
ATOM     26  O   UNL     1     134.660 141.409 138.906  1.00  0.00    -0.454 OA
BRANCH  26  27
ATOM     27  C   UNL     1     135.904 141.988 138.628  1.00  0.00     0.214 A 
ATOM     28  C   UNL     1     136.047 143.187 137.883  1.00  0.00     0.180 A 
ATOM     29  C   UNL     1     137.056 141.353 139.116  1.00  0.00     0.239 A 
ATOM     30  O   UNL     1     137.263 143.718 137.773  1.00  0.00    -0.452 OA
ATOM     31  C   UNL     1     138.312 141.994 139.036  1.00  0.00     0.111 A 
ATOM     32  O   UNL     1     136.947 140.193 139.582  1.00  0.00    -0.285 OA
ATOM     33  C   UNL     1     138.360 143.206 138.312  1.00  0.00     0.146 A 
ATOM     34  C   UNL     1     139.517 141.495 139.614  1.00  0.00     0.134 A 
ATOM     35  C   UNL     1     139.569 143.882 138.131  1.00  0.00     0.094 A 
ATOM     36  C   UNL     1     140.721 142.179 139.393  1.00  0.00     0.093 A 
ATOM     37  C   UNL     1     140.751 143.370 138.663  1.00  0.00     0.123 A 
BRANCH  28  38
ATOM     38  C   UNL     1     134.946 143.925 137.171  1.00  0.00     0.025 A 
ATOM     39  C   UNL     1     134.798 143.984 135.765  1.00  0.00     0.062 A 
ATOM     40  C   UNL     1     134.012 144.646 137.955  1.00  0.00     0.016 A 
ATOM     41  C   UNL     1     133.730 144.674 135.173  1.00  0.00     0.158 A 
ATOM     42  C   UNL     1     132.983 145.380 137.365  1.00  0.00     0.051 A 
ATOM     43  C   UNL     1     132.832 145.391 135.976  1.00  0.00     0.157 A 
BRANCH  41  44
ATOM     44  O   UNL     1     133.576 144.638 133.785  1.00  0.00    -0.504 OA
ATOM     45  H   UNL     1     133.021 145.323 133.282  1.00  0.00     0.293 HD
ENDBRANCH  41  44
BRANCH  43  46
ATOM     46  O   UNL     1     131.801 146.125 135.389  1.00  0.00    -0.504 OA
ATOM     47  H   UNL     1     131.193 146.724 135.933  1.00  0.00     0.293 HD
ENDBRANCH  43  46
ENDBRANCH  28  38
BRANCH  34  48
ATOM     48  O   UNL     1     139.587 140.359 140.429  1.00  0.00    -0.507 OA
ATOM     49  H   UNL     1     140.318 139.669 140.396  1.00  0.00     0.293 HD
ENDBRANCH  34  48
BRANCH  37  50
ATOM     50  O   UNL     1     141.948 144.054 138.458  1.00  0.00    -0.508 OA
ATOM     51  H   UNL     1     142.523 144.367 139.229  1.00  0.00     0.293 HD
ENDBRANCH  37  50
ENDBRANCH  26  27
ENDBRANCH   5  26
BRANCH   4  52
ATOM     52  O   UNL     1     133.607 142.608 142.216  1.00  0.00    -0.384 OA
ATOM     53  H   UNL     1     134.062 143.452 142.482  1.00  0.00     0.211 HD
ENDBRANCH   4  52
TORSDOF 16
ENDMDL
MODEL 6
REMARK VINA RESULT:    -5.996      2.080      3.214
REMARK INTER + INTRA:         -10.884
REMARK INTER:                  -9.461
REMARK INTRA:                  -1.423
REMARK UNBOUND:                -1.033
REMARK SMILES C[C@H]1O[C@H](OC[C@H]2O[C@H](Oc3c(-c4ccc(O)c(O)c4)oc4cc(O)cc(O)c4c3=O)[C@@H](O)[C@@H](O)[C@@H]2O)[C@H](O)[C@@H](O)[C@@H]1O
REMARK SMILES IDX 7 1 36 2 34 3 32 4 9 5 8 6 6 7 5 8 4 9 1 10 2 11 42 12 3 13
REMARK SMILES IDX 40 14 38 15 43 16 41 18 39 20 37 22 35 24 10 26 11 27 12 28
REMARK SMILES IDX 30 29 21 30 29 31 31 32 22 33 27 34 23 35 26 36 24 37 13 38
REMARK SMILES IDX 20 39 14 40 18 41 15 42 16 43 19 44 17 46 28 48 25 50 33 52
REMARK H PARENT 43 17 41 19 39 21 37 23 35 25 19 45 17 47 28 49 25 51 33 53
REMARK Flexibility Score: inf
ROOT
ATOM      1  C   UNL     1     136.485 140.534 140.089  1.00  0.00     0.180 C 
ATOM      2  C   UNL     1     135.931 139.880 138.800  1.00  0.00     0.177 C 
ATOM      3  C   UNL     1     134.545 139.274 139.085  1.00  0.00     0.180 C 
ATOM      4  C   UNL     1     133.632 140.325 139.743  1.00  0.00     0.214 C 
ATOM      5  C   UNL     1     134.334 140.945 140.965  1.00  0.00     0.339 C 
ATOM      6  O   UNL     1     135.579 141.507 140.589  1.00  0.00    -0.332 OA
ENDROOT
BRANCH   1   7
ATOM      7  C   UNL     1     137.816 141.271 139.836  1.00  0.00     0.198 C 
BRANCH   7   8
ATOM      8  O   UNL     1     138.002 141.789 138.530  1.00  0.00    -0.347 OA
BRANCH   8   9
ATOM      9  C   UNL     1     139.343 141.829 138.037  1.00  0.00     0.281 C 
ATOM     10  C   UNL     1     138.837 144.460 135.510  1.00  0.00     0.041 C 
ATOM     11  C   UNL     1     138.865 143.827 136.908  1.00  0.00     0.150 C 
ATOM     12  C   UNL     1     139.753 144.684 137.860  1.00  0.00     0.174 C 
ATOM     13  O   UNL     1     139.349 142.493 136.782  1.00  0.00    -0.344 OA
ATOM     14  C   UNL     1     140.003 143.962 139.201  1.00  0.00     0.179 C 
ATOM     15  C   UNL     1     140.413 142.514 138.919  1.00  0.00     0.202 C 
BRANCH  12  16
ATOM     16  O   UNL     1     139.115 145.908 138.132  1.00  0.00    -0.388 OA
ATOM     17  H   UNL     1     138.226 145.693 138.531  1.00  0.00     0.211 HD
ENDBRANCH  12  16
BRANCH  14  18
ATOM     18  O   UNL     1     141.032 144.606 139.907  1.00  0.00    -0.387 OA
ATOM     19  H   UNL     1     141.312 145.386 139.358  1.00  0.00     0.211 HD
ENDBRANCH  14  18
BRANCH  15  20
ATOM     20  O   UNL     1     140.645 141.798 140.103  1.00  0.00    -0.385 OA
ATOM     21  H   UNL     1     140.266 142.325 140.853  1.00  0.00     0.211 HD
ENDBRANCH  15  20
ENDBRANCH   8   9
ENDBRANCH   7   8
ENDBRANCH   1   7
BRANCH   2  22
ATOM     22  O   UNL     1     136.802 138.870 138.365  1.00  0.00    -0.387 OA
ATOM     23  H   UNL     1     136.979 139.030 137.403  1.00  0.00     0.211 HD
ENDBRANCH   2  22
BRANCH   3  24
ATOM     24  O   UNL     1     133.977 138.800 137.892  1.00  0.00    -0.387 OA
ATOM     25  H   UNL     1     133.910 137.818 137.970  1.00  0.00     0.211 HD
ENDBRANCH   3  24
BRANCH   5  26
ATOM     26  O   UNL     1     134.507 140.001 142.032  1.00  0.00    -0.454 OA
BRANCH  26  27
ATOM     27  C   UNL     1     133.523 139.788 143.005  1.00  0.00     0.214 A 
ATOM     28  C   UNL     1     132.588 138.723 142.935  1.00  0.00     0.180 A 
ATOM     29  C   UNL     1     133.468 140.667 144.097  1.00  0.00     0.239 A 
ATOM     30  O   UNL     1     131.768 138.537 143.967  1.00  0.00    -0.452 OA
ATOM     31  C   UNL     1     132.629 140.383 145.198  1.00  0.00     0.111 A 
ATOM     32  O   UNL     1     134.143 141.723 144.050  1.00  0.00    -0.285 OA
ATOM     33  C   UNL     1     131.759 139.279 145.065  1.00  0.00     0.146 A 
ATOM     34  C   UNL     1     132.596 141.139 146.408  1.00  0.00     0.134 A 
ATOM     35  C   UNL     1     130.855 138.957 146.079  1.00  0.00     0.094 A 
ATOM     36  C   UNL     1     131.658 140.810 147.398  1.00  0.00     0.093 A 
ATOM     37  C   UNL     1     130.796 139.722 147.242  1.00  0.00     0.123 A 
BRANCH  28  38
ATOM     38  C   UNL     1     132.410 137.774 141.781  1.00  0.00     0.025 A 
ATOM     39  C   UNL     1     133.335 136.768 141.418  1.00  0.00     0.062 A 
ATOM     40  C   UNL     1     131.255 137.918 140.973  1.00  0.00     0.016 A 
ATOM     41  C   UNL     1     133.087 135.903 140.341  1.00  0.00     0.158 A 
ATOM     42  C   UNL     1     131.036 137.097 139.867  1.00  0.00     0.051 A 
ATOM     43  C   UNL     1     131.943 136.083 139.551  1.00  0.00     0.157 A 
BRANCH  41  44
ATOM     44  O   UNL     1     133.989 134.873 140.069  1.00  0.00    -0.504 OA
ATOM     45  H   UNL     1     133.967 134.345 139.201  1.00  0.00     0.293 HD
ENDBRANCH  41  44
BRANCH  43  46
ATOM     46  O   UNL     1     131.721 135.263 138.446  1.00  0.00    -0.504 OA
ATOM     47  H   UNL     1     131.125 134.445 138.496  1.00  0.00     0.293 HD
ENDBRANCH  43  46
ENDBRANCH  28  38
BRANCH  34  48
ATOM     48  O   UNL     1     133.466 142.194 146.701  1.00  0.00    -0.507 OA
ATOM     49  H   UNL     1     134.407 142.279 146.357  1.00  0.00     0.293 HD
ENDBRANCH  34  48
BRANCH  37  50
ATOM     50  O   UNL     1     129.875 139.390 148.235  1.00  0.00    -0.508 OA
ATOM     51  H   UNL     1     129.491 138.458 148.318  1.00  0.00     0.293 HD
ENDBRANCH  37  50
ENDBRANCH  26  27
ENDBRANCH   5  26
BRANCH   4  52
ATOM     52  O   UNL     1     133.343 141.339 138.813  1.00  0.00    -0.384 OA
ATOM     53  H   UNL     1     132.760 142.007 139.265  1.00  0.00     0.211 HD
ENDBRANCH   4  52
TORSDOF 16
ENDMDL
MODEL 7
REMARK VINA RESULT:    -5.891      1.665      2.461
REMARK INTER + INTRA:         -10.712
REMARK INTER:                  -8.887
REMARK INTRA:                  -1.825
REMARK UNBOUND:                -1.033
REMARK SMILES C[C@H]1O[C@H](OC[C@H]2O[C@H](Oc3c(-c4ccc(O)c(O)c4)oc4cc(O)cc(O)c4c3=O)[C@@H](O)[C@@H](O)[C@@H]2O)[C@H](O)[C@@H](O)[C@@H]1O
REMARK SMILES IDX 7 1 36 2 34 3 32 4 9 5 8 6 6 7 5 8 4 9 1 10 2 11 42 12 3 13
REMARK SMILES IDX 40 14 38 15 43 16 41 18 39 20 37 22 35 24 10 26 11 27 12 28
REMARK SMILES IDX 30 29 21 30 29 31 31 32 22 33 27 34 23 35 26 36 24 37 13 38
REMARK SMILES IDX 20 39 14 40 18 41 15 42 16 43 19 44 17 46 28 48 25 50 33 52
REMARK H PARENT 43 17 41 19 39 21 37 23 35 25 19 45 17 47 28 49 25 51 33 53
REMARK Flexibility Score: inf
ROOT
ATOM      1  C   UNL     1     136.695 140.525 140.057  1.00  0.00     0.180 C 
ATOM      2  C   UNL     1     136.155 139.941 138.730  1.00  0.00     0.177 C 
ATOM      3  C   UNL     1     134.741 139.374 138.953  1.00  0.00     0.180 C 
ATOM      4  C   UNL     1     133.847 140.430 139.627  1.00  0.00     0.214 C 
ATOM      5  C   UNL     1     134.536 140.979 140.891  1.00  0.00     0.339 C 
ATOM      6  O   UNL     1     135.809 141.510 140.571  1.00  0.00    -0.332 OA
ENDROOT
BRANCH   1   7
ATOM      7  C   UNL     1     138.057 141.224 139.870  1.00  0.00     0.198 C 
BRANCH   7   8
ATOM      8  O   UNL     1     138.257 141.872 138.625  1.00  0.00    -0.347 OA
BRANCH   8   9
ATOM      9  C   UNL     1     138.222 143.301 138.629  1.00  0.00     0.281 C 
ATOM     10  C   UNL     1     141.861 143.860 138.694  1.00  0.00     0.041 C 
ATOM     11  C   UNL     1     140.516 143.355 138.153  1.00  0.00     0.150 C 
ATOM     12  C   UNL     1     140.296 143.884 136.704  1.00  0.00     0.174 C 
ATOM     13  O   UNL     1     139.490 143.787 139.043  1.00  0.00    -0.344 OA
ATOM     14  C   UNL     1     138.861 143.603 136.213  1.00  0.00     0.179 C 
ATOM     15  C   UNL     1     137.870 144.017 137.305  1.00  0.00     0.202 C 
BRANCH  12  16
ATOM     16  O   UNL     1     141.194 143.251 135.825  1.00  0.00    -0.388 OA
ATOM     17  H   UNL     1     140.805 143.319 134.908  1.00  0.00     0.211 HD
ENDBRANCH  12  16
BRANCH  14  18
ATOM     18  O   UNL     1     138.599 144.341 135.047  1.00  0.00    -0.387 OA
ATOM     19  H   UNL     1     137.626 144.249 134.861  1.00  0.00     0.211 HD
ENDBRANCH  14  18
BRANCH  15  20
ATOM     20  O   UNL     1     136.542 143.774 136.922  1.00  0.00    -0.385 OA
ATOM     21  H   UNL     1     136.300 144.444 136.233  1.00  0.00     0.211 HD
ENDBRANCH  15  20
ENDBRANCH   8   9
ENDBRANCH   7   8
ENDBRANCH   1   7
BRANCH   2  22
ATOM     22  O   UNL     1     137.003 138.919 138.279  1.00  0.00    -0.387 OA
ATOM     23  H   UNL     1     137.324 138.430 139.080  1.00  0.00     0.211 HD
ENDBRANCH   2  22
BRANCH   3  24
ATOM     24  O   UNL     1     134.192 138.966 137.727  1.00  0.00    -0.387 OA
ATOM     25  H   UNL     1     134.889 138.456 137.250  1.00  0.00     0.211 HD
ENDBRANCH   3  24
BRANCH   5  26
ATOM     26  O   UNL     1     134.646 139.989 141.924  1.00  0.00    -0.454 OA
BRANCH  26  27
ATOM     27  C   UNL     1     133.636 139.787 142.873  1.00  0.00     0.214 A 
ATOM     28  C   UNL     1     132.664 138.759 142.756  1.00  0.00     0.180 A 
ATOM     29  C   UNL     1     133.592 140.637 143.987  1.00  0.00     0.239 A 
ATOM     30  O   UNL     1     131.818 138.576 143.767  1.00  0.00    -0.452 OA
ATOM     31  C   UNL     1     132.722 140.355 145.065  1.00  0.00     0.111 A 
ATOM     32  O   UNL     1     134.307 141.668 143.982  1.00  0.00    -0.285 OA
ATOM     33  C   UNL     1     131.815 139.289 144.885  1.00  0.00     0.146 A 
ATOM     34  C   UNL     1     132.693 141.078 146.294  1.00  0.00     0.134 A 
ATOM     35  C   UNL     1     130.879 138.973 145.873  1.00  0.00     0.094 A 
ATOM     36  C   UNL     1     131.725 140.759 147.258  1.00  0.00     0.093 A 
ATOM     37  C   UNL     1     130.826 139.708 147.056  1.00  0.00     0.123 A 
BRANCH  28  38
ATOM     38  C   UNL     1     132.473 137.849 141.573  1.00  0.00     0.025 A 
ATOM     39  C   UNL     1     133.264 136.708 141.301  1.00  0.00     0.062 A 
ATOM     40  C   UNL     1     131.457 138.174 140.641  1.00  0.00     0.016 A 
ATOM     41  C   UNL     1     133.010 135.892 140.189  1.00  0.00     0.158 A 
ATOM     42  C   UNL     1     131.241 137.396 139.503  1.00  0.00     0.051 A 
ATOM     43  C   UNL     1     132.008 136.250 139.276  1.00  0.00     0.157 A 
BRANCH  41  44
ATOM     44  O   UNL     1     133.763 134.732 140.004  1.00  0.00    -0.504 OA
ATOM     45  H   UNL     1     133.336 133.832 139.805  1.00  0.00     0.293 HD
ENDBRANCH  41  44
BRANCH  43  46
ATOM     46  O   UNL     1     131.788 135.475 138.139  1.00  0.00    -0.504 OA
ATOM     47  H   UNL     1     131.402 134.539 138.194  1.00  0.00     0.293 HD
ENDBRANCH  43  46
ENDBRANCH  28  38
BRANCH  34  48
ATOM     48  O   UNL     1     133.596 142.092 146.633  1.00  0.00    -0.507 OA
ATOM     49  H   UNL     1     134.137 142.124 147.480  1.00  0.00     0.293 HD
ENDBRANCH  34  48
BRANCH  37  50
ATOM     50  O   UNL     1     129.875 139.384 148.022  1.00  0.00    -0.508 OA
ATOM     51  H   UNL     1     129.658 140.008 148.788  1.00  0.00     0.293 HD
ENDBRANCH  37  50
ENDBRANCH  26  27
ENDBRANCH   5  26
BRANCH   4  52
ATOM     52  O   UNL     1     133.619 141.489 138.730  1.00  0.00    -0.384 OA
ATOM     53  H   UNL     1     134.354 141.481 138.060  1.00  0.00     0.211 HD
ENDBRANCH   4  52
TORSDOF 16
ENDMDL
MODEL 8
REMARK VINA RESULT:    -5.529      2.353      9.327
REMARK INTER + INTRA:         -10.118
REMARK INTER:                  -8.045
REMARK INTRA:                  -2.072
REMARK UNBOUND:                -1.033
REMARK SMILES C[C@H]1O[C@H](OC[C@H]2O[C@H](Oc3c(-c4ccc(O)c(O)c4)oc4cc(O)cc(O)c4c3=O)[C@@H](O)[C@@H](O)[C@@H]2O)[C@H](O)[C@@H](O)[C@@H]1O
REMARK SMILES IDX 7 1 36 2 34 3 32 4 9 5 8 6 6 7 5 8 4 9 1 10 2 11 42 12 3 13
REMARK SMILES IDX 40 14 38 15 43 16 41 18 39 20 37 22 35 24 10 26 11 27 12 28
REMARK SMILES IDX 30 29 21 30 29 31 31 32 22 33 27 34 23 35 26 36 24 37 13 38
REMARK SMILES IDX 20 39 14 40 18 41 15 42 16 43 19 44 17 46 28 48 25 50 33 52
REMARK H PARENT 43 17 41 19 39 21 37 23 35 25 19 45 17 47 28 49 25 51 33 53
REMARK Flexibility Score: inf
ROOT
ATOM      1  C   UNL     1     133.611 139.442 139.542  1.00  0.00     0.180 C 
ATOM      2  C   UNL     1     134.011 139.403 141.037  1.00  0.00     0.177 C 
ATOM      3  C   UNL     1     135.103 140.454 141.306  1.00  0.00     0.180 C 
ATOM      4  C   UNL     1     134.660 141.828 140.771  1.00  0.00     0.214 C 
ATOM      5  C   UNL     1     134.220 141.708 139.300  1.00  0.00     0.339 C 
ATOM      6  O   UNL     1     133.189 140.745 139.168  1.00  0.00    -0.332 OA
ENDROOT
BRANCH   1   7
ATOM      7  C   UNL     1     132.430 138.499 139.236  1.00  0.00     0.198 C 
BRANCH   7   8
ATOM      8  O   UNL     1     131.831 137.867 140.355  1.00  0.00    -0.347 OA
BRANCH   8   9
ATOM      9  C   UNL     1     130.537 138.333 140.742  1.00  0.00     0.281 C 
ATOM     10  C   UNL     1     129.875 135.789 143.322  1.00  0.00     0.041 C 
ATOM     11  C   UNL     1     130.608 136.948 142.632  1.00  0.00     0.150 C 
ATOM     12  C   UNL     1     130.749 138.147 143.618  1.00  0.00     0.174 C 
ATOM     13  O   UNL     1     129.877 137.301 141.461  1.00  0.00    -0.344 OA
ATOM     14  C   UNL     1     131.262 139.412 142.898  1.00  0.00     0.179 C 
ATOM     15  C   UNL     1     130.461 139.611 141.608  1.00  0.00     0.202 C 
BRANCH  12  16
ATOM     16  O   UNL     1     131.663 137.820 144.637  1.00  0.00    -0.388 OA
ATOM     17  H   UNL     1     131.420 138.366 145.436  1.00  0.00     0.211 HD
ENDBRANCH  12  16
BRANCH  14  18
ATOM     18  O   UNL     1     131.096 140.535 143.725  1.00  0.00    -0.387 OA
ATOM     19  H   UNL     1     131.994 140.952 143.826  1.00  0.00     0.211 HD
ENDBRANCH  14  18
BRANCH  15  20
ATOM     20  O   UNL     1     130.889 140.744 140.899  1.00  0.00    -0.385 OA
ATOM     21  H   UNL     1     131.772 141.012 141.263  1.00  0.00     0.211 HD
ENDBRANCH  15  20
ENDBRANCH   8   9
ENDBRANCH   7   8
ENDBRANCH   1   7
BRANCH   2  22
ATOM     22  O   UNL     1     134.497 138.129 141.367  1.00  0.00    -0.387 OA
ATOM     23  H   UNL     1     133.915 137.771 142.086  1.00  0.00     0.211 HD
ENDBRANCH   2  22
BRANCH   3  24
ATOM     24  O   UNL     1     135.375 140.520 142.682  1.00  0.00    -0.387 OA
ATOM     25  H   UNL     1     135.125 139.647 143.070  1.00  0.00     0.211 HD
ENDBRANCH   3  24
BRANCH   5  26
ATOM     26  O   UNL     1     135.316 141.397 138.428  1.00  0.00    -0.454 OA
BRANCH  26  27
ATOM     27  C   UNL     1     136.438 142.227 138.317  1.00  0.00     0.214 A 
ATOM     28  C   UNL     1     136.377 143.535 137.768  1.00  0.00     0.180 A 
ATOM     29  C   UNL     1     137.672 141.742 138.774  1.00  0.00     0.239 A 
ATOM     30  O   UNL     1     137.474 144.287 137.814  1.00  0.00    -0.452 OA
ATOM     31  C   UNL     1     138.787 142.604 138.868  1.00  0.00     0.111 A 
ATOM     32  O   UNL     1     137.768 140.523 139.055  1.00  0.00    -0.285 OA
ATOM     33  C   UNL     1     138.630 143.903 138.336  1.00  0.00     0.146 A 
ATOM     34  C   UNL     1     140.044 142.246 139.438  1.00  0.00     0.134 A 
ATOM     35  C   UNL     1     139.695 144.806 138.333  1.00  0.00     0.094 A 
ATOM     36  C   UNL     1     141.105 143.162 139.396  1.00  0.00     0.093 A 
ATOM     37  C   UNL     1     140.934 144.439 138.854  1.00  0.00     0.123 A 
BRANCH  28  38
ATOM     38  C   UNL     1     135.181 144.165 137.107  1.00  0.00     0.025 A 
ATOM     39  C   UNL     1     134.979 144.231 135.709  1.00  0.00     0.062 A 
ATOM     40  C   UNL     1     134.204 144.770 137.936  1.00  0.00     0.016 A 
ATOM     41  C   UNL     1     133.824 144.814 135.166  1.00  0.00     0.158 A 
ATOM     42  C   UNL     1     133.085 145.402 137.395  1.00  0.00     0.051 A 
ATOM     43  C   UNL     1     132.885 145.420 136.012  1.00  0.00     0.157 A 
BRANCH  41  44
ATOM     44  O   UNL     1     133.628 144.786 133.784  1.00  0.00    -0.504 OA
ATOM     45  H   UNL     1     133.960 144.022 133.203  1.00  0.00     0.293 HD
ENDBRANCH  41  44
BRANCH  43  46
ATOM     46  O   UNL     1     131.764 146.051 135.474  1.00  0.00    -0.504 OA
ATOM     47  H   UNL     1     131.337 146.856 135.917  1.00  0.00     0.293 HD
ENDBRANCH  43  46
ENDBRANCH  28  38
BRANCH  34  48
ATOM     48  O   UNL     1     140.300 141.028 140.077  1.00  0.00    -0.507 OA
ATOM     49  H   UNL     1     140.899 140.303 139.720  1.00  0.00     0.293 HD
ENDBRANCH  34  48
BRANCH  37  50
ATOM     50  O   UNL     1     141.988 145.352 138.827  1.00  0.00    -0.508 OA
ATOM     51  H   UNL     1     142.342 145.783 139.671  1.00  0.00     0.293 HD
ENDBRANCH  37  50
ENDBRANCH  26  27
ENDBRANCH   5  26
BRANCH   4  52
ATOM     52  O   UNL     1     133.579 142.300 141.538  1.00  0.00    -0.384 OA
ATOM     53  H   UNL     1     132.958 142.776 140.925  1.00  0.00     0.211 HD
ENDBRANCH   4  52
TORSDOF 16
ENDMDL
