MODEL 1
REMARK VINA RESULT:    -5.252      0.000      0.000
REMARK INTER + INTRA:          -6.460
REMARK INTER:                  -6.173
REMARK INTRA:                  -0.287
REMARK UNBOUND:                -0.287
REMARK SMILES O=c1c(O)c(-c2ccc(O)cc2)oc2cc(O)cc(O)c12
REMARK SMILES IDX 5 1 3 2 2 3 1 4 21 5 19 6 18 7 16 8 15 9 14 10 13 11 6 12
REMARK SMILES IDX 7 13 8 14 9 15 12 16 11 17 10 18 4 20 20 22 17 24
REMARK H PARENT 10 19 4 21 20 23 17 25
REMARK Flexibility Score: inf
ROOT
ATOM      1  C   UNL     1     130.627 158.637 150.154  1.00  0.00     0.180 A 
ATOM      2  C   UNL     1     131.904 158.444 150.713  1.00  0.00     0.208 A 
ATOM      3  C   UNL     1     132.060 158.550 152.103  1.00  0.00     0.238 A 
ATOM      4  O   UNL     1     133.201 158.390 152.615  1.00  0.00    -0.285 OA
ATOM      5  C   UNL     1     130.938 158.825 152.912  1.00  0.00     0.111 A 
ATOM      6  C   UNL     1     131.007 158.944 154.320  1.00  0.00     0.134 A 
ATOM      7  C   UNL     1     129.843 159.211 155.055  1.00  0.00     0.093 A 
ATOM      8  C   UNL     1     128.610 159.359 154.408  1.00  0.00     0.123 A 
ATOM      9  C   UNL     1     128.536 159.243 153.019  1.00  0.00     0.094 A 
ATOM     10  C   UNL     1     129.687 158.979 152.269  1.00  0.00     0.146 A 
ATOM     11  O   UNL     1     129.588 158.880 150.948  1.00  0.00    -0.452 OA
ENDROOT
BRANCH   1  12
ATOM     12  C   UNL     1     130.386 158.560 148.695  1.00  0.00     0.021 A 
ATOM     13  C   UNL     1     130.602 159.696 147.897  1.00  0.00     0.016 A 
ATOM     14  C   UNL     1     130.402 159.639 146.515  1.00  0.00     0.047 A 
ATOM     15  C   UNL     1     129.999 158.444 145.910  1.00  0.00     0.115 A 
ATOM     16  C   UNL     1     130.000 157.355 148.078  1.00  0.00     0.016 A 
ATOM     17  C   UNL     1     129.801 157.301 146.695  1.00  0.00     0.047 A 
BRANCH  15  18
ATOM     18  O   UNL     1     129.802 158.402 144.532  1.00  0.00    -0.508 OA
ATOM     19  H   UNL     1     130.425 157.884 143.923  1.00  0.00     0.293 HD
ENDBRANCH  15  18
ENDBRANCH   1  12
BRANCH   2  20
ATOM     20  O   UNL     1     132.991 158.123 149.895  1.00  0.00    -0.502 OA
ATOM     21  H   UNL     1     133.066 158.448 148.939  1.00  0.00     0.293 HD
ENDBRANCH   2  20
BRANCH   6  22
ATOM     22  O   UNL     1     132.221 158.800 154.994  1.00  0.00    -0.507 OA
ATOM     23  H   UNL     1     132.336 158.134 155.749  1.00  0.00     0.293 HD
ENDBRANCH   6  22
BRANCH   8  24
ATOM     24  O   UNL     1     127.453 159.624 155.137  1.00  0.00    -0.508 OA
ATOM     25  H   UNL     1     126.645 159.014 155.089  1.00  0.00     0.293 HD
ENDBRANCH   8  24
TORSDOF 5
ENDMDL
MODEL 2
REMARK VINA RESULT:    -4.948      1.916      6.449
REMARK INTER + INTRA:          -6.103
REMARK INTER:                  -5.804
REMARK INTRA:                  -0.299
REMARK UNBOUND:                -0.287
REMARK SMILES O=c1c(O)c(-c2ccc(O)cc2)oc2cc(O)cc(O)c12
REMARK SMILES IDX 5 1 3 2 2 3 1 4 21 5 19 6 18 7 16 8 15 9 14 10 13 11 6 12
REMARK SMILES IDX 7 13 8 14 9 15 12 16 11 17 10 18 4 20 20 22 17 24
REMARK H PARENT 10 19 4 21 20 23 17 25
REMARK Flexibility Score: inf
ROOT
ATOM      1  C   UNL     1     129.312 159.628 153.373  1.00  0.00     0.180 A 
ATOM      2  C   UNL     1     130.632 159.619 153.864  1.00  0.00     0.208 A 
ATOM      3  C   UNL     1     131.659 159.132 153.040  1.00  0.00     0.238 A 
ATOM      4  O   UNL     1     132.843 159.109 153.472  1.00  0.00    -0.285 OA
ATOM      5  C   UNL     1     131.355 158.682 151.739  1.00  0.00     0.111 A 
ATOM      6  C   UNL     1     132.331 158.180 150.845  1.00  0.00     0.134 A 
ATOM      7  C   UNL     1     131.950 157.760 149.562  1.00  0.00     0.093 A 
ATOM      8  C   UNL     1     130.611 157.834 149.156  1.00  0.00     0.123 A 
ATOM      9  C   UNL     1     129.646 158.328 150.034  1.00  0.00     0.094 A 
ATOM     10  C   UNL     1     130.006 158.750 151.318  1.00  0.00     0.146 A 
ATOM     11  O   UNL     1     129.065 159.210 152.135  1.00  0.00    -0.452 OA
ENDROOT
BRANCH   1  12
ATOM     12  C   UNL     1     128.173 160.109 154.187  1.00  0.00     0.021 A 
ATOM     13  C   UNL     1     127.724 161.431 154.036  1.00  0.00     0.016 A 
ATOM     14  C   UNL     1     126.636 161.899 154.778  1.00  0.00     0.047 A 
ATOM     15  C   UNL     1     125.973 161.049 155.668  1.00  0.00     0.115 A 
ATOM     16  C   UNL     1     127.489 159.252 155.069  1.00  0.00     0.016 A 
ATOM     17  C   UNL     1     126.400 159.722 155.810  1.00  0.00     0.047 A 
BRANCH  15  18
ATOM     18  O   UNL     1     124.891 161.528 156.402  1.00  0.00    -0.508 OA
ATOM     19  H   UNL     1     123.935 161.352 156.114  1.00  0.00     0.293 HD
ENDBRANCH  15  18
ENDBRANCH   1  12
BRANCH   2  20
ATOM     20  O   UNL     1     130.914 160.116 155.139  1.00  0.00    -0.502 OA
ATOM     21  H   UNL     1     131.404 159.571 155.837  1.00  0.00     0.293 HD
ENDBRANCH   2  20
BRANCH   6  22
ATOM     22  O   UNL     1     133.672 158.095 151.219  1.00  0.00    -0.507 OA
ATOM     23  H   UNL     1     134.382 157.747 150.586  1.00  0.00     0.293 HD
ENDBRANCH   6  22
BRANCH   8  24
ATOM     24  O   UNL     1     130.232 157.418 147.882  1.00  0.00    -0.508 OA
ATOM     25  H   UNL     1     129.324 157.004 147.708  1.00  0.00     0.293 HD
ENDBRANCH   8  24
TORSDOF 5
ENDMDL
MODEL 3
REMARK VINA RESULT:    -4.924      7.053      8.107
REMARK INTER + INTRA:          -6.075
REMARK INTER:                  -5.870
REMARK INTRA:                  -0.205
REMARK UNBOUND:                -0.287
REMARK SMILES O=c1c(O)c(-c2ccc(O)cc2)oc2cc(O)cc(O)c12
REMARK SMILES IDX 5 1 3 2 2 3 1 4 21 5 19 6 18 7 16 8 15 9 14 10 13 11 6 12
REMARK SMILES IDX 7 13 8 14 9 15 12 16 11 17 10 18 4 20 20 22 17 24
REMARK H PARENT 10 19 4 21 20 23 17 25
REMARK Flexibility Score: inf
ROOT
ATOM      1  C   UNL     1     131.189 151.910 147.980  1.00  0.00     0.180 A 
ATOM      2  C   UNL     1     130.041 152.260 148.716  1.00  0.00     0.208 A 
ATOM      3  C   UNL     1     130.005 151.979 150.091  1.00  0.00     0.238 A 
ATOM      4  O   UNL     1     128.978 152.277 150.758  1.00  0.00    -0.285 OA
ATOM      5  C   UNL     1     131.119 151.375 150.709  1.00  0.00     0.111 A 
ATOM      6  C   UNL     1     131.165 151.063 152.088  1.00  0.00     0.134 A 
ATOM      7  C   UNL     1     132.316 150.471 152.631  1.00  0.00     0.093 A 
ATOM      8  C   UNL     1     133.421 150.186 151.819  1.00  0.00     0.123 A 
ATOM      9  C   UNL     1     133.380 150.492 150.458  1.00  0.00     0.094 A 
ATOM     10  C   UNL     1     132.241 151.081 149.898  1.00  0.00     0.146 A 
ATOM     11  O   UNL     1     132.228 151.356 148.599  1.00  0.00    -0.452 OA
ENDROOT
BRANCH   1  12
ATOM     12  C   UNL     1     131.296 152.156 146.524  1.00  0.00     0.021 A 
ATOM     13  C   UNL     1     131.179 151.078 145.630  1.00  0.00     0.016 A 
ATOM     14  C   UNL     1     131.255 151.291 144.251  1.00  0.00     0.047 A 
ATOM     15  C   UNL     1     131.432 152.583 143.746  1.00  0.00     0.115 A 
ATOM     16  C   UNL     1     131.454 153.456 146.010  1.00  0.00     0.016 A 
ATOM     17  C   UNL     1     131.529 153.666 144.629  1.00  0.00     0.047 A 
BRANCH  15  18
ATOM     18  O   UNL     1     131.507 152.781 142.369  1.00  0.00    -0.508 OA
ATOM     19  H   UNL     1     131.839 153.654 141.976  1.00  0.00     0.293 HD
ENDBRANCH  15  18
ENDBRANCH   1  12
BRANCH   2  20
ATOM     20  O   UNL     1     128.970 152.902 148.090  1.00  0.00    -0.502 OA
ATOM     21  H   UNL     1     129.061 153.814 147.659  1.00  0.00     0.293 HD
ENDBRANCH   2  20
BRANCH   6  22
ATOM     22  O   UNL     1     130.081 151.336 152.924  1.00  0.00    -0.507 OA
ATOM     23  H   UNL     1     129.995 152.217 153.416  1.00  0.00     0.293 HD
ENDBRANCH   6  22
BRANCH   8  24
ATOM     24  O   UNL     1     134.563 149.598 152.356  1.00  0.00    -0.508 OA
ATOM     25  H   UNL     1     134.964 148.757 151.958  1.00  0.00     0.293 HD
ENDBRANCH   8  24
TORSDOF 5
ENDMDL
MODEL 4
REMARK VINA RESULT:    -4.899      3.248      5.240
REMARK INTER + INTRA:          -6.045
REMARK INTER:                  -5.762
REMARK INTRA:                  -0.283
REMARK UNBOUND:                -0.287
REMARK SMILES O=c1c(O)c(-c2ccc(O)cc2)oc2cc(O)cc(O)c12
REMARK SMILES IDX 5 1 3 2 2 3 1 4 21 5 19 6 18 7 16 8 15 9 14 10 13 11 6 12
REMARK SMILES IDX 7 13 8 14 9 15 12 16 11 17 10 18 4 20 20 22 17 24
REMARK H PARENT 10 19 4 21 20 23 17 25
REMARK Flexibility Score: inf
ROOT
ATOM      1  C   UNL     1     129.674 159.475 153.620  1.00  0.00     0.180 A 
ATOM      2  C   UNL     1     129.012 160.700 153.413  1.00  0.00     0.208 A 
ATOM      3  C   UNL     1     127.825 160.957 154.115  1.00  0.00     0.238 A 
ATOM      4  O   UNL     1     127.217 162.046 153.930  1.00  0.00    -0.285 OA
ATOM      5  C   UNL     1     127.331 159.999 155.025  1.00  0.00     0.111 A 
ATOM      6  C   UNL     1     126.145 160.181 155.775  1.00  0.00     0.134 A 
ATOM      7  C   UNL     1     125.724 159.184 156.667  1.00  0.00     0.093 A 
ATOM      8  C   UNL     1     126.469 158.008 156.824  1.00  0.00     0.123 A 
ATOM      9  C   UNL     1     127.639 157.823 156.086  1.00  0.00     0.094 A 
ATOM     10  C   UNL     1     128.074 158.806 155.190  1.00  0.00     0.146 A 
ATOM     11  O   UNL     1     129.188 158.601 154.497  1.00  0.00    -0.452 OA
ENDROOT
BRANCH   1  12
ATOM     12  C   UNL     1     130.920 159.122 152.903  1.00  0.00     0.021 A 
ATOM     13  C   UNL     1     132.155 159.239 153.563  1.00  0.00     0.016 A 
ATOM     14  C   UNL     1     133.342 158.890 152.912  1.00  0.00     0.047 A 
ATOM     15  C   UNL     1     133.310 158.405 151.601  1.00  0.00     0.115 A 
ATOM     16  C   UNL     1     130.893 158.615 151.591  1.00  0.00     0.016 A 
ATOM     17  C   UNL     1     132.082 158.266 150.942  1.00  0.00     0.047 A 
BRANCH  15  18
ATOM     18  O   UNL     1     134.500 158.063 150.964  1.00  0.00    -0.508 OA
ATOM     19  H   UNL     1     135.105 157.335 151.327  1.00  0.00     0.293 HD
ENDBRANCH  15  18
ENDBRANCH   1  12
BRANCH   2  20
ATOM     20  O   UNL     1     129.548 161.653 152.543  1.00  0.00    -0.502 OA
ATOM     21  H   UNL     1     129.502 161.556 151.536  1.00  0.00     0.293 HD
ENDBRANCH   2  20
BRANCH   6  22
ATOM     22  O   UNL     1     125.382 161.343 155.642  1.00  0.00    -0.507 OA
ATOM     23  H   UNL     1     125.713 162.141 155.114  1.00  0.00     0.293 HD
ENDBRANCH   6  22
BRANCH   8  24
ATOM     24  O   UNL     1     126.052 157.018 157.710  1.00  0.00    -0.508 OA
ATOM     25  H   UNL     1     125.336 157.195 158.405  1.00  0.00     0.293 HD
ENDBRANCH   8  24
TORSDOF 5
ENDMDL
MODEL 5
REMARK VINA RESULT:    -4.824      4.830      9.054
REMARK INTER + INTRA:          -5.956
REMARK INTER:                  -5.673
REMARK INTRA:                  -0.283
REMARK UNBOUND:                -0.287
REMARK SMILES O=c1c(O)c(-c2ccc(O)cc2)oc2cc(O)cc(O)c12
REMARK SMILES IDX 5 1 3 2 2 3 1 4 21 5 19 6 18 7 16 8 15 9 14 10 13 11 6 12
REMARK SMILES IDX 7 13 8 14 9 15 12 16 11 17 10 18 4 20 20 22 17 24
REMARK H PARENT 10 19 4 21 20 23 17 25
REMARK Flexibility Score: inf
ROOT
ATOM      1  C   UNL     1     130.506 162.320 146.246  1.00  0.00     0.180 A 
ATOM      2  C   UNL     1     129.582 162.606 145.223  1.00  0.00     0.208 A 
ATOM      3  C   UNL     1     129.934 163.536 144.232  1.00  0.00     0.238 A 
ATOM      4  O   UNL     1     129.111 163.809 143.317  1.00  0.00    -0.285 OA
ATOM      5  C   UNL     1     131.204 164.146 144.268  1.00  0.00     0.111 A 
ATOM      6  C   UNL     1     131.638 165.090 143.307  1.00  0.00     0.134 A 
ATOM      7  C   UNL     1     132.922 165.646 143.406  1.00  0.00     0.093 A 
ATOM      8  C   UNL     1     133.780 165.275 144.449  1.00  0.00     0.123 A 
ATOM      9  C   UNL     1     133.357 164.346 145.400  1.00  0.00     0.094 A 
ATOM     10  C   UNL     1     132.080 163.781 145.318  1.00  0.00     0.146 A 
ATOM     11  O   UNL     1     131.701 162.903 146.240  1.00  0.00    -0.452 OA
ENDROOT
BRANCH   1  12
ATOM     12  C   UNL     1     130.202 161.365 147.337  1.00  0.00     0.021 A 
ATOM     13  C   UNL     1     130.730 160.064 147.284  1.00  0.00     0.016 A 
ATOM     14  C   UNL     1     130.474 159.154 148.314  1.00  0.00     0.047 A 
ATOM     15  C   UNL     1     129.702 159.537 149.416  1.00  0.00     0.115 A 
ATOM     16  C   UNL     1     129.443 161.750 148.457  1.00  0.00     0.016 A 
ATOM     17  C   UNL     1     129.189 160.838 149.487  1.00  0.00     0.047 A 
BRANCH  15  18
ATOM     18  O   UNL     1     129.454 158.619 150.434  1.00  0.00    -0.508 OA
ATOM     19  H   UNL     1     129.612 158.852 151.408  1.00  0.00     0.293 HD
ENDBRANCH  15  18
ENDBRANCH   1  12
BRANCH   2  20
ATOM     20  O   UNL     1     128.349 161.951 145.182  1.00  0.00    -0.502 OA
ATOM     21  H   UNL     1     127.813 161.856 144.328  1.00  0.00     0.293 HD
ENDBRANCH   2  20
BRANCH   6  22
ATOM     22  O   UNL     1     130.807 165.478 142.255  1.00  0.00    -0.507 OA
ATOM     23  H   UNL     1     130.261 164.806 141.730  1.00  0.00     0.293 HD
ENDBRANCH   6  22
BRANCH   8  24
ATOM     24  O   UNL     1     135.055 165.827 144.549  1.00  0.00    -0.508 OA
ATOM     25  H   UNL     1     135.208 166.826 144.478  1.00  0.00     0.293 HD
ENDBRANCH   8  24
TORSDOF 5
ENDMDL
MODEL 6
REMARK VINA RESULT:    -4.661      1.441      3.130
REMARK INTER + INTRA:          -5.765
REMARK INTER:                  -5.645
REMARK INTRA:                  -0.120
REMARK UNBOUND:                -0.287
REMARK SMILES O=c1c(O)c(-c2ccc(O)cc2)oc2cc(O)cc(O)c12
REMARK SMILES IDX 5 1 3 2 2 3 1 4 21 5 19 6 18 7 16 8 15 9 14 10 13 11 6 12
REMARK SMILES IDX 7 13 8 14 9 15 12 16 11 17 10 18 4 20 20 22 17 24
REMARK H PARENT 10 19 4 21 20 23 17 25
REMARK Flexibility Score: inf
ROOT
ATOM      1  C   UNL     1     129.831 158.414 150.995  1.00  0.00     0.180 A 
ATOM      2  C   UNL     1     128.610 158.067 151.603  1.00  0.00     0.208 A 
ATOM      3  C   UNL     1     128.533 158.039 153.004  1.00  0.00     0.238 A 
ATOM      4  O   UNL     1     127.448 157.719 153.560  1.00  0.00    -0.285 OA
ATOM      5  C   UNL     1     129.667 158.377 153.772  1.00  0.00     0.111 A 
ATOM      6  C   UNL     1     129.672 158.377 155.187  1.00  0.00     0.134 A 
ATOM      7  C   UNL     1     130.839 158.734 155.879  1.00  0.00     0.093 A 
ATOM      8  C   UNL     1     131.999 159.093 155.182  1.00  0.00     0.123 A 
ATOM      9  C   UNL     1     131.999 159.093 153.786  1.00  0.00     0.094 A 
ATOM     10  C   UNL     1     130.846 158.738 153.078  1.00  0.00     0.146 A 
ATOM     11  O   UNL     1     130.876 158.742 151.751  1.00  0.00    -0.452 OA
ENDROOT
BRANCH   1  12
ATOM     12  C   UNL     1     129.997 158.448 149.524  1.00  0.00     0.021 A 
ATOM     13  C   UNL     1     129.847 157.264 148.784  1.00  0.00     0.016 A 
ATOM     14  C   UNL     1     129.978 157.278 147.392  1.00  0.00     0.047 A 
ATOM     15  C   UNL     1     130.243 158.476 146.722  1.00  0.00     0.115 A 
ATOM     16  C   UNL     1     130.245 159.654 148.843  1.00  0.00     0.016 A 
ATOM     17  C   UNL     1     130.374 159.665 147.450  1.00  0.00     0.047 A 
BRANCH  15  18
ATOM     18  O   UNL     1     130.372 158.475 145.335  1.00  0.00    -0.508 OA
ATOM     19  H   UNL     1     130.005 157.718 144.769  1.00  0.00     0.293 HD
ENDBRANCH  15  18
ENDBRANCH   1  12
BRANCH   2  20
ATOM     20  O   UNL     1     127.487 157.785 150.821  1.00  0.00    -0.502 OA
ATOM     21  H   UNL     1     127.513 157.800 149.809  1.00  0.00     0.293 HD
ENDBRANCH   2  20
BRANCH   6  22
ATOM     22  O   UNL     1     128.531 158.027 155.910  1.00  0.00    -0.507 OA
ATOM     23  H   UNL     1     128.547 157.296 156.612  1.00  0.00     0.293 HD
ENDBRANCH   6  22
BRANCH   8  24
ATOM     24  O   UNL     1     133.158 159.448 155.868  1.00  0.00    -0.508 OA
ATOM     25  H   UNL     1     133.206 159.415 156.880  1.00  0.00     0.293 HD
ENDBRANCH   8  24
TORSDOF 5
ENDMDL
MODEL 7
REMARK VINA RESULT:    -4.632      5.495      8.000
REMARK INTER + INTRA:          -5.731
REMARK INTER:                  -5.448
REMARK INTRA:                  -0.283
REMARK UNBOUND:                -0.287
REMARK SMILES O=c1c(O)c(-c2ccc(O)cc2)oc2cc(O)cc(O)c12
REMARK SMILES IDX 5 1 3 2 2 3 1 4 21 5 19 6 18 7 16 8 15 9 14 10 13 11 6 12
REMARK SMILES IDX 7 13 8 14 9 15 12 16 11 17 10 18 4 20 20 22 17 24
REMARK H PARENT 10 19 4 21 20 23 17 25
REMARK Flexibility Score: inf
ROOT
ATOM      1  C   UNL     1     129.917 155.393 146.409  1.00  0.00     0.180 A 
ATOM      2  C   UNL     1     130.088 154.838 147.691  1.00  0.00     0.208 A 
ATOM      3  C   UNL     1     130.690 153.575 147.809  1.00  0.00     0.238 A 
ATOM      4  O   UNL     1     130.839 153.063 148.951  1.00  0.00    -0.285 OA
ATOM      5  C   UNL     1     131.129 152.901 146.651  1.00  0.00     0.111 A 
ATOM      6  C   UNL     1     131.749 151.629 146.683  1.00  0.00     0.134 A 
ATOM      7  C   UNL     1     132.166 151.027 145.486  1.00  0.00     0.093 A 
ATOM      8  C   UNL     1     131.975 151.675 144.259  1.00  0.00     0.123 A 
ATOM      9  C   UNL     1     131.364 152.929 144.222  1.00  0.00     0.094 A 
ATOM     10  C   UNL     1     130.940 153.544 145.405  1.00  0.00     0.146 A 
ATOM     11  O   UNL     1     130.356 154.735 145.340  1.00  0.00    -0.452 OA
ENDROOT
BRANCH   1  12
ATOM     12  C   UNL     1     129.273 156.710 146.201  1.00  0.00     0.021 A 
ATOM     13  C   UNL     1     130.073 157.839 145.954  1.00  0.00     0.016 A 
ATOM     14  C   UNL     1     129.485 159.088 145.733  1.00  0.00     0.047 A 
ATOM     15  C   UNL     1     128.093 159.223 145.740  1.00  0.00     0.115 A 
ATOM     16  C   UNL     1     127.873 156.848 146.188  1.00  0.00     0.016 A 
ATOM     17  C   UNL     1     127.288 158.099 145.965  1.00  0.00     0.047 A 
BRANCH  15  18
ATOM     18  O   UNL     1     127.521 160.473 145.519  1.00  0.00    -0.508 OA
ATOM     19  H   UNL     1     126.516 160.606 145.527  1.00  0.00     0.293 HD
ENDBRANCH  15  18
ENDBRANCH   1  12
BRANCH   2  20
ATOM     20  O   UNL     1     129.690 155.548 148.827  1.00  0.00    -0.502 OA
ATOM     21  H   UNL     1     128.799 155.389 149.282  1.00  0.00     0.293 HD
ENDBRANCH   2  20
BRANCH   6  22
ATOM     22  O   UNL     1     131.954 150.960 147.890  1.00  0.00    -0.507 OA
ATOM     23  H   UNL     1     131.185 150.567 148.420  1.00  0.00     0.293 HD
ENDBRANCH   6  22
BRANCH   8  24
ATOM     24  O   UNL     1     132.389 151.078 143.071  1.00  0.00    -0.508 OA
ATOM     25  H   UNL     1     133.286 150.613 142.995  1.00  0.00     0.293 HD
ENDBRANCH   8  24
TORSDOF 5
ENDMDL
MODEL 8
REMARK VINA RESULT:    -4.591      7.572     10.692
REMARK INTER + INTRA:          -5.683
REMARK INTER:                  -5.518
REMARK INTRA:                  -0.165
REMARK UNBOUND:                -0.287
REMARK SMILES O=c1c(O)c(-c2ccc(O)cc2)oc2cc(O)cc(O)c12
REMARK SMILES IDX 5 1 3 2 2 3 1 4 21 5 19 6 18 7 16 8 15 9 14 10 13 11 6 12
REMARK SMILES IDX 7 13 8 14 9 15 12 16 11 17 10 18 4 20 20 22 17 24
REMARK H PARENT 10 19 4 21 20 23 17 25
REMARK Flexibility Score: inf
ROOT
ATOM      1  C   UNL     1     132.163 150.495 149.350  1.00  0.00     0.180 A 
ATOM      2  C   UNL     1     132.074 149.297 148.616  1.00  0.00     0.208 A 
ATOM      3  C   UNL     1     131.825 149.364 147.236  1.00  0.00     0.238 A 
ATOM      4  O   UNL     1     131.733 148.298 146.569  1.00  0.00    -0.285 OA
ATOM      5  C   UNL     1     131.691 150.622 146.611  1.00  0.00     0.111 A 
ATOM      6  C   UNL     1     131.444 150.777 145.227  1.00  0.00     0.134 A 
ATOM      7  C   UNL     1     131.332 152.063 144.678  1.00  0.00     0.093 A 
ATOM      8  C   UNL     1     131.464 153.197 145.490  1.00  0.00     0.123 A 
ATOM      9  C   UNL     1     131.707 153.049 146.856  1.00  0.00     0.094 A 
ATOM     10  C   UNL     1     131.821 151.775 147.421  1.00  0.00     0.146 A 
ATOM     11  O   UNL     1     132.046 151.664 148.725  1.00  0.00    -0.452 OA
ENDROOT
BRANCH   1  12
ATOM     12  C   UNL     1     132.404 150.507 150.811  1.00  0.00     0.021 A 
ATOM     13  C   UNL     1     133.661 150.123 151.307  1.00  0.00     0.016 A 
ATOM     14  C   UNL     1     133.917 150.148 152.682  1.00  0.00     0.047 A 
ATOM     15  C   UNL     1     132.927 150.572 153.574  1.00  0.00     0.115 A 
ATOM     16  C   UNL     1     131.419 150.951 151.712  1.00  0.00     0.016 A 
ATOM     17  C   UNL     1     131.678 150.976 153.087  1.00  0.00     0.047 A 
BRANCH  15  18
ATOM     18  O   UNL     1     133.196 150.591 154.941  1.00  0.00    -0.508 OA
ATOM     19  H   UNL     1     132.500 150.309 155.622  1.00  0.00     0.293 HD
ENDBRANCH  15  18
ENDBRANCH   1  12
BRANCH   2  20
ATOM     20  O   UNL     1     132.260 148.066 149.249  1.00  0.00    -0.502 OA
ATOM     21  H   UNL     1     132.935 147.934 149.992  1.00  0.00     0.293 HD
ENDBRANCH   2  20
BRANCH   6  22
ATOM     22  O   UNL     1     131.310 149.666 144.392  1.00  0.00    -0.507 OA
ATOM     23  H   UNL     1     130.898 149.739 143.469  1.00  0.00     0.293 HD
ENDBRANCH   6  22
BRANCH   8  24
ATOM     24  O   UNL     1     131.354 154.474 144.947  1.00  0.00    -0.508 OA
ATOM     25  H   UNL     1     131.133 154.617 143.968  1.00  0.00     0.293 HD
ENDBRANCH   8  24
TORSDOF 5
ENDMDL
MODEL 9
REMARK VINA RESULT:    -4.580      6.954      7.887
REMARK INTER + INTRA:          -5.670
REMARK INTER:                  -5.617
REMARK INTRA:                  -0.053
REMARK UNBOUND:                -0.287
REMARK SMILES O=c1c(O)c(-c2ccc(O)cc2)oc2cc(O)cc(O)c12
REMARK SMILES IDX 5 1 3 2 2 3 1 4 21 5 19 6 18 7 16 8 15 9 14 10 13 11 6 12
REMARK SMILES IDX 7 13 8 14 9 15 12 16 11 17 10 18 4 20 20 22 17 24
REMARK H PARENT 10 19 4 21 20 23 17 25
REMARK Flexibility Score: inf
ROOT
ATOM      1  C   UNL     1     131.527 151.389 147.554  1.00  0.00     0.180 A 
ATOM      2  C   UNL     1     132.547 150.590 148.104  1.00  0.00     0.208 A 
ATOM      3  C   UNL     1     132.527 150.317 149.481  1.00  0.00     0.238 A 
ATOM      4  O   UNL     1     133.442 149.612 149.987  1.00  0.00    -0.285 OA
ATOM      5  C   UNL     1     131.482 150.827 150.278  1.00  0.00     0.111 A 
ATOM      6  C   UNL     1     131.386 150.595 151.670  1.00  0.00     0.134 A 
ATOM      7  C   UNL     1     130.309 151.131 152.393  1.00  0.00     0.093 A 
ATOM      8  C   UNL     1     129.326 151.892 151.748  1.00  0.00     0.123 A 
ATOM      9  C   UNL     1     129.417 152.123 150.375  1.00  0.00     0.094 A 
ATOM     10  C   UNL     1     130.484 151.599 149.637  1.00  0.00     0.146 A 
ATOM     11  O   UNL     1     130.548 151.840 148.333  1.00  0.00    -0.452 OA
ENDROOT
BRANCH   1  12
ATOM     12  C   UNL     1     131.489 151.737 146.115  1.00  0.00     0.021 A 
ATOM     13  C   UNL     1     131.539 153.087 145.728  1.00  0.00     0.016 A 
ATOM     14  C   UNL     1     131.527 153.436 144.375  1.00  0.00     0.047 A 
ATOM     15  C   UNL     1     131.481 152.443 143.392  1.00  0.00     0.115 A 
ATOM     16  C   UNL     1     131.463 150.742 145.121  1.00  0.00     0.016 A 
ATOM     17  C   UNL     1     131.451 151.094 143.767  1.00  0.00     0.047 A 
BRANCH  15  18
ATOM     18  O   UNL     1     131.468 152.806 142.047  1.00  0.00    -0.508 OA
ATOM     19  H   UNL     1     130.623 153.136 141.595  1.00  0.00     0.293 HD
ENDBRANCH  15  18
ENDBRANCH   1  12
BRANCH   2  20
ATOM     20  O   UNL     1     133.545 150.055 147.285  1.00  0.00    -0.502 OA
ATOM     21  H   UNL     1     134.356 149.578 147.658  1.00  0.00     0.293 HD
ENDBRANCH   2  20
BRANCH   6  22
ATOM     22  O   UNL     1     132.348 149.840 152.342  1.00  0.00    -0.507 OA
ATOM     23  H   UNL     1     133.049 149.304 151.843  1.00  0.00     0.293 HD
ENDBRANCH   6  22
BRANCH   8  24
ATOM     24  O   UNL     1     128.256 152.423 152.464  1.00  0.00    -0.508 OA
ATOM     25  H   UNL     1     127.441 151.865 152.691  1.00  0.00     0.293 HD
ENDBRANCH   8  24
TORSDOF 5
ENDMDL
