MODEL 1
REMARK VINA RESULT:    10.864      0.000      0.000
REMARK INTER + INTRA:          20.193
REMARK INTER:                  21.026
REMARK INTRA:                  -0.833
REMARK UNBOUND:                -0.833
REMARK SMILES CCCCCCCCCCCCCCCCCC(=O)[O-]
REMARK SMILES IDX 10 1 11 2 12 3 13 4 14 5 15 6 16 7 17 8 18 9 19 10 20 11
REMARK SMILES IDX 9 12 8 13 7 14 6 15 5 16 4 17 3 18 2 19 1 20
REMARK H PARENT
REMARK Flexibility Score: inf
ROOT
ATOM      1  C   UNL     1     -32.497  12.415  18.053  1.00  0.00     0.000 C 
ENDROOT
BRANCH   1   2
ATOM      2  C   UNL     1     -33.745  12.110  17.210  1.00  0.00     0.000 C 
BRANCH   2   3
ATOM      3  C   UNL     1     -34.380  13.376  16.612  1.00  0.00     0.000 C 
BRANCH   3   4
ATOM      4  C   UNL     1     -34.399  14.516  17.637  1.00  0.00     0.000 C 
BRANCH   4   5
ATOM      5  C   UNL     1     -34.895  15.822  16.997  1.00  0.00     0.000 C 
BRANCH   5   6
ATOM      6  C   UNL     1     -35.292  16.878  18.039  1.00  0.00     0.000 C 
BRANCH   6   7
ATOM      7  C   UNL     1     -36.817  17.037  18.171  1.00  0.00     0.006 C 
BRANCH   7   8
ATOM      8  C   UNL     1     -37.564  15.730  17.876  1.00  0.00     0.053 C 
BRANCH   8   9
ATOM      9  C   UNL     1     -38.903  15.692  18.547  1.00  0.00     0.041 C 
ATOM     10  O   UNL     1     -39.063  15.033  19.607  1.00  0.00    -0.550 OA
ATOM     11  O   UNL     1     -39.984  16.355  17.979  1.00  0.00    -0.550 OA
ENDBRANCH   8   9
ENDBRANCH   7   8
ENDBRANCH   6   7
ENDBRANCH   5   6
ENDBRANCH   4   5
ENDBRANCH   3   4
ENDBRANCH   2   3
ENDBRANCH   1   2
BRANCH   1  12
ATOM     12  C   UNL     1     -32.665  12.001  19.525  1.00  0.00     0.000 C 
BRANCH  12  13
ATOM     13  C   UNL     1     -33.559  10.760  19.696  1.00  0.00    -0.000 C 
BRANCH  13  14
ATOM     14  C   UNL     1     -34.144  10.611  21.117  1.00  0.00    -0.000 C 
BRANCH  14  15
ATOM     15  C   UNL     1     -34.123  11.938  21.894  1.00  0.00    -0.000 C 
BRANCH  15  16
ATOM     16  C   UNL     1     -34.683  11.801  23.319  1.00  0.00    -0.000 C 
BRANCH  16  17
ATOM     17  C   UNL     1     -33.822  10.894  24.210  1.00  0.00    -0.000 C 
BRANCH  17  18
ATOM     18  C   UNL     1     -34.420  10.787  25.621  1.00  0.00    -0.000 C 
BRANCH  18  19
ATOM     19  C   UNL     1     -34.473   9.339  26.133  1.00  0.00    -0.003 C 
ATOM     20  C   UNL     1     -33.262   8.970  26.989  1.00  0.00     0.004 C 
ENDBRANCH  18  19
ENDBRANCH  17  18
ENDBRANCH  16  17
ENDBRANCH  15  16
ENDBRANCH  14  15
ENDBRANCH  13  14
ENDBRANCH  12  13
ENDBRANCH   1  12
TORSDOF 16
ENDMDL
MODEL 2
REMARK VINA RESULT:    11.086      3.500      8.143
REMARK INTER + INTRA:          20.622
REMARK INTER:                  21.630
REMARK INTRA:                  -1.008
REMARK UNBOUND:                -0.833
REMARK SMILES CCCCCCCCCCCCCCCCCC(=O)[O-]
REMARK SMILES IDX 10 1 11 2 12 3 13 4 14 5 15 6 16 7 17 8 18 9 19 10 20 11
REMARK SMILES IDX 9 12 8 13 7 14 6 15 5 16 4 17 3 18 2 19 1 20
REMARK H PARENT
REMARK Flexibility Score: inf
ROOT
ATOM      1  C   UNL     1     -32.853  12.376  17.648  1.00  0.00     0.000 C 
ENDROOT
BRANCH   1   2
ATOM      2  C   UNL     1     -32.872  12.039  19.147  1.00  0.00     0.000 C 
BRANCH   2   3
ATOM      3  C   UNL     1     -33.576  10.706  19.446  1.00  0.00     0.000 C 
BRANCH   3   4
ATOM      4  C   UNL     1     -33.983  10.621  20.922  1.00  0.00     0.000 C 
BRANCH   4   5
ATOM      5  C   UNL     1     -34.057  12.020  21.554  1.00  0.00     0.000 C 
BRANCH   5   6
ATOM      6  C   UNL     1     -34.602  11.992  22.990  1.00  0.00     0.000 C 
BRANCH   6   7
ATOM      7  C   UNL     1     -33.949  10.897  23.851  1.00  0.00     0.006 C 
BRANCH   7   8
ATOM      8  C   UNL     1     -34.134  11.153  25.353  1.00  0.00     0.053 C 
BRANCH   8   9
ATOM      9  C   UNL     1     -34.081   9.882  26.144  1.00  0.00     0.041 C 
ATOM     10  O   UNL     1     -33.044   9.580  26.789  1.00  0.00    -0.550 OA
ATOM     11  O   UNL     1     -35.165   9.013  26.138  1.00  0.00    -0.550 OA
ENDBRANCH   8   9
ENDBRANCH   7   8
ENDBRANCH   6   7
ENDBRANCH   5   6
ENDBRANCH   4   5
ENDBRANCH   3   4
ENDBRANCH   2   3
ENDBRANCH   1   2
BRANCH   1  12
ATOM     12  C   UNL     1     -34.145  13.071  17.184  1.00  0.00     0.000 C 
BRANCH  12  13
ATOM     13  C   UNL     1     -34.400  14.401  17.913  1.00  0.00    -0.000 C 
BRANCH  13  14
ATOM     14  C   UNL     1     -35.096  15.465  17.037  1.00  0.00    -0.000 C 
BRANCH  14  15
ATOM     15  C   UNL     1     -35.087  16.855  17.696  1.00  0.00    -0.000 C 
BRANCH  15  16
ATOM     16  C   UNL     1     -36.412  17.186  18.401  1.00  0.00    -0.000 C 
BRANCH  16  17
ATOM     17  C   UNL     1     -37.617  16.478  17.763  1.00  0.00    -0.000 C 
BRANCH  17  18
ATOM     18  C   UNL     1     -38.260  15.494  18.753  1.00  0.00    -0.000 C 
BRANCH  18  19
ATOM     19  C   UNL     1     -39.788  15.635  18.817  1.00  0.00    -0.003 C 
ATOM     20  C   UNL     1     -40.363  16.394  17.621  1.00  0.00     0.004 C 
ENDBRANCH  18  19
ENDBRANCH  17  18
ENDBRANCH  16  17
ENDBRANCH  15  16
ENDBRANCH  14  15
ENDBRANCH  13  14
ENDBRANCH  12  13
ENDBRANCH   1  12
TORSDOF 16
ENDMDL
MODEL 3
REMARK VINA RESULT:    11.174      1.722      2.128
REMARK INTER + INTRA:          20.792
REMARK INTER:                  21.569
REMARK INTRA:                  -0.777
REMARK UNBOUND:                -0.833
REMARK SMILES CCCCCCCCCCCCCCCCCC(=O)[O-]
REMARK SMILES IDX 10 1 11 2 12 3 13 4 14 5 15 6 16 7 17 8 18 9 19 10 20 11
REMARK SMILES IDX 9 12 8 13 7 14 6 15 5 16 4 17 3 18 2 19 1 20
REMARK H PARENT
REMARK Flexibility Score: inf
ROOT
ATOM      1  C   UNL     1     -32.491  12.014  17.801  1.00  0.00     0.000 C 
ENDROOT
BRANCH   1   2
ATOM      2  C   UNL     1     -33.939  12.195  17.322  1.00  0.00     0.000 C 
BRANCH   2   3
ATOM      3  C   UNL     1     -34.176  13.556  16.650  1.00  0.00     0.000 C 
BRANCH   3   4
ATOM      4  C   UNL     1     -34.447  14.645  17.695  1.00  0.00     0.000 C 
BRANCH   4   5
ATOM      5  C   UNL     1     -34.935  15.939  17.027  1.00  0.00     0.000 C 
BRANCH   5   6
ATOM      6  C   UNL     1     -35.330  17.018  18.047  1.00  0.00     0.000 C 
BRANCH   6   7
ATOM      7  C   UNL     1     -36.850  17.087  18.280  1.00  0.00     0.006 C 
BRANCH   7   8
ATOM      8  C   UNL     1     -37.551  15.771  17.917  1.00  0.00     0.053 C 
BRANCH   8   9
ATOM      9  C   UNL     1     -38.899  15.665  18.562  1.00  0.00     0.041 C 
ATOM     10  O   UNL     1     -39.060  14.945  19.581  1.00  0.00    -0.550 OA
ATOM     11  O   UNL     1     -39.987  16.333  18.013  1.00  0.00    -0.550 OA
ENDBRANCH   8   9
ENDBRANCH   7   8
ENDBRANCH   6   7
ENDBRANCH   5   6
ENDBRANCH   4   5
ENDBRANCH   3   4
ENDBRANCH   2   3
ENDBRANCH   1   2
BRANCH   1  12
ATOM     12  C   UNL     1     -32.388  11.882  19.331  1.00  0.00     0.000 C 
BRANCH  12  13
ATOM     13  C   UNL     1     -33.724  12.156  20.043  1.00  0.00    -0.000 C 
BRANCH  13  14
ATOM     14  C   UNL     1     -34.013  11.188  21.210  1.00  0.00    -0.000 C 
BRANCH  14  15
ATOM     15  C   UNL     1     -34.357   9.772  20.716  1.00  0.00    -0.000 C 
BRANCH  15  16
ATOM     16  C   UNL     1     -33.374   8.708  21.230  1.00  0.00    -0.000 C 
BRANCH  16  17
ATOM     17  C   UNL     1     -33.786   8.129  22.592  1.00  0.00    -0.000 C 
BRANCH  17  18
ATOM     18  C   UNL     1     -34.426   6.743  22.425  1.00  0.00    -0.000 C 
BRANCH  18  19
ATOM     19  C   UNL     1     -35.308   6.351  23.621  1.00  0.00    -0.003 C 
ATOM     20  C   UNL     1     -34.531   6.301  24.937  1.00  0.00     0.004 C 
ENDBRANCH  18  19
ENDBRANCH  17  18
ENDBRANCH  16  17
ENDBRANCH  15  16
ENDBRANCH  14  15
ENDBRANCH  13  14
ENDBRANCH  12  13
ENDBRANCH   1  12
TORSDOF 16
ENDMDL
MODEL 4
REMARK VINA RESULT:    11.205      3.978      8.574
REMARK INTER + INTRA:          20.853
REMARK INTER:                  21.632
REMARK INTRA:                  -0.779
REMARK UNBOUND:                -0.833
REMARK SMILES CCCCCCCCCCCCCCCCCC(=O)[O-]
REMARK SMILES IDX 10 1 11 2 12 3 13 4 14 5 15 6 16 7 17 8 18 9 19 10 20 11
REMARK SMILES IDX 9 12 8 13 7 14 6 15 5 16 4 17 3 18 2 19 1 20
REMARK H PARENT
REMARK Flexibility Score: inf
ROOT
ATOM      1  C   UNL     1     -33.980  12.092  17.389  1.00  0.00     0.000 C 
ENDROOT
BRANCH   1   2
ATOM      2  C   UNL     1     -32.784  12.330  18.324  1.00  0.00     0.000 C 
BRANCH   2   3
ATOM      3  C   UNL     1     -32.747  11.343  19.502  1.00  0.00     0.000 C 
BRANCH   3   4
ATOM      4  C   UNL     1     -34.015  11.461  20.356  1.00  0.00     0.000 C 
BRANCH   4   5
ATOM      5  C   UNL     1     -33.942  10.533  21.579  1.00  0.00     0.000 C 
BRANCH   5   6
ATOM      6  C   UNL     1     -34.013   9.047  21.198  1.00  0.00     0.000 C 
BRANCH   6   7
ATOM      7  C   UNL     1     -33.689   8.115  22.379  1.00  0.00     0.006 C 
BRANCH   7   8
ATOM      8  C   UNL     1     -34.622   6.898  22.430  1.00  0.00     0.053 C 
BRANCH   8   9
ATOM      9  C   UNL     1     -34.955   6.512  23.838  1.00  0.00     0.041 C 
ATOM     10  O   UNL     1     -34.051   6.112  24.617  1.00  0.00    -0.550 OA
ATOM     11  O   UNL     1     -36.272   6.559  24.280  1.00  0.00    -0.550 OA
ENDBRANCH   8   9
ENDBRANCH   7   8
ENDBRANCH   6   7
ENDBRANCH   5   6
ENDBRANCH   4   5
ENDBRANCH   3   4
ENDBRANCH   2   3
ENDBRANCH   1   2
BRANCH   1  12
ATOM     12  C   UNL     1     -34.438  13.378  16.680  1.00  0.00     0.000 C 
BRANCH  12  13
ATOM     13  C   UNL     1     -34.356  14.619  17.585  1.00  0.00    -0.000 C 
BRANCH  13  14
ATOM     14  C   UNL     1     -35.033  15.869  16.984  1.00  0.00    -0.000 C 
BRANCH  14  15
ATOM     15  C   UNL     1     -35.404  16.902  18.063  1.00  0.00    -0.000 C 
BRANCH  15  16
ATOM     16  C   UNL     1     -36.923  17.083  18.213  1.00  0.00    -0.000 C 
BRANCH  16  17
ATOM     17  C   UNL     1     -37.700  15.774  18.010  1.00  0.00    -0.000 C 
BRANCH  17  18
ATOM     18  C   UNL     1     -38.897  15.694  18.969  1.00  0.00    -0.000 C 
BRANCH  18  19
ATOM     19  C   UNL     1     -40.247  15.750  18.237  1.00  0.00    -0.003 C 
ATOM     20  C   UNL     1     -40.350  16.935  17.278  1.00  0.00     0.004 C 
ENDBRANCH  18  19
ENDBRANCH  17  18
ENDBRANCH  16  17
ENDBRANCH  15  16
ENDBRANCH  14  15
ENDBRANCH  13  14
ENDBRANCH  12  13
ENDBRANCH   1  12
TORSDOF 16
ENDMDL
MODEL 5
REMARK VINA RESULT:    11.934      5.575      8.666
REMARK INTER + INTRA:          22.264
REMARK INTER:                  23.134
REMARK INTRA:                  -0.869
REMARK UNBOUND:                -0.833
REMARK SMILES CCCCCCCCCCCCCCCCCC(=O)[O-]
REMARK SMILES IDX 10 1 11 2 12 3 13 4 14 5 15 6 16 7 17 8 18 9 19 10 20 11
REMARK SMILES IDX 9 12 8 13 7 14 6 15 5 16 4 17 3 18 2 19 1 20
REMARK H PARENT
REMARK Flexibility Score: inf
ROOT
ATOM      1  C   UNL     1     -31.032  12.779  17.136  1.00  0.00     0.000 C 
ENDROOT
BRANCH   1   2
ATOM      2  C   UNL     1     -29.517  12.925  17.348  1.00  0.00     0.000 C 
BRANCH   2   3
ATOM      3  C   UNL     1     -28.805  13.541  16.134  1.00  0.00     0.000 C 
BRANCH   3   4
ATOM      4  C   UNL     1     -28.057  14.820  16.528  1.00  0.00     0.000 C 
BRANCH   4   5
ATOM      5  C   UNL     1     -27.253  14.611  17.820  1.00  0.00     0.000 C 
BRANCH   5   6
ATOM      6  C   UNL     1     -26.164  15.677  18.018  1.00  0.00     0.000 C 
BRANCH   6   7
ATOM      7  C   UNL     1     -26.265  16.383  19.382  1.00  0.00     0.006 C 
BRANCH   7   8
ATOM      8  C   UNL     1     -26.071  15.410  20.553  1.00  0.00     0.053 C 
BRANCH   8   9
ATOM      9  C   UNL     1     -27.061  15.656  21.650  1.00  0.00     0.041 C 
ATOM     10  O   UNL     1     -27.176  16.803  22.155  1.00  0.00    -0.550 OA
ATOM     11  O   UNL     1     -27.832  14.609  22.139  1.00  0.00    -0.550 OA
ENDBRANCH   8   9
ENDBRANCH   7   8
ENDBRANCH   6   7
ENDBRANCH   5   6
ENDBRANCH   4   5
ENDBRANCH   3   4
ENDBRANCH   2   3
ENDBRANCH   1   2
BRANCH   1  12
ATOM     12  C   UNL     1     -31.752  12.241  18.384  1.00  0.00     0.000 C 
BRANCH  12  13
ATOM     13  C   UNL     1     -33.272  12.106  18.183  1.00  0.00    -0.000 C 
BRANCH  13  14
ATOM     14  C   UNL     1     -33.862  13.148  17.209  1.00  0.00    -0.000 C 
BRANCH  14  15
ATOM     15  C   UNL     1     -34.426  14.375  17.946  1.00  0.00    -0.000 C 
BRANCH  15  16
ATOM     16  C   UNL     1     -35.148  15.353  17.006  1.00  0.00    -0.000 C 
BRANCH  16  17
ATOM     17  C   UNL     1     -35.187  16.786  17.556  1.00  0.00    -0.000 C 
BRANCH  17  18
ATOM     18  C   UNL     1     -36.447  17.012  18.404  1.00  0.00    -0.000 C 
BRANCH  18  19
ATOM     19  C   UNL     1     -37.684  16.309  17.824  1.00  0.00    -0.003 C 
ATOM     20  C   UNL     1     -38.411  15.446  18.855  1.00  0.00     0.004 C 
ENDBRANCH  18  19
ENDBRANCH  17  18
ENDBRANCH  16  17
ENDBRANCH  15  16
ENDBRANCH  14  15
ENDBRANCH  13  14
ENDBRANCH  12  13
ENDBRANCH   1  12
TORSDOF 16
ENDMDL
MODEL 6
REMARK VINA RESULT:    12.536      4.709      6.627
REMARK INTER + INTRA:          23.430
REMARK INTER:                  24.396
REMARK INTRA:                  -0.967
REMARK UNBOUND:                -0.833
REMARK SMILES CCCCCCCCCCCCCCCCCC(=O)[O-]
REMARK SMILES IDX 10 1 11 2 12 3 13 4 14 5 15 6 16 7 17 8 18 9 19 10 20 11
REMARK SMILES IDX 9 12 8 13 7 14 6 15 5 16 4 17 3 18 2 19 1 20
REMARK H PARENT
REMARK Flexibility Score: inf
ROOT
ATOM      1  C   UNL     1     -29.429  12.908  17.417  1.00  0.00     0.000 C 
ENDROOT
BRANCH   1   2
ATOM      2  C   UNL     1     -30.946  12.747  17.231  1.00  0.00     0.000 C 
BRANCH   2   3
ATOM      3  C   UNL     1     -31.668  12.376  18.536  1.00  0.00     0.000 C 
BRANCH   3   4
ATOM      4  C   UNL     1     -33.152  12.089  18.280  1.00  0.00     0.000 C 
BRANCH   4   5
ATOM      5  C   UNL     1     -33.602  12.680  16.935  1.00  0.00     0.000 C 
BRANCH   5   6
ATOM      6  C   UNL     1     -34.922  13.459  17.044  1.00  0.00     0.000 C 
BRANCH   6   7
ATOM      7  C   UNL     1     -34.783  14.750  17.871  1.00  0.00     0.006 C 
BRANCH   7   8
ATOM      8  C   UNL     1     -35.148  16.000  17.059  1.00  0.00     0.053 C 
BRANCH   8   9
ATOM      9  C   UNL     1     -35.659  17.101  17.936  1.00  0.00     0.041 C 
ATOM     10  O   UNL     1     -36.869  17.125  18.285  1.00  0.00    -0.550 OA
ATOM     11  O   UNL     1     -34.807  18.122  18.339  1.00  0.00    -0.550 OA
ENDBRANCH   8   9
ENDBRANCH   7   8
ENDBRANCH   6   7
ENDBRANCH   5   6
ENDBRANCH   4   5
ENDBRANCH   3   4
ENDBRANCH   2   3
ENDBRANCH   1   2
BRANCH   1  12
ATOM     12  C   UNL     1     -28.745  13.509  16.177  1.00  0.00     0.000 C 
BRANCH  12  13
ATOM     13  C   UNL     1     -27.927  14.771  16.502  1.00  0.00    -0.000 C 
BRANCH  13  14
ATOM     14  C   UNL     1     -27.313  14.764  17.918  1.00  0.00    -0.000 C 
BRANCH  14  15
ATOM     15  C   UNL     1     -26.067  15.661  18.014  1.00  0.00    -0.000 C 
BRANCH  15  16
ATOM     16  C   UNL     1     -26.050  16.521  19.288  1.00  0.00    -0.000 C 
BRANCH  16  17
ATOM     17  C   UNL     1     -26.269  15.695  20.564  1.00  0.00    -0.000 C 
BRANCH  17  18
ATOM     18  C   UNL     1     -26.837  16.570  21.691  1.00  0.00    -0.000 C 
BRANCH  18  19
ATOM     19  C   UNL     1     -27.891  15.837  22.535  1.00  0.00    -0.003 C 
ATOM     20  C   UNL     1     -28.022  14.360  22.165  1.00  0.00     0.004 C 
ENDBRANCH  18  19
ENDBRANCH  17  18
ENDBRANCH  16  17
ENDBRANCH  15  16
ENDBRANCH  14  15
ENDBRANCH  13  14
ENDBRANCH  12  13
ENDBRANCH   1  12
TORSDOF 16
ENDMDL
