MODEL 1
REMARK VINA RESULT:    -8.408      0.000      0.000
REMARK INTER + INTRA:         -15.977
REMARK INTER:                 -13.815
REMARK INTRA:                  -2.162
REMARK UNBOUND:                -2.162
REMARK SMILES C[C@@H]1O[C@H](OC[C@H]2O[C@H](Oc3c(-c4ccc(O)c(O)c4)oc4cc(O)cc(O)c4c3=O)[C@H](O)[C@@H](O)[C@@H]2O)[C@H](O)[C@H](O)[C@H]1O
REMARK SMILES IDX 7 1 36 2 34 3 32 4 9 5 8 6 6 7 5 8 4 9 1 10 2 11 42 12 3 13
REMARK SMILES IDX 40 14 38 15 43 16 41 18 39 20 37 22 35 24 10 26 11 27 12 28
REMARK SMILES IDX 30 29 21 30 29 31 31 32 22 33 27 34 23 35 26 36 24 37 13 38
REMARK SMILES IDX 20 39 14 40 18 41 15 42 16 43 19 44 17 46 28 48 25 50 33 52
REMARK H PARENT 43 17 41 19 39 21 37 23 35 25 19 45 17 47 28 49 25 51 33 53
REMARK Flexibility Score: inf
ROOT
ATOM      1  C   UNL     1     -10.772   0.377  35.799  1.00  0.00     0.180 C 
ATOM      2  C   UNL     1     -10.715  -0.999  36.664  1.00  0.00     0.177 C 
ATOM      3  C   UNL     1      -9.263  -1.632  36.802  1.00  0.00     0.180 C 
ATOM      4  C   UNL     1      -8.102  -0.883  35.992  1.00  0.00     0.214 C 
ATOM      5  C   UNL     1      -8.586   0.508  35.961  1.00  0.00     0.339 C 
ATOM      6  O   UNL     1      -9.617   0.609  35.038  1.00  0.00    -0.332 OA
ENDROOT
BRANCH   1   7
ATOM      7  C   UNL     1     -11.170   1.709  36.481  1.00  0.00     0.198 C 
BRANCH   7   8
ATOM      8  O   UNL     1     -12.120   2.428  35.775  1.00  0.00    -0.347 OA
BRANCH   8   9
ATOM      9  C   UNL     1     -11.868   3.890  35.723  1.00  0.00     0.281 C 
ATOM     10  C   UNL     1      -8.942   5.494  33.971  1.00  0.00     0.041 C 
ATOM     11  C   UNL     1      -9.919   5.248  35.117  1.00  0.00     0.150 C 
ATOM     12  C   UNL     1     -10.786   6.491  35.434  1.00  0.00     0.174 C 
ATOM     13  O   UNL     1     -10.684   4.046  34.947  1.00  0.00    -0.344 OA
ATOM     14  C   UNL     1     -11.982   6.241  34.662  1.00  0.00     0.179 C 
ATOM     15  C   UNL     1     -12.883   4.982  35.164  1.00  0.00     0.202 C 
BRANCH  12  16
ATOM     16  O   UNL     1     -11.068   6.512  36.763  1.00  0.00    -0.388 OA
ATOM     17  H   UNL     1     -11.589   5.675  36.951  1.00  0.00     0.211 HD
ENDBRANCH  12  16
BRANCH  14  18
ATOM     18  O   UNL     1     -11.639   6.170  33.243  1.00  0.00    -0.387 OA
ATOM     19  H   UNL     1     -12.205   5.505  32.834  1.00  0.00     0.211 HD
ENDBRANCH  14  18
BRANCH  15  20
ATOM     20  O   UNL     1     -13.626   4.441  34.114  1.00  0.00    -0.385 OA
ATOM     21  H   UNL     1     -13.683   3.394  34.168  1.00  0.00     0.211 HD
ENDBRANCH  15  20
ENDBRANCH   8   9
ENDBRANCH   7   8
ENDBRANCH   1   7
BRANCH   2  22
ATOM     22  O   UNL     1     -11.615  -1.875  36.061  1.00  0.00    -0.387 OA
ATOM     23  H   UNL     1     -11.235  -2.812  35.959  1.00  0.00     0.211 HD
ENDBRANCH   2  22
BRANCH   3  24
ATOM     24  O   UNL     1      -8.814  -1.722  38.119  1.00  0.00    -0.387 OA
ATOM     25  H   UNL     1      -8.115  -1.010  38.195  1.00  0.00     0.211 HD
ENDBRANCH   3  24
BRANCH   5  26
ATOM     26  O   UNL     1      -7.791   1.713  36.128  1.00  0.00    -0.454 OA
BRANCH  26  27
ATOM     27  C   UNL     1      -6.490   1.496  36.609  1.00  0.00     0.214 A 
ATOM     28  C   UNL     1      -5.310   1.729  35.901  1.00  0.00     0.180 A 
ATOM     29  C   UNL     1      -6.424   1.425  38.021  1.00  0.00     0.239 A 
ATOM     30  O   UNL     1      -4.213   2.011  36.516  1.00  0.00    -0.452 OA
ATOM     31  C   UNL     1      -5.330   2.087  38.616  1.00  0.00     0.111 A 
ATOM     32  O   UNL     1      -7.286   0.876  38.712  1.00  0.00    -0.285 OA
ATOM     33  C   UNL     1      -4.174   2.268  37.815  1.00  0.00     0.146 A 
ATOM     34  C   UNL     1      -5.388   2.661  39.854  1.00  0.00     0.134 A 
ATOM     35  C   UNL     1      -3.010   2.747  38.418  1.00  0.00     0.094 A 
ATOM     36  C   UNL     1      -4.324   3.309  40.339  1.00  0.00     0.093 A 
ATOM     37  C   UNL     1      -3.101   3.253  39.758  1.00  0.00     0.123 A 
BRANCH  28  38
ATOM     38  C   UNL     1      -5.354   1.796  34.359  1.00  0.00     0.025 A 
ATOM     39  C   UNL     1      -5.854   2.897  33.576  1.00  0.00     0.062 A 
ATOM     40  C   UNL     1      -4.607   0.902  33.659  1.00  0.00     0.016 A 
ATOM     41  C   UNL     1      -5.880   2.924  32.204  1.00  0.00     0.158 A 
ATOM     42  C   UNL     1      -4.577   0.817  32.286  1.00  0.00     0.051 A 
ATOM     43  C   UNL     1      -5.289   1.823  31.521  1.00  0.00     0.157 A 
BRANCH  41  44
ATOM     44  O   UNL     1      -6.441   3.920  31.465  1.00  0.00    -0.504 OA
ATOM     45  H   UNL     1      -6.594   4.859  31.841  1.00  0.00     0.293 HD
ENDBRANCH  41  44
BRANCH  43  46
ATOM     46  O   UNL     1      -5.299   1.680  30.122  1.00  0.00    -0.504 OA
ATOM     47  H   UNL     1      -5.230   0.748  29.740  1.00  0.00     0.293 HD
ENDBRANCH  43  46
ENDBRANCH  28  38
BRANCH  34  48
ATOM     48  O   UNL     1      -6.632   2.717  40.533  1.00  0.00    -0.507 OA
ATOM     49  H   UNL     1      -6.815   3.311  41.357  1.00  0.00     0.293 HD
ENDBRANCH  34  48
BRANCH  37  50
ATOM     50  O   UNL     1      -1.891   3.735  40.347  1.00  0.00    -0.508 OA
ATOM     51  H   UNL     1      -1.352   3.112  40.859  1.00  0.00     0.293 HD
ENDBRANCH  37  50
ENDBRANCH  26  27
ENDBRANCH   5  26
BRANCH   4  52
ATOM     52  O   UNL     1      -7.980  -1.438  34.747  1.00  0.00    -0.384 OA
ATOM     53  H   UNL     1      -6.992  -1.848  34.634  1.00  0.00     0.211 HD
ENDBRANCH   4  52
TORSDOF 16
ENDMDL
MODEL 2
REMARK VINA RESULT:    -8.237     12.149     15.787
REMARK INTER + INTRA:         -15.696
REMARK INTER:                 -12.188
REMARK INTRA:                  -3.509
REMARK UNBOUND:                -2.162
REMARK SMILES C[C@@H]1O[C@H](OC[C@H]2O[C@H](Oc3c(-c4ccc(O)c(O)c4)oc4cc(O)cc(O)c4c3=O)[C@H](O)[C@@H](O)[C@@H]2O)[C@H](O)[C@H](O)[C@H]1O
REMARK SMILES IDX 7 1 36 2 34 3 32 4 9 5 8 6 6 7 5 8 4 9 1 10 2 11 42 12 3 13
REMARK SMILES IDX 40 14 38 15 43 16 41 18 39 20 37 22 35 24 10 26 11 27 12 28
REMARK SMILES IDX 30 29 21 30 29 31 31 32 22 33 27 34 23 35 26 36 24 37 13 38
REMARK SMILES IDX 20 39 14 40 18 41 15 42 16 43 19 44 17 46 28 48 25 50 33 52
REMARK H PARENT 43 17 41 19 39 21 37 23 35 25 19 45 17 47 28 49 25 51 33 53
REMARK Flexibility Score: inf
ROOT
ATOM      1  C   UNL     1     -16.804  14.046  32.311  1.00  0.00     0.180 C 
ATOM      2  C   UNL     1     -18.095  15.025  32.458  1.00  0.00     0.177 C 
ATOM      3  C   UNL     1     -19.050  14.676  33.681  1.00  0.00     0.180 C 
ATOM      4  C   UNL     1     -18.659  13.365  34.513  1.00  0.00     0.214 C 
ATOM      5  C   UNL     1     -17.197  13.308  34.341  1.00  0.00     0.339 C 
ATOM      6  O   UNL     1     -16.908  12.864  33.059  1.00  0.00    -0.332 OA
ENDROOT
BRANCH   1   7
ATOM      7  C   UNL     1     -15.374  14.609  32.504  1.00  0.00     0.198 C 
BRANCH   7   8
ATOM      8  O   UNL     1     -14.399  13.628  32.568  1.00  0.00    -0.347 OA
BRANCH   8   9
ATOM      9  C   UNL     1     -13.326  13.895  33.558  1.00  0.00     0.281 C 
ATOM     10  C   UNL     1     -13.529  16.489  36.285  1.00  0.00     0.041 C 
ATOM     11  C   UNL     1     -12.890  15.730  35.125  1.00  0.00     0.150 C 
ATOM     12  C   UNL     1     -11.618  14.959  35.551  1.00  0.00     0.174 C 
ATOM     13  O   UNL     1     -13.833  14.924  34.403  1.00  0.00    -0.344 OA
ATOM     14  C   UNL     1     -12.134  13.639  35.833  1.00  0.00     0.179 C 
ATOM     15  C   UNL     1     -12.690  12.818  34.543  1.00  0.00     0.202 C 
BRANCH  12  16
ATOM     16  O   UNL     1     -10.748  14.921  34.507  1.00  0.00    -0.388 OA
ATOM     17  H   UNL     1     -11.114  14.244  33.863  1.00  0.00     0.211 HD
ENDBRANCH  12  16
BRANCH  14  18
ATOM     18  O   UNL     1     -13.105  13.720  36.922  1.00  0.00    -0.387 OA
ATOM     19  H   UNL     1     -13.509  14.595  36.895  1.00  0.00     0.211 HD
ENDBRANCH  14  18
BRANCH  15  20
ATOM     20  O   UNL     1     -13.661  11.887  34.915  1.00  0.00    -0.385 OA
ATOM     21  H   UNL     1     -13.447  10.926  34.552  1.00  0.00     0.211 HD
ENDBRANCH  15  20
ENDBRANCH   8   9
ENDBRANCH   7   8
ENDBRANCH   1   7
BRANCH   2  22
ATOM     22  O   UNL     1     -18.763  14.974  31.237  1.00  0.00    -0.387 OA
ATOM     23  H   UNL     1     -18.316  15.548  30.526  1.00  0.00     0.211 HD
ENDBRANCH   2  22
BRANCH   3  24
ATOM     24  O   UNL     1     -19.163  15.704  34.615  1.00  0.00    -0.387 OA
ATOM     25  H   UNL     1     -18.418  15.536  35.263  1.00  0.00     0.211 HD
ENDBRANCH   3  24
BRANCH   5  26
ATOM     26  O   UNL     1     -16.212  12.954  35.350  1.00  0.00    -0.454 OA
BRANCH  26  27
ATOM     27  C   UNL     1     -16.714  12.196  36.420  1.00  0.00     0.214 A 
ATOM     28  C   UNL     1     -17.338  12.707  37.559  1.00  0.00     0.180 A 
ATOM     29  C   UNL     1     -16.936  10.839  36.084  1.00  0.00     0.239 A 
ATOM     30  O   UNL     1     -18.202  12.008  38.212  1.00  0.00    -0.452 OA
ATOM     31  C   UNL     1     -18.124  10.271  36.587  1.00  0.00     0.111 A 
ATOM     32  O   UNL     1     -16.183  10.191  35.351  1.00  0.00    -0.285 OA
ATOM     33  C   UNL     1     -18.674  10.858  37.754  1.00  0.00     0.146 A 
ATOM     34  C   UNL     1     -18.817   9.289  35.936  1.00  0.00     0.134 A 
ATOM     35  C   UNL     1     -19.739  10.215  38.389  1.00  0.00     0.094 A 
ATOM     36  C   UNL     1     -19.959   8.826  36.452  1.00  0.00     0.093 A 
ATOM     37  C   UNL     1     -20.374   9.125  37.707  1.00  0.00     0.123 A 
BRANCH  28  38
ATOM     38  C   UNL     1     -17.099  14.180  37.955  1.00  0.00     0.025 A 
ATOM     39  C   UNL     1     -18.045  15.257  37.809  1.00  0.00     0.062 A 
ATOM     40  C   UNL     1     -16.051  14.460  38.773  1.00  0.00     0.016 A 
ATOM     41  C   UNL     1     -17.800  16.558  38.170  1.00  0.00     0.158 A 
ATOM     42  C   UNL     1     -15.693  15.726  39.178  1.00  0.00     0.051 A 
ATOM     43  C   UNL     1     -16.560  16.831  38.813  1.00  0.00     0.157 A 
BRANCH  41  44
ATOM     44  O   UNL     1     -18.654  17.593  37.942  1.00  0.00    -0.504 OA
ATOM     45  H   UNL     1     -18.586  18.480  38.449  1.00  0.00     0.293 HD
ENDBRANCH  41  44
BRANCH  43  46
ATOM     46  O   UNL     1     -16.143  18.124  39.181  1.00  0.00    -0.504 OA
ATOM     47  H   UNL     1     -16.543  18.909  38.688  1.00  0.00     0.293 HD
ENDBRANCH  43  46
ENDBRANCH  28  38
BRANCH  34  48
ATOM     48  O   UNL     1     -18.409   8.902  34.634  1.00  0.00    -0.507 OA
ATOM     49  H   UNL     1     -17.435   8.678  34.376  1.00  0.00     0.293 HD
ENDBRANCH  34  48
BRANCH  37  50
ATOM     50  O   UNL     1     -21.459   8.487  38.385  1.00  0.00    -0.508 OA
ATOM     51  H   UNL     1     -22.344   8.875  38.298  1.00  0.00     0.293 HD
ENDBRANCH  37  50
ENDBRANCH  26  27
ENDBRANCH   5  26
BRANCH   4  52
ATOM     52  O   UNL     1     -19.305  12.279  33.989  1.00  0.00    -0.384 OA
ATOM     53  H   UNL     1     -20.143  12.610  33.401  1.00  0.00     0.211 HD
ENDBRANCH   4  52
TORSDOF 16
ENDMDL
MODEL 3
REMARK VINA RESULT:    -7.986     12.747     16.036
REMARK INTER + INTRA:         -15.284
REMARK INTER:                 -11.171
REMARK INTRA:                  -4.113
REMARK UNBOUND:                -2.162
REMARK SMILES C[C@@H]1O[C@H](OC[C@H]2O[C@H](Oc3c(-c4ccc(O)c(O)c4)oc4cc(O)cc(O)c4c3=O)[C@H](O)[C@@H](O)[C@@H]2O)[C@H](O)[C@H](O)[C@H]1O
REMARK SMILES IDX 7 1 36 2 34 3 32 4 9 5 8 6 6 7 5 8 4 9 1 10 2 11 42 12 3 13
REMARK SMILES IDX 40 14 38 15 43 16 41 18 39 20 37 22 35 24 10 26 11 27 12 28
REMARK SMILES IDX 30 29 21 30 29 31 31 32 22 33 27 34 23 35 26 36 24 37 13 38
REMARK SMILES IDX 20 39 14 40 18 41 15 42 16 43 19 44 17 46 28 48 25 50 33 52
REMARK H PARENT 43 17 41 19 39 21 37 23 35 25 19 45 17 47 28 49 25 51 33 53
REMARK Flexibility Score: inf
ROOT
ATOM      1  C   UNL     1     -18.737  11.673  35.106  1.00  0.00     0.180 C 
ATOM      2  C   UNL     1     -18.301  10.819  36.421  1.00  0.00     0.177 C 
ATOM      3  C   UNL     1     -16.922  11.270  37.072  1.00  0.00     0.180 C 
ATOM      4  C   UNL     1     -16.128  12.416  36.286  1.00  0.00     0.214 C 
ATOM      5  C   UNL     1     -17.217  13.166  35.636  1.00  0.00     0.339 C 
ATOM      6  O   UNL     1     -17.693  12.432  34.559  1.00  0.00    -0.332 OA
ENDROOT
BRANCH   1   7
ATOM      7  C   UNL     1     -20.006  12.560  35.140  1.00  0.00     0.198 C 
BRANCH   7   8
ATOM      8  O   UNL     1     -20.572  12.762  33.892  1.00  0.00    -0.347 OA
BRANCH   8   9
ATOM      9  C   UNL     1     -20.578  14.177  33.445  1.00  0.00     0.281 C 
ATOM     10  C   UNL     1     -20.315  17.150  35.748  1.00  0.00     0.041 C 
ATOM     11  C   UNL     1     -20.887  16.315  34.605  1.00  0.00     0.150 C 
ATOM     12  C   UNL     1     -20.710  16.998  33.227  1.00  0.00     0.174 C 
ATOM     13  O   UNL     1     -20.435  14.954  34.631  1.00  0.00    -0.344 OA
ATOM     14  C   UNL     1     -19.483  16.407  32.742  1.00  0.00     0.179 C 
ATOM     15  C   UNL     1     -19.564  14.819  32.398  1.00  0.00     0.202 C 
BRANCH  12  16
ATOM     16  O   UNL     1     -21.754  16.662  32.424  1.00  0.00    -0.388 OA
ATOM     17  H   UNL     1     -22.393  17.435  32.460  1.00  0.00     0.211 HD
ENDBRANCH  12  16
BRANCH  14  18
ATOM     18  O   UNL     1     -18.391  16.741  33.654  1.00  0.00    -0.387 OA
ATOM     19  H   UNL     1     -18.372  16.074  34.350  1.00  0.00     0.211 HD
ENDBRANCH  14  18
BRANCH  15  20
ATOM     20  O   UNL     1     -18.314  14.210  32.519  1.00  0.00    -0.385 OA
ATOM     21  H   UNL     1     -18.237  13.345  31.930  1.00  0.00     0.211 HD
ENDBRANCH  15  20
ENDBRANCH   8   9
ENDBRANCH   7   8
ENDBRANCH   1   7
BRANCH   2  22
ATOM     22  O   UNL     1     -18.285   9.482  36.028  1.00  0.00    -0.387 OA
ATOM     23  H   UNL     1     -17.431   9.006  36.308  1.00  0.00     0.211 HD
ENDBRANCH   2  22
BRANCH   3  24
ATOM     24  O   UNL     1     -17.045  11.719  38.386  1.00  0.00    -0.387 OA
ATOM     25  H   UNL     1     -17.289  12.687  38.298  1.00  0.00     0.211 HD
ENDBRANCH   3  24
BRANCH   5  26
ATOM     26  O   UNL     1     -17.318  14.608  35.489  1.00  0.00    -0.454 OA
BRANCH  26  27
ATOM     27  C   UNL     1     -16.091  15.290  35.526  1.00  0.00     0.214 A 
ATOM     28  C   UNL     1     -15.417  15.694  36.679  1.00  0.00     0.180 A 
ATOM     29  C   UNL     1     -15.355  15.173  34.323  1.00  0.00     0.239 A 
ATOM     30  O   UNL     1     -14.135  15.823  36.687  1.00  0.00    -0.452 OA
ATOM     31  C   UNL     1     -13.968  14.965  34.473  1.00  0.00     0.111 A 
ATOM     32  O   UNL     1     -15.877  15.189  33.205  1.00  0.00    -0.285 OA
ATOM     33  C   UNL     1     -13.376  15.419  35.679  1.00  0.00     0.146 A 
ATOM     34  C   UNL     1     -13.219  14.246  33.585  1.00  0.00     0.134 A 
ATOM     35  C   UNL     1     -11.985  15.403  35.789  1.00  0.00     0.094 A 
ATOM     36  C   UNL     1     -11.917  14.054  33.812  1.00  0.00     0.093 A 
ATOM     37  C   UNL     1     -11.233  14.716  34.778  1.00  0.00     0.123 A 
BRANCH  28  38
ATOM     38  C   UNL     1     -16.203  15.844  38.000  1.00  0.00     0.025 A 
ATOM     39  C   UNL     1     -17.453  16.540  38.163  1.00  0.00     0.062 A 
ATOM     40  C   UNL     1     -15.876  15.025  39.034  1.00  0.00     0.016 A 
ATOM     41  C   UNL     1     -18.126  16.656  39.354  1.00  0.00     0.158 A 
ATOM     42  C   UNL     1     -16.462  15.069  40.279  1.00  0.00     0.051 A 
ATOM     43  C   UNL     1     -17.589  15.961  40.474  1.00  0.00     0.157 A 
BRANCH  41  44
ATOM     44  O   UNL     1     -19.255  17.395  39.530  1.00  0.00    -0.504 OA
ATOM     45  H   UNL     1     -20.040  17.359  38.874  1.00  0.00     0.293 HD
ENDBRANCH  41  44
BRANCH  43  46
ATOM     46  O   UNL     1     -18.131  16.039  41.770  1.00  0.00    -0.504 OA
ATOM     47  H   UNL     1     -17.595  16.517  42.481  1.00  0.00     0.293 HD
ENDBRANCH  43  46
ENDBRANCH  28  38
BRANCH  34  48
ATOM     48  O   UNL     1     -13.871  13.561  32.527  1.00  0.00    -0.507 OA
ATOM     49  H   UNL     1     -13.646  13.691  31.529  1.00  0.00     0.293 HD
ENDBRANCH  34  48
BRANCH  37  50
ATOM     50  O   UNL     1      -9.811  14.719  34.919  1.00  0.00    -0.508 OA
ATOM     51  H   UNL     1      -9.282  15.114  34.208  1.00  0.00     0.293 HD
ENDBRANCH  37  50
ENDBRANCH  26  27
ENDBRANCH   5  26
BRANCH   4  52
ATOM     52  O   UNL     1     -15.261  11.845  35.394  1.00  0.00    -0.384 OA
ATOM     53  H   UNL     1     -15.485  12.198  34.403  1.00  0.00     0.211 HD
ENDBRANCH   4  52
TORSDOF 16
ENDMDL
MODEL 4
REMARK VINA RESULT:    -7.964      3.167      7.780
REMARK INTER + INTRA:         -15.248
REMARK INTER:                 -12.813
REMARK INTRA:                  -2.435
REMARK UNBOUND:                -2.162
REMARK SMILES C[C@@H]1O[C@H](OC[C@H]2O[C@H](Oc3c(-c4ccc(O)c(O)c4)oc4cc(O)cc(O)c4c3=O)[C@H](O)[C@@H](O)[C@@H]2O)[C@H](O)[C@H](O)[C@H]1O
REMARK SMILES IDX 7 1 36 2 34 3 32 4 9 5 8 6 6 7 5 8 4 9 1 10 2 11 42 12 3 13
REMARK SMILES IDX 40 14 38 15 43 16 41 18 39 20 37 22 35 24 10 26 11 27 12 28
REMARK SMILES IDX 30 29 21 30 29 31 31 32 22 33 27 34 23 35 26 36 24 37 13 38
REMARK SMILES IDX 20 39 14 40 18 41 15 42 16 43 19 44 17 46 28 48 25 50 33 52
REMARK H PARENT 43 17 41 19 39 21 37 23 35 25 19 45 17 47 28 49 25 51 33 53
REMARK Flexibility Score: inf
ROOT
ATOM      1  C   UNL     1      -5.696   3.458  33.678  1.00  0.00     0.180 C 
ATOM      2  C   UNL     1      -4.545   2.835  32.711  1.00  0.00     0.177 C 
ATOM      3  C   UNL     1      -4.716   1.285  32.399  1.00  0.00     0.180 C 
ATOM      4  C   UNL     1      -5.922   0.555  33.156  1.00  0.00     0.214 C 
ATOM      5  C   UNL     1      -6.892   1.650  33.333  1.00  0.00     0.339 C 
ATOM      6  O   UNL     1      -6.452   2.486  34.348  1.00  0.00    -0.332 OA
ENDROOT
BRANCH   1   7
ATOM      7  C   UNL     1      -6.671   4.531  33.134  1.00  0.00     0.198 C 
BRANCH   7   8
ATOM      8  O   UNL     1      -6.984   5.513  34.060  1.00  0.00    -0.347 OA
BRANCH   8   9
ATOM      9  C   UNL     1      -8.422   5.874  34.107  1.00  0.00     0.281 C 
ATOM     10  C   UNL     1     -11.089   3.819  35.801  1.00  0.00     0.041 C 
ATOM     11  C   UNL     1     -10.459   4.632  34.674  1.00  0.00     0.150 C 
ATOM     12  C   UNL     1     -11.241   5.934  34.375  1.00  0.00     0.174 C 
ATOM     13  O   UNL     1      -9.052   4.840  34.859  1.00  0.00    -0.344 OA
ATOM     14  C   UNL     1     -10.534   6.912  35.170  1.00  0.00     0.179 C 
ATOM     15  C   UNL     1      -9.014   7.234  34.686  1.00  0.00     0.202 C 
BRANCH  12  16
ATOM     16  O   UNL     1     -11.135   6.224  33.051  1.00  0.00    -0.388 OA
ATOM     17  H   UNL     1     -12.058   6.123  32.669  1.00  0.00     0.211 HD
ENDBRANCH  12  16
BRANCH  14  18
ATOM     18  O   UNL     1     -10.620   6.543  36.581  1.00  0.00    -0.387 OA
ATOM     19  H   UNL     1     -10.004   5.818  36.736  1.00  0.00     0.211 HD
ENDBRANCH  14  18
BRANCH  15  20
ATOM     20  O   UNL     1      -8.227   7.675  35.751  1.00  0.00    -0.385 OA
ATOM     21  H   UNL     1      -7.224   7.808  35.472  1.00  0.00     0.211 HD
ENDBRANCH  15  20
ENDBRANCH   8   9
ENDBRANCH   7   8
ENDBRANCH   1   7
BRANCH   2  22
ATOM     22  O   UNL     1      -3.327   3.117  33.325  1.00  0.00    -0.387 OA
ATOM     23  H   UNL     1      -3.373   3.030  34.337  1.00  0.00     0.211 HD
ENDBRANCH   2  22
BRANCH   3  24
ATOM     24  O   UNL     1      -4.886   1.002  31.045  1.00  0.00    -0.387 OA
ATOM     25  H   UNL     1      -5.852   0.756  30.960  1.00  0.00     0.211 HD
ENDBRANCH   3  24
BRANCH   5  26
ATOM     26  O   UNL     1      -8.336   1.571  33.185  1.00  0.00    -0.454 OA
BRANCH  26  27
ATOM     27  C   UNL     1      -8.801   0.387  32.589  1.00  0.00     0.214 A 
ATOM     28  C   UNL     1      -9.561  -0.599  33.220  1.00  0.00     0.180 A 
ATOM     29  C   UNL     1      -8.817   0.447  31.176  1.00  0.00     0.239 A 
ATOM     30  O   UNL     1     -10.364  -1.349  32.546  1.00  0.00    -0.452 OA
ATOM     31  C   UNL     1      -9.948  -0.117  30.552  1.00  0.00     0.111 A 
ATOM     32  O   UNL     1      -7.938   1.003  30.511  1.00  0.00    -0.285 OA
ATOM     33  C   UNL     1     -10.648  -1.119  31.273  1.00  0.00     0.146 A 
ATOM     34  C   UNL     1     -10.460   0.344  29.372  1.00  0.00     0.134 A 
ATOM     35  C   UNL     1     -11.656  -1.831  30.621  1.00  0.00     0.094 A 
ATOM     36  C   UNL     1     -11.562  -0.212  28.860  1.00  0.00     0.093 A 
ATOM     37  C   UNL     1     -12.094  -1.364  29.338  1.00  0.00     0.123 A 
BRANCH  28  38
ATOM     38  C   UNL     1      -9.547  -0.694  34.761  1.00  0.00     0.025 A 
ATOM     39  C   UNL     1      -8.413  -1.053  35.574  1.00  0.00     0.062 A 
ATOM     40  C   UNL     1     -10.570  -0.118  35.445  1.00  0.00     0.016 A 
ATOM     41  C   UNL     1      -8.435  -1.129  36.945  1.00  0.00     0.158 A 
ATOM     42  C   UNL     1     -10.711  -0.155  36.814  1.00  0.00     0.051 A 
ATOM     43  C   UNL     1      -9.638  -0.737  37.598  1.00  0.00     0.157 A 
BRANCH  41  44
ATOM     44  O   UNL     1      -7.395  -1.562  37.707  1.00  0.00    -0.504 OA
ATOM     45  H   UNL     1      -7.522  -2.216  38.484  1.00  0.00     0.293 HD
ENDBRANCH  41  44
BRANCH  43  46
ATOM     46  O   UNL     1      -9.831  -0.824  38.989  1.00  0.00    -0.504 OA
ATOM     47  H   UNL     1     -10.374  -0.100  39.438  1.00  0.00     0.293 HD
ENDBRANCH  43  46
ENDBRANCH  28  38
BRANCH  34  48
ATOM     48  O   UNL     1      -9.920   1.524  28.799  1.00  0.00    -0.507 OA
ATOM     49  H   UNL     1     -10.017   1.780  27.804  1.00  0.00     0.293 HD
ENDBRANCH  34  48
BRANCH  37  50
ATOM     50  O   UNL     1     -13.126  -2.117  28.697  1.00  0.00    -0.508 OA
ATOM     51  H   UNL     1     -14.027  -1.758  28.706  1.00  0.00     0.293 HD
ENDBRANCH  37  50
ENDBRANCH  26  27
ENDBRANCH   5  26
BRANCH   4  52
ATOM     52  O   UNL     1      -5.475   0.037  34.341  1.00  0.00    -0.384 OA
ATOM     53  H   UNL     1      -4.405  -0.068  34.304  1.00  0.00     0.211 HD
ENDBRANCH   4  52
TORSDOF 16
ENDMDL
MODEL 5
REMARK VINA RESULT:    -7.808      3.022      8.339
REMARK INTER + INTRA:         -14.992
REMARK INTER:                 -13.573
REMARK INTRA:                  -1.419
REMARK UNBOUND:                -2.162
REMARK SMILES C[C@@H]1O[C@H](OC[C@H]2O[C@H](Oc3c(-c4ccc(O)c(O)c4)oc4cc(O)cc(O)c4c3=O)[C@H](O)[C@@H](O)[C@@H]2O)[C@H](O)[C@H](O)[C@H]1O
REMARK SMILES IDX 7 1 36 2 34 3 32 4 9 5 8 6 6 7 5 8 4 9 1 10 2 11 42 12 3 13
REMARK SMILES IDX 40 14 38 15 43 16 41 18 39 20 37 22 35 24 10 26 11 27 12 28
REMARK SMILES IDX 30 29 21 30 29 31 31 32 22 33 27 34 23 35 26 36 24 37 13 38
REMARK SMILES IDX 20 39 14 40 18 41 15 42 16 43 19 44 17 46 28 48 25 50 33 52
REMARK H PARENT 43 17 41 19 39 21 37 23 35 25 19 45 17 47 28 49 25 51 33 53
REMARK Flexibility Score: inf
ROOT
ATOM      1  C   UNL     1      -8.665   2.151  35.556  1.00  0.00     0.180 C 
ATOM      2  C   UNL     1      -9.326   0.696  35.859  1.00  0.00     0.177 C 
ATOM      3  C   UNL     1     -10.893   0.727  36.127  1.00  0.00     0.180 C 
ATOM      4  C   UNL     1     -11.561   2.181  36.159  1.00  0.00     0.214 C 
ATOM      5  C   UNL     1     -10.688   2.949  35.254  1.00  0.00     0.339 C 
ATOM      6  O   UNL     1      -9.494   3.227  35.903  1.00  0.00    -0.332 OA
ENDROOT
BRANCH   1   7
ATOM      7  C   UNL     1      -8.050   2.451  34.167  1.00  0.00     0.198 C 
BRANCH   7   8
ATOM      8  O   UNL     1      -6.877   3.185  34.229  1.00  0.00    -0.347 OA
BRANCH   8   9
ATOM      9  C   UNL     1      -5.773   2.648  33.395  1.00  0.00     0.281 C 
ATOM     10  C   UNL     1      -5.551  -0.912  32.177  1.00  0.00     0.041 C 
ATOM     11  C   UNL     1      -5.045   0.380  32.812  1.00  0.00     0.150 C 
ATOM     12  C   UNL     1      -3.913   1.041  31.990  1.00  0.00     0.174 C 
ATOM     13  O   UNL     1      -6.106   1.284  33.152  1.00  0.00    -0.344 OA
ATOM     14  C   UNL     1      -4.634   1.991  31.174  1.00  0.00     0.179 C 
ATOM     15  C   UNL     1      -5.317   3.226  31.984  1.00  0.00     0.202 C 
BRANCH  12  16
ATOM     16  O   UNL     1      -3.062   1.682  32.834  1.00  0.00    -0.388 OA
ATOM     17  H   UNL     1      -2.666   0.972  33.423  1.00  0.00     0.211 HD
ENDBRANCH  12  16
BRANCH  14  18
ATOM     18  O   UNL     1      -5.577   1.277  30.316  1.00  0.00    -0.387 OA
ATOM     19  H   UNL     1      -6.411   1.761  30.325  1.00  0.00     0.211 HD
ENDBRANCH  14  18
BRANCH  15  20
ATOM     20  O   UNL     1      -6.425   3.729  31.300  1.00  0.00    -0.385 OA
ATOM     21  H   UNL     1      -6.180   4.047  30.330  1.00  0.00     0.211 HD
ENDBRANCH  15  20
ENDBRANCH   8   9
ENDBRANCH   7   8
ENDBRANCH   1   7
BRANCH   2  22
ATOM     22  O   UNL     1      -8.619   0.165  36.935  1.00  0.00    -0.387 OA
ATOM     23  H   UNL     1      -8.835  -0.816  37.096  1.00  0.00     0.211 HD
ENDBRANCH   2  22
BRANCH   3  24
ATOM     24  O   UNL     1     -11.633  -0.015  35.208  1.00  0.00    -0.387 OA
ATOM     25  H   UNL     1     -11.196  -0.916  35.204  1.00  0.00     0.211 HD
ENDBRANCH   3  24
BRANCH   5  26
ATOM     26  O   UNL     1     -11.100   3.942  34.275  1.00  0.00    -0.454 OA
BRANCH  26  27
ATOM     27  C   UNL     1     -11.947   4.943  34.776  1.00  0.00     0.214 A 
ATOM     28  C   UNL     1     -11.617   6.292  34.923  1.00  0.00     0.180 A 
ATOM     29  C   UNL     1     -13.316   4.587  34.730  1.00  0.00     0.239 A 
ATOM     30  O   UNL     1     -12.526   7.205  34.879  1.00  0.00    -0.452 OA
ATOM     31  C   UNL     1     -14.199   5.607  34.322  1.00  0.00     0.111 A 
ATOM     32  O   UNL     1     -13.728   3.449  34.971  1.00  0.00    -0.285 OA
ATOM     33  C   UNL     1     -13.775   6.945  34.522  1.00  0.00     0.146 A 
ATOM     34  C   UNL     1     -15.358   5.364  33.640  1.00  0.00     0.134 A 
ATOM     35  C   UNL     1     -14.689   7.978  34.306  1.00  0.00     0.094 A 
ATOM     36  C   UNL     1     -16.128   6.384  33.247  1.00  0.00     0.093 A 
ATOM     37  C   UNL     1     -15.936   7.656  33.673  1.00  0.00     0.123 A 
BRANCH  28  38
ATOM     38  C   UNL     1     -10.130   6.703  34.991  1.00  0.00     0.025 A 
ATOM     39  C   UNL     1      -9.079   6.209  34.139  1.00  0.00     0.062 A 
ATOM     40  C   UNL     1      -9.808   7.823  35.689  1.00  0.00     0.016 A 
ATOM     41  C   UNL     1      -7.764   6.595  34.227  1.00  0.00     0.158 A 
ATOM     42  C   UNL     1      -8.526   8.290  35.869  1.00  0.00     0.051 A 
ATOM     43  C   UNL     1      -7.449   7.617  35.166  1.00  0.00     0.157 A 
BRANCH  41  44
ATOM     44  O   UNL     1      -6.755   6.057  33.490  1.00  0.00    -0.504 OA
ATOM     45  H   UNL     1      -6.159   6.627  32.882  1.00  0.00     0.293 HD
ENDBRANCH  41  44
BRANCH  43  46
ATOM     46  O   UNL     1      -6.139   8.069  35.413  1.00  0.00    -0.504 OA
ATOM     47  H   UNL     1      -6.006   9.048  35.619  1.00  0.00     0.293 HD
ENDBRANCH  43  46
ENDBRANCH  28  38
BRANCH  34  48
ATOM     48  O   UNL     1     -15.637   4.045  33.201  1.00  0.00    -0.507 OA
ATOM     49  H   UNL     1     -16.546   3.573  33.328  1.00  0.00     0.293 HD
ENDBRANCH  34  48
BRANCH  37  50
ATOM     50  O   UNL     1     -16.850   8.735  33.468  1.00  0.00    -0.508 OA
ATOM     51  H   UNL     1     -16.767   9.258  32.655  1.00  0.00     0.293 HD
ENDBRANCH  37  50
ENDBRANCH  26  27
ENDBRANCH   5  26
BRANCH   4  52
ATOM     52  O   UNL     1     -11.560   2.660  37.441  1.00  0.00    -0.384 OA
ATOM     53  H   UNL     1     -12.574   2.800  37.771  1.00  0.00     0.211 HD
ENDBRANCH   4  52
TORSDOF 16
ENDMDL
MODEL 6
REMARK VINA RESULT:    -7.671     12.991     16.970
REMARK INTER + INTRA:         -14.766
REMARK INTER:                 -11.006
REMARK INTRA:                  -3.760
REMARK UNBOUND:                -2.162
REMARK SMILES C[C@@H]1O[C@H](OC[C@H]2O[C@H](Oc3c(-c4ccc(O)c(O)c4)oc4cc(O)cc(O)c4c3=O)[C@H](O)[C@@H](O)[C@@H]2O)[C@H](O)[C@H](O)[C@H]1O
REMARK SMILES IDX 7 1 36 2 34 3 32 4 9 5 8 6 6 7 5 8 4 9 1 10 2 11 42 12 3 13
REMARK SMILES IDX 40 14 38 15 43 16 41 18 39 20 37 22 35 24 10 26 11 27 12 28
REMARK SMILES IDX 30 29 21 30 29 31 31 32 22 33 27 34 23 35 26 36 24 37 13 38
REMARK SMILES IDX 20 39 14 40 18 41 15 42 16 43 19 44 17 46 28 48 25 50 33 52
REMARK H PARENT 43 17 41 19 39 21 37 23 35 25 19 45 17 47 28 49 25 51 33 53
REMARK Flexibility Score: inf
ROOT
ATOM      1  C   UNL     1     -20.554  17.363  34.902  1.00  0.00     0.180 C 
ATOM      2  C   UNL     1     -21.707  16.890  33.855  1.00  0.00     0.177 C 
ATOM      3  C   UNL     1     -21.303  15.648  32.948  1.00  0.00     0.180 C 
ATOM      4  C   UNL     1     -19.802  15.120  33.126  1.00  0.00     0.214 C 
ATOM      5  C   UNL     1     -19.509  15.469  34.527  1.00  0.00     0.339 C 
ATOM      6  O   UNL     1     -19.287  16.835  34.616  1.00  0.00    -0.332 OA
ENDROOT
BRANCH   1   7
ATOM      7  C   UNL     1     -20.790  17.240  36.427  1.00  0.00     0.198 C 
BRANCH   7   8
ATOM      8  O   UNL     1     -20.025  18.118  37.177  1.00  0.00    -0.347 OA
BRANCH   8   9
ATOM      9  C   UNL     1     -19.049  17.460  38.081  1.00  0.00     0.281 C 
ATOM     10  C   UNL     1     -19.283  13.882  39.242  1.00  0.00     0.041 C 
ATOM     11  C   UNL     1     -19.089  15.389  39.392  1.00  0.00     0.150 C 
ATOM     12  C   UNL     1     -17.665  15.758  39.871  1.00  0.00     0.174 C 
ATOM     13  O   UNL     1     -19.510  16.120  38.232  1.00  0.00    -0.344 OA
ATOM     14  C   UNL     1     -16.977  16.022  38.628  1.00  0.00     0.179 C 
ATOM     15  C   UNL     1     -17.484  17.339  37.818  1.00  0.00     0.202 C 
BRANCH  12  16
ATOM     16  O   UNL     1     -17.726  16.881  40.633  1.00  0.00    -0.388 OA
ATOM     17  H   UNL     1     -18.657  16.913  41.008  1.00  0.00     0.211 HD
ENDBRANCH  12  16
BRANCH  14  18
ATOM     18  O   UNL     1     -16.974  14.812  37.808  1.00  0.00    -0.387 OA
ATOM     19  H   UNL     1     -17.477  14.996  37.007  1.00  0.00     0.211 HD
ENDBRANCH  14  18
BRANCH  15  20
ATOM     20  O   UNL     1     -17.244  17.215  36.449  1.00  0.00    -0.385 OA
ATOM     21  H   UNL     1     -16.767  18.062  36.053  1.00  0.00     0.211 HD
ENDBRANCH  15  20
ENDBRANCH   8   9
ENDBRANCH   7   8
ENDBRANCH   1   7
BRANCH   2  22
ATOM     22  O   UNL     1     -22.027  18.013  33.097  1.00  0.00    -0.387 OA
ATOM     23  H   UNL     1     -23.031  18.171  33.041  1.00  0.00     0.211 HD
ENDBRANCH   2  22
BRANCH   3  24
ATOM     24  O   UNL     1     -22.125  14.536  33.123  1.00  0.00    -0.387 OA
ATOM     25  H   UNL     1     -22.836  14.848  33.755  1.00  0.00     0.211 HD
ENDBRANCH   3  24
BRANCH   5  26
ATOM     26  O   UNL     1     -18.783  14.664  35.495  1.00  0.00    -0.454 OA
BRANCH  26  27
ATOM     27  C   UNL     1     -18.858  13.278  35.280  1.00  0.00     0.214 A 
ATOM     28  C   UNL     1     -17.773  12.428  35.056  1.00  0.00     0.180 A 
ATOM     29  C   UNL     1     -20.074  12.712  35.728  1.00  0.00     0.239 A 
ATOM     30  O   UNL     1     -17.830  11.182  35.378  1.00  0.00    -0.452 OA
ATOM     31  C   UNL     1     -19.964  11.473  36.392  1.00  0.00     0.111 A 
ATOM     32  O   UNL     1     -21.167  13.273  35.609  1.00  0.00    -0.285 OA
ATOM     33  C   UNL     1     -18.829  10.679  36.089  1.00  0.00     0.146 A 
ATOM     34  C   UNL     1     -20.815  11.079  37.386  1.00  0.00     0.134 A 
ATOM     35  C   UNL     1     -18.775   9.373  36.579  1.00  0.00     0.094 A 
ATOM     36  C   UNL     1     -20.625   9.908  38.002  1.00  0.00     0.093 A 
ATOM     37  C   UNL     1     -19.751   8.974  37.552  1.00  0.00     0.123 A 
BRANCH  28  38
ATOM     38  C   UNL     1     -16.439  13.021  34.551  1.00  0.00     0.025 A 
ATOM     39  C   UNL     1     -15.166  12.919  35.217  1.00  0.00     0.062 A 
ATOM     40  C   UNL     1     -16.365  13.414  33.253  1.00  0.00     0.016 A 
ATOM     41  C   UNL     1     -13.997  13.460  34.742  1.00  0.00     0.158 A 
ATOM     42  C   UNL     1     -15.258  13.993  32.675  1.00  0.00     0.051 A 
ATOM     43  C   UNL     1     -14.043  14.082  33.462  1.00  0.00     0.157 A 
BRANCH  41  44
ATOM     44  O   UNL     1     -12.815  13.449  35.416  1.00  0.00    -0.504 OA
ATOM     45  H   UNL     1     -12.100  14.168  35.276  1.00  0.00     0.293 HD
ENDBRANCH  41  44
BRANCH  43  46
ATOM     46  O   UNL     1     -12.943  14.735  32.876  1.00  0.00    -0.504 OA
ATOM     47  H   UNL     1     -12.218  14.166  32.463  1.00  0.00     0.293 HD
ENDBRANCH  43  46
ENDBRANCH  28  38
BRANCH  34  48
ATOM     48  O   UNL     1     -21.779  11.997  37.874  1.00  0.00    -0.507 OA
ATOM     49  H   UNL     1     -22.791  11.930  37.682  1.00  0.00     0.293 HD
ENDBRANCH  34  48
BRANCH  37  50
ATOM     50  O   UNL     1     -19.670   7.630  38.032  1.00  0.00    -0.508 OA
ATOM     51  H   UNL     1     -20.309   7.345  38.704  1.00  0.00     0.293 HD
ENDBRANCH  37  50
ENDBRANCH  26  27
ENDBRANCH   5  26
BRANCH   4  52
ATOM     52  O   UNL     1     -18.983  15.752  32.231  1.00  0.00    -0.384 OA
ATOM     53  H   UNL     1     -18.957  15.192  31.313  1.00  0.00     0.211 HD
ENDBRANCH   4  52
TORSDOF 16
ENDMDL
MODEL 7
REMARK VINA RESULT:    -7.623     12.611     16.025
REMARK INTER + INTRA:         -14.687
REMARK INTER:                 -11.074
REMARK INTRA:                  -3.613
REMARK UNBOUND:                -2.162
REMARK SMILES C[C@@H]1O[C@H](OC[C@H]2O[C@H](Oc3c(-c4ccc(O)c(O)c4)oc4cc(O)cc(O)c4c3=O)[C@H](O)[C@@H](O)[C@@H]2O)[C@H](O)[C@H](O)[C@H]1O
REMARK SMILES IDX 7 1 36 2 34 3 32 4 9 5 8 6 6 7 5 8 4 9 1 10 2 11 42 12 3 13
REMARK SMILES IDX 40 14 38 15 43 16 41 18 39 20 37 22 35 24 10 26 11 27 12 28
REMARK SMILES IDX 30 29 21 30 29 31 31 32 22 33 27 34 23 35 26 36 24 37 13 38
REMARK SMILES IDX 20 39 14 40 18 41 15 42 16 43 19 44 17 46 28 48 25 50 33 52
REMARK H PARENT 43 17 41 19 39 21 37 23 35 25 19 45 17 47 28 49 25 51 33 53
REMARK Flexibility Score: inf
ROOT
ATOM      1  C   UNL     1     -19.048  11.491  34.457  1.00  0.00     0.180 C 
ATOM      2  C   UNL     1     -19.089  10.241  35.496  1.00  0.00     0.177 C 
ATOM      3  C   UNL     1     -17.880  10.203  36.530  1.00  0.00     0.180 C 
ATOM      4  C   UNL     1     -16.763  11.332  36.328  1.00  0.00     0.214 C 
ATOM      5  C   UNL     1     -17.534  12.437  35.735  1.00  0.00     0.339 C 
ATOM      6  O   UNL     1     -17.806  12.139  34.408  1.00  0.00    -0.332 OA
ENDROOT
BRANCH   1   7
ATOM      7  C   UNL     1     -20.151  12.577  34.502  1.00  0.00     0.198 C 
BRANCH   7   8
ATOM      8  O   UNL     1     -20.464  13.100  33.258  1.00  0.00    -0.347 OA
BRANCH   8   9
ATOM      9  C   UNL     1     -20.019  14.500  33.053  1.00  0.00     0.281 C 
ATOM     10  C   UNL     1     -19.311  16.948  35.830  1.00  0.00     0.041 C 
ATOM     11  C   UNL     1     -19.909  16.469  34.510  1.00  0.00     0.150 C 
ATOM     12  C   UNL     1     -19.348  17.241  33.292  1.00  0.00     0.174 C 
ATOM     13  O   UNL     1     -19.851  15.043  34.359  1.00  0.00    -0.344 OA
ATOM     14  C   UNL     1     -18.269  16.387  32.851  1.00  0.00     0.179 C 
ATOM     15  C   UNL     1     -18.724  14.949  32.242  1.00  0.00     0.202 C 
BRANCH  12  16
ATOM     16  O   UNL     1     -20.311  17.329  32.336  1.00  0.00    -0.388 OA
ATOM     17  H   UNL     1     -20.268  18.267  31.983  1.00  0.00     0.211 HD
ENDBRANCH  12  16
BRANCH  14  18
ATOM     18  O   UNL     1     -17.277  16.269  33.918  1.00  0.00    -0.387 OA
ATOM     19  H   UNL     1     -17.285  17.091  34.422  1.00  0.00     0.211 HD
ENDBRANCH  14  18
BRANCH  15  20
ATOM     20  O   UNL     1     -17.718  13.993  32.395  1.00  0.00    -0.385 OA
ATOM     21  H   UNL     1     -16.809  14.421  32.697  1.00  0.00     0.211 HD
ENDBRANCH  15  20
ENDBRANCH   8   9
ENDBRANCH   7   8
ENDBRANCH   1   7
BRANCH   2  22
ATOM     22  O   UNL     1     -19.149   9.089  34.716  1.00  0.00    -0.387 OA
ATOM     23  H   UNL     1     -18.486   8.379  35.019  1.00  0.00     0.211 HD
ENDBRANCH   2  22
BRANCH   3  24
ATOM     24  O   UNL     1     -18.280  10.293  37.862  1.00  0.00    -0.387 OA
ATOM     25  H   UNL     1     -17.947  11.187  38.164  1.00  0.00     0.211 HD
ENDBRANCH   3  24
BRANCH   5  26
ATOM     26  O   UNL     1     -17.400  13.854  36.031  1.00  0.00    -0.454 OA
BRANCH  26  27
ATOM     27  C   UNL     1     -17.275  14.159  37.396  1.00  0.00     0.214 A 
ATOM     28  C   UNL     1     -16.215  14.852  37.983  1.00  0.00     0.180 A 
ATOM     29  C   UNL     1     -18.504  14.094  38.094  1.00  0.00     0.239 A 
ATOM     30  O   UNL     1     -16.385  15.532  39.064  1.00  0.00    -0.452 OA
ATOM     31  C   UNL     1     -18.729  15.122  39.032  1.00  0.00     0.111 A 
ATOM     32  O   UNL     1     -19.363  13.237  37.874  1.00  0.00    -0.285 OA
ATOM     33  C   UNL     1     -17.585  15.759  39.577  1.00  0.00     0.146 A 
ATOM     34  C   UNL     1     -19.973  15.605  39.329  1.00  0.00     0.134 A 
ATOM     35  C   UNL     1     -17.755  16.648  40.639  1.00  0.00     0.094 A 
ATOM     36  C   UNL     1     -20.108  16.611  40.198  1.00  0.00     0.093 A 
ATOM     37  C   UNL     1     -19.090  17.052  40.977  1.00  0.00     0.123 A 
BRANCH  28  38
ATOM     38  C   UNL     1     -14.859  14.924  37.246  1.00  0.00     0.025 A 
ATOM     39  C   UNL     1     -14.020  13.801  36.913  1.00  0.00     0.062 A 
ATOM     40  C   UNL     1     -14.549  16.072  36.590  1.00  0.00     0.016 A 
ATOM     41  C   UNL     1     -12.817  13.900  36.258  1.00  0.00     0.158 A 
ATOM     42  C   UNL     1     -13.365  16.294  35.924  1.00  0.00     0.051 A 
ATOM     43  C   UNL     1     -12.429  15.191  35.803  1.00  0.00     0.157 A 
BRANCH  41  44
ATOM     44  O   UNL     1     -11.978  12.853  36.030  1.00  0.00    -0.504 OA
ATOM     45  H   UNL     1     -11.136  12.943  35.455  1.00  0.00     0.293 HD
ENDBRANCH  41  44
BRANCH  43  46
ATOM     46  O   UNL     1     -11.198  15.458  35.176  1.00  0.00    -0.504 OA
ATOM     47  H   UNL     1     -10.483  15.924  35.714  1.00  0.00     0.293 HD
ENDBRANCH  43  46
ENDBRANCH  28  38
BRANCH  34  48
ATOM     48  O   UNL     1     -21.086  15.153  38.576  1.00  0.00    -0.507 OA
ATOM     49  H   UNL     1     -22.067  15.388  38.795  1.00  0.00     0.293 HD
ENDBRANCH  34  48
BRANCH  37  50
ATOM     50  O   UNL     1     -19.231  17.961  42.071  1.00  0.00    -0.508 OA
ATOM     51  H   UNL     1     -19.838  17.723  42.788  1.00  0.00     0.293 HD
ENDBRANCH  37  50
ENDBRANCH  26  27
ENDBRANCH   5  26
BRANCH   4  52
ATOM     52  O   UNL     1     -15.777  10.860  35.504  1.00  0.00    -0.384 OA
ATOM     53  H   UNL     1     -14.830  11.270  35.808  1.00  0.00     0.211 HD
ENDBRANCH   4  52
TORSDOF 16
ENDMDL
MODEL 8
REMARK VINA RESULT:    -7.436     12.338     16.519
REMARK INTER + INTRA:         -14.380
REMARK INTER:                 -10.880
REMARK INTRA:                  -3.501
REMARK UNBOUND:                -2.162
REMARK SMILES C[C@@H]1O[C@H](OC[C@H]2O[C@H](Oc3c(-c4ccc(O)c(O)c4)oc4cc(O)cc(O)c4c3=O)[C@H](O)[C@@H](O)[C@@H]2O)[C@H](O)[C@H](O)[C@H]1O
REMARK SMILES IDX 7 1 36 2 34 3 32 4 9 5 8 6 6 7 5 8 4 9 1 10 2 11 42 12 3 13
REMARK SMILES IDX 40 14 38 15 43 16 41 18 39 20 37 22 35 24 10 26 11 27 12 28
REMARK SMILES IDX 30 29 21 30 29 31 31 32 22 33 27 34 23 35 26 36 24 37 13 38
REMARK SMILES IDX 20 39 14 40 18 41 15 42 16 43 19 44 17 46 28 48 25 50 33 52
REMARK H PARENT 43 17 41 19 39 21 37 23 35 25 19 45 17 47 28 49 25 51 33 53
REMARK Flexibility Score: inf
ROOT
ATOM      1  C   UNL     1     -16.559  15.734  32.008  1.00  0.00     0.180 C 
ATOM      2  C   UNL     1     -17.871  16.611  31.614  1.00  0.00     0.177 C 
ATOM      3  C   UNL     1     -19.204  16.174  32.364  1.00  0.00     0.180 C 
ATOM      4  C   UNL     1     -19.078  14.887  33.307  1.00  0.00     0.214 C 
ATOM      5  C   UNL     1     -17.668  14.942  33.729  1.00  0.00     0.339 C 
ATOM      6  O   UNL     1     -16.863  14.539  32.675  1.00  0.00    -0.332 OA
ENDROOT
BRANCH   1   7
ATOM      7  C   UNL     1     -15.369  16.401  32.741  1.00  0.00     0.198 C 
BRANCH   7   8
ATOM      8  O   UNL     1     -14.148  15.808  32.466  1.00  0.00    -0.347 OA
BRANCH   8   9
ATOM      9  C   UNL     1     -13.459  15.245  33.653  1.00  0.00     0.281 C 
ATOM     10  C   UNL     1     -14.024  16.393  37.199  1.00  0.00     0.041 C 
ATOM     11  C   UNL     1     -13.205  15.995  35.974  1.00  0.00     0.150 C 
ATOM     12  C   UNL     1     -12.367  14.716  36.212  1.00  0.00     0.174 C 
ATOM     13  O   UNL     1     -13.989  15.950  34.773  1.00  0.00    -0.344 OA
ATOM     14  C   UNL     1     -13.228  13.678  35.692  1.00  0.00     0.179 C 
ATOM     15  C   UNL     1     -13.464  13.712  34.083  1.00  0.00     0.202 C 
BRANCH  12  16
ATOM     16  O   UNL     1     -11.218  14.793  35.490  1.00  0.00    -0.388 OA
ATOM     17  H   UNL     1     -11.182  15.727  35.123  1.00  0.00     0.211 HD
ENDBRANCH  12  16
BRANCH  14  18
ATOM     18  O   UNL     1     -14.475  13.656  36.453  1.00  0.00    -0.387 OA
ATOM     19  H   UNL     1     -14.346  14.181  37.251  1.00  0.00     0.211 HD
ENDBRANCH  14  18
BRANCH  15  20
ATOM     20  O   UNL     1     -14.685  13.130  33.737  1.00  0.00    -0.385 OA
ATOM     21  H   UNL     1     -14.560  12.271  33.147  1.00  0.00     0.211 HD
ENDBRANCH  15  20
ENDBRANCH   8   9
ENDBRANCH   7   8
ENDBRANCH   1   7
BRANCH   2  22
ATOM     22  O   UNL     1     -17.995  16.525  30.230  1.00  0.00    -0.387 OA
ATOM     23  H   UNL     1     -18.962  16.425  29.932  1.00  0.00     0.211 HD
ENDBRANCH   2  22
BRANCH   3  24
ATOM     24  O   UNL     1     -19.754  17.179  33.159  1.00  0.00    -0.387 OA
ATOM     25  H   UNL     1     -20.270  16.688  33.862  1.00  0.00     0.211 HD
ENDBRANCH   3  24
BRANCH   5  26
ATOM     26  O   UNL     1     -17.140  14.651  35.052  1.00  0.00    -0.454 OA
BRANCH  26  27
ATOM     27  C   UNL     1     -18.099  14.640  36.078  1.00  0.00     0.214 A 
ATOM     28  C   UNL     1     -18.549  13.509  36.761  1.00  0.00     0.180 A 
ATOM     29  C   UNL     1     -18.281  15.907  36.681  1.00  0.00     0.239 A 
ATOM     30  O   UNL     1     -18.992  13.597  37.968  1.00  0.00    -0.452 OA
ATOM     31  C   UNL     1     -18.412  15.902  38.085  1.00  0.00     0.111 A 
ATOM     32  O   UNL     1     -18.271  16.966  36.048  1.00  0.00    -0.285 OA
ATOM     33  C   UNL     1     -18.885  14.707  38.683  1.00  0.00     0.146 A 
ATOM     34  C   UNL     1     -17.988  16.930  38.879  1.00  0.00     0.134 A 
ATOM     35  C   UNL     1     -19.206  14.719  40.042  1.00  0.00     0.094 A 
ATOM     36  C   UNL     1     -18.106  16.840  40.207  1.00  0.00     0.093 A 
ATOM     37  C   UNL     1     -18.824  15.865  40.817  1.00  0.00     0.123 A 
BRANCH  28  38
ATOM     38  C   UNL     1     -18.375  12.117  36.116  1.00  0.00     0.025 A 
ATOM     39  C   UNL     1     -17.128  11.415  35.949  1.00  0.00     0.062 A 
ATOM     40  C   UNL     1     -19.481  11.345  35.955  1.00  0.00     0.016 A 
ATOM     41  C   UNL     1     -17.007  10.176  35.368  1.00  0.00     0.158 A 
ATOM     42  C   UNL     1     -19.485  10.102  35.363  1.00  0.00     0.051 A 
ATOM     43  C   UNL     1     -18.211   9.515  34.994  1.00  0.00     0.157 A 
BRANCH  41  44
ATOM     44  O   UNL     1     -15.822   9.556  35.121  1.00  0.00    -0.504 OA
ATOM     45  H   UNL     1     -15.744   8.538  35.046  1.00  0.00     0.293 HD
ENDBRANCH  41  44
BRANCH  43  46
ATOM     46  O   UNL     1     -18.242   8.274  34.332  1.00  0.00    -0.504 OA
ATOM     47  H   UNL     1     -18.867   7.564  34.684  1.00  0.00     0.293 HD
ENDBRANCH  43  46
ENDBRANCH  28  38
BRANCH  34  48
ATOM     48  O   UNL     1     -17.264  18.001  38.295  1.00  0.00    -0.507 OA
ATOM     49  H   UNL     1     -17.317  18.979  38.619  1.00  0.00     0.293 HD
ENDBRANCH  34  48
BRANCH  37  50
ATOM     50  O   UNL     1     -19.169  15.847  42.204  1.00  0.00    -0.508 OA
ATOM     51  H   UNL     1     -20.093  16.009  42.448  1.00  0.00     0.293 HD
ENDBRANCH  37  50
ENDBRANCH  26  27
ENDBRANCH   5  26
BRANCH   4  52
ATOM     52  O   UNL     1     -19.381  13.761  32.590  1.00  0.00    -0.384 OA
ATOM     53  H   UNL     1     -19.456  12.922  33.258  1.00  0.00     0.211 HD
ENDBRANCH   4  52
TORSDOF 16
ENDMDL
MODEL 9
REMARK VINA RESULT:    -7.346     12.869     16.465
REMARK INTER + INTRA:         -14.233
REMARK INTER:                 -10.110
REMARK INTRA:                  -4.123
REMARK UNBOUND:                -2.162
REMARK SMILES C[C@@H]1O[C@H](OC[C@H]2O[C@H](Oc3c(-c4ccc(O)c(O)c4)oc4cc(O)cc(O)c4c3=O)[C@H](O)[C@@H](O)[C@@H]2O)[C@H](O)[C@H](O)[C@H]1O
REMARK SMILES IDX 7 1 36 2 34 3 32 4 9 5 8 6 6 7 5 8 4 9 1 10 2 11 42 12 3 13
REMARK SMILES IDX 40 14 38 15 43 16 41 18 39 20 37 22 35 24 10 26 11 27 12 28
REMARK SMILES IDX 30 29 21 30 29 31 31 32 22 33 27 34 23 35 26 36 24 37 13 38
REMARK SMILES IDX 20 39 14 40 18 41 15 42 16 43 19 44 17 46 28 48 25 50 33 52
REMARK H PARENT 43 17 41 19 39 21 37 23 35 25 19 45 17 47 28 49 25 51 33 53
REMARK Flexibility Score: inf
ROOT
ATOM      1  C   UNL     1     -19.525  16.892  34.705  1.00  0.00     0.180 C 
ATOM      2  C   UNL     1     -19.824  16.085  33.325  1.00  0.00     0.177 C 
ATOM      3  C   UNL     1     -18.640  15.137  32.846  1.00  0.00     0.180 C 
ATOM      4  C   UNL     1     -17.306  15.195  33.730  1.00  0.00     0.214 C 
ATOM      5  C   UNL     1     -17.826  15.548  35.063  1.00  0.00     0.339 C 
ATOM      6  O   UNL     1     -18.172  16.891  35.074  1.00  0.00    -0.332 OA
ENDROOT
BRANCH   1   7
ATOM      7  C   UNL     1     -20.366  16.602  35.973  1.00  0.00     0.198 C 
BRANCH   7   8
ATOM      8  O   UNL     1     -20.363  17.643  36.887  1.00  0.00    -0.347 OA
BRANCH   8   9
ATOM      9  C   UNL     1     -19.818  17.286  38.220  1.00  0.00     0.281 C 
ATOM     10  C   UNL     1     -19.318  13.759  39.452  1.00  0.00     0.041 C 
ATOM     11  C   UNL     1     -19.776  15.213  39.529  1.00  0.00     0.150 C 
ATOM     12  C   UNL     1     -19.027  16.012  40.622  1.00  0.00     0.174 C 
ATOM     13  O   UNL     1     -19.781  15.862  38.249  1.00  0.00    -0.344 OA
ATOM     14  C   UNL     1     -17.952  16.627  39.878  1.00  0.00     0.179 C 
ATOM     15  C   UNL     1     -18.410  17.754  38.797  1.00  0.00     0.202 C 
BRANCH  12  16
ATOM     16  O   UNL     1     -19.859  16.958  41.134  1.00  0.00    -0.388 OA
ATOM     17  H   UNL     1     -20.772  16.748  40.776  1.00  0.00     0.211 HD
ENDBRANCH  12  16
BRANCH  14  18
ATOM     18  O   UNL     1     -17.107  15.586  39.296  1.00  0.00    -0.387 OA
ATOM     19  H   UNL     1     -17.667  14.829  39.093  1.00  0.00     0.211 HD
ENDBRANCH  14  18
BRANCH  15  20
ATOM     20  O   UNL     1     -17.486  17.862  37.756  1.00  0.00    -0.385 OA
ATOM     21  H   UNL     1     -16.515  18.050  38.107  1.00  0.00     0.211 HD
ENDBRANCH  15  20
ENDBRANCH   8   9
ENDBRANCH   7   8
ENDBRANCH   1   7
BRANCH   2  22
ATOM     22  O   UNL     1     -20.143  17.049  32.372  1.00  0.00    -0.387 OA
ATOM     23  H   UNL     1     -19.372  17.234  31.734  1.00  0.00     0.211 HD
ENDBRANCH   2  22
BRANCH   3  24
ATOM     24  O   UNL     1     -18.995  13.790  32.776  1.00  0.00    -0.387 OA
ATOM     25  H   UNL     1     -18.173  13.299  33.069  1.00  0.00     0.211 HD
ENDBRANCH   3  24
BRANCH   5  26
ATOM     26  O   UNL     1     -17.384  15.017  36.341  1.00  0.00    -0.454 OA
BRANCH  26  27
ATOM     27  C   UNL     1     -16.068  14.527  36.350  1.00  0.00     0.214 A 
ATOM     28  C   UNL     1     -15.675  13.239  35.980  1.00  0.00     0.180 A 
ATOM     29  C   UNL     1     -15.094  15.552  36.353  1.00  0.00     0.239 A 
ATOM     30  O   UNL     1     -14.493  13.014  35.519  1.00  0.00    -0.452 OA
ATOM     31  C   UNL     1     -13.978  15.338  35.518  1.00  0.00     0.111 A 
ATOM     32  O   UNL     1     -15.217  16.602  36.991  1.00  0.00    -0.285 OA
ATOM     33  C   UNL     1     -13.656  13.993  35.207  1.00  0.00     0.146 A 
ATOM     34  C   UNL     1     -13.295  16.352  34.907  1.00  0.00     0.134 A 
ATOM     35  C   UNL     1     -12.458  13.728  34.541  1.00  0.00     0.094 A 
ATOM     36  C   UNL     1     -12.272  16.073  34.095  1.00  0.00     0.093 A 
ATOM     37  C   UNL     1     -11.725  14.836  33.999  1.00  0.00     0.123 A 
BRANCH  28  38
ATOM     38  C   UNL     1     -16.718  12.100  35.984  1.00  0.00     0.025 A 
ATOM     39  C   UNL     1     -17.499  11.676  37.117  1.00  0.00     0.062 A 
ATOM     40  C   UNL     1     -17.170  11.644  34.787  1.00  0.00     0.016 A 
ATOM     41  C   UNL     1     -18.418  10.657  37.088  1.00  0.00     0.158 A 
ATOM     42  C   UNL     1     -18.068  10.612  34.634  1.00  0.00     0.051 A 
ATOM     43  C   UNL     1     -18.672  10.048  35.827  1.00  0.00     0.157 A 
BRANCH  41  44
ATOM     44  O   UNL     1     -19.085  10.191  38.179  1.00  0.00    -0.504 OA
ATOM     45  H   UNL     1     -18.803   9.337  38.667  1.00  0.00     0.293 HD
ENDBRANCH  41  44
BRANCH  43  46
ATOM     46  O   UNL     1     -19.536   8.951  35.653  1.00  0.00    -0.504 OA
ATOM     47  H   UNL     1     -19.318   8.094  36.139  1.00  0.00     0.293 HD
ENDBRANCH  43  46
ENDBRANCH  28  38
BRANCH  34  48
ATOM     48  O   UNL     1     -13.794  17.676  35.002  1.00  0.00    -0.507 OA
ATOM     49  H   UNL     1     -13.657  18.399  34.279  1.00  0.00     0.293 HD
ENDBRANCH  34  48
BRANCH  37  50
ATOM     50  O   UNL     1     -10.502  14.531  33.326  1.00  0.00    -0.508 OA
ATOM     51  H   UNL     1     -10.372  14.884  32.432  1.00  0.00     0.293 HD
ENDBRANCH  37  50
ENDBRANCH  26  27
ENDBRANCH   5  26
BRANCH   4  52
ATOM     52  O   UNL     1     -16.457  16.138  33.217  1.00  0.00    -0.384 OA
ATOM     53  H   UNL     1     -16.741  17.110  33.580  1.00  0.00     0.211 HD
ENDBRANCH   4  52
TORSDOF 16
ENDMDL
