MODEL 1
REMARK VINA RESULT:    -6.836      0.000      0.000
REMARK INTER + INTRA:          -8.390
REMARK INTER:                  -8.235
REMARK INTRA:                  -0.156
REMARK UNBOUND:                -0.156
REMARK SMILES O=c1c(O)c(-c2ccc(O)c(O)c2)oc2cc(O)cc(O)c12
REMARK SMILES IDX 5 1 3 2 2 3 1 4 22 5 20 6 19 7 17 8 16 9 15 10 14 11 6 12
REMARK SMILES IDX 7 13 8 14 9 15 13 16 11 17 10 18 12 20 4 22 21 24 18 26
REMARK H PARENT 10 19 12 21 4 23 21 25 18 27
REMARK Flexibility Score: inf
ROOT
ATOM      1  C   UNL     1      30.849 -92.165  37.298  1.00  0.00     0.180 A 
ATOM      2  C   UNL     1      29.608 -92.722  36.944  1.00  0.00     0.208 A 
ATOM      3  C   UNL     1      29.431 -94.111  37.049  1.00  0.00     0.238 A 
ATOM      4  O   UNL     1      28.301 -94.599  36.783  1.00  0.00    -0.285 OA
ATOM      5  C   UNL     1      30.500 -94.926  37.491  1.00  0.00     0.111 A 
ATOM      6  C   UNL     1      30.446 -96.348  37.597  1.00  0.00     0.134 A 
ATOM      7  C   UNL     1      31.519 -97.041  38.170  1.00  0.00     0.093 A 
ATOM      8  C   UNL     1      32.673 -96.368  38.580  1.00  0.00     0.123 A 
ATOM      9  C   UNL     1      32.760 -94.986  38.426  1.00  0.00     0.094 A 
ATOM     10  C   UNL     1      31.690 -94.264  37.892  1.00  0.00     0.146 A 
ATOM     11  O   UNL     1      31.811 -92.948  37.772  1.00  0.00    -0.452 OA
ENDROOT
BRANCH   1  12
ATOM     12  C   UNL     1      31.119 -90.712  37.191  1.00  0.00     0.025 A 
ATOM     13  C   UNL     1      32.049 -90.251  36.246  1.00  0.00     0.016 A 
ATOM     14  C   UNL     1      32.305 -88.885  36.114  1.00  0.00     0.051 A 
ATOM     15  C   UNL     1      31.625 -87.958  36.910  1.00  0.00     0.157 A 
ATOM     16  C   UNL     1      30.421 -89.778  37.976  1.00  0.00     0.062 A 
ATOM     17  C   UNL     1      30.674 -88.405  37.843  1.00  0.00     0.158 A 
BRANCH  15  18
ATOM     18  O   UNL     1      31.902 -86.599  36.756  1.00  0.00    -0.504 OA
ATOM     19  H   UNL     1      32.604 -86.127  37.311  1.00  0.00     0.293 HD
ENDBRANCH  15  18
BRANCH  17  20
ATOM     20  O   UNL     1      29.983 -87.485  38.630  1.00  0.00    -0.504 OA
ATOM     21  H   UNL     1      30.401 -87.073  39.456  1.00  0.00     0.293 HD
ENDBRANCH  17  20
ENDBRANCH   1  12
BRANCH   2  22
ATOM     22  O   UNL     1      28.558 -91.897  36.531  1.00  0.00    -0.502 OA
ATOM     23  H   UNL     1      28.627 -90.887  36.533  1.00  0.00     0.293 HD
ENDBRANCH   2  22
BRANCH   6  24
ATOM     24  O   UNL     1      29.379 -97.125  37.134  1.00  0.00    -0.507 OA
ATOM     25  H   UNL     1      29.253 -98.106  37.333  1.00  0.00     0.293 HD
ENDBRANCH   6  24
BRANCH   8  26
ATOM     26  O   UNL     1      33.744 -97.067  39.134  1.00  0.00    -0.508 OA
ATOM     27  H   UNL     1      33.782 -97.282  40.123  1.00  0.00     0.293 HD
ENDBRANCH   8  26
TORSDOF 6
ENDMDL
MODEL 2
REMARK VINA RESULT:    -5.607      9.465     11.045
REMARK INTER + INTRA:          -6.910
REMARK INTER:                  -6.758
REMARK INTRA:                  -0.152
REMARK UNBOUND:                -0.156
REMARK SMILES O=c1c(O)c(-c2ccc(O)c(O)c2)oc2cc(O)cc(O)c12
REMARK SMILES IDX 5 1 3 2 2 3 1 4 22 5 20 6 19 7 17 8 16 9 15 10 14 11 6 12
REMARK SMILES IDX 7 13 8 14 9 15 13 16 11 17 10 18 12 20 4 22 21 24 18 26
REMARK H PARENT 10 19 12 21 4 23 21 25 18 27
REMARK Flexibility Score: inf
ROOT
ATOM      1  C   UNL     1      37.392 -95.555  30.700  1.00  0.00     0.180 A 
ATOM      2  C   UNL     1      38.040 -96.211  29.639  1.00  0.00     0.208 A 
ATOM      3  C   UNL     1      37.360 -96.374  28.422  1.00  0.00     0.238 A 
ATOM      4  O   UNL     1      37.964 -96.914  27.458  1.00  0.00    -0.285 OA
ATOM      5  C   UNL     1      36.035 -95.894  28.286  1.00  0.00     0.111 A 
ATOM      6  C   UNL     1      35.236 -96.041  27.112  1.00  0.00     0.134 A 
ATOM      7  C   UNL     1      33.987 -95.413  27.043  1.00  0.00     0.093 A 
ATOM      8  C   UNL     1      33.479 -94.698  28.132  1.00  0.00     0.123 A 
ATOM      9  C   UNL     1      34.226 -94.599  29.303  1.00  0.00     0.094 A 
ATOM     10  C   UNL     1      35.492 -95.185  29.388  1.00  0.00     0.146 A 
ATOM     11  O   UNL     1      36.174 -95.058  30.520  1.00  0.00    -0.452 OA
ENDROOT
BRANCH   1  12
ATOM     12  C   UNL     1      38.036 -95.367  32.021  1.00  0.00     0.025 A 
ATOM     13  C   UNL     1      39.163 -94.537  32.129  1.00  0.00     0.016 A 
ATOM     14  C   UNL     1      39.772 -94.329  33.367  1.00  0.00     0.051 A 
ATOM     15  C   UNL     1      39.258 -94.933  34.519  1.00  0.00     0.157 A 
ATOM     16  C   UNL     1      37.507 -95.957  33.183  1.00  0.00     0.062 A 
ATOM     17  C   UNL     1      38.116 -95.748  34.428  1.00  0.00     0.158 A 
BRANCH  15  18
ATOM     18  O   UNL     1      39.889 -94.709  35.743  1.00  0.00    -0.504 OA
ATOM     19  H   UNL     1      39.377 -94.424  36.568  1.00  0.00     0.293 HD
ENDBRANCH  15  18
BRANCH  17  20
ATOM     20  O   UNL     1      37.591 -96.341  35.574  1.00  0.00    -0.504 OA
ATOM     21  H   UNL     1      37.685 -95.910  36.487  1.00  0.00     0.293 HD
ENDBRANCH  17  20
ENDBRANCH   1  12
BRANCH   2  22
ATOM     22  O   UNL     1      39.356 -96.658  29.787  1.00  0.00    -0.502 OA
ATOM     23  H   UNL     1      39.583 -97.617  30.019  1.00  0.00     0.293 HD
ENDBRANCH   2  22
BRANCH   6  24
ATOM     24  O   UNL     1      35.610 -96.809  26.005  1.00  0.00    -0.507 OA
ATOM     25  H   UNL     1      36.535 -97.178  25.847  1.00  0.00     0.293 HD
ENDBRANCH   6  24
BRANCH   8  26
ATOM     26  O   UNL     1      32.228 -94.090  28.061  1.00  0.00    -0.508 OA
ATOM     27  H   UNL     1      31.634 -94.001  28.877  1.00  0.00     0.293 HD
ENDBRANCH   8  26
TORSDOF 6
ENDMDL
MODEL 3
REMARK VINA RESULT:    -5.590      9.494     10.930
REMARK INTER + INTRA:          -6.890
REMARK INTER:                  -6.715
REMARK INTRA:                  -0.174
REMARK UNBOUND:                -0.156
REMARK SMILES O=c1c(O)c(-c2ccc(O)c(O)c2)oc2cc(O)cc(O)c12
REMARK SMILES IDX 5 1 3 2 2 3 1 4 22 5 20 6 19 7 17 8 16 9 15 10 14 11 6 12
REMARK SMILES IDX 7 13 8 14 9 15 13 16 11 17 10 18 12 20 4 22 21 24 18 26
REMARK H PARENT 10 19 12 21 4 23 21 25 18 27
REMARK Flexibility Score: inf
ROOT
ATOM      1  C   UNL     1      36.195 -95.510  29.699  1.00  0.00     0.180 A 
ATOM      2  C   UNL     1      37.276 -95.942  28.911  1.00  0.00     0.208 A 
ATOM      3  C   UNL     1      38.566 -95.941  29.465  1.00  0.00     0.238 A 
ATOM      4  O   UNL     1      39.522 -96.380  28.774  1.00  0.00    -0.285 OA
ATOM      5  C   UNL     1      38.761 -95.494  30.794  1.00  0.00     0.111 A 
ATOM      6  C   UNL     1      40.030 -95.412  31.443  1.00  0.00     0.134 A 
ATOM      7  C   UNL     1      40.090 -95.079  32.802  1.00  0.00     0.093 A 
ATOM      8  C   UNL     1      38.933 -94.761  33.518  1.00  0.00     0.123 A 
ATOM      9  C   UNL     1      37.696 -94.780  32.877  1.00  0.00     0.094 A 
ATOM     10  C   UNL     1      37.601 -95.144  31.532  1.00  0.00     0.146 A 
ATOM     11  O   UNL     1      36.402 -95.158  30.963  1.00  0.00    -0.452 OA
ENDROOT
BRANCH   1  12
ATOM     12  C   UNL     1      34.810 -95.459  29.177  1.00  0.00     0.025 A 
ATOM     13  C   UNL     1      34.498 -94.576  28.131  1.00  0.00     0.016 A 
ATOM     14  C   UNL     1      33.204 -94.526  27.610  1.00  0.00     0.051 A 
ATOM     15  C   UNL     1      32.206 -95.368  28.112  1.00  0.00     0.157 A 
ATOM     16  C   UNL     1      33.811 -96.320  29.666  1.00  0.00     0.062 A 
ATOM     17  C   UNL     1      32.511 -96.273  29.142  1.00  0.00     0.158 A 
BRANCH  15  18
ATOM     18  O   UNL     1      30.922 -95.295  27.573  1.00  0.00    -0.504 OA
ATOM     19  H   UNL     1      30.558 -96.006  26.952  1.00  0.00     0.293 HD
ENDBRANCH  15  18
BRANCH  17  20
ATOM     20  O   UNL     1      31.525 -97.125  29.638  1.00  0.00    -0.504 OA
ATOM     21  H   UNL     1      31.675 -98.124  29.712  1.00  0.00     0.293 HD
ENDBRANCH  17  20
ENDBRANCH   1  12
BRANCH   2  22
ATOM     22  O   UNL     1      37.058 -96.400  27.609  1.00  0.00    -0.502 OA
ATOM     23  H   UNL     1      36.512 -95.880  26.933  1.00  0.00     0.293 HD
ENDBRANCH   2  22
BRANCH   6  24
ATOM     24  O   UNL     1      41.252 -95.620  30.797  1.00  0.00    -0.507 OA
ATOM     25  H   UNL     1      42.055 -95.014  30.877  1.00  0.00     0.293 HD
ENDBRANCH   6  24
BRANCH   8  26
ATOM     26  O   UNL     1      39.004 -94.414  34.866  1.00  0.00    -0.508 OA
ATOM     27  H   UNL     1      39.415 -93.539  35.167  1.00  0.00     0.293 HD
ENDBRANCH   8  26
TORSDOF 6
ENDMDL
MODEL 4
REMARK VINA RESULT:    -5.479      9.101     11.355
REMARK INTER + INTRA:          -6.756
REMARK INTER:                  -6.555
REMARK INTRA:                  -0.201
REMARK UNBOUND:                -0.156
REMARK SMILES O=c1c(O)c(-c2ccc(O)c(O)c2)oc2cc(O)cc(O)c12
REMARK SMILES IDX 5 1 3 2 2 3 1 4 22 5 20 6 19 7 17 8 16 9 15 10 14 11 6 12
REMARK SMILES IDX 7 13 8 14 9 15 13 16 11 17 10 18 12 20 4 22 21 24 18 26
REMARK H PARENT 10 19 12 21 4 23 21 25 18 27
REMARK Flexibility Score: inf
ROOT
ATOM      1  C   UNL     1      40.392 -95.649  35.828  1.00  0.00     0.180 A 
ATOM      2  C   UNL     1      41.585 -95.657  35.085  1.00  0.00     0.208 A 
ATOM      3  C   UNL     1      41.517 -95.555  33.687  1.00  0.00     0.238 A 
ATOM      4  O   UNL     1      42.591 -95.507  33.031  1.00  0.00    -0.285 OA
ATOM      5  C   UNL     1      40.258 -95.462  33.048  1.00  0.00     0.111 A 
ATOM      6  C   UNL     1      40.069 -95.395  31.634  1.00  0.00     0.134 A 
ATOM      7  C   UNL     1      38.786 -95.173  31.118  1.00  0.00     0.093 A 
ATOM      8  C   UNL     1      37.676 -95.083  31.963  1.00  0.00     0.123 A 
ATOM      9  C   UNL     1      37.842 -95.207  33.340  1.00  0.00     0.094 A 
ATOM     10  C   UNL     1      39.115 -95.392  33.886  1.00  0.00     0.146 A 
ATOM     11  O   UNL     1      39.230 -95.495  35.204  1.00  0.00    -0.452 OA
ENDROOT
BRANCH   1  12
ATOM     12  C   UNL     1      40.382 -95.778  37.304  1.00  0.00     0.025 A 
ATOM     13  C   UNL     1      40.779 -96.988  37.895  1.00  0.00     0.016 A 
ATOM     14  C   UNL     1      40.796 -97.125  39.284  1.00  0.00     0.051 A 
ATOM     15  C   UNL     1      40.434 -96.052  40.105  1.00  0.00     0.157 A 
ATOM     16  C   UNL     1      40.039 -94.694  38.131  1.00  0.00     0.062 A 
ATOM     17  C   UNL     1      40.058 -94.828  39.526  1.00  0.00     0.158 A 
BRANCH  15  18
ATOM     18  O   UNL     1      40.460 -96.219  41.489  1.00  0.00    -0.504 OA
ATOM     19  H   UNL     1      39.863 -95.683  42.107  1.00  0.00     0.293 HD
ENDBRANCH  15  18
BRANCH  17  20
ATOM     20  O   UNL     1      39.709 -93.751  40.339  1.00  0.00    -0.504 OA
ATOM     21  H   UNL     1      39.230 -93.885  41.222  1.00  0.00     0.293 HD
ENDBRANCH  17  20
ENDBRANCH   1  12
BRANCH   2  22
ATOM     22  O   UNL     1      42.819 -95.728  35.737  1.00  0.00    -0.502 OA
ATOM     23  H   UNL     1      42.905 -95.700  36.746  1.00  0.00     0.293 HD
ENDBRANCH   2  22
BRANCH   6  24
ATOM     24  O   UNL     1      41.095 -95.564  30.701  1.00  0.00    -0.507 OA
ATOM     25  H   UNL     1      41.583 -96.432  30.534  1.00  0.00     0.293 HD
ENDBRANCH   6  24
BRANCH   8  26
ATOM     26  O   UNL     1      36.400 -94.879  31.440  1.00  0.00    -0.508 OA
ATOM     27  H   UNL     1      35.966 -93.964  31.443  1.00  0.00     0.293 HD
ENDBRANCH   8  26
TORSDOF 6
ENDMDL
MODEL 5
REMARK VINA RESULT:    -5.432      1.225      2.965
REMARK INTER + INTRA:          -6.699
REMARK INTER:                  -6.650
REMARK INTRA:                  -0.049
REMARK UNBOUND:                -0.156
REMARK SMILES O=c1c(O)c(-c2ccc(O)c(O)c2)oc2cc(O)cc(O)c12
REMARK SMILES IDX 5 1 3 2 2 3 1 4 22 5 20 6 19 7 17 8 16 9 15 10 14 11 6 12
REMARK SMILES IDX 7 13 8 14 9 15 13 16 11 17 10 18 12 20 4 22 21 24 18 26
REMARK H PARENT 10 19 12 21 4 23 21 25 18 27
REMARK Flexibility Score: inf
ROOT
ATOM      1  C   UNL     1      30.928 -92.071  37.295  1.00  0.00     0.180 A 
ATOM      2  C   UNL     1      31.967 -92.931  37.693  1.00  0.00     0.208 A 
ATOM      3  C   UNL     1      31.691 -94.296  37.867  1.00  0.00     0.238 A 
ATOM      4  O   UNL     1      32.637 -95.070  38.171  1.00  0.00    -0.285 OA
ATOM      5  C   UNL     1      30.378 -94.782  37.659  1.00  0.00     0.111 A 
ATOM      6  C   UNL     1      29.976 -96.139  37.847  1.00  0.00     0.134 A 
ATOM      7  C   UNL     1      28.682 -96.533  37.485  1.00  0.00     0.093 A 
ATOM      8  C   UNL     1      27.755 -95.604  37.004  1.00  0.00     0.123 A 
ATOM      9  C   UNL     1      28.119 -94.267  36.873  1.00  0.00     0.094 A 
ATOM     10  C   UNL     1      29.414 -93.851  37.192  1.00  0.00     0.146 A 
ATOM     11  O   UNL     1      29.722 -92.568  37.043  1.00  0.00    -0.452 OA
ENDROOT
BRANCH   1  12
ATOM     12  C   UNL     1      31.136 -90.616  37.113  1.00  0.00     0.025 A 
ATOM     13  C   UNL     1      32.109 -90.164  36.208  1.00  0.00     0.016 A 
ATOM     14  C   UNL     1      32.307 -88.797  36.006  1.00  0.00     0.051 A 
ATOM     15  C   UNL     1      31.527 -87.860  36.692  1.00  0.00     0.157 A 
ATOM     16  C   UNL     1      30.338 -89.673  37.786  1.00  0.00     0.062 A 
ATOM     17  C   UNL     1      30.534 -88.300  37.583  1.00  0.00     0.158 A 
BRANCH  15  18
ATOM     18  O   UNL     1      31.749 -86.501  36.471  1.00  0.00    -0.504 OA
ATOM     19  H   UNL     1      32.341 -86.167  35.721  1.00  0.00     0.293 HD
ENDBRANCH  15  18
BRANCH  17  20
ATOM     20  O   UNL     1      29.744 -87.372  38.260  1.00  0.00    -0.504 OA
ATOM     21  H   UNL     1      30.141 -86.533  38.667  1.00  0.00     0.293 HD
ENDBRANCH  17  20
ENDBRANCH   1  12
BRANCH   2  22
ATOM     22  O   UNL     1      33.261 -92.435  37.872  1.00  0.00    -0.502 OA
ATOM     23  H   UNL     1      34.051 -92.768  37.333  1.00  0.00     0.293 HD
ENDBRANCH   2  22
BRANCH   6  24
ATOM     24  O   UNL     1      30.795 -97.125  38.405  1.00  0.00    -0.507 OA
ATOM     25  H   UNL     1      31.609 -96.942  38.973  1.00  0.00     0.293 HD
ENDBRANCH   6  24
BRANCH   8  26
ATOM     26  O   UNL     1      26.464 -96.002  36.662  1.00  0.00    -0.508 OA
ATOM     27  H   UNL     1      26.297 -96.801  36.063  1.00  0.00     0.293 HD
ENDBRANCH   8  26
TORSDOF 6
ENDMDL
MODEL 6
REMARK VINA RESULT:    -5.415     15.018     16.595
REMARK INTER + INTRA:          -6.678
REMARK INTER:                  -6.546
REMARK INTRA:                  -0.132
REMARK UNBOUND:                -0.156
REMARK SMILES O=c1c(O)c(-c2ccc(O)c(O)c2)oc2cc(O)cc(O)c12
REMARK SMILES IDX 5 1 3 2 2 3 1 4 22 5 20 6 19 7 17 8 16 9 15 10 14 11 6 12
REMARK SMILES IDX 7 13 8 14 9 15 13 16 11 17 10 18 12 20 4 22 21 24 18 26
REMARK H PARENT 10 19 12 21 4 23 21 25 18 27
REMARK Flexibility Score: inf
ROOT
ATOM      1  C   UNL     1      37.246 -77.946  37.346  1.00  0.00     0.180 A 
ATOM      2  C   UNL     1      37.799 -77.814  36.060  1.00  0.00     0.208 A 
ATOM      3  C   UNL     1      36.941 -77.796  34.949  1.00  0.00     0.238 A 
ATOM      4  O   UNL     1      37.436 -77.622  33.805  1.00  0.00    -0.285 OA
ATOM      5  C   UNL     1      35.544 -77.929  35.136  1.00  0.00     0.111 A 
ATOM      6  C   UNL     1      34.585 -77.966  34.079  1.00  0.00     0.134 A 
ATOM      7  C   UNL     1      33.218 -77.969  34.386  1.00  0.00     0.093 A 
ATOM      8  C   UNL     1      32.778 -78.003  35.712  1.00  0.00     0.123 A 
ATOM      9  C   UNL     1      33.707 -78.027  36.749  1.00  0.00     0.094 A 
ATOM     10  C   UNL     1      35.076 -77.988  36.474  1.00  0.00     0.146 A 
ATOM     11  O   UNL     1      35.927 -78.003  37.493  1.00  0.00    -0.452 OA
ENDROOT
BRANCH   1  12
ATOM     12  C   UNL     1      38.088 -77.997  38.564  1.00  0.00     0.025 A 
ATOM     13  C   UNL     1      38.851 -76.875  38.924  1.00  0.00     0.016 A 
ATOM     14  C   UNL     1      39.636 -76.894  40.078  1.00  0.00     0.051 A 
ATOM     15  C   UNL     1      39.658 -78.025  40.900  1.00  0.00     0.157 A 
ATOM     16  C   UNL     1      38.095 -79.126  39.402  1.00  0.00     0.062 A 
ATOM     17  C   UNL     1      38.880 -79.146  40.564  1.00  0.00     0.158 A 
BRANCH  15  18
ATOM     18  O   UNL     1      40.452 -78.015  42.047  1.00  0.00    -0.504 OA
ATOM     19  H   UNL     1      41.228 -77.375  42.158  1.00  0.00     0.293 HD
ENDBRANCH  15  18
BRANCH  17  20
ATOM     20  O   UNL     1      38.887 -80.272  41.386  1.00  0.00    -0.504 OA
ATOM     21  H   UNL     1      38.311 -81.081  41.184  1.00  0.00     0.293 HD
ENDBRANCH  17  20
ENDBRANCH   1  12
BRANCH   2  22
ATOM     22  O   UNL     1      39.178 -77.662  35.900  1.00  0.00    -0.502 OA
ATOM     23  H   UNL     1      39.847 -78.007  36.578  1.00  0.00     0.293 HD
ENDBRANCH   2  22
BRANCH   6  24
ATOM     24  O   UNL     1      34.920 -78.028  32.723  1.00  0.00    -0.507 OA
ATOM     25  H   UNL     1      34.558 -78.708  32.072  1.00  0.00     0.293 HD
ENDBRANCH   6  24
BRANCH   8  26
ATOM     26  O   UNL     1      31.416 -78.022  36.007  1.00  0.00    -0.508 OA
ATOM     27  H   UNL     1      30.722 -78.211  35.295  1.00  0.00     0.293 HD
ENDBRANCH   8  26
TORSDOF 6
ENDMDL
MODEL 7
REMARK VINA RESULT:    -5.283      8.188     10.716
REMARK INTER + INTRA:          -6.520
REMARK INTER:                  -6.280
REMARK INTRA:                  -0.240
REMARK UNBOUND:                -0.156
REMARK SMILES O=c1c(O)c(-c2ccc(O)c(O)c2)oc2cc(O)cc(O)c12
REMARK SMILES IDX 5 1 3 2 2 3 1 4 22 5 20 6 19 7 17 8 16 9 15 10 14 11 6 12
REMARK SMILES IDX 7 13 8 14 9 15 13 16 11 17 10 18 12 20 4 22 21 24 18 26
REMARK H PARENT 10 19 12 21 4 23 21 25 18 27
REMARK Flexibility Score: inf
ROOT
ATOM      1  C   UNL     1      39.831 -95.431  35.277  1.00  0.00     0.180 A 
ATOM      2  C   UNL     1      40.935 -95.061  36.064  1.00  0.00     0.208 A 
ATOM      3  C   UNL     1      40.827 -95.127  37.462  1.00  0.00     0.238 A 
ATOM      4  O   UNL     1      41.837 -94.847  38.161  1.00  0.00    -0.285 OA
ATOM      5  C   UNL     1      39.612 -95.545  38.056  1.00  0.00     0.111 A 
ATOM      6  C   UNL     1      39.377 -95.609  39.462  1.00  0.00     0.134 A 
ATOM      7  C   UNL     1      38.182 -96.162  39.939  1.00  0.00     0.093 A 
ATOM      8  C   UNL     1      37.186 -96.591  39.058  1.00  0.00     0.123 A 
ATOM      9  C   UNL     1      37.381 -96.477  37.684  1.00  0.00     0.094 A 
ATOM     10  C   UNL     1      38.578 -95.964  37.178  1.00  0.00     0.146 A 
ATOM     11  O   UNL     1      38.727 -95.881  35.862  1.00  0.00    -0.452 OA
ENDROOT
BRANCH   1  12
ATOM     12  C   UNL     1      39.861 -95.365  33.797  1.00  0.00     0.025 A 
ATOM     13  C   UNL     1      39.185 -94.326  33.138  1.00  0.00     0.016 A 
ATOM     14  C   UNL     1      39.217 -94.233  31.745  1.00  0.00     0.051 A 
ATOM     15  C   UNL     1      39.936 -95.165  30.991  1.00  0.00     0.157 A 
ATOM     16  C   UNL     1      40.601 -96.290  33.038  1.00  0.00     0.062 A 
ATOM     17  C   UNL     1      40.636 -96.197  31.639  1.00  0.00     0.158 A 
BRANCH  15  18
ATOM     18  O   UNL     1      39.948 -95.048  29.600  1.00  0.00    -0.504 OA
ATOM     19  H   UNL     1      39.100 -94.918  29.064  1.00  0.00     0.293 HD
ENDBRANCH  15  18
BRANCH  17  20
ATOM     20  O   UNL     1      41.366 -97.121  30.894  1.00  0.00    -0.504 OA
ATOM     21  H   UNL     1      40.923 -97.926  30.465  1.00  0.00     0.293 HD
ENDBRANCH  17  20
ENDBRANCH   1  12
BRANCH   2  22
ATOM     22  O   UNL     1      42.133 -94.673  35.457  1.00  0.00    -0.502 OA
ATOM     23  H   UNL     1      43.039 -94.960  35.808  1.00  0.00     0.293 HD
ENDBRANCH   2  22
BRANCH   6  24
ATOM     24  O   UNL     1      40.268 -95.124  40.425  1.00  0.00    -0.507 OA
ATOM     25  H   UNL     1      40.507 -94.152  40.548  1.00  0.00     0.293 HD
ENDBRANCH   6  24
BRANCH   8  26
ATOM     26  O   UNL     1      35.992 -97.124  39.541  1.00  0.00    -0.508 OA
ATOM     27  H   UNL     1      35.795 -98.116  39.487  1.00  0.00     0.293 HD
ENDBRANCH   8  26
TORSDOF 6
ENDMDL
MODEL 8
REMARK VINA RESULT:    -5.190     10.466     11.929
REMARK INTER + INTRA:          -6.408
REMARK INTER:                  -6.085
REMARK INTRA:                  -0.323
REMARK UNBOUND:                -0.156
REMARK SMILES O=c1c(O)c(-c2ccc(O)c(O)c2)oc2cc(O)cc(O)c12
REMARK SMILES IDX 5 1 3 2 2 3 1 4 22 5 20 6 19 7 17 8 16 9 15 10 14 11 6 12
REMARK SMILES IDX 7 13 8 14 9 15 13 16 11 17 10 18 12 20 4 22 21 24 18 26
REMARK H PARENT 10 19 12 21 4 23 21 25 18 27
REMARK Flexibility Score: inf
ROOT
ATOM      1  C   UNL     1      39.953 -95.378  31.314  1.00  0.00     0.180 A 
ATOM      2  C   UNL     1      38.603 -95.555  31.660  1.00  0.00     0.208 A 
ATOM      3  C   UNL     1      38.251 -95.619  33.018  1.00  0.00     0.238 A 
ATOM      4  O   UNL     1      37.034 -95.723  33.324  1.00  0.00    -0.285 OA
ATOM      5  C   UNL     1      39.255 -95.522  34.011  1.00  0.00     0.111 A 
ATOM      6  C   UNL     1      39.018 -95.615  35.416  1.00  0.00     0.134 A 
ATOM      7  C   UNL     1      40.068 -95.373  36.311  1.00  0.00     0.093 A 
ATOM      8  C   UNL     1      41.360 -95.108  35.851  1.00  0.00     0.123 A 
ATOM      9  C   UNL     1      41.614 -95.074  34.482  1.00  0.00     0.094 A 
ATOM     10  C   UNL     1      40.580 -95.275  33.564  1.00  0.00     0.146 A 
ATOM     11  O   UNL     1      40.863 -95.225  32.269  1.00  0.00    -0.452 OA
ENDROOT
BRANCH   1  12
ATOM     12  C   UNL     1      40.404 -95.326  29.904  1.00  0.00     0.025 A 
ATOM     13  C   UNL     1      40.754 -96.516  29.245  1.00  0.00     0.016 A 
ATOM     14  C   UNL     1      41.162 -96.492  27.911  1.00  0.00     0.051 A 
ATOM     15  C   UNL     1      41.212 -95.284  27.208  1.00  0.00     0.157 A 
ATOM     16  C   UNL     1      40.434 -94.115  29.189  1.00  0.00     0.062 A 
ATOM     17  C   UNL     1      40.842 -94.089  27.848  1.00  0.00     0.158 A 
BRANCH  15  18
ATOM     18  O   UNL     1      41.625 -95.291  25.875  1.00  0.00    -0.504 OA
ATOM     19  H   UNL     1      41.022 -94.983  25.123  1.00  0.00     0.293 HD
ENDBRANCH  15  18
BRANCH  17  20
ATOM     20  O   UNL     1      40.876 -92.884  27.148  1.00  0.00    -0.504 OA
ATOM     21  H   UNL     1      40.027 -92.432  26.827  1.00  0.00     0.293 HD
ENDBRANCH  17  20
ENDBRANCH   1  12
BRANCH   2  22
ATOM     22  O   UNL     1      37.624 -95.627  30.665  1.00  0.00    -0.502 OA
ATOM     23  H   UNL     1      37.702 -95.127  29.788  1.00  0.00     0.293 HD
ENDBRANCH   2  22
BRANCH   6  24
ATOM     24  O   UNL     1      37.787 -95.964  35.978  1.00  0.00    -0.507 OA
ATOM     25  H   UNL     1      36.946 -95.410  35.909  1.00  0.00     0.293 HD
ENDBRANCH   6  24
BRANCH   8  26
ATOM     26  O   UNL     1      42.402 -94.886  36.749  1.00  0.00    -0.508 OA
ATOM     27  H   UNL     1      43.277 -95.391  36.682  1.00  0.00     0.293 HD
ENDBRANCH   8  26
TORSDOF 6
ENDMDL
MODEL 9
REMARK VINA RESULT:    -5.125     15.239     17.286
REMARK INTER + INTRA:          -6.330
REMARK INTER:                  -6.786
REMARK INTRA:                   0.456
REMARK UNBOUND:                -0.156
REMARK SMILES O=c1c(O)c(-c2ccc(O)c(O)c2)oc2cc(O)cc(O)c12
REMARK SMILES IDX 5 1 3 2 2 3 1 4 22 5 20 6 19 7 17 8 16 9 15 10 14 11 6 12
REMARK SMILES IDX 7 13 8 14 9 15 13 16 11 17 10 18 12 20 4 22 21 24 18 26
REMARK H PARENT 10 19 12 21 4 23 21 25 18 27
REMARK Flexibility Score: inf
ROOT
ATOM      1  C   UNL     1      37.622 -77.610  34.337  1.00  0.00     0.180 A 
ATOM      2  C   UNL     1      37.915 -77.628  35.712  1.00  0.00     0.208 A 
ATOM      3  C   UNL     1      36.857 -77.698  36.632  1.00  0.00     0.238 A 
ATOM      4  O   UNL     1      37.127 -77.768  37.860  1.00  0.00    -0.285 OA
ATOM      5  C   UNL     1      35.520 -77.732  36.168  1.00  0.00     0.111 A 
ATOM      6  C   UNL     1      34.369 -77.762  37.012  1.00  0.00     0.134 A 
ATOM      7  C   UNL     1      33.100 -77.927  36.444  1.00  0.00     0.093 A 
ATOM      8  C   UNL     1      32.935 -77.996  35.058  1.00  0.00     0.123 A 
ATOM      9  C   UNL     1      34.046 -77.908  34.224  1.00  0.00     0.094 A 
ATOM     10  C   UNL     1      35.329 -77.781  34.763  1.00  0.00     0.146 A 
ATOM     11  O   UNL     1      36.361 -77.710  33.932  1.00  0.00    -0.452 OA
ENDROOT
BRANCH   1  12
ATOM     12  C   UNL     1      38.682 -77.513  33.307  1.00  0.00     0.025 A 
ATOM     13  C   UNL     1      38.328 -77.251  31.974  1.00  0.00     0.016 A 
ATOM     14  C   UNL     1      39.312 -77.135  30.991  1.00  0.00     0.051 A 
ATOM     15  C   UNL     1      40.664 -77.262  31.324  1.00  0.00     0.157 A 
ATOM     16  C   UNL     1      40.043 -77.620  33.645  1.00  0.00     0.062 A 
ATOM     17  C   UNL     1      41.033 -77.501  32.659  1.00  0.00     0.158 A 
BRANCH  15  18
ATOM     18  O   UNL     1      41.625 -77.143  30.320  1.00  0.00    -0.504 OA
ATOM     19  H   UNL     1      42.154 -76.292  30.180  1.00  0.00     0.293 HD
ENDBRANCH  15  18
BRANCH  17  20
ATOM     20  O   UNL     1      42.379 -77.616  33.001  1.00  0.00    -0.504 OA
ATOM     21  H   UNL     1      43.110 -77.225  32.417  1.00  0.00     0.293 HD
ENDBRANCH  17  20
ENDBRANCH   1  12
BRANCH   2  22
ATOM     22  O   UNL     1      39.242 -77.615  36.148  1.00  0.00    -0.502 OA
ATOM     23  H   UNL     1      39.996 -78.026  35.611  1.00  0.00     0.293 HD
ENDBRANCH   2  22
BRANCH   6  24
ATOM     24  O   UNL     1      34.416 -77.608  38.401  1.00  0.00    -0.507 OA
ATOM     25  H   UNL     1      34.607 -78.352  39.055  1.00  0.00     0.293 HD
ENDBRANCH   6  24
BRANCH   8  26
ATOM     26  O   UNL     1      31.666 -78.144  34.501  1.00  0.00    -0.508 OA
ATOM     27  H   UNL     1      30.833 -78.162  35.077  1.00  0.00     0.293 HD
ENDBRANCH   8  26
TORSDOF 6
ENDMDL
