MODEL 1
REMARK VINA RESULT:    -3.958      0.000      0.000
REMARK INTER + INTRA:          -7.381
REMARK INTER:                  -6.271
REMARK INTRA:                  -1.110
REMARK UNBOUND:                -1.110
REMARK SMILES CCCCCCCCCCCC(=O)[O-]
REMARK SMILES IDX 7 1 8 2 9 3 10 4 11 5 12 6 13 7 14 8 6 9 5 10 4 11 3 12 2 13
REMARK SMILES IDX 1 14
REMARK H PARENT
REMARK Flexibility Score: inf
ROOT
ATOM      1  C   UNL     1    -116.629  11.787  20.953  1.00  0.00     0.000 C 
ENDROOT
BRANCH   1   2
ATOM      2  C   UNL     1    -115.807  11.186  22.105  1.00  0.00     0.000 C 
BRANCH   2   3
ATOM      3  C   UNL     1    -116.281  11.665  23.486  1.00  0.00     0.000 C 
BRANCH   3   4
ATOM      4  C   UNL     1    -115.166  12.425  24.215  1.00  0.00     0.006 C 
BRANCH   4   5
ATOM      5  C   UNL     1    -114.470  11.528  25.242  1.00  0.00     0.053 C 
BRANCH   5   6
ATOM      6  C   UNL     1    -112.990  11.531  25.022  1.00  0.00     0.041 C 
ATOM      7  O   UNL     1    -112.343  10.451  25.049  1.00  0.00    -0.550 OA
ATOM      8  O   UNL     1    -112.317  12.733  24.839  1.00  0.00    -0.550 OA
ENDBRANCH   5   6
ENDBRANCH   4   5
ENDBRANCH   3   4
ENDBRANCH   2   3
ENDBRANCH   1   2
BRANCH   1   9
ATOM      9  C   UNL     1    -117.937  12.439  21.437  1.00  0.00     0.000 C 
BRANCH   9  10
ATOM     10  C   UNL     1    -118.109  13.873  20.910  1.00  0.00    -0.000 C 
BRANCH  10  11
ATOM     11  C   UNL     1    -118.802  14.796  21.927  1.00  0.00    -0.000 C 
BRANCH  11  12
ATOM     12  C   UNL     1    -119.428  14.026  23.104  1.00  0.00    -0.000 C 
BRANCH  12  13
ATOM     13  C   UNL     1    -118.786  14.300  24.475  1.00  0.00    -0.003 C 
ATOM     14  C   UNL     1    -117.511  15.138  24.382  1.00  0.00     0.004 C 
ENDBRANCH  12  13
ENDBRANCH  11  12
ENDBRANCH  10  11
ENDBRANCH   9  10
ENDBRANCH   1   9
TORSDOF 10
ENDMDL
MODEL 2
REMARK VINA RESULT:    -3.900      1.022      1.784
REMARK INTER + INTRA:          -7.290
REMARK INTER:                  -6.257
REMARK INTRA:                  -1.033
REMARK UNBOUND:                -1.110
REMARK SMILES CCCCCCCCCCCC(=O)[O-]
REMARK SMILES IDX 7 1 8 2 9 3 10 4 11 5 12 6 13 7 14 8 6 9 5 10 4 11 3 12 2 13
REMARK SMILES IDX 1 14
REMARK H PARENT
REMARK Flexibility Score: inf
ROOT
ATOM      1  C   UNL     1    -115.443  10.985  22.319  1.00  0.00     0.000 C 
ENDROOT
BRANCH   1   2
ATOM      2  C   UNL     1    -115.976  11.380  23.706  1.00  0.00     0.000 C 
BRANCH   2   3
ATOM      3  C   UNL     1    -115.049  12.360  24.442  1.00  0.00     0.000 C 
BRANCH   3   4
ATOM      4  C   UNL     1    -114.093  11.613  25.380  1.00  0.00     0.006 C 
BRANCH   4   5
ATOM      5  C   UNL     1    -112.638  11.787  24.936  1.00  0.00     0.053 C 
BRANCH   5   6
ATOM      6  C   UNL     1    -112.075  10.484  24.463  1.00  0.00     0.041 C 
ATOM      7  O   UNL     1    -111.865   9.551  25.281  1.00  0.00    -0.550 OA
ATOM      8  O   UNL     1    -111.735  10.318  23.126  1.00  0.00    -0.550 OA
ENDBRANCH   5   6
ENDBRANCH   4   5
ENDBRANCH   3   4
ENDBRANCH   2   3
ENDBRANCH   1   2
BRANCH   1   9
ATOM      9  C   UNL     1    -116.465  11.242  21.197  1.00  0.00     0.000 C 
BRANCH   9  10
ATOM     10  C   UNL     1    -117.674  12.061  21.680  1.00  0.00    -0.000 C 
BRANCH  10  11
ATOM     11  C   UNL     1    -117.803  13.408  20.948  1.00  0.00    -0.000 C 
BRANCH  11  12
ATOM     12  C   UNL     1    -118.412  14.513  21.831  1.00  0.00    -0.000 C 
BRANCH  12  13
ATOM     13  C   UNL     1    -118.525  14.161  23.325  1.00  0.00    -0.003 C 
ATOM     14  C   UNL     1    -117.613  15.010  24.210  1.00  0.00     0.004 C 
ENDBRANCH  12  13
ENDBRANCH  11  12
ENDBRANCH  10  11
ENDBRANCH   9  10
ENDBRANCH   1   9
TORSDOF 10
ENDMDL
MODEL 3
REMARK VINA RESULT:    -3.725      1.166      2.620
REMARK INTER + INTRA:          -7.013
REMARK INTER:                  -6.140
REMARK INTRA:                  -0.873
REMARK UNBOUND:                -1.110
REMARK SMILES CCCCCCCCCCCC(=O)[O-]
REMARK SMILES IDX 7 1 8 2 9 3 10 4 11 5 12 6 13 7 14 8 6 9 5 10 4 11 3 12 2 13
REMARK SMILES IDX 1 14
REMARK H PARENT
REMARK Flexibility Score: inf
ROOT
ATOM      1  C   UNL     1    -116.750  14.077  24.115  1.00  0.00     0.000 C 
ENDROOT
BRANCH   1   2
ATOM      2  C   UNL     1    -116.744  12.834  23.211  1.00  0.00     0.000 C 
BRANCH   2   3
ATOM      3  C   UNL     1    -115.838  11.714  23.745  1.00  0.00     0.000 C 
BRANCH   3   4
ATOM      4  C   UNL     1    -114.684  12.291  24.575  1.00  0.00     0.006 C 
BRANCH   4   5
ATOM      5  C   UNL     1    -114.114  11.239  25.530  1.00  0.00     0.053 C 
BRANCH   5   6
ATOM      6  C   UNL     1    -112.738  10.835  25.104  1.00  0.00     0.041 C 
ATOM      7  O   UNL     1    -112.200   9.808  25.594  1.00  0.00    -0.550 OA
ATOM      8  O   UNL     1    -112.030  11.623  24.205  1.00  0.00    -0.550 OA
ENDBRANCH   5   6
ENDBRANCH   4   5
ENDBRANCH   3   4
ENDBRANCH   2   3
ENDBRANCH   1   2
BRANCH   1   9
ATOM      9  C   UNL     1    -118.069  14.866  24.029  1.00  0.00     0.000 C 
BRANCH   9  10
ATOM     10  C   UNL     1    -119.087  14.206  23.085  1.00  0.00    -0.000 C 
BRANCH  10  11
ATOM     11  C   UNL     1    -119.694  15.204  22.082  1.00  0.00    -0.000 C 
BRANCH  11  12
ATOM     12  C   UNL     1    -119.575  14.731  20.622  1.00  0.00    -0.000 C 
BRANCH  12  13
ATOM     13  C   UNL     1    -118.135  14.516  20.124  1.00  0.00    -0.003 C 
ATOM     14  C   UNL     1    -117.868  13.082  19.667  1.00  0.00     0.004 C 
ENDBRANCH  12  13
ENDBRANCH  11  12
ENDBRANCH  10  11
ENDBRANCH   9  10
ENDBRANCH   1   9
TORSDOF 10
ENDMDL
MODEL 4
REMARK VINA RESULT:    -3.707      0.896      2.860
REMARK INTER + INTRA:          -6.984
REMARK INTER:                  -5.965
REMARK INTRA:                  -1.018
REMARK UNBOUND:                -1.110
REMARK SMILES CCCCCCCCCCCC(=O)[O-]
REMARK SMILES IDX 7 1 8 2 9 3 10 4 11 5 12 6 13 7 14 8 6 9 5 10 4 11 3 12 2 13
REMARK SMILES IDX 1 14
REMARK H PARENT
REMARK Flexibility Score: inf
ROOT
ATOM      1  C   UNL     1    -117.659  14.478  23.722  1.00  0.00     0.000 C 
ENDROOT
BRANCH   1   2
ATOM      2  C   UNL     1    -117.143  13.058  24.005  1.00  0.00     0.000 C 
BRANCH   2   3
ATOM      3  C   UNL     1    -115.613  12.998  24.143  1.00  0.00     0.000 C 
BRANCH   3   4
ATOM      4  C   UNL     1    -115.124  11.546  24.204  1.00  0.00     0.006 C 
BRANCH   4   5
ATOM      5  C   UNL     1    -114.282  11.302  25.459  1.00  0.00     0.053 C 
BRANCH   5   6
ATOM      6  C   UNL     1    -112.827  11.256  25.113  1.00  0.00     0.041 C 
ATOM      7  O   UNL     1    -112.269  12.255  24.587  1.00  0.00    -0.550 OA
ATOM      8  O   UNL     1    -112.098  10.092  25.324  1.00  0.00    -0.550 OA
ENDBRANCH   5   6
ENDBRANCH   4   5
ENDBRANCH   3   4
ENDBRANCH   2   3
ENDBRANCH   1   2
BRANCH   1   9
ATOM      9  C   UNL     1    -119.160  14.505  23.383  1.00  0.00     0.000 C 
BRANCH   9  10
ATOM     10  C   UNL     1    -119.449  14.013  21.955  1.00  0.00    -0.000 C 
BRANCH  10  11
ATOM     11  C   UNL     1    -118.445  14.564  20.928  1.00  0.00    -0.000 C 
BRANCH  11  12
ATOM     12  C   UNL     1    -117.961  13.494  19.931  1.00  0.00    -0.000 C 
BRANCH  12  13
ATOM     13  C   UNL     1    -117.866  12.069  20.504  1.00  0.00    -0.003 C 
ATOM     14  C   UNL     1    -116.425  11.586  20.671  1.00  0.00     0.004 C 
ENDBRANCH  12  13
ENDBRANCH  11  12
ENDBRANCH  10  11
ENDBRANCH   9  10
ENDBRANCH   1   9
TORSDOF 10
ENDMDL
MODEL 5
REMARK VINA RESULT:    -3.600      2.525      5.294
REMARK INTER + INTRA:          -6.813
REMARK INTER:                  -5.601
REMARK INTRA:                  -1.212
REMARK UNBOUND:                -1.110
REMARK SMILES CCCCCCCCCCCC(=O)[O-]
REMARK SMILES IDX 7 1 8 2 9 3 10 4 11 5 12 6 13 7 14 8 6 9 5 10 4 11 3 12 2 13
REMARK SMILES IDX 1 14
REMARK H PARENT
REMARK Flexibility Score: inf
ROOT
ATOM      1  C   UNL     1    -115.575  10.821  22.314  1.00  0.00     0.000 C 
ENDROOT
BRANCH   1   2
ATOM      2  C   UNL     1    -116.618  10.935  21.190  1.00  0.00     0.000 C 
BRANCH   2   3
ATOM      3  C   UNL     1    -117.042  12.387  20.918  1.00  0.00     0.000 C 
BRANCH   3   4
ATOM      4  C   UNL     1    -118.236  12.783  21.795  1.00  0.00     0.006 C 
BRANCH   4   5
ATOM      5  C   UNL     1    -118.083  14.215  22.317  1.00  0.00     0.053 C 
BRANCH   5   6
ATOM      6  C   UNL     1    -117.954  14.218  23.808  1.00  0.00     0.041 C 
ATOM      7  O   UNL     1    -117.357  15.161  24.390  1.00  0.00    -0.550 OA
ATOM      8  O   UNL     1    -118.450  13.153  24.550  1.00  0.00    -0.550 OA
ENDBRANCH   5   6
ENDBRANCH   4   5
ENDBRANCH   3   4
ENDBRANCH   2   3
ENDBRANCH   1   2
BRANCH   1   9
ATOM      9  C   UNL     1    -116.176  10.283  23.626  1.00  0.00     0.000 C 
BRANCH   9  10
ATOM     10  C   UNL     1    -115.606  10.989  24.866  1.00  0.00    -0.000 C 
BRANCH  10  11
ATOM     11  C   UNL     1    -114.849  12.281  24.513  1.00  0.00    -0.000 C 
BRANCH  11  12
ATOM     12  C   UNL     1    -113.390  12.273  25.004  1.00  0.00    -0.000 C 
BRANCH  12  13
ATOM     13  C   UNL     1    -112.745  10.879  25.099  1.00  0.00    -0.003 C 
ATOM     14  C   UNL     1    -111.930  10.511  23.859  1.00  0.00     0.004 C 
ENDBRANCH  12  13
ENDBRANCH  11  12
ENDBRANCH  10  11
ENDBRANCH   9  10
ENDBRANCH   1   9
TORSDOF 10
ENDMDL
MODEL 6
REMARK VINA RESULT:    -3.514      3.195      6.232
REMARK INTER + INTRA:          -6.678
REMARK INTER:                  -5.550
REMARK INTRA:                  -1.129
REMARK UNBOUND:                -1.110
REMARK SMILES CCCCCCCCCCCC(=O)[O-]
REMARK SMILES IDX 7 1 8 2 9 3 10 4 11 5 12 6 13 7 14 8 6 9 5 10 4 11 3 12 2 13
REMARK SMILES IDX 1 14
REMARK H PARENT
REMARK Flexibility Score: inf
ROOT
ATOM      1  C   UNL     1    -113.980  11.310  25.551  1.00  0.00     0.000 C 
ENDROOT
BRANCH   1   2
ATOM      2  C   UNL     1    -115.356  11.405  24.873  1.00  0.00     0.000 C 
BRANCH   2   3
ATOM      3  C   UNL     1    -115.540  12.710  24.083  1.00  0.00     0.000 C 
BRANCH   3   4
ATOM      4  C   UNL     1    -117.023  12.969  23.790  1.00  0.00     0.006 C 
BRANCH   4   5
ATOM      5  C   UNL     1    -117.335  12.755  22.306  1.00  0.00     0.053 C 
BRANCH   5   6
ATOM      6  C   UNL     1    -118.023  13.956  21.737  1.00  0.00     0.041 C 
ATOM      7  O   UNL     1    -118.739  14.684  22.474  1.00  0.00    -0.550 OA
ATOM      8  O   UNL     1    -117.915  14.241  20.381  1.00  0.00    -0.550 OA
ENDBRANCH   5   6
ENDBRANCH   4   5
ENDBRANCH   3   4
ENDBRANCH   2   3
ENDBRANCH   1   2
BRANCH   1   9
ATOM      9  C   UNL     1    -112.943  12.260  24.924  1.00  0.00     0.000 C 
BRANCH   9  10
ATOM     10  C   UNL     1    -111.887  11.512  24.094  1.00  0.00    -0.000 C 
BRANCH  10  11
ATOM     11  C   UNL     1    -112.205  10.014  23.948  1.00  0.00    -0.000 C 
BRANCH  11  12
ATOM     12  C   UNL     1    -112.624   9.628  22.518  1.00  0.00    -0.000 C 
BRANCH  12  13
ATOM     13  C   UNL     1    -114.089   9.181  22.370  1.00  0.00    -0.003 C 
ATOM     14  C   UNL     1    -114.887  10.057  21.403  1.00  0.00     0.004 C 
ENDBRANCH  12  13
ENDBRANCH  11  12
ENDBRANCH  10  11
ENDBRANCH   9  10
ENDBRANCH   1   9
TORSDOF 10
ENDMDL
MODEL 7
REMARK VINA RESULT:    -3.365     12.230     14.369
REMARK INTER + INTRA:          -6.442
REMARK INTER:                  -5.313
REMARK INTRA:                  -1.130
REMARK UNBOUND:                -1.110
REMARK SMILES CCCCCCCCCCCC(=O)[O-]
REMARK SMILES IDX 7 1 8 2 9 3 10 4 11 5 12 6 13 7 14 8 6 9 5 10 4 11 3 12 2 13
REMARK SMILES IDX 1 14
REMARK H PARENT
REMARK Flexibility Score: inf
ROOT
ATOM      1  C   UNL     1    -101.332  11.174  23.368  1.00  0.00     0.000 C 
ENDROOT
BRANCH   1   2
ATOM      2  C   UNL     1    -101.762  10.108  22.347  1.00  0.00     0.000 C 
BRANCH   2   3
ATOM      3  C   UNL     1    -103.258  10.182  22.004  1.00  0.00     0.000 C 
BRANCH   3   4
ATOM      4  C   UNL     1    -103.468  10.315  20.491  1.00  0.00     0.006 C 
BRANCH   4   5
ATOM      5  C   UNL     1    -102.128  10.398  19.755  1.00  0.00     0.053 C 
BRANCH   5   6
ATOM      6  C   UNL     1    -102.294  11.096  18.442  1.00  0.00     0.041 C 
ATOM      7  O   UNL     1    -101.472  10.895  17.510  1.00  0.00    -0.550 OA
ATOM      8  O   UNL     1    -103.329  12.006  18.264  1.00  0.00    -0.550 OA
ENDBRANCH   5   6
ENDBRANCH   4   5
ENDBRANCH   3   4
ENDBRANCH   2   3
ENDBRANCH   1   2
BRANCH   1   9
ATOM      9  C   UNL     1    -102.425  12.228  23.620  1.00  0.00     0.000 C 
BRANCH   9  10
ATOM     10  C   UNL     1    -102.851  12.291  25.095  1.00  0.00    -0.000 C 
BRANCH  10  11
ATOM     11  C   UNL     1    -102.269  11.136  25.928  1.00  0.00    -0.000 C 
BRANCH  11  12
ATOM     12  C   UNL     1    -103.283  10.004  26.171  1.00  0.00    -0.000 C 
BRANCH  12  13
ATOM     13  C   UNL     1    -104.747  10.368  25.869  1.00  0.00    -0.003 C 
ATOM     14  C   UNL     1    -105.470   9.304  25.042  1.00  0.00     0.004 C 
ENDBRANCH  12  13
ENDBRANCH  11  12
ENDBRANCH  10  11
ENDBRANCH   9  10
ENDBRANCH   1   9
TORSDOF 10
ENDMDL
MODEL 8
REMARK VINA RESULT:    -3.352      1.429      2.561
REMARK INTER + INTRA:          -6.421
REMARK INTER:                  -5.279
REMARK INTRA:                  -1.142
REMARK UNBOUND:                -1.110
REMARK SMILES CCCCCCCCCCCC(=O)[O-]
REMARK SMILES IDX 7 1 8 2 9 3 10 4 11 5 12 6 13 7 14 8 6 9 5 10 4 11 3 12 2 13
REMARK SMILES IDX 1 14
REMARK H PARENT
REMARK Flexibility Score: inf
ROOT
ATOM      1  C   UNL     1    -117.175  10.838  24.808  1.00  0.00     0.000 C 
ENDROOT
BRANCH   1   2
ATOM      2  C   UNL     1    -116.372  11.300  23.581  1.00  0.00     0.000 C 
BRANCH   2   3
ATOM      3  C   UNL     1    -115.154  12.158  23.955  1.00  0.00     0.000 C 
BRANCH   3   4
ATOM      4  C   UNL     1    -114.517  11.666  25.260  1.00  0.00     0.006 C 
BRANCH   4   5
ATOM      5  C   UNL     1    -113.010  11.939  25.273  1.00  0.00     0.053 C 
BRANCH   5   6
ATOM      6  C   UNL     1    -112.258  10.747  24.768  1.00  0.00     0.041 C 
ATOM      7  O   UNL     1    -112.156   9.714  25.481  1.00  0.00    -0.550 OA
ATOM      8  O   UNL     1    -111.627  10.796  23.531  1.00  0.00    -0.550 OA
ENDBRANCH   5   6
ENDBRANCH   4   5
ENDBRANCH   3   4
ENDBRANCH   2   3
ENDBRANCH   1   2
BRANCH   1   9
ATOM      9  C   UNL     1    -118.677  10.688  24.511  1.00  0.00     0.000 C 
BRANCH   9  10
ATOM     10  C   UNL     1    -119.534  11.706  25.283  1.00  0.00    -0.000 C 
BRANCH  10  11
ATOM     11  C   UNL     1    -119.770  13.001  24.487  1.00  0.00    -0.000 C 
BRANCH  11  12
ATOM     12  C   UNL     1    -118.919  14.179  24.995  1.00  0.00    -0.000 C 
BRANCH  12  13
ATOM     13  C   UNL     1    -117.910  14.738  23.976  1.00  0.00    -0.003 C 
ATOM     14  C   UNL     1    -118.280  14.415  22.529  1.00  0.00     0.004 C 
ENDBRANCH  12  13
ENDBRANCH  11  12
ENDBRANCH  10  11
ENDBRANCH   9  10
ENDBRANCH   1   9
TORSDOF 10
ENDMDL
MODEL 9
REMARK VINA RESULT:    -3.318      3.466      6.566
REMARK INTER + INTRA:          -6.367
REMARK INTER:                  -5.738
REMARK INTRA:                  -0.629
REMARK UNBOUND:                -1.110
REMARK SMILES CCCCCCCCCCCC(=O)[O-]
REMARK SMILES IDX 7 1 8 2 9 3 10 4 11 5 12 6 13 7 14 8 6 9 5 10 4 11 3 12 2 13
REMARK SMILES IDX 1 14
REMARK H PARENT
REMARK Flexibility Score: inf
ROOT
ATOM      1  C   UNL     1    -116.675  12.663  23.359  1.00  0.00     0.000 C 
ENDROOT
BRANCH   1   2
ATOM      2  C   UNL     1    -116.857  14.069  23.952  1.00  0.00     0.000 C 
BRANCH   2   3
ATOM      3  C   UNL     1    -118.330  14.418  24.215  1.00  0.00     0.000 C 
BRANCH   3   4
ATOM      4  C   UNL     1    -119.206  14.037  23.016  1.00  0.00     0.006 C 
BRANCH   4   5
ATOM      5  C   UNL     1    -119.363  15.217  22.052  1.00  0.00     0.053 C 
BRANCH   5   6
ATOM      6  C   UNL     1    -119.101  14.782  20.644  1.00  0.00     0.041 C 
ATOM      7  O   UNL     1    -117.944  14.431  20.295  1.00  0.00    -0.550 OA
ATOM      8  O   UNL     1    -120.125  14.814  19.705  1.00  0.00    -0.550 OA
ENDBRANCH   5   6
ENDBRANCH   4   5
ENDBRANCH   3   4
ENDBRANCH   2   3
ENDBRANCH   1   2
BRANCH   1   9
ATOM      9  C   UNL     1    -115.842  11.741  24.267  1.00  0.00     0.000 C 
BRANCH   9  10
ATOM     10  C   UNL     1    -114.423  12.282  24.510  1.00  0.00    -0.000 C 
BRANCH  10  11
ATOM     11  C   UNL     1    -113.696  11.538  25.644  1.00  0.00    -0.000 C 
BRANCH  11  12
ATOM     12  C   UNL     1    -112.852  10.354  25.137  1.00  0.00    -0.000 C 
BRANCH  12  13
ATOM     13  C   UNL     1    -111.939  10.672  23.940  1.00  0.00    -0.003 C 
ATOM     14  C   UNL     1    -112.099   9.682  22.786  1.00  0.00     0.004 C 
ENDBRANCH  12  13
ENDBRANCH  11  12
ENDBRANCH  10  11
ENDBRANCH   9  10
ENDBRANCH   1   9
TORSDOF 10
ENDMDL
