MODEL 1
REMARK VINA RESULT:    -7.340      0.000      0.000
REMARK INTER + INTRA:         -10.742
REMARK INTER:                  -9.700
REMARK INTRA:                  -1.043
REMARK UNBOUND:                -1.043
REMARK SMILES CC[C@H](C=C[C@@H](C)[C@@H]1CC[C@H]2[C@H]3CC=C4C[C@H](O)CC[C@@]4(C)[C@H]3CC[C@]21C)C(C)C
REMARK SMILES IDX 6 1 7 2 5 3 4 4 3 5 2 6 1 7 28 8 29 9 30 10 8 11 9 12 26 13
REMARK SMILES IDX 10 14 11 15 25 16 27 17 12 18 24 19 23 20 13 21 21 22 14 23
REMARK SMILES IDX 15 24 20 25 22 26 16 27 19 28 17 29 18 30
REMARK H PARENT 18 31
REMARK Flexibility Score: inf
ROOT
ATOM      1  C   UNL     1     174.555 168.615 151.921  1.00  0.00     0.012 C 
ATOM      2  C   UNL     1     175.141 169.116 153.260  1.00  0.00     0.012 C 
ENDROOT
BRANCH   1   3
ATOM      3  C   UNL     1     173.916 169.778 151.185  1.00  0.00    -0.028 C 
ATOM      4  C   UNL     1     174.539 170.962 151.062  1.00  0.00    -0.027 C 
BRANCH   4   5
ATOM      5  C   UNL     1     173.958 172.169 150.343  1.00  0.00     0.014 C 
BRANCH   5   6
ATOM      6  C   UNL     1     172.445 172.030 150.004  1.00  0.00     0.004 C 
ATOM      7  C   UNL     1     171.475 172.924 150.776  1.00  0.00     0.004 C 
ENDBRANCH   5   6
BRANCH   5   8
ATOM      8  C   UNL     1     174.402 173.556 150.918  1.00  0.00    -0.011 C 
ATOM      9  C   UNL     1     175.401 174.244 149.970  1.00  0.00     0.008 C 
ATOM     10  C   UNL     1     175.011 173.511 152.331  1.00  0.00     0.008 C 
ENDBRANCH   5   8
ENDBRANCH   4   5
ENDBRANCH   1   3
BRANCH   1  11
ATOM     11  C   UNL     1     173.525 167.427 152.036  1.00  0.00     0.002 C 
ATOM     12  C   UNL     1     173.264 167.014 153.494  1.00  0.00     0.005 C 
ATOM     13  C   UNL     1     173.834 166.080 151.287  1.00  0.00    -0.026 C 
ATOM     14  C   UNL     1     173.839 165.609 153.670  1.00  0.00     0.005 C 
ATOM     15  C   UNL     1     174.567 165.238 152.357  1.00  0.00    -0.001 C 
ATOM     16  C   UNL     1     172.468 165.387 150.888  1.00  0.00     0.007 C 
ATOM     17  C   UNL     1     174.696 166.318 150.016  1.00  0.00     0.012 C 
ATOM     18  C   UNL     1     174.721 163.697 152.039  1.00  0.00     0.000 C 
ATOM     19  C   UNL     1     172.364 163.862 151.153  1.00  0.00     0.005 C 
ATOM     20  C   UNL     1     173.724 163.166 150.971  1.00  0.00     0.003 C 
ATOM     21  C   UNL     1     174.695 162.844 153.321  1.00  0.00     0.031 C 
ATOM     22  C   UNL     1     173.754 161.577 150.778  1.00  0.00    -0.008 C 
ATOM     23  C   UNL     1     174.820 161.386 153.058  1.00  0.00    -0.027 C 
ATOM     24  C   UNL     1     174.213 160.795 152.018  1.00  0.00    -0.065 C 
ATOM     25  C   UNL     1     172.362 161.015 150.353  1.00  0.00     0.014 C 
ATOM     26  C   UNL     1     174.783 161.275 149.649  1.00  0.00     0.016 C 
ATOM     27  C   UNL     1     174.128 159.279 151.995  1.00  0.00     0.063 C 
ATOM     28  C   UNL     1     172.309 159.481 150.248  1.00  0.00     0.033 C 
ATOM     29  C   UNL     1     172.729 158.822 151.572  1.00  0.00     0.118 C 
BRANCH  29  30
ATOM     30  O   UNL     1     172.725 157.425 151.429  1.00  0.00    -0.393 OA
ATOM     31  H   UNL     1     171.917 157.091 151.899  1.00  0.00     0.210 HD
ENDBRANCH  29  30
ENDBRANCH   1  11
TORSDOF 6
ENDMDL
MODEL 2
REMARK VINA RESULT:    -7.120      3.399      9.798
REMARK INTER + INTRA:         -10.452
REMARK INTER:                  -9.390
REMARK INTRA:                  -1.063
REMARK UNBOUND:                -1.043
REMARK SMILES CC[C@H](C=C[C@@H](C)[C@@H]1CC[C@H]2[C@H]3CC=C4C[C@H](O)CC[C@@]4(C)[C@H]3CC[C@]21C)C(C)C
REMARK SMILES IDX 6 1 7 2 5 3 4 4 3 5 2 6 1 7 28 8 29 9 30 10 8 11 9 12 26 13
REMARK SMILES IDX 10 14 11 15 25 16 27 17 12 18 24 19 23 20 13 21 21 22 14 23
REMARK SMILES IDX 15 24 20 25 22 26 16 27 19 28 17 29 18 30
REMARK H PARENT 18 31
REMARK Flexibility Score: inf
ROOT
ATOM      1  C   UNL     1     172.611 163.596 151.258  1.00  0.00     0.012 C 
ATOM      2  C   UNL     1     172.151 163.491 152.730  1.00  0.00     0.012 C 
ENDROOT
BRANCH   1   3
ATOM      3  C   UNL     1     173.157 162.254 150.805  1.00  0.00    -0.028 C 
ATOM      4  C   UNL     1     173.355 161.246 151.671  1.00  0.00    -0.027 C 
BRANCH   4   5
ATOM      5  C   UNL     1     173.902 159.879 151.289  1.00  0.00     0.014 C 
BRANCH   5   6
ATOM      6  C   UNL     1     173.109 159.183 150.144  1.00  0.00     0.004 C 
ATOM      7  C   UNL     1     172.792 157.698 150.323  1.00  0.00     0.004 C 
ENDBRANCH   5   6
BRANCH   5   8
ATOM      8  C   UNL     1     175.462 159.798 151.184  1.00  0.00    -0.011 C 
ATOM      9  C   UNL     1     176.125 160.798 152.147  1.00  0.00     0.008 C 
ATOM     10  C   UNL     1     176.032 160.018 149.771  1.00  0.00     0.008 C 
ENDBRANCH   5   8
ENDBRANCH   4   5
ENDBRANCH   1   3
BRANCH   1  11
ATOM     11  C   UNL     1     173.666 164.728 150.958  1.00  0.00     0.002 C 
ATOM     12  C   UNL     1     174.757 164.816 152.039  1.00  0.00     0.005 C 
ATOM     13  C   UNL     1     173.161 166.206 150.778  1.00  0.00    -0.026 C 
ATOM     14  C   UNL     1     174.567 166.152 152.757  1.00  0.00     0.005 C 
ATOM     15  C   UNL     1     173.278 166.799 152.201  1.00  0.00    -0.001 C 
ATOM     16  C   UNL     1     174.135 166.965 149.788  1.00  0.00     0.007 C 
ATOM     17  C   UNL     1     171.710 166.250 150.226  1.00  0.00     0.012 C 
ATOM     18  C   UNL     1     173.169 168.372 152.305  1.00  0.00     0.000 C 
ATOM     19  C   UNL     1     174.564 168.397 150.204  1.00  0.00     0.005 C 
ATOM     20  C   UNL     1     173.442 169.119 150.970  1.00  0.00     0.003 C 
ATOM     21  C   UNL     1     174.025 168.929 153.458  1.00  0.00     0.031 C 
ATOM     22  C   UNL     1     173.511 170.713 151.111  1.00  0.00    -0.008 C 
ATOM     23  C   UNL     1     173.959 170.409 153.576  1.00  0.00    -0.027 C 
ATOM     24  C   UNL     1     173.939 171.209 152.500  1.00  0.00    -0.065 C 
ATOM     25  C   UNL     1     174.475 171.349 150.062  1.00  0.00     0.014 C 
ATOM     26  C   UNL     1     172.072 171.253 150.864  1.00  0.00     0.016 C 
ATOM     27  C   UNL     1     174.188 172.695 152.697  1.00  0.00     0.063 C 
ATOM     28  C   UNL     1     174.653 172.870 150.216  1.00  0.00     0.033 C 
ATOM     29  C   UNL     1     175.145 173.229 151.627  1.00  0.00     0.118 C 
BRANCH  29  30
ATOM     30  O   UNL     1     175.245 174.624 151.755  1.00  0.00    -0.393 OA
ATOM     31  H   UNL     1     175.071 175.007 150.856  1.00  0.00     0.210 HD
ENDBRANCH  29  30
ENDBRANCH   1  11
TORSDOF 6
ENDMDL
MODEL 3
REMARK VINA RESULT:    -7.084      3.410     10.012
REMARK INTER + INTRA:         -10.404
REMARK INTER:                  -9.390
REMARK INTRA:                  -1.014
REMARK UNBOUND:                -1.043
REMARK SMILES CC[C@H](C=C[C@@H](C)[C@@H]1CC[C@H]2[C@H]3CC=C4C[C@H](O)CC[C@@]4(C)[C@H]3CC[C@]21C)C(C)C
REMARK SMILES IDX 6 1 7 2 5 3 4 4 3 5 2 6 1 7 28 8 29 9 30 10 8 11 9 12 26 13
REMARK SMILES IDX 10 14 11 15 25 16 27 17 12 18 24 19 23 20 13 21 21 22 14 23
REMARK SMILES IDX 15 24 20 25 22 26 16 27 19 28 17 29 18 30
REMARK H PARENT 18 31
REMARK Flexibility Score: inf
ROOT
ATOM      1  C   UNL     1     172.779 163.483 151.296  1.00  0.00     0.012 C 
ATOM      2  C   UNL     1     172.628 163.078 152.780  1.00  0.00     0.012 C 
ENDROOT
BRANCH   1   3
ATOM      3  C   UNL     1     173.144 162.260 150.475  1.00  0.00    -0.028 C 
ATOM      4  C   UNL     1     173.261 161.045 151.036  1.00  0.00    -0.027 C 
BRANCH   4   5
ATOM      5  C   UNL     1     173.627 159.779 150.277  1.00  0.00     0.014 C 
BRANCH   5   6
ATOM      6  C   UNL     1     175.153 159.625 150.011  1.00  0.00     0.004 C 
ATOM      7  C   UNL     1     176.099 160.009 151.150  1.00  0.00     0.004 C 
ENDBRANCH   5   6
BRANCH   5   8
ATOM      8  C   UNL     1     172.884 158.486 150.753  1.00  0.00    -0.011 C 
ATOM      9  C   UNL     1     173.021 157.363 149.710  1.00  0.00     0.008 C 
ATOM     10  C   UNL     1     171.393 158.677 151.083  1.00  0.00     0.008 C 
ENDBRANCH   5   8
ENDBRANCH   4   5
ENDBRANCH   1   3
BRANCH   1  11
ATOM     11  C   UNL     1     173.811 164.641 151.014  1.00  0.00     0.002 C 
ATOM     12  C   UNL     1     174.877 164.761 152.116  1.00  0.00     0.005 C 
ATOM     13  C   UNL     1     173.272 166.105 150.817  1.00  0.00    -0.026 C 
ATOM     14  C   UNL     1     174.638 166.094 152.825  1.00  0.00     0.005 C 
ATOM     15  C   UNL     1     173.345 166.706 152.239  1.00  0.00    -0.001 C 
ATOM     16  C   UNL     1     174.247 166.886 149.844  1.00  0.00     0.007 C 
ATOM     17  C   UNL     1     171.832 166.110 150.235  1.00  0.00     0.012 C 
ATOM     18  C   UNL     1     173.193 168.276 152.336  1.00  0.00     0.000 C 
ATOM     19  C   UNL     1     174.630 168.329 150.263  1.00  0.00     0.005 C 
ATOM     20  C   UNL     1     173.475 169.025 151.004  1.00  0.00     0.003 C 
ATOM     21  C   UNL     1     174.010 168.859 153.504  1.00  0.00     0.031 C 
ATOM     22  C   UNL     1     173.500 170.620 151.139  1.00  0.00    -0.008 C 
ATOM     23  C   UNL     1     173.904 170.337 153.615  1.00  0.00    -0.027 C 
ATOM     24  C   UNL     1     173.886 171.132 152.535  1.00  0.00    -0.065 C 
ATOM     25  C   UNL     1     174.469 171.278 150.108  1.00  0.00     0.014 C 
ATOM     26  C   UNL     1     172.053 171.123 150.860  1.00  0.00     0.016 C 
ATOM     27  C   UNL     1     174.093 172.624 152.731  1.00  0.00     0.063 C 
ATOM     28  C   UNL     1     174.605 172.803 150.259  1.00  0.00     0.033 C 
ATOM     29  C   UNL     1     175.059 173.180 151.679  1.00  0.00     0.118 C 
BRANCH  29  30
ATOM     30  O   UNL     1     175.120 174.577 151.804  1.00  0.00    -0.393 OA
ATOM     31  H   UNL     1     176.071 174.808 151.966  1.00  0.00     0.210 HD
ENDBRANCH  29  30
ENDBRANCH   1  11
TORSDOF 6
ENDMDL
MODEL 4
REMARK VINA RESULT:    -7.034      4.151      7.074
REMARK INTER + INTRA:         -10.338
REMARK INTER:                  -9.275
REMARK INTRA:                  -1.063
REMARK UNBOUND:                -1.043
REMARK SMILES CC[C@H](C=C[C@@H](C)[C@@H]1CC[C@H]2[C@H]3CC=C4C[C@H](O)CC[C@@]4(C)[C@H]3CC[C@]21C)C(C)C
REMARK SMILES IDX 6 1 7 2 5 3 4 4 3 5 2 6 1 7 28 8 29 9 30 10 8 11 9 12 26 13
REMARK SMILES IDX 10 14 11 15 25 16 27 17 12 18 24 19 23 20 13 21 21 22 14 23
REMARK SMILES IDX 15 24 20 25 22 26 16 27 19 28 17 29 18 30
REMARK H PARENT 18 31
REMARK Flexibility Score: inf
ROOT
ATOM      1  C   UNL     1     174.357 162.276 151.304  1.00  0.00     0.012 C 
ATOM      2  C   UNL     1     174.252 161.435 150.011  1.00  0.00     0.012 C 
ENDROOT
BRANCH   1   3
ATOM      3  C   UNL     1     174.804 163.683 150.953  1.00  0.00    -0.028 C 
ATOM      4  C   UNL     1     174.082 164.760 151.306  1.00  0.00    -0.027 C 
BRANCH   4   5
ATOM      5  C   UNL     1     174.467 166.196 150.985  1.00  0.00     0.014 C 
BRANCH   5   6
ATOM      6  C   UNL     1     173.787 166.757 149.703  1.00  0.00     0.004 C 
ATOM      7  C   UNL     1     174.688 167.474 148.696  1.00  0.00     0.004 C 
ENDBRANCH   5   6
BRANCH   5   8
ATOM      8  C   UNL     1     174.501 167.161 152.217  1.00  0.00    -0.011 C 
ATOM      9  C   UNL     1     174.144 166.406 153.510  1.00  0.00     0.008 C 
ATOM     10  C   UNL     1     173.593 168.399 152.099  1.00  0.00     0.008 C 
ENDBRANCH   5   8
ENDBRANCH   4   5
ENDBRANCH   1   3
BRANCH   1  11
ATOM     11  C   UNL     1     175.296 161.682 152.422  1.00  0.00     0.002 C 
ATOM     12  C   UNL     1     175.792 160.266 152.083  1.00  0.00     0.005 C 
ATOM     13  C   UNL     1     174.749 161.573 153.892  1.00  0.00    -0.026 C 
ATOM     14  C   UNL     1     175.153 159.315 153.094  1.00  0.00     0.005 C 
ATOM     15  C   UNL     1     174.167 160.142 153.951  1.00  0.00    -0.001 C 
ATOM     16  C   UNL     1     175.959 161.712 154.903  1.00  0.00     0.007 C 
ATOM     17  C   UNL     1     173.686 162.667 154.188  1.00  0.00     0.012 C 
ATOM     18  C   UNL     1     173.838 159.588 155.394  1.00  0.00     0.000 C 
ATOM     19  C   UNL     1     175.993 160.705 156.082  1.00  0.00     0.005 C 
ATOM     20  C   UNL     1     174.573 160.332 156.543  1.00  0.00     0.003 C 
ATOM     21  C   UNL     1     174.037 158.063 155.479  1.00  0.00     0.031 C 
ATOM     22  C   UNL     1     174.386 159.661 157.985  1.00  0.00    -0.008 C 
ATOM     23  C   UNL     1     173.753 157.509 156.829  1.00  0.00    -0.027 C 
ATOM     24  C   UNL     1     174.107 158.151 157.951  1.00  0.00    -0.065 C 
ATOM     25  C   UNL     1     175.626 159.894 158.902  1.00  0.00     0.014 C 
ATOM     26  C   UNL     1     173.144 160.333 158.641  1.00  0.00     0.016 C 
ATOM     27  C   UNL     1     174.069 157.389 159.265  1.00  0.00     0.063 C 
ATOM     28  C   UNL     1     175.540 159.188 160.267  1.00  0.00     0.033 C 
ATOM     29  C   UNL     1     175.326 157.676 160.093  1.00  0.00     0.118 C 
BRANCH  29  30
ATOM     30  O   UNL     1     175.195 157.067 161.352  1.00  0.00    -0.393 OA
ATOM     31  H   UNL     1     174.513 156.352 161.254  1.00  0.00     0.210 HD
ENDBRANCH  29  30
ENDBRANCH   1  11
TORSDOF 6
ENDMDL
MODEL 5
REMARK VINA RESULT:    -6.824      6.437     10.920
REMARK INTER + INTRA:         -10.061
REMARK INTER:                  -9.010
REMARK INTRA:                  -1.052
REMARK UNBOUND:                -1.043
REMARK SMILES CC[C@H](C=C[C@@H](C)[C@@H]1CC[C@H]2[C@H]3CC=C4C[C@H](O)CC[C@@]4(C)[C@H]3CC[C@]21C)C(C)C
REMARK SMILES IDX 6 1 7 2 5 3 4 4 3 5 2 6 1 7 28 8 29 9 30 10 8 11 9 12 26 13
REMARK SMILES IDX 10 14 11 15 25 16 27 17 12 18 24 19 23 20 13 21 21 22 14 23
REMARK SMILES IDX 15 24 20 25 22 26 16 27 19 28 17 29 18 30
REMARK H PARENT 18 31
REMARK Flexibility Score: inf
ROOT
ATOM      1  C   UNL     1     166.057 175.081 151.974  1.00  0.00     0.012 C 
ATOM      2  C   UNL     1     165.708 175.725 153.335  1.00  0.00     0.012 C 
ENDROOT
BRANCH   1   3
ATOM      3  C   UNL     1     164.789 174.911 151.158  1.00  0.00    -0.028 C 
ATOM      4  C   UNL     1     163.735 174.223 151.630  1.00  0.00    -0.027 C 
BRANCH   4   5
ATOM      5  C   UNL     1     162.437 174.011 150.867  1.00  0.00     0.014 C 
BRANCH   5   6
ATOM      6  C   UNL     1     161.845 172.579 151.020  1.00  0.00     0.004 C 
ATOM      7  C   UNL     1     162.838 171.416 151.042  1.00  0.00     0.004 C 
ENDBRANCH   5   6
BRANCH   5   8
ATOM      8  C   UNL     1     161.409 175.187 150.973  1.00  0.00    -0.011 C 
ATOM      9  C   UNL     1     160.011 174.659 151.340  1.00  0.00     0.008 C 
ATOM     10  C   UNL     1     161.293 176.065 149.714  1.00  0.00     0.008 C 
ENDBRANCH   5   8
ENDBRANCH   4   5
ENDBRANCH   1   3
BRANCH   1  11
ATOM     11  C   UNL     1     166.827 173.707 152.053  1.00  0.00     0.002 C 
ATOM     12  C   UNL     1     167.106 173.273 153.502  1.00  0.00     0.005 C 
ATOM     13  C   UNL     1     168.211 173.571 151.320  1.00  0.00    -0.026 C 
ATOM     14  C   UNL     1     168.620 173.334 153.703  1.00  0.00     0.005 C 
ATOM     15  C   UNL     1     169.234 173.939 152.419  1.00  0.00    -0.001 C 
ATOM     16  C   UNL     1     168.410 172.066 150.872  1.00  0.00     0.007 C 
ATOM     17  C   UNL     1     168.296 174.505 150.082  1.00  0.00     0.012 C 
ATOM     18  C   UNL     1     170.741 173.576 152.111  1.00  0.00     0.000 C 
ATOM     19  C   UNL     1     169.806 171.445 151.136  1.00  0.00     0.005 C 
ATOM     20  C   UNL     1     170.922 172.496 151.008  1.00  0.00     0.003 C 
ATOM     21  C   UNL     1     171.516 173.219 153.393  1.00  0.00     0.031 C 
ATOM     22  C   UNL     1     172.431 171.995 150.820  1.00  0.00    -0.008 C 
ATOM     23  C   UNL     1     172.935 172.855 153.139  1.00  0.00    -0.027 C 
ATOM     24  C   UNL     1     173.303 172.121 152.079  1.00  0.00    -0.065 C 
ATOM     25  C   UNL     1     172.498 170.511 150.344  1.00  0.00     0.014 C 
ATOM     26  C   UNL     1     173.079 172.901 149.732  1.00  0.00     0.016 C 
ATOM     27  C   UNL     1     174.702 171.531 152.057  1.00  0.00     0.063 C 
ATOM     28  C   UNL     1     173.926 169.948 150.242  1.00  0.00     0.033 C 
ATOM     29  C   UNL     1     174.668 170.075 151.582  1.00  0.00     0.118 C 
BRANCH  29  30
ATOM     30  O   UNL     1     175.984 169.606 151.443  1.00  0.00    -0.393 OA
ATOM     31  H   UNL     1     176.456 169.823 152.289  1.00  0.00     0.210 HD
ENDBRANCH  29  30
ENDBRANCH   1  11
TORSDOF 6
ENDMDL
MODEL 6
REMARK VINA RESULT:    -6.790      6.512     10.953
REMARK INTER + INTRA:         -10.016
REMARK INTER:                  -9.065
REMARK INTRA:                  -0.951
REMARK UNBOUND:                -1.043
REMARK SMILES CC[C@H](C=C[C@@H](C)[C@@H]1CC[C@H]2[C@H]3CC=C4C[C@H](O)CC[C@@]4(C)[C@H]3CC[C@]21C)C(C)C
REMARK SMILES IDX 6 1 7 2 5 3 4 4 3 5 2 6 1 7 28 8 29 9 30 10 8 11 9 12 26 13
REMARK SMILES IDX 10 14 11 15 25 16 27 17 12 18 24 19 23 20 13 21 21 22 14 23
REMARK SMILES IDX 15 24 20 25 22 26 16 27 19 28 17 29 18 30
REMARK H PARENT 18 31
REMARK Flexibility Score: inf
ROOT
ATOM      1  C   UNL     1     171.151 158.308 152.006  1.00  0.00     0.012 C 
ATOM      2  C   UNL     1     171.602 157.536 153.268  1.00  0.00     0.012 C 
ENDROOT
BRANCH   1   3
ATOM      3  C   UNL     1     172.189 159.361 151.664  1.00  0.00    -0.028 C 
ATOM      4  C   UNL     1     173.413 159.351 152.220  1.00  0.00    -0.027 C 
BRANCH   4   5
ATOM      5  C   UNL     1     174.498 160.375 151.926  1.00  0.00     0.014 C 
BRANCH   5   6
ATOM      6  C   UNL     1     174.670 160.691 150.412  1.00  0.00     0.004 C 
ATOM      7  C   UNL     1     175.881 160.078 149.707  1.00  0.00     0.004 C 
ENDBRANCH   5   6
BRANCH   5   8
ATOM      8  C   UNL     1     174.517 161.610 152.887  1.00  0.00    -0.011 C 
ATOM      9  C   UNL     1     174.880 162.893 152.118  1.00  0.00     0.008 C 
ATOM     10  C   UNL     1     175.455 161.477 154.101  1.00  0.00     0.008 C 
ENDBRANCH   5   8
ENDBRANCH   4   5
ENDBRANCH   1   3
BRANCH   1  11
ATOM     11  C   UNL     1     169.726 158.975 152.095  1.00  0.00     0.002 C 
ATOM     12  C   UNL     1     169.243 159.140 153.546  1.00  0.00     0.005 C 
ATOM     13  C   UNL     1     168.523 158.293 151.348  1.00  0.00    -0.026 C 
ATOM     14  C   UNL     1     168.048 158.205 153.728  1.00  0.00     0.005 C 
ATOM     15  C   UNL     1     167.903 157.378 152.430  1.00  0.00    -0.001 C 
ATOM     16  C   UNL     1     167.485 159.408 150.917  1.00  0.00     0.007 C 
ATOM     17  C   UNL     1     168.999 157.505 150.096  1.00  0.00     0.012 C 
ATOM     18  C   UNL     1     166.467 156.802 152.109  1.00  0.00     0.000 C 
ATOM     19  C   UNL     1     165.988 159.095 151.174  1.00  0.00     0.005 C 
ATOM     20  C   UNL     1     165.693 157.593 151.018  1.00  0.00     0.003 C 
ATOM     21  C   UNL     1     165.627 156.618 153.387  1.00  0.00     0.031 C 
ATOM     22  C   UNL     1     164.175 157.125 150.820  1.00  0.00    -0.008 C 
ATOM     23  C   UNL     1     164.262 156.092 153.121  1.00  0.00    -0.027 C 
ATOM     24  C   UNL     1     163.537 156.493 152.066  1.00  0.00    -0.065 C 
ATOM     25  C   UNL     1     163.257 158.301 150.363  1.00  0.00     0.014 C 
ATOM     26  C   UNL     1     164.178 156.031 149.712  1.00  0.00     0.016 C 
ATOM     27  C   UNL     1     162.056 156.158 152.036  1.00  0.00     0.063 C 
ATOM     28  C   UNL     1     161.768 157.929 150.251  1.00  0.00     0.033 C 
ATOM     29  C   UNL     1     161.237 157.371 151.581  1.00  0.00     0.118 C 
BRANCH  29  30
ATOM     30  O   UNL     1     159.894 156.988 151.433  1.00  0.00    -0.393 OA
ATOM     31  H   UNL     1     159.484 157.624 150.790  1.00  0.00     0.210 HD
ENDBRANCH  29  30
ENDBRANCH   1  11
TORSDOF 6
ENDMDL
MODEL 7
REMARK VINA RESULT:    -6.715      7.904     11.887
REMARK INTER + INTRA:          -9.917
REMARK INTER:                  -9.118
REMARK INTRA:                  -0.799
REMARK UNBOUND:                -1.043
REMARK SMILES CC[C@H](C=C[C@@H](C)[C@@H]1CC[C@H]2[C@H]3CC=C4C[C@H](O)CC[C@@]4(C)[C@H]3CC[C@]21C)C(C)C
REMARK SMILES IDX 6 1 7 2 5 3 4 4 3 5 2 6 1 7 28 8 29 9 30 10 8 11 9 12 26 13
REMARK SMILES IDX 10 14 11 15 25 16 27 17 12 18 24 19 23 20 13 21 21 22 14 23
REMARK SMILES IDX 15 24 20 25 22 26 16 27 19 28 17 29 18 30
REMARK H PARENT 18 31
REMARK Flexibility Score: inf
ROOT
ATOM      1  C   UNL     1     174.143 159.742 155.773  1.00  0.00     0.012 C 
ATOM      2  C   UNL     1     172.925 160.682 155.621  1.00  0.00     0.012 C 
ENDROOT
BRANCH   1   3
ATOM      3  C   UNL     1     174.553 159.227 154.405  1.00  0.00    -0.028 C 
ATOM      4  C   UNL     1     174.178 159.850 153.276  1.00  0.00    -0.027 C 
BRANCH   4   5
ATOM      5  C   UNL     1     174.548 159.388 151.875  1.00  0.00     0.014 C 
BRANCH   5   6
ATOM      6  C   UNL     1     173.352 159.383 150.879  1.00  0.00     0.004 C 
ATOM      7  C   UNL     1     173.064 158.071 150.147  1.00  0.00     0.004 C 
ENDBRANCH   5   6
BRANCH   5   8
ATOM      8  C   UNL     1     175.893 159.969 151.323  1.00  0.00    -0.011 C 
ATOM      9  C   UNL     1     176.118 161.403 151.835  1.00  0.00     0.008 C 
ATOM     10  C   UNL     1     176.023 159.965 149.789  1.00  0.00     0.008 C 
ENDBRANCH   5   8
ENDBRANCH   4   5
ENDBRANCH   1   3
BRANCH   1  11
ATOM     11  C   UNL     1     173.944 158.530 156.761  1.00  0.00     0.002 C 
ATOM     12  C   UNL     1     172.567 157.864 156.604  1.00  0.00     0.005 C 
ATOM     13  C   UNL     1     174.094 158.779 158.306  1.00  0.00    -0.026 C 
ATOM     14  C   UNL     1     171.789 158.136 157.891  1.00  0.00     0.005 C 
ATOM     15  C   UNL     1     172.648 159.083 158.760  1.00  0.00    -0.001 C 
ATOM     16  C   UNL     1     174.614 157.452 158.993  1.00  0.00     0.007 C 
ATOM     17  C   UNL     1     175.076 159.947 158.603  1.00  0.00     0.012 C 
ATOM     18  C   UNL     1     172.391 159.048 160.319  1.00  0.00     0.000 C 
ATOM     19  C   UNL     1     173.909 157.034 160.309  1.00  0.00     0.005 C 
ATOM     20  C   UNL     1     173.463 158.261 161.123  1.00  0.00     0.003 C 
ATOM     21  C   UNL     1     170.964 158.574 160.652  1.00  0.00     0.031 C 
ATOM     22  C   UNL     1     173.112 158.069 162.673  1.00  0.00    -0.008 C 
ATOM     23  C   UNL     1     170.692 158.513 162.112  1.00  0.00    -0.027 C 
ATOM     24  C   UNL     1     171.609 158.082 162.990  1.00  0.00    -0.065 C 
ATOM     25  C   UNL     1     173.706 156.745 163.246  1.00  0.00     0.014 C 
ATOM     26  C   UNL     1     173.742 159.272 163.434  1.00  0.00     0.016 C 
ATOM     27  C   UNL     1     171.161 157.751 164.403  1.00  0.00     0.063 C 
ATOM     28  C   UNL     1     173.317 156.462 164.707  1.00  0.00     0.033 C 
ATOM     29  C   UNL     1     171.790 156.437 164.877  1.00  0.00     0.118 C 
BRANCH  29  30
ATOM     30  O   UNL     1     171.465 156.234 166.228  1.00  0.00    -0.393 OA
ATOM     31  H   UNL     1     170.571 156.641 166.372  1.00  0.00     0.210 HD
ENDBRANCH  29  30
ENDBRANCH   1  11
TORSDOF 6
ENDMDL
MODEL 8
REMARK VINA RESULT:    -6.708      3.698     10.140
REMARK INTER + INTRA:          -9.907
REMARK INTER:                  -8.939
REMARK INTRA:                  -0.968
REMARK UNBOUND:                -1.043
REMARK SMILES CC[C@H](C=C[C@@H](C)[C@@H]1CC[C@H]2[C@H]3CC=C4C[C@H](O)CC[C@@]4(C)[C@H]3CC[C@]21C)C(C)C
REMARK SMILES IDX 6 1 7 2 5 3 4 4 3 5 2 6 1 7 28 8 29 9 30 10 8 11 9 12 26 13
REMARK SMILES IDX 10 14 11 15 25 16 27 17 12 18 24 19 23 20 13 21 21 22 14 23
REMARK SMILES IDX 15 24 20 25 22 26 16 27 19 28 17 29 18 30
REMARK H PARENT 18 31
REMARK Flexibility Score: inf
ROOT
ATOM      1  C   UNL     1     174.053 164.926 151.312  1.00  0.00     0.012 C 
ATOM      2  C   UNL     1     175.514 164.618 150.911  1.00  0.00     0.012 C 
ENDROOT
BRANCH   1   3
ATOM      3  C   UNL     1     173.212 163.674 151.143  1.00  0.00    -0.028 C 
ATOM      4  C   UNL     1     173.765 162.489 150.834  1.00  0.00    -0.027 C 
BRANCH   4   5
ATOM      5  C   UNL     1     172.983 161.199 150.646  1.00  0.00     0.014 C 
BRANCH   5   6
ATOM      6  C   UNL     1     171.966 161.246 149.469  1.00  0.00     0.004 C 
ATOM      7  C   UNL     1     170.482 161.166 149.829  1.00  0.00     0.004 C 
ENDBRANCH   5   6
BRANCH   5   8
ATOM      8  C   UNL     1     173.834 159.890 150.759  1.00  0.00    -0.011 C 
ATOM      9  C   UNL     1     175.148 160.024 149.968  1.00  0.00     0.008 C 
ATOM     10  C   UNL     1     173.115 158.604 150.311  1.00  0.00     0.008 C 
ENDBRANCH   5   8
ENDBRANCH   4   5
ENDBRANCH   1   3
BRANCH   1  11
ATOM     11  C   UNL     1     173.381 166.128 150.546  1.00  0.00     0.002 C 
ATOM     12  C   UNL     1     174.307 166.738 149.480  1.00  0.00     0.005 C 
ATOM     13  C   UNL     1     172.859 167.357 151.374  1.00  0.00    -0.026 C 
ATOM     14  C   UNL     1     174.661 168.148 149.951  1.00  0.00     0.005 C 
ATOM     15  C   UNL     1     174.060 168.330 151.364  1.00  0.00    -0.001 C 
ATOM     16  C   UNL     1     171.627 168.003 150.617  1.00  0.00     0.007 C 
ATOM     17  C   UNL     1     172.435 166.941 152.810  1.00  0.00     0.012 C 
ATOM     18  C   UNL     1     173.755 169.812 151.822  1.00  0.00     0.000 C 
ATOM     19  C   UNL     1     171.614 169.550 150.513  1.00  0.00     0.005 C 
ATOM     20  C   UNL     1     172.252 170.203 151.752  1.00  0.00     0.003 C 
ATOM     21  C   UNL     1     174.646 170.832 151.090  1.00  0.00     0.031 C 
ATOM     22  C   UNL     1     171.962 171.750 152.041  1.00  0.00    -0.008 C 
ATOM     23  C   UNL     1     174.375 172.239 151.485  1.00  0.00    -0.027 C 
ATOM     24  C   UNL     1     173.131 172.688 151.707  1.00  0.00    -0.065 C 
ATOM     25  C   UNL     1     170.707 172.262 151.267  1.00  0.00     0.014 C 
ATOM     26  C   UNL     1     171.699 171.886 153.570  1.00  0.00     0.016 C 
ATOM     27  C   UNL     1     172.908 174.189 151.794  1.00  0.00     0.063 C 
ATOM     28  C   UNL     1     170.439 173.768 151.432  1.00  0.00     0.033 C 
ATOM     29  C   UNL     1     171.660 174.597 151.004  1.00  0.00     0.118 C 
BRANCH  29  30
ATOM     30  O   UNL     1     171.408 175.962 151.219  1.00  0.00    -0.393 OA
ATOM     31  H   UNL     1     171.113 176.338 150.349  1.00  0.00     0.210 HD
ENDBRANCH  29  30
ENDBRANCH   1  11
TORSDOF 6
ENDMDL
MODEL 9
REMARK VINA RESULT:    -6.703      7.887     13.062
REMARK INTER + INTRA:          -9.901
REMARK INTER:                  -8.886
REMARK INTRA:                  -1.015
REMARK UNBOUND:                -1.043
REMARK SMILES CC[C@H](C=C[C@@H](C)[C@@H]1CC[C@H]2[C@H]3CC=C4C[C@H](O)CC[C@@]4(C)[C@H]3CC[C@]21C)C(C)C
REMARK SMILES IDX 6 1 7 2 5 3 4 4 3 5 2 6 1 7 28 8 29 9 30 10 8 11 9 12 26 13
REMARK SMILES IDX 10 14 11 15 25 16 27 17 12 18 24 19 23 20 13 21 21 22 14 23
REMARK SMILES IDX 15 24 20 25 22 26 16 27 19 28 17 29 18 30
REMARK H PARENT 18 31
REMARK Flexibility Score: inf
ROOT
ATOM      1  C   UNL     1     169.217 173.325 151.285  1.00  0.00     0.012 C 
ATOM      2  C   UNL     1     169.960 174.626 150.905  1.00  0.00     0.012 C 
ENDROOT
BRANCH   1   3
ATOM      3  C   UNL     1     170.155 172.144 151.116  1.00  0.00    -0.028 C 
ATOM      4  C   UNL     1     171.489 172.300 151.097  1.00  0.00    -0.027 C 
BRANCH   4   5
ATOM      5  C   UNL     1     172.485 171.163 150.927  1.00  0.00     0.014 C 
BRANCH   5   6
ATOM      6  C   UNL     1     171.826 169.798 150.572  1.00  0.00     0.004 C 
ATOM      7  C   UNL     1     172.171 169.194 149.210  1.00  0.00     0.004 C 
ENDBRANCH   5   6
BRANCH   5   8
ATOM      8  C   UNL     1     173.772 171.530 150.116  1.00  0.00    -0.011 C 
ATOM      9  C   UNL     1     175.018 170.887 150.750  1.00  0.00     0.008 C 
ATOM     10  C   UNL     1     174.026 173.039 149.945  1.00  0.00     0.008 C 
ENDBRANCH   5   8
ENDBRANCH   4   5
ENDBRANCH   1   3
BRANCH   1  11
ATOM     11  C   UNL     1     167.876 173.058 150.501  1.00  0.00     0.002 C 
ATOM     12  C   UNL     1     167.598 174.127 149.431  1.00  0.00     0.005 C 
ATOM     13  C   UNL     1     166.534 172.945 151.312  1.00  0.00    -0.026 C 
ATOM     14  C   UNL     1     166.361 174.902 149.884  1.00  0.00     0.005 C 
ATOM     15  C   UNL     1     165.983 174.389 151.293  1.00  0.00    -0.001 C 
ATOM     16  C   UNL     1     165.549 171.974 150.542  1.00  0.00     0.007 C 
ATOM     17  C   UNL     1     166.780 172.414 152.751  1.00  0.00     0.012 C 
ATOM     18  C   UNL     1     164.474 174.559 151.731  1.00  0.00     0.000 C 
ATOM     19  C   UNL     1     164.075 172.442 150.418  1.00  0.00     0.005 C 
ATOM     20  C   UNL     1     163.637 173.252 151.651  1.00  0.00     0.003 C 
ATOM     21  C   UNL     1     163.791 175.723 150.988  1.00  0.00     0.031 C 
ATOM     22  C   UNL     1     162.072 173.456 151.918  1.00  0.00    -0.008 C 
ATOM     23  C   UNL     1     162.364 175.901 151.364  1.00  0.00    -0.027 C 
ATOM     24  C   UNL     1     161.547 174.859 151.576  1.00  0.00    -0.065 C 
ATOM     25  C   UNL     1     161.206 172.422 151.134  1.00  0.00     0.014 C 
ATOM     26  C   UNL     1     161.841 173.250 153.444  1.00  0.00     0.016 C 
ATOM     27  C   UNL     1     160.051 175.113 151.644  1.00  0.00     0.063 C 
ATOM     28  C   UNL     1     159.689 172.635 151.279  1.00  0.00     0.033 C 
ATOM     29  C   UNL     1     159.286 174.053 150.844  1.00  0.00     0.118 C 
BRANCH  29  30
ATOM     30  O   UNL     1     157.908 174.237 151.040  1.00  0.00    -0.393 OA
ATOM     31  H   UNL     1     157.471 173.370 150.832  1.00  0.00     0.210 HD
ENDBRANCH  29  30
ENDBRANCH   1  11
TORSDOF 6
ENDMDL
