MODEL 1
REMARK VINA RESULT:    -3.717      0.000      0.000
REMARK INTER + INTRA:         -12.183
REMARK INTER:                  -9.802
REMARK INTRA:                  -2.381
REMARK UNBOUND:                -2.381
REMARK SMILES CCCCCCCCCCCCCCCCCCCCCCCCCCCCCC(=O)[O-]
REMARK SMILES IDX 16 1 17 2 18 3 19 4 20 5 21 6 22 7 23 8 24 9 25 10 26 11
REMARK SMILES IDX 27 12 28 13 29 14 30 15 31 16 32 17 15 18 14 19 13 20 12 21
REMARK SMILES IDX 11 22 10 23 9 24 8 25 7 26 6 27 5 28 4 29 3 30 2 31 1 32
REMARK H PARENT
REMARK Flexibility Score: inf
ROOT
ATOM      1  C   UNL     1      -3.247   8.455  -5.232  1.00  0.00     0.000 C 
ENDROOT
BRANCH   1   2
ATOM      2  C   UNL     1      -4.557   9.259  -5.310  1.00  0.00     0.000 C 
BRANCH   2   3
ATOM      3  C   UNL     1      -5.726   8.673  -4.493  1.00  0.00     0.000 C 
BRANCH   3   4
ATOM      4  C   UNL     1      -7.056   8.523  -5.261  1.00  0.00     0.000 C 
BRANCH   4   5
ATOM      5  C   UNL     1      -7.413   9.705  -6.181  1.00  0.00     0.000 C 
BRANCH   5   6
ATOM      6  C   UNL     1      -7.342   9.338  -7.672  1.00  0.00     0.000 C 
BRANCH   6   7
ATOM      7  C   UNL     1      -8.732   9.123  -8.291  1.00  0.00     0.000 C 
BRANCH   7   8
ATOM      8  C   UNL     1      -9.705   8.438  -7.316  1.00  0.00     0.000 C 
BRANCH   8   9
ATOM      9  C   UNL     1      -9.954   6.979  -7.717  1.00  0.00     0.000 C 
BRANCH   9  10
ATOM     10  C   UNL     1      -8.688   6.134  -7.512  1.00  0.00     0.000 C 
BRANCH  10  11
ATOM     11  C   UNL     1      -8.508   5.056  -8.592  1.00  0.00     0.000 C 
BRANCH  11  12
ATOM     12  C   UNL     1      -7.987   5.629  -9.919  1.00  0.00     0.000 C 
BRANCH  12  13
ATOM     13  C   UNL     1      -6.682   6.412  -9.710  1.00  0.00     0.006 C 
BRANCH  13  14
ATOM     14  C   UNL     1      -5.541   5.520  -9.202  1.00  0.00     0.053 C 
BRANCH  14  15
ATOM     15  C   UNL     1      -4.791   6.163  -8.074  1.00  0.00     0.041 C 
ATOM     16  O   UNL     1      -5.154   5.973  -6.883  1.00  0.00    -0.550 OA
ATOM     17  O   UNL     1      -3.718   7.005  -8.341  1.00  0.00    -0.550 OA
ENDBRANCH  14  15
ENDBRANCH  13  14
ENDBRANCH  12  13
ENDBRANCH  11  12
ENDBRANCH  10  11
ENDBRANCH   9  10
ENDBRANCH   8   9
ENDBRANCH   7   8
ENDBRANCH   6   7
ENDBRANCH   5   6
ENDBRANCH   4   5
ENDBRANCH   3   4
ENDBRANCH   2   3
ENDBRANCH   1   2
BRANCH   1  18
ATOM     18  C   UNL     1      -2.236   9.069  -4.249  1.00  0.00     0.000 C 
BRANCH  18  19
ATOM     19  C   UNL     1      -0.823   9.205  -4.854  1.00  0.00     0.000 C 
BRANCH  19  20
ATOM     20  C   UNL     1      -0.698   8.662  -6.293  1.00  0.00     0.000 C 
BRANCH  20  21
ATOM     21  C   UNL     1      -1.207   9.608  -7.395  1.00  0.00     0.000 C 
BRANCH  21  22
ATOM     22  C   UNL     1      -0.386   9.507  -8.691  1.00  0.00     0.000 C 
BRANCH  22  23
ATOM     23  C   UNL     1       1.074   9.928  -8.461  1.00  0.00     0.000 C 
BRANCH  23  24
ATOM     24  C   UNL     1       2.090   8.912  -9.022  1.00  0.00    -0.000 C 
BRANCH  24  25
ATOM     25  C   UNL     1       2.643   7.903  -7.998  1.00  0.00    -0.000 C 
BRANCH  25  26
ATOM     26  C   UNL     1       3.795   7.048  -8.554  1.00  0.00    -0.000 C 
BRANCH  26  27
ATOM     27  C   UNL     1       4.500   7.713  -9.747  1.00  0.00    -0.000 C 
BRANCH  27  28
ATOM     28  C   UNL     1       5.881   7.105 -10.042  1.00  0.00    -0.000 C 
BRANCH  28  29
ATOM     29  C   UNL     1       6.978   8.174  -9.962  1.00  0.00    -0.000 C 
BRANCH  29  30
ATOM     30  C   UNL     1       8.309   7.569  -9.495  1.00  0.00    -0.000 C 
BRANCH  30  31
ATOM     31  C   UNL     1       9.242   8.614  -8.862  1.00  0.00    -0.003 C 
ATOM     32  C   UNL     1       9.128   8.665  -7.339  1.00  0.00     0.004 C 
ENDBRANCH  30  31
ENDBRANCH  29  30
ENDBRANCH  28  29
ENDBRANCH  27  28
ENDBRANCH  26  27
ENDBRANCH  25  26
ENDBRANCH  24  25
ENDBRANCH  23  24
ENDBRANCH  22  23
ENDBRANCH  21  22
ENDBRANCH  20  21
ENDBRANCH  19  20
ENDBRANCH  18  19
ENDBRANCH   1  18
TORSDOF 28
ENDMDL
MODEL 2
REMARK VINA RESULT:    -3.342      2.679     10.226
REMARK INTER + INTRA:         -11.193
REMARK INTER:                  -7.491
REMARK INTRA:                  -3.702
REMARK UNBOUND:                -2.381
REMARK SMILES CCCCCCCCCCCCCCCCCCCCCCCCCCCCCC(=O)[O-]
REMARK SMILES IDX 16 1 17 2 18 3 19 4 20 5 21 6 22 7 23 8 24 9 25 10 26 11
REMARK SMILES IDX 27 12 28 13 29 14 30 15 31 16 32 17 15 18 14 19 13 20 12 21
REMARK SMILES IDX 11 22 10 23 9 24 8 25 7 26 6 27 5 28 4 29 3 30 2 31 1 32
REMARK H PARENT
REMARK Flexibility Score: inf
ROOT
ATOM      1  C   UNL     1      -0.939   9.239  -8.655  1.00  0.00     0.000 C 
ENDROOT
BRANCH   1   2
ATOM      2  C   UNL     1       0.341  10.089  -8.746  1.00  0.00     0.000 C 
BRANCH   2   3
ATOM      3  C   UNL     1       1.518   9.409  -9.472  1.00  0.00     0.000 C 
BRANCH   3   4
ATOM      4  C   UNL     1       2.552   8.725  -8.554  1.00  0.00     0.000 C 
BRANCH   4   5
ATOM      5  C   UNL     1       2.298   7.230  -8.288  1.00  0.00     0.000 C 
BRANCH   5   6
ATOM      6  C   UNL     1       2.874   6.761  -6.941  1.00  0.00     0.000 C 
BRANCH   6   7
ATOM      7  C   UNL     1       2.023   7.224  -5.748  1.00  0.00     0.000 C 
BRANCH   7   8
ATOM      8  C   UNL     1       0.682   7.834  -6.188  1.00  0.00     0.000 C 
BRANCH   8   9
ATOM      9  C   UNL     1      -0.129   8.319  -4.980  1.00  0.00     0.000 C 
BRANCH   9  10
ATOM     10  C   UNL     1      -0.598   9.767  -5.186  1.00  0.00     0.000 C 
BRANCH  10  11
ATOM     11  C   UNL     1      -2.104   9.948  -4.942  1.00  0.00     0.000 C 
BRANCH  11  12
ATOM     12  C   UNL     1      -2.755   8.706  -4.314  1.00  0.00     0.000 C 
BRANCH  12  13
ATOM     13  C   UNL     1      -3.876   8.155  -5.209  1.00  0.00     0.006 C 
BRANCH  13  14
ATOM     14  C   UNL     1      -3.356   7.689  -6.576  1.00  0.00     0.053 C 
BRANCH  14  15
ATOM     15  C   UNL     1      -4.020   6.421  -7.022  1.00  0.00     0.041 C 
ATOM     16  O   UNL     1      -4.163   5.464  -6.216  1.00  0.00    -0.550 OA
ATOM     17  O   UNL     1      -4.441   6.281  -8.340  1.00  0.00    -0.550 OA
ENDBRANCH  14  15
ENDBRANCH  13  14
ENDBRANCH  12  13
ENDBRANCH  11  12
ENDBRANCH  10  11
ENDBRANCH   9  10
ENDBRANCH   8   9
ENDBRANCH   7   8
ENDBRANCH   6   7
ENDBRANCH   5   6
ENDBRANCH   4   5
ENDBRANCH   3   4
ENDBRANCH   2   3
ENDBRANCH   1   2
BRANCH   1  18
ATOM     18  C   UNL     1      -2.171   9.965  -9.220  1.00  0.00     0.000 C 
BRANCH  18  19
ATOM     19  C   UNL     1      -3.084   9.035 -10.046  1.00  0.00     0.000 C 
BRANCH  19  20
ATOM     20  C   UNL     1      -4.582   9.395  -9.976  1.00  0.00     0.000 C 
BRANCH  20  21
ATOM     21  C   UNL     1      -5.064   9.929  -8.616  1.00  0.00     0.000 C 
BRANCH  21  22
ATOM     22  C   UNL     1      -6.587  10.125  -8.559  1.00  0.00     0.000 C 
BRANCH  22  23
ATOM     23  C   UNL     1      -7.315   9.100  -9.444  1.00  0.00     0.000 C 
BRANCH  23  24
ATOM     24  C   UNL     1      -8.769   9.503  -9.763  1.00  0.00    -0.000 C 
BRANCH  24  25
ATOM     25  C   UNL     1      -9.633   9.866  -8.541  1.00  0.00    -0.000 C 
BRANCH  25  26
ATOM     26  C   UNL     1      -9.553   8.821  -7.414  1.00  0.00    -0.000 C 
BRANCH  26  27
ATOM     27  C   UNL     1      -9.075   9.425  -6.083  1.00  0.00    -0.000 C 
BRANCH  27  28
ATOM     28  C   UNL     1      -8.630   8.360  -5.068  1.00  0.00    -0.000 C 
BRANCH  28  29
ATOM     29  C   UNL     1      -7.380   7.621  -5.562  1.00  0.00    -0.000 C 
BRANCH  29  30
ATOM     30  C   UNL     1      -7.541   6.101  -5.418  1.00  0.00    -0.000 C 
BRANCH  30  31
ATOM     31  C   UNL     1      -7.938   5.422  -6.738  1.00  0.00    -0.003 C 
ATOM     32  C   UNL     1      -9.392   4.953  -6.749  1.00  0.00     0.004 C 
ENDBRANCH  30  31
ENDBRANCH  29  30
ENDBRANCH  28  29
ENDBRANCH  27  28
ENDBRANCH  26  27
ENDBRANCH  25  26
ENDBRANCH  24  25
ENDBRANCH  23  24
ENDBRANCH  22  23
ENDBRANCH  21  22
ENDBRANCH  20  21
ENDBRANCH  19  20
ENDBRANCH  18  19
ENDBRANCH   1  18
TORSDOF 28
ENDMDL
MODEL 3
REMARK VINA RESULT:    -3.297      2.813      6.744
REMARK INTER + INTRA:         -11.074
REMARK INTER:                  -7.439
REMARK INTRA:                  -3.635
REMARK UNBOUND:                -2.381
REMARK SMILES CCCCCCCCCCCCCCCCCCCCCCCCCCCCCC(=O)[O-]
REMARK SMILES IDX 16 1 17 2 18 3 19 4 20 5 21 6 22 7 23 8 24 9 25 10 26 11
REMARK SMILES IDX 27 12 28 13 29 14 30 15 31 16 32 17 15 18 14 19 13 20 12 21
REMARK SMILES IDX 11 22 10 23 9 24 8 25 7 26 6 27 5 28 4 29 3 30 2 31 1 32
REMARK H PARENT
REMARK Flexibility Score: inf
ROOT
ATOM      1  C   UNL     1       0.254   9.593  -9.447  1.00  0.00     0.000 C 
ENDROOT
BRANCH   1   2
ATOM      2  C   UNL     1      -1.273   9.723  -9.590  1.00  0.00     0.000 C 
BRANCH   2   3
ATOM      3  C   UNL     1      -2.051   8.401  -9.438  1.00  0.00     0.000 C 
BRANCH   3   4
ATOM      4  C   UNL     1      -3.474   8.402 -10.035  1.00  0.00     0.000 C 
BRANCH   4   5
ATOM      5  C   UNL     1      -4.225   9.742  -9.926  1.00  0.00     0.000 C 
BRANCH   5   6
ATOM      6  C   UNL     1      -5.752   9.565  -9.907  1.00  0.00     0.000 C 
BRANCH   6   7
ATOM      7  C   UNL     1      -6.177   8.194  -9.356  1.00  0.00     0.000 C 
BRANCH   7   8
ATOM      8  C   UNL     1      -7.602   7.810  -9.784  1.00  0.00     0.000 C 
BRANCH   8   9
ATOM      9  C   UNL     1      -7.793   6.288  -9.772  1.00  0.00     0.000 C 
BRANCH   9  10
ATOM     10  C   UNL     1      -7.332   5.692  -8.433  1.00  0.00     0.000 C 
BRANCH  10  11
ATOM     11  C   UNL     1      -8.433   4.883  -7.730  1.00  0.00     0.000 C 
BRANCH  11  12
ATOM     12  C   UNL     1      -9.091   5.656  -6.576  1.00  0.00     0.000 C 
BRANCH  12  13
ATOM     13  C   UNL     1      -8.033   6.284  -5.656  1.00  0.00     0.006 C 
BRANCH  13  14
ATOM     14  C   UNL     1      -8.053   7.818  -5.706  1.00  0.00     0.053 C 
BRANCH  14  15
ATOM     15  C   UNL     1      -9.414   8.369  -5.405  1.00  0.00     0.041 C 
ATOM     16  O   UNL     1     -10.029   8.005  -4.367  1.00  0.00    -0.550 OA
ATOM     17  O   UNL     1     -10.021   9.251  -6.291  1.00  0.00    -0.550 OA
ENDBRANCH  14  15
ENDBRANCH  13  14
ENDBRANCH  12  13
ENDBRANCH  11  12
ENDBRANCH  10  11
ENDBRANCH   9  10
ENDBRANCH   8   9
ENDBRANCH   7   8
ENDBRANCH   6   7
ENDBRANCH   5   6
ENDBRANCH   4   5
ENDBRANCH   3   4
ENDBRANCH   2   3
ENDBRANCH   1   2
BRANCH   1  18
ATOM     18  C   UNL     1       0.731   8.132  -9.506  1.00  0.00     0.000 C 
BRANCH  18  19
ATOM     19  C   UNL     1       2.138   7.989 -10.122  1.00  0.00     0.000 C 
BRANCH  19  20
ATOM     20  C   UNL     1       3.291   8.190  -9.117  1.00  0.00     0.000 C 
BRANCH  20  21
ATOM     21  C   UNL     1       3.698   6.934  -8.328  1.00  0.00     0.000 C 
BRANCH  21  22
ATOM     22  C   UNL     1       2.574   6.410  -7.422  1.00  0.00     0.000 C 
BRANCH  22  23
ATOM     23  C   UNL     1       2.246   7.410  -6.302  1.00  0.00     0.000 C 
BRANCH  23  24
ATOM     24  C   UNL     1       0.892   8.120  -6.502  1.00  0.00    -0.000 C 
BRANCH  24  25
ATOM     25  C   UNL     1       0.009   8.216  -5.244  1.00  0.00    -0.000 C 
BRANCH  25  26
ATOM     26  C   UNL     1      -0.826   9.507  -5.190  1.00  0.00    -0.000 C 
BRANCH  26  27
ATOM     27  C   UNL     1      -2.292   9.247  -4.812  1.00  0.00    -0.000 C 
BRANCH  27  28
ATOM     28  C   UNL     1      -3.285   9.784  -5.856  1.00  0.00    -0.000 C 
BRANCH  28  29
ATOM     29  C   UNL     1      -4.229   8.673  -6.335  1.00  0.00    -0.000 C 
BRANCH  29  30
ATOM     30  C   UNL     1      -3.712   7.289  -5.920  1.00  0.00    -0.000 C 
BRANCH  30  31
ATOM     31  C   UNL     1      -4.552   6.144  -6.509  1.00  0.00    -0.003 C 
ATOM     32  C   UNL     1      -3.939   5.552  -7.778  1.00  0.00     0.004 C 
ENDBRANCH  30  31
ENDBRANCH  29  30
ENDBRANCH  28  29
ENDBRANCH  27  28
ENDBRANCH  26  27
ENDBRANCH  25  26
ENDBRANCH  24  25
ENDBRANCH  23  24
ENDBRANCH  22  23
ENDBRANCH  21  22
ENDBRANCH  20  21
ENDBRANCH  19  20
ENDBRANCH  18  19
ENDBRANCH   1  18
TORSDOF 28
ENDMDL
MODEL 4
REMARK VINA RESULT:    -3.105      2.367      9.167
REMARK INTER + INTRA:         -10.569
REMARK INTER:                  -7.110
REMARK INTRA:                  -3.459
REMARK UNBOUND:                -2.381
REMARK SMILES CCCCCCCCCCCCCCCCCCCCCCCCCCCCCC(=O)[O-]
REMARK SMILES IDX 16 1 17 2 18 3 19 4 20 5 21 6 22 7 23 8 24 9 25 10 26 11
REMARK SMILES IDX 27 12 28 13 29 14 30 15 31 16 32 17 15 18 14 19 13 20 12 21
REMARK SMILES IDX 11 22 10 23 9 24 8 25 7 26 6 27 5 28 4 29 3 30 2 31 1 32
REMARK H PARENT
REMARK Flexibility Score: inf
ROOT
ATOM      1  C   UNL     1       3.274   7.907  -8.454  1.00  0.00     0.000 C 
ENDROOT
BRANCH   1   2
ATOM      2  C   UNL     1       3.088   6.732  -7.477  1.00  0.00     0.000 C 
BRANCH   2   3
ATOM      3  C   UNL     1       1.767   6.755  -6.683  1.00  0.00     0.000 C 
BRANCH   3   4
ATOM      4  C   UNL     1       1.463   8.078  -5.948  1.00  0.00     0.000 C 
BRANCH   4   5
ATOM      5  C   UNL     1       0.040   8.190  -5.372  1.00  0.00     0.000 C 
BRANCH   5   6
ATOM      6  C   UNL     1      -0.523   9.619  -5.458  1.00  0.00     0.000 C 
BRANCH   6   7
ATOM      7  C   UNL     1      -2.055   9.654  -5.339  1.00  0.00     0.000 C 
BRANCH   7   8
ATOM      8  C   UNL     1      -2.544   9.201  -3.954  1.00  0.00     0.000 C 
BRANCH   8   9
ATOM      9  C   UNL     1      -3.994   9.635  -3.710  1.00  0.00     0.000 C 
BRANCH   9  10
ATOM     10  C   UNL     1      -4.826   9.502  -4.994  1.00  0.00     0.000 C 
BRANCH  10  11
ATOM     11  C   UNL     1      -5.785   8.301  -4.963  1.00  0.00     0.000 C 
BRANCH  11  12
ATOM     12  C   UNL     1      -5.076   6.970  -5.253  1.00  0.00     0.000 C 
BRANCH  12  13
ATOM     13  C   UNL     1      -5.494   6.406  -6.620  1.00  0.00     0.006 C 
BRANCH  13  14
ATOM     14  C   UNL     1      -4.307   5.820  -7.398  1.00  0.00     0.053 C 
BRANCH  14  15
ATOM     15  C   UNL     1      -4.711   5.354  -8.765  1.00  0.00     0.041 C 
ATOM     16  O   UNL     1      -5.904   5.479  -9.150  1.00  0.00    -0.550 OA
ATOM     17  O   UNL     1      -3.779   4.744  -9.596  1.00  0.00    -0.550 OA
ENDBRANCH  14  15
ENDBRANCH  13  14
ENDBRANCH  12  13
ENDBRANCH  11  12
ENDBRANCH  10  11
ENDBRANCH   9  10
ENDBRANCH   8   9
ENDBRANCH   7   8
ENDBRANCH   6   7
ENDBRANCH   5   6
ENDBRANCH   4   5
ENDBRANCH   3   4
ENDBRANCH   2   3
ENDBRANCH   1   2
BRANCH   1  18
ATOM     18  C   UNL     1       2.026   8.801  -8.548  1.00  0.00     0.000 C 
BRANCH  18  19
ATOM     19  C   UNL     1       1.058   8.357  -9.665  1.00  0.00     0.000 C 
BRANCH  19  20
ATOM     20  C   UNL     1       0.063   9.449 -10.108  1.00  0.00     0.000 C 
BRANCH  20  21
ATOM     21  C   UNL     1      -0.973   9.860  -9.048  1.00  0.00     0.000 C 
BRANCH  21  22
ATOM     22  C   UNL     1      -2.415   9.813  -9.576  1.00  0.00     0.000 C 
BRANCH  22  23
ATOM     23  C   UNL     1      -3.365   9.174  -8.550  1.00  0.00     0.000 C 
BRANCH  23  24
ATOM     24  C   UNL     1      -4.800   8.994  -9.086  1.00  0.00    -0.000 C 
BRANCH  24  25
ATOM     25  C   UNL     1      -5.782  10.125  -8.725  1.00  0.00    -0.000 C 
BRANCH  25  26
ATOM     26  C   UNL     1      -6.986   9.638  -7.899  1.00  0.00    -0.000 C 
BRANCH  26  27
ATOM     27  C   UNL     1      -8.221   9.354  -8.769  1.00  0.00    -0.000 C 
BRANCH  27  28
ATOM     28  C   UNL     1      -8.405   7.859  -9.077  1.00  0.00    -0.000 C 
BRANCH  28  29
ATOM     29  C   UNL     1      -9.591   7.281  -8.294  1.00  0.00    -0.000 C 
BRANCH  29  30
ATOM     30  C   UNL     1      -9.127   6.207  -7.299  1.00  0.00    -0.000 C 
BRANCH  30  31
ATOM     31  C   UNL     1      -9.470   6.563  -5.844  1.00  0.00    -0.003 C 
ATOM     32  C   UNL     1      -9.185   8.027  -5.510  1.00  0.00     0.004 C 
ENDBRANCH  30  31
ENDBRANCH  29  30
ENDBRANCH  28  29
ENDBRANCH  27  28
ENDBRANCH  26  27
ENDBRANCH  25  26
ENDBRANCH  24  25
ENDBRANCH  23  24
ENDBRANCH  22  23
ENDBRANCH  21  22
ENDBRANCH  20  21
ENDBRANCH  19  20
ENDBRANCH  18  19
ENDBRANCH   1  18
TORSDOF 28
ENDMDL
MODEL 5
REMARK VINA RESULT:    -2.989      3.702     12.188
REMARK INTER + INTRA:         -10.261
REMARK INTER:                  -8.646
REMARK INTRA:                  -1.615
REMARK UNBOUND:                -2.381
REMARK SMILES CCCCCCCCCCCCCCCCCCCCCCCCCCCCCC(=O)[O-]
REMARK SMILES IDX 16 1 17 2 18 3 19 4 20 5 21 6 22 7 23 8 24 9 25 10 26 11
REMARK SMILES IDX 27 12 28 13 29 14 30 15 31 16 32 17 15 18 14 19 13 20 12 21
REMARK SMILES IDX 11 22 10 23 9 24 8 25 7 26 6 27 5 28 4 29 3 30 2 31 1 32
REMARK H PARENT
REMARK Flexibility Score: inf
ROOT
ATOM      1  C   UNL     1      -3.741   7.248  -6.532  1.00  0.00     0.000 C 
ENDROOT
BRANCH   1   2
ATOM      2  C   UNL     1      -3.892   8.476  -7.448  1.00  0.00     0.000 C 
BRANCH   2   3
ATOM      3  C   UNL     1      -2.896   8.532  -8.623  1.00  0.00     0.000 C 
BRANCH   3   4
ATOM      4  C   UNL     1      -1.621   9.363  -8.365  1.00  0.00     0.000 C 
BRANCH   4   5
ATOM      5  C   UNL     1      -0.623   8.734  -7.376  1.00  0.00     0.000 C 
BRANCH   5   6
ATOM      6  C   UNL     1       0.757   9.412  -7.417  1.00  0.00     0.000 C 
BRANCH   6   7
ATOM      7  C   UNL     1       1.554   9.045  -8.679  1.00  0.00     0.000 C 
BRANCH   7   8
ATOM      8  C   UNL     1       2.685   8.047  -8.386  1.00  0.00     0.000 C 
BRANCH   8   9
ATOM      9  C   UNL     1       3.598   7.870  -9.605  1.00  0.00     0.000 C 
BRANCH   9  10
ATOM     10  C   UNL     1       4.964   7.305  -9.186  1.00  0.00     0.000 C 
BRANCH  10  11
ATOM     11  C   UNL     1       6.113   7.791 -10.083  1.00  0.00     0.000 C 
BRANCH  11  12
ATOM     12  C   UNL     1       7.470   7.783  -9.363  1.00  0.00     0.000 C 
BRANCH  12  13
ATOM     13  C   UNL     1       8.448   8.775 -10.013  1.00  0.00     0.006 C 
BRANCH  13  14
ATOM     14  C   UNL     1       9.736   8.945  -9.195  1.00  0.00     0.053 C 
BRANCH  14  15
ATOM     15  C   UNL     1       9.704   8.139  -7.931  1.00  0.00     0.041 C 
ATOM     16  O   UNL     1      10.077   6.936  -7.937  1.00  0.00    -0.550 OA
ATOM     17  O   UNL     1       9.223   8.705  -6.756  1.00  0.00    -0.550 OA
ENDBRANCH  14  15
ENDBRANCH  13  14
ENDBRANCH  12  13
ENDBRANCH  11  12
ENDBRANCH  10  11
ENDBRANCH   9  10
ENDBRANCH   8   9
ENDBRANCH   7   8
ENDBRANCH   6   7
ENDBRANCH   5   6
ENDBRANCH   4   5
ENDBRANCH   3   4
ENDBRANCH   2   3
ENDBRANCH   1   2
BRANCH   1  18
ATOM     18  C   UNL     1      -4.496   7.407  -5.202  1.00  0.00     0.000 C 
BRANCH  18  19
ATOM     19  C   UNL     1      -4.692   8.884  -4.801  1.00  0.00     0.000 C 
BRANCH  19  20
ATOM     20  C   UNL     1      -6.146   9.385  -4.927  1.00  0.00     0.000 C 
BRANCH  20  21
ATOM     21  C   UNL     1      -6.938   8.804  -6.111  1.00  0.00     0.000 C 
BRANCH  21  22
ATOM     22  C   UNL     1      -7.278   9.860  -7.174  1.00  0.00     0.000 C 
BRANCH  22  23
ATOM     23  C   UNL     1      -8.744   9.750  -7.623  1.00  0.00     0.000 C 
BRANCH  23  24
ATOM     24  C   UNL     1      -9.045   8.445  -8.388  1.00  0.00    -0.000 C 
BRANCH  24  25
ATOM     25  C   UNL     1      -7.954   8.000  -9.381  1.00  0.00    -0.000 C 
BRANCH  25  26
ATOM     26  C   UNL     1      -7.565   6.519  -9.226  1.00  0.00    -0.000 C 
BRANCH  26  27
ATOM     27  C   UNL     1      -8.600   5.569  -9.851  1.00  0.00    -0.000 C 
BRANCH  27  28
ATOM     28  C   UNL     1      -9.888   5.456  -9.020  1.00  0.00    -0.000 C 
BRANCH  28  29
ATOM     29  C   UNL     1      -9.910   4.146  -8.222  1.00  0.00    -0.000 C 
BRANCH  29  30
ATOM     30  C   UNL     1     -10.056   4.415  -6.717  1.00  0.00    -0.000 C 
BRANCH  30  31
ATOM     31  C   UNL     1      -9.333   5.698  -6.276  1.00  0.00    -0.003 C 
ATOM     32  C   UNL     1      -7.918   5.434  -5.764  1.00  0.00     0.004 C 
ENDBRANCH  30  31
ENDBRANCH  29  30
ENDBRANCH  28  29
ENDBRANCH  27  28
ENDBRANCH  26  27
ENDBRANCH  25  26
ENDBRANCH  24  25
ENDBRANCH  23  24
ENDBRANCH  22  23
ENDBRANCH  21  22
ENDBRANCH  20  21
ENDBRANCH  19  20
ENDBRANCH  18  19
ENDBRANCH   1  18
TORSDOF 28
ENDMDL
MODEL 6
REMARK VINA RESULT:    -2.983      2.161     10.075
REMARK INTER + INTRA:         -10.246
REMARK INTER:                  -6.963
REMARK INTRA:                  -3.283
REMARK UNBOUND:                -2.381
REMARK SMILES CCCCCCCCCCCCCCCCCCCCCCCCCCCCCC(=O)[O-]
REMARK SMILES IDX 16 1 17 2 18 3 19 4 20 5 21 6 22 7 23 8 24 9 25 10 26 11
REMARK SMILES IDX 27 12 28 13 29 14 30 15 31 16 32 17 15 18 14 19 13 20 12 21
REMARK SMILES IDX 11 22 10 23 9 24 8 25 7 26 6 27 5 28 4 29 3 30 2 31 1 32
REMARK H PARENT
REMARK Flexibility Score: inf
ROOT
ATOM      1  C   UNL     1       2.168   6.768  -6.383  1.00  0.00     0.000 C 
ENDROOT
BRANCH   1   2
ATOM      2  C   UNL     1       2.726   6.445  -7.781  1.00  0.00     0.000 C 
BRANCH   2   3
ATOM      3  C   UNL     1       4.076   7.114  -8.108  1.00  0.00     0.000 C 
BRANCH   3   4
ATOM      4  C   UNL     1       4.187   7.714  -9.525  1.00  0.00     0.000 C 
BRANCH   4   5
ATOM      5  C   UNL     1       4.379   9.241  -9.572  1.00  0.00     0.000 C 
BRANCH   5   6
ATOM      6  C   UNL     1       3.145   9.976 -10.122  1.00  0.00     0.000 C 
BRANCH   6   7
ATOM      7  C   UNL     1       1.904   9.781  -9.237  1.00  0.00     0.000 C 
BRANCH   7   8
ATOM      8  C   UNL     1       0.722   9.178 -10.013  1.00  0.00     0.000 C 
BRANCH   8   9
ATOM      9  C   UNL     1      -0.616   9.707  -9.484  1.00  0.00     0.000 C 
BRANCH   9  10
ATOM     10  C   UNL     1      -1.729   8.665  -9.679  1.00  0.00     0.000 C 
BRANCH  10  11
ATOM     11  C   UNL     1      -2.792   8.713  -8.570  1.00  0.00     0.000 C 
BRANCH  11  12
ATOM     12  C   UNL     1      -4.183   9.095  -9.100  1.00  0.00     0.000 C 
BRANCH  12  13
ATOM     13  C   UNL     1      -5.245   8.079  -8.651  1.00  0.00     0.006 C 
BRANCH  13  14
ATOM     14  C   UNL     1      -4.631   6.729  -8.256  1.00  0.00     0.053 C 
BRANCH  14  15
ATOM     15  C   UNL     1      -5.190   6.220  -6.961  1.00  0.00     0.041 C 
ATOM     16  O   UNL     1      -6.148   5.403  -6.962  1.00  0.00    -0.550 OA
ATOM     17  O   UNL     1      -4.678   6.680  -5.754  1.00  0.00    -0.550 OA
ENDBRANCH  14  15
ENDBRANCH  13  14
ENDBRANCH  12  13
ENDBRANCH  11  12
ENDBRANCH  10  11
ENDBRANCH   9  10
ENDBRANCH   8   9
ENDBRANCH   7   8
ENDBRANCH   6   7
ENDBRANCH   5   6
ENDBRANCH   4   5
ENDBRANCH   3   4
ENDBRANCH   2   3
ENDBRANCH   1   2
BRANCH   1  18
ATOM     18  C   UNL     1       1.187   7.952  -6.398  1.00  0.00     0.000 C 
BRANCH  18  19
ATOM     19  C   UNL     1       0.209   7.931  -5.204  1.00  0.00     0.000 C 
BRANCH  19  20
ATOM     20  C   UNL     1      -1.278   7.857  -5.608  1.00  0.00     0.000 C 
BRANCH  20  21
ATOM     21  C   UNL     1      -2.117   9.095  -5.248  1.00  0.00     0.000 C 
BRANCH  21  22
ATOM     22  C   UNL     1      -2.330   9.250  -3.734  1.00  0.00     0.000 C 
BRANCH  22  23
ATOM     23  C   UNL     1      -3.783   9.632  -3.411  1.00  0.00     0.000 C 
BRANCH  23  24
ATOM     24  C   UNL     1      -4.583  10.074  -4.654  1.00  0.00    -0.000 C 
BRANCH  24  25
ATOM     25  C   UNL     1      -6.111  10.124  -4.467  1.00  0.00    -0.000 C 
BRANCH  25  26
ATOM     26  C   UNL     1      -6.887   9.808  -5.758  1.00  0.00    -0.000 C 
BRANCH  26  27
ATOM     27  C   UNL     1      -7.556   8.425  -5.720  1.00  0.00    -0.000 C 
BRANCH  27  28
ATOM     28  C   UNL     1      -8.690   8.280  -6.748  1.00  0.00    -0.000 C 
BRANCH  28  29
ATOM     29  C   UNL     1      -9.836   7.430  -6.182  1.00  0.00    -0.000 C 
BRANCH  29  30
ATOM     30  C   UNL     1      -9.332   6.052  -5.730  1.00  0.00    -0.000 C 
BRANCH  30  31
ATOM     31  C   UNL     1      -9.530   4.971  -6.805  1.00  0.00    -0.003 C 
ATOM     32  C   UNL     1      -9.308   3.557  -6.270  1.00  0.00     0.004 C 
ENDBRANCH  30  31
ENDBRANCH  29  30
ENDBRANCH  28  29
ENDBRANCH  27  28
ENDBRANCH  26  27
ENDBRANCH  25  26
ENDBRANCH  24  25
ENDBRANCH  23  24
ENDBRANCH  22  23
ENDBRANCH  21  22
ENDBRANCH  20  21
ENDBRANCH  19  20
ENDBRANCH  18  19
ENDBRANCH   1  18
TORSDOF 28
ENDMDL
MODEL 7
REMARK VINA RESULT:    -2.904      3.781     11.463
REMARK INTER + INTRA:         -10.039
REMARK INTER:                  -8.006
REMARK INTRA:                  -2.033
REMARK UNBOUND:                -2.381
REMARK SMILES CCCCCCCCCCCCCCCCCCCCCCCCCCCCCC(=O)[O-]
REMARK SMILES IDX 16 1 17 2 18 3 19 4 20 5 21 6 22 7 23 8 24 9 25 10 26 11
REMARK SMILES IDX 27 12 28 13 29 14 30 15 31 16 32 17 15 18 14 19 13 20 12 21
REMARK SMILES IDX 11 22 10 23 9 24 8 25 7 26 6 27 5 28 4 29 3 30 2 31 1 32
REMARK H PARENT
REMARK Flexibility Score: inf
ROOT
ATOM      1  C   UNL     1      -3.779   7.091  -6.329  1.00  0.00     0.000 C 
ENDROOT
BRANCH   1   2
ATOM      2  C   UNL     1      -4.213   8.106  -7.402  1.00  0.00     0.000 C 
BRANCH   2   3
ATOM      3  C   UNL     1      -3.243   8.240  -8.593  1.00  0.00     0.000 C 
BRANCH   3   4
ATOM      4  C   UNL     1      -2.112   9.273  -8.408  1.00  0.00     0.000 C 
BRANCH   4   5
ATOM      5  C   UNL     1      -1.064   8.906  -7.341  1.00  0.00     0.000 C 
BRANCH   5   6
ATOM      6  C   UNL     1       0.170   9.823  -7.383  1.00  0.00     0.000 C 
BRANCH   6   7
ATOM      7  C   UNL     1       1.081   9.526  -8.585  1.00  0.00     0.000 C 
BRANCH   7   8
ATOM      8  C   UNL     1       2.206   8.539  -8.235  1.00  0.00     0.000 C 
BRANCH   8   9
ATOM      9  C   UNL     1       2.998   8.136  -9.484  1.00  0.00     0.000 C 
BRANCH   9  10
ATOM     10  C   UNL     1       4.268   7.362  -9.097  1.00  0.00     0.000 C 
BRANCH  10  11
ATOM     11  C   UNL     1       5.515   7.842  -9.857  1.00  0.00     0.000 C 
BRANCH  11  12
ATOM     12  C   UNL     1       6.811   7.633  -9.058  1.00  0.00     0.000 C 
BRANCH  12  13
ATOM     13  C   UNL     1       8.048   7.915  -9.925  1.00  0.00     0.006 C 
BRANCH  13  14
ATOM     14  C   UNL     1       9.048   8.848  -9.229  1.00  0.00     0.053 C 
BRANCH  14  15
ATOM     15  C   UNL     1       9.586   8.246  -7.965  1.00  0.00     0.041 C 
ATOM     16  O   UNL     1       9.595   8.916  -6.899  1.00  0.00    -0.550 OA
ATOM     17  O   UNL     1      10.115   6.961  -7.976  1.00  0.00    -0.550 OA
ENDBRANCH  14  15
ENDBRANCH  13  14
ENDBRANCH  12  13
ENDBRANCH  11  12
ENDBRANCH  10  11
ENDBRANCH   9  10
ENDBRANCH   8   9
ENDBRANCH   7   8
ENDBRANCH   6   7
ENDBRANCH   5   6
ENDBRANCH   4   5
ENDBRANCH   3   4
ENDBRANCH   2   3
ENDBRANCH   1   2
BRANCH   1  18
ATOM     18  C   UNL     1      -4.390   7.392  -4.950  1.00  0.00     0.000 C 
BRANCH  18  19
ATOM     19  C   UNL     1      -5.072   8.775  -4.890  1.00  0.00     0.000 C 
BRANCH  19  20
ATOM     20  C   UNL     1      -6.586   8.721  -4.601  1.00  0.00     0.000 C 
BRANCH  20  21
ATOM     21  C   UNL     1      -7.493   8.817  -5.841  1.00  0.00     0.000 C 
BRANCH  21  22
ATOM     22  C   UNL     1      -8.495   9.979  -5.756  1.00  0.00     0.000 C 
BRANCH  22  23
ATOM     23  C   UNL     1      -9.871   9.570  -6.305  1.00  0.00     0.000 C 
BRANCH  23  24
ATOM     24  C   UNL     1      -9.792   8.890  -7.687  1.00  0.00    -0.000 C 
BRANCH  24  25
ATOM     25  C   UNL     1      -9.058   9.697  -8.774  1.00  0.00    -0.000 C 
BRANCH  25  26
ATOM     26  C   UNL     1      -7.956   8.891  -9.483  1.00  0.00    -0.000 C 
BRANCH  26  27
ATOM     27  C   UNL     1      -8.489   7.600 -10.125  1.00  0.00    -0.000 C 
BRANCH  27  28
ATOM     28  C   UNL     1      -8.548   6.421  -9.140  1.00  0.00    -0.000 C 
BRANCH  28  29
ATOM     29  C   UNL     1      -7.618   5.287  -9.588  1.00  0.00    -0.000 C 
BRANCH  29  30
ATOM     30  C   UNL     1      -6.202   5.476  -9.026  1.00  0.00    -0.000 C 
BRANCH  30  31
ATOM     31  C   UNL     1      -5.166   5.768 -10.124  1.00  0.00    -0.003 C 
ATOM     32  C   UNL     1      -3.881   4.958  -9.955  1.00  0.00     0.004 C 
ENDBRANCH  30  31
ENDBRANCH  29  30
ENDBRANCH  28  29
ENDBRANCH  27  28
ENDBRANCH  26  27
ENDBRANCH  25  26
ENDBRANCH  24  25
ENDBRANCH  23  24
ENDBRANCH  22  23
ENDBRANCH  21  22
ENDBRANCH  20  21
ENDBRANCH  19  20
ENDBRANCH  18  19
ENDBRANCH   1  18
TORSDOF 28
ENDMDL
MODEL 8
REMARK VINA RESULT:    -2.874      1.799      4.116
REMARK INTER + INTRA:          -9.959
REMARK INTER:                  -8.449
REMARK INTRA:                  -1.510
REMARK UNBOUND:                -2.381
REMARK SMILES CCCCCCCCCCCCCCCCCCCCCCCCCCCCCC(=O)[O-]
REMARK SMILES IDX 16 1 17 2 18 3 19 4 20 5 21 6 22 7 23 8 24 9 25 10 26 11
REMARK SMILES IDX 27 12 28 13 29 14 30 15 31 16 32 17 15 18 14 19 13 20 12 21
REMARK SMILES IDX 11 22 10 23 9 24 8 25 7 26 6 27 5 28 4 29 3 30 2 31 1 32
REMARK H PARENT
REMARK Flexibility Score: inf
ROOT
ATOM      1  C   UNL     1      -4.817   5.535  -6.940  1.00  0.00     0.000 C 
ENDROOT
BRANCH   1   2
ATOM      2  C   UNL     1      -5.580   5.635  -8.273  1.00  0.00     0.000 C 
BRANCH   2   3
ATOM      3  C   UNL     1      -6.954   6.327  -8.182  1.00  0.00     0.000 C 
BRANCH   3   4
ATOM      4  C   UNL     1      -7.634   6.260  -6.798  1.00  0.00     0.000 C 
BRANCH   4   5
ATOM      5  C   UNL     1      -8.932   7.079  -6.670  1.00  0.00     0.000 C 
BRANCH   5   6
ATOM      6  C   UNL     1      -9.032   8.197  -7.721  1.00  0.00     0.000 C 
BRANCH   6   7
ATOM      7  C   UNL     1      -9.724   9.456  -7.174  1.00  0.00     0.000 C 
BRANCH   7   8
ATOM      8  C   UNL     1      -8.923  10.115  -6.040  1.00  0.00     0.000 C 
BRANCH   8   9
ATOM      9  C   UNL     1      -7.851   9.165  -5.493  1.00  0.00     0.000 C 
BRANCH   9  10
ATOM     10  C   UNL     1      -6.511   9.897  -5.323  1.00  0.00     0.000 C 
BRANCH  10  11
ATOM     11  C   UNL     1      -5.478   9.075  -4.535  1.00  0.00     0.000 C 
BRANCH  11  12
ATOM     12  C   UNL     1      -4.817   9.881  -3.406  1.00  0.00     0.000 C 
BRANCH  12  13
ATOM     13  C   UNL     1      -3.286   9.863  -3.535  1.00  0.00     0.006 C 
BRANCH  13  14
ATOM     14  C   UNL     1      -2.825   9.587  -4.973  1.00  0.00     0.053 C 
BRANCH  14  15
ATOM     15  C   UNL     1      -1.522   8.844  -5.008  1.00  0.00     0.041 C 
ATOM     16  O   UNL     1      -0.924   8.667  -6.102  1.00  0.00    -0.550 OA
ATOM     17  O   UNL     1      -0.992   8.313  -3.839  1.00  0.00    -0.550 OA
ENDBRANCH  14  15
ENDBRANCH  13  14
ENDBRANCH  12  13
ENDBRANCH  11  12
ENDBRANCH  10  11
ENDBRANCH   9  10
ENDBRANCH   8   9
ENDBRANCH   7   8
ENDBRANCH   6   7
ENDBRANCH   5   6
ENDBRANCH   4   5
ENDBRANCH   3   4
ENDBRANCH   2   3
ENDBRANCH   1   2
BRANCH   1  18
ATOM     18  C   UNL     1      -3.652   6.535  -6.849  1.00  0.00     0.000 C 
BRANCH  18  19
ATOM     19  C   UNL     1      -3.568   7.465  -8.078  1.00  0.00     0.000 C 
BRANCH  19  20
ATOM     20  C   UNL     1      -4.270   8.825  -7.890  1.00  0.00     0.000 C 
BRANCH  20  21
ATOM     21  C   UNL     1      -3.722   9.971  -8.758  1.00  0.00     0.000 C 
BRANCH  21  22
ATOM     22  C   UNL     1      -2.190  10.072  -8.712  1.00  0.00     0.000 C 
BRANCH  22  23
ATOM     23  C   UNL     1      -1.584  10.030 -10.124  1.00  0.00     0.000 C 
BRANCH  23  24
ATOM     24  C   UNL     1      -0.076   9.705 -10.125  1.00  0.00    -0.000 C 
BRANCH  24  25
ATOM     25  C   UNL     1       0.429   8.928  -8.894  1.00  0.00    -0.000 C 
BRANCH  25  26
ATOM     26  C   UNL     1       1.960   8.963  -8.745  1.00  0.00    -0.000 C 
BRANCH  26  27
ATOM     27  C   UNL     1       2.633   7.686  -9.271  1.00  0.00    -0.000 C 
BRANCH  27  28
ATOM     28  C   UNL     1       4.025   7.448  -8.663  1.00  0.00    -0.000 C 
BRANCH  28  29
ATOM     29  C   UNL     1       5.060   7.165  -9.760  1.00  0.00    -0.000 C 
BRANCH  29  30
ATOM     30  C   UNL     1       6.262   8.113  -9.647  1.00  0.00    -0.000 C 
BRANCH  30  31
ATOM     31  C   UNL     1       7.606   7.372  -9.720  1.00  0.00    -0.003 C 
ATOM     32  C   UNL     1       8.646   7.935  -8.752  1.00  0.00     0.004 C 
ENDBRANCH  30  31
ENDBRANCH  29  30
ENDBRANCH  28  29
ENDBRANCH  27  28
ENDBRANCH  26  27
ENDBRANCH  25  26
ENDBRANCH  24  25
ENDBRANCH  23  24
ENDBRANCH  22  23
ENDBRANCH  21  22
ENDBRANCH  20  21
ENDBRANCH  19  20
ENDBRANCH  18  19
ENDBRANCH   1  18
TORSDOF 28
ENDMDL
MODEL 9
REMARK VINA RESULT:    -2.419      1.628      3.954
REMARK INTER + INTRA:          -8.761
REMARK INTER:                  -9.504
REMARK INTRA:                   0.743
REMARK UNBOUND:                -2.381
REMARK SMILES CCCCCCCCCCCCCCCCCCCCCCCCCCCCCC(=O)[O-]
REMARK SMILES IDX 16 1 17 2 18 3 19 4 20 5 21 6 22 7 23 8 24 9 25 10 26 11
REMARK SMILES IDX 27 12 28 13 29 14 30 15 31 16 32 17 15 18 14 19 13 20 12 21
REMARK SMILES IDX 11 22 10 23 9 24 8 25 7 26 6 27 5 28 4 29 3 30 2 31 1 32
REMARK H PARENT
REMARK Flexibility Score: inf
ROOT
ATOM      1  C   UNL     1      -2.998   7.317  -6.407  1.00  0.00     0.000 C 
ENDROOT
BRANCH   1   2
ATOM      2  C   UNL     1      -1.916   8.258  -6.968  1.00  0.00     0.000 C 
BRANCH   2   3
ATOM      3  C   UNL     1      -1.842   9.637  -6.284  1.00  0.00     0.000 C 
BRANCH   3   4
ATOM      4  C   UNL     1      -1.121   9.658  -4.920  1.00  0.00     0.000 C 
BRANCH   4   5
ATOM      5  C   UNL     1      -1.496   8.508  -3.968  1.00  0.00     0.000 C 
BRANCH   5   6
ATOM      6  C   UNL     1      -2.701   8.847  -3.075  1.00  0.00     0.000 C 
BRANCH   6   7
ATOM      7  C   UNL     1      -3.440  10.111  -3.543  1.00  0.00     0.000 C 
BRANCH   7   8
ATOM      8  C   UNL     1      -4.966   9.924  -3.553  1.00  0.00     0.000 C 
BRANCH   8   9
ATOM      9  C   UNL     1      -5.497   9.777  -4.983  1.00  0.00     0.000 C 
BRANCH   9  10
ATOM     10  C   UNL     1      -6.640   8.751  -5.037  1.00  0.00     0.000 C 
BRANCH  10  11
ATOM     11  C   UNL     1      -7.240   8.598  -6.444  1.00  0.00     0.000 C 
BRANCH  11  12
ATOM     12  C   UNL     1      -8.776   8.572  -6.433  1.00  0.00     0.000 C 
BRANCH  12  13
ATOM     13  C   UNL     1      -9.315   7.345  -7.183  1.00  0.00     0.006 C 
BRANCH  13  14
ATOM     14  C   UNL     1      -8.317   6.808  -8.218  1.00  0.00     0.053 C 
BRANCH  14  15
ATOM     15  C   UNL     1      -8.231   5.311  -8.187  1.00  0.00     0.041 C 
ATOM     16  O   UNL     1      -8.445   4.687  -7.115  1.00  0.00    -0.550 OA
ATOM     17  O   UNL     1      -7.874   4.611  -9.333  1.00  0.00    -0.550 OA
ENDBRANCH  14  15
ENDBRANCH  13  14
ENDBRANCH  12  13
ENDBRANCH  11  12
ENDBRANCH  10  11
ENDBRANCH   9  10
ENDBRANCH   8   9
ENDBRANCH   7   8
ENDBRANCH   6   7
ENDBRANCH   5   6
ENDBRANCH   4   5
ENDBRANCH   3   4
ENDBRANCH   2   3
ENDBRANCH   1   2
BRANCH   1  18
ATOM     18  C   UNL     1      -4.101   7.007  -7.433  1.00  0.00     0.000 C 
BRANCH  18  19
ATOM     19  C   UNL     1      -3.680   7.342  -8.880  1.00  0.00     0.000 C 
BRANCH  19  20
ATOM     20  C   UNL     1      -2.396   8.192  -8.983  1.00  0.00     0.000 C 
BRANCH  20  21
ATOM     21  C   UNL     1      -2.522   9.466  -9.836  1.00  0.00     0.000 C 
BRANCH  21  22
ATOM     22  C   UNL     1      -1.164  10.124 -10.125  1.00  0.00     0.000 C 
BRANCH  22  23
ATOM     23  C   UNL     1      -0.025   9.092 -10.095  1.00  0.00     0.000 C 
BRANCH  23  24
ATOM     24  C   UNL     1       1.185   9.553  -9.257  1.00  0.00    -0.000 C 
BRANCH  24  25
ATOM     25  C   UNL     1       2.456   8.697  -9.414  1.00  0.00    -0.000 C 
BRANCH  25  26
ATOM     26  C   UNL     1       2.737   7.805  -8.192  1.00  0.00    -0.000 C 
BRANCH  26  27
ATOM     27  C   UNL     1       4.109   7.116  -8.268  1.00  0.00    -0.000 C 
BRANCH  27  28
ATOM     28  C   UNL     1       4.650   7.013  -9.703  1.00  0.00    -0.000 C 
BRANCH  28  29
ATOM     29  C   UNL     1       5.693   8.105  -9.975  1.00  0.00    -0.000 C 
BRANCH  29  30
ATOM     30  C   UNL     1       7.079   7.686  -9.465  1.00  0.00    -0.000 C 
BRANCH  30  31
ATOM     31  C   UNL     1       8.194   8.627  -9.950  1.00  0.00    -0.003 C 
ATOM     32  C   UNL     1       9.471   8.508  -9.119  1.00  0.00     0.004 C 
ENDBRANCH  30  31
ENDBRANCH  29  30
ENDBRANCH  28  29
ENDBRANCH  27  28
ENDBRANCH  26  27
ENDBRANCH  25  26
ENDBRANCH  24  25
ENDBRANCH  23  24
ENDBRANCH  22  23
ENDBRANCH  21  22
ENDBRANCH  20  21
ENDBRANCH  19  20
ENDBRANCH  18  19
ENDBRANCH   1  18
TORSDOF 28
ENDMDL
