MODEL 1
REMARK VINA RESULT:    -4.945      0.000      0.000
REMARK INTER + INTRA:          -6.219
REMARK INTER:                  -5.957
REMARK INTRA:                  -0.262
REMARK UNBOUND:                -0.262
REMARK SMILES Oc1cc(O)c2cc(O)c(-c3ccc(O)c(O)c3)[o+]c2c1
REMARK SMILES IDX 10 1 19 2 20 3 21 4 2 5 3 6 4 7 6 8 7 9 8 10 11 11 12 12
REMARK SMILES IDX 13 13 14 14 18 15 16 16 15 17 17 19 9 21 1 23 5 25
REMARK H PARENT 15 18 17 20 9 22 1 24 5 26
REMARK Flexibility Score: inf
ROOT
ATOM      1  C   UNL     1       1.514   2.616   8.005  1.00  0.00     0.402 A 
ATOM      2  O   UNL     1       2.585   2.036   8.540  1.00  0.00    -0.202 OA
ATOM      3  C   UNL     1       3.825   2.467   8.336  1.00  0.00     0.368 A 
ATOM      4  C   UNL     1       4.888   1.794   8.945  1.00  0.00     0.162 A 
ATOM      5  C   UNL     1       6.203   2.227   8.749  1.00  0.00     0.128 A 
ATOM      6  C   UNL     1       6.455   3.339   7.942  1.00  0.00     0.093 A 
ATOM      7  C   UNL     1       5.408   4.031   7.321  1.00  0.00     0.136 A 
ATOM      8  C   UNL     1       4.072   3.593   7.514  1.00  0.00     0.125 A 
ATOM      9  C   UNL     1       2.962   4.217   6.922  1.00  0.00     0.078 A 
ATOM     10  C   UNL     1       1.675   3.726   7.155  1.00  0.00     0.223 A 
ENDROOT
BRANCH   1  11
ATOM     11  C   UNL     1       0.181   2.048   8.316  1.00  0.00     0.087 A 
ATOM     12  C   UNL     1      -0.242   0.830   7.762  1.00  0.00     0.022 A 
ATOM     13  C   UNL     1      -1.512   0.327   8.051  1.00  0.00     0.051 A 
ATOM     14  C   UNL     1      -2.387   1.033   8.885  1.00  0.00     0.157 A 
ATOM     15  C   UNL     1      -0.702   2.768   9.135  1.00  0.00     0.068 A 
ATOM     16  C   UNL     1      -1.978   2.272   9.431  1.00  0.00     0.158 A 
BRANCH  14  17
ATOM     17  O   UNL     1      -3.641   0.473   9.137  1.00  0.00    -0.504 OA
ATOM     18  H   UNL     1      -3.893  -0.477   8.904  1.00  0.00     0.293 HD
ENDBRANCH  14  17
BRANCH  16  19
ATOM     19  O   UNL     1      -2.798   3.037  10.262  1.00  0.00    -0.504 OA
ATOM     20  H   UNL     1      -2.542   3.943  10.629  1.00  0.00     0.293 HD
ENDBRANCH  16  19
ENDBRANCH   1  11
BRANCH  10  21
ATOM     21  O   UNL     1       0.576   4.314   6.527  1.00  0.00    -0.500 OA
ATOM     22  H   UNL     1       0.174   5.181   6.862  1.00  0.00     0.294 HD
ENDBRANCH  10  21
BRANCH   5  23
ATOM     23  O   UNL     1       7.267   1.561   9.353  1.00  0.00    -0.507 OA
ATOM     24  H   UNL     1       7.219   0.571   9.568  1.00  0.00     0.293 HD
ENDBRANCH   5  23
BRANCH   7  25
ATOM     25  O   UNL     1       5.745   5.135   6.532  1.00  0.00    -0.507 OA
ATOM     26  H   UNL     1       5.314   6.044   6.609  1.00  0.00     0.293 HD
ENDBRANCH   7  25
TORSDOF 6
ENDMDL
MODEL 2
REMARK VINA RESULT:    -4.723      3.026      5.013
REMARK INTER + INTRA:          -5.952
REMARK INTER:                  -5.658
REMARK INTRA:                  -0.294
REMARK UNBOUND:                -0.262
REMARK SMILES Oc1cc(O)c2cc(O)c(-c3ccc(O)c(O)c3)[o+]c2c1
REMARK SMILES IDX 10 1 19 2 20 3 21 4 2 5 3 6 4 7 6 8 7 9 8 10 11 11 12 12
REMARK SMILES IDX 13 13 14 14 18 15 16 16 15 17 17 19 9 21 1 23 5 25
REMARK H PARENT 15 18 17 20 9 22 1 24 5 26
REMARK Flexibility Score: inf
ROOT
ATOM      1  C   UNL     1       0.762   1.341   8.335  1.00  0.00     0.402 A 
ATOM      2  O   UNL     1       1.889   0.991   8.949  1.00  0.00    -0.202 OA
ATOM      3  C   UNL     1       2.236  -0.271   9.174  1.00  0.00     0.368 A 
ATOM      4  C   UNL     1       3.445  -0.540   9.823  1.00  0.00     0.162 A 
ATOM      5  C   UNL     1       3.835  -1.859  10.071  1.00  0.00     0.128 A 
ATOM      6  C   UNL     1       3.014  -2.914   9.666  1.00  0.00     0.093 A 
ATOM      7  C   UNL     1       1.798  -2.673   9.013  1.00  0.00     0.136 A 
ATOM      8  C   UNL     1       1.396  -1.335   8.762  1.00  0.00     0.125 A 
ATOM      9  C   UNL     1       0.191  -0.997   8.126  1.00  0.00     0.078 A 
ATOM     10  C   UNL     1      -0.140   0.344   7.918  1.00  0.00     0.223 A 
ENDROOT
BRANCH   1  11
ATOM     11  C   UNL     1       0.492   2.783   8.133  1.00  0.00     0.087 A 
ATOM     12  C   UNL     1       1.165   3.522   7.147  1.00  0.00     0.022 A 
ATOM     13  C   UNL     1       0.911   4.886   6.992  1.00  0.00     0.051 A 
ATOM     14  C   UNL     1      -0.007   5.541   7.822  1.00  0.00     0.157 A 
ATOM     15  C   UNL     1      -0.411   3.442   8.981  1.00  0.00     0.068 A 
ATOM     16  C   UNL     1      -0.673   4.809   8.833  1.00  0.00     0.158 A 
BRANCH  14  17
ATOM     17  O   UNL     1      -0.218   6.905   7.612  1.00  0.00    -0.504 OA
ATOM     18  H   UNL     1       0.508   7.605   7.672  1.00  0.00     0.293 HD
ENDBRANCH  14  17
BRANCH  16  19
ATOM     19  O   UNL     1      -1.593   5.395   9.705  1.00  0.00    -0.504 OA
ATOM     20  H   UNL     1      -2.157   4.876  10.363  1.00  0.00     0.293 HD
ENDBRANCH  16  19
ENDBRANCH   1  11
BRANCH  10  21
ATOM     21  O   UNL     1      -1.361   0.682   7.332  1.00  0.00    -0.500 OA
ATOM     22  H   UNL     1      -2.161   0.955   7.889  1.00  0.00     0.294 HD
ENDBRANCH  10  21
BRANCH   5  23
ATOM     23  O   UNL     1       5.037  -2.134  10.717  1.00  0.00    -0.507 OA
ATOM     24  H   UNL     1       5.060  -2.574  11.630  1.00  0.00     0.293 HD
ENDBRANCH   5  23
BRANCH   7  25
ATOM     25  O   UNL     1       1.037  -3.783   8.638  1.00  0.00    -0.507 OA
ATOM     26  H   UNL     1       0.134  -3.731   8.192  1.00  0.00     0.293 HD
ENDBRANCH   7  25
TORSDOF 6
ENDMDL
MODEL 3
REMARK VINA RESULT:    -4.701      1.787      3.163
REMARK INTER + INTRA:          -5.925
REMARK INTER:                  -5.572
REMARK INTRA:                  -0.353
REMARK UNBOUND:                -0.262
REMARK SMILES Oc1cc(O)c2cc(O)c(-c3ccc(O)c(O)c3)[o+]c2c1
REMARK SMILES IDX 10 1 19 2 20 3 21 4 2 5 3 6 4 7 6 8 7 9 8 10 11 11 12 12
REMARK SMILES IDX 13 13 14 14 18 15 16 16 15 17 17 19 9 21 1 23 5 25
REMARK H PARENT 15 18 17 20 9 22 1 24 5 26
REMARK Flexibility Score: inf
ROOT
ATOM      1  C   UNL     1       2.517   0.792   9.082  1.00  0.00     0.402 A 
ATOM      2  O   UNL     1       3.225   1.773   8.529  1.00  0.00    -0.202 OA
ATOM      3  C   UNL     1       4.553   1.785   8.495  1.00  0.00     0.368 A 
ATOM      4  C   UNL     1       5.208   2.860   7.886  1.00  0.00     0.162 A 
ATOM      5  C   UNL     1       6.604   2.897   7.835  1.00  0.00     0.128 A 
ATOM      6  C   UNL     1       7.348   1.855   8.393  1.00  0.00     0.093 A 
ATOM      7  C   UNL     1       6.716   0.767   9.008  1.00  0.00     0.136 A 
ATOM      8  C   UNL     1       5.299   0.726   9.066  1.00  0.00     0.125 A 
ATOM      9  C   UNL     1       4.580  -0.317   9.672  1.00  0.00     0.078 A 
ATOM     10  C   UNL     1       3.184  -0.286   9.694  1.00  0.00     0.223 A 
ENDROOT
BRANCH   1  11
ATOM     11  C   UNL     1       1.039   0.887   9.047  1.00  0.00     0.087 A 
ATOM     12  C   UNL     1       0.297   0.351   7.983  1.00  0.00     0.022 A 
ATOM     13  C   UNL     1      -1.094   0.475   7.961  1.00  0.00     0.051 A 
ATOM     14  C   UNL     1      -1.768   1.144   8.989  1.00  0.00     0.157 A 
ATOM     15  C   UNL     1       0.367   1.578  10.068  1.00  0.00     0.068 A 
ATOM     16  C   UNL     1      -1.026   1.706  10.054  1.00  0.00     0.158 A 
BRANCH  14  17
ATOM     17  O   UNL     1      -3.160   1.229   8.909  1.00  0.00    -0.504 OA
ATOM     18  H   UNL     1      -3.665   1.419   8.056  1.00  0.00     0.293 HD
ENDBRANCH  14  17
BRANCH  16  19
ATOM     19  O   UNL     1      -1.627   2.396  11.109  1.00  0.00    -0.504 OA
ATOM     20  H   UNL     1      -1.846   3.382  11.088  1.00  0.00     0.293 HD
ENDBRANCH  16  19
ENDBRANCH   1  11
BRANCH  10  21
ATOM     21  O   UNL     1       2.471  -1.297  10.341  1.00  0.00    -0.500 OA
ATOM     22  H   UNL     1       1.458  -1.309  10.354  1.00  0.00     0.294 HD
ENDBRANCH  10  21
BRANCH   5  23
ATOM     23  O   UNL     1       7.263   3.965   7.230  1.00  0.00    -0.507 OA
ATOM     24  H   UNL     1       8.209   4.221   7.492  1.00  0.00     0.293 HD
ENDBRANCH   5  23
BRANCH   7  25
ATOM     25  O   UNL     1       7.533  -0.236   9.539  1.00  0.00    -0.507 OA
ATOM     26  H   UNL     1       8.515  -0.340   9.332  1.00  0.00     0.293 HD
ENDBRANCH   7  25
TORSDOF 6
ENDMDL
MODEL 4
REMARK VINA RESULT:    -4.621      5.255      7.249
REMARK INTER + INTRA:          -5.829
REMARK INTER:                  -5.481
REMARK INTRA:                  -0.348
REMARK UNBOUND:                -0.262
REMARK SMILES Oc1cc(O)c2cc(O)c(-c3ccc(O)c(O)c3)[o+]c2c1
REMARK SMILES IDX 10 1 19 2 20 3 21 4 2 5 3 6 4 7 6 8 7 9 8 10 11 11 12 12
REMARK SMILES IDX 13 13 14 14 18 15 16 16 15 17 17 19 9 21 1 23 5 25
REMARK H PARENT 15 18 17 20 9 22 1 24 5 26
REMARK Flexibility Score: inf
ROOT
ATOM      1  C   UNL     1       0.531  -3.433   8.317  1.00  0.00     0.402 A 
ATOM      2  O   UNL     1       0.004  -2.263   7.967  1.00  0.00    -0.202 OA
ATOM      3  C   UNL     1       0.565  -1.094   8.259  1.00  0.00     0.368 A 
ATOM      4  C   UNL     1      -0.063   0.084   7.845  1.00  0.00     0.162 A 
ATOM      5  C   UNL     1       0.507   1.327   8.137  1.00  0.00     0.128 A 
ATOM      6  C   UNL     1       1.709   1.392   8.845  1.00  0.00     0.093 A 
ATOM      7  C   UNL     1       2.359   0.226   9.271  1.00  0.00     0.136 A 
ATOM      8  C   UNL     1       1.783  -1.038   8.980  1.00  0.00     0.125 A 
ATOM      9  C   UNL     1       2.355  -2.258   9.377  1.00  0.00     0.078 A 
ATOM     10  C   UNL     1       1.727  -3.464   9.057  1.00  0.00     0.223 A 
ENDROOT
BRANCH   1  11
ATOM     11  C   UNL     1      -0.185  -4.669   7.923  1.00  0.00     0.087 A 
ATOM     12  C   UNL     1      -1.128  -5.270   8.772  1.00  0.00     0.022 A 
ATOM     13  C   UNL     1      -1.772  -6.448   8.389  1.00  0.00     0.051 A 
ATOM     14  C   UNL     1      -1.479  -7.056   7.163  1.00  0.00     0.157 A 
ATOM     15  C   UNL     1       0.127  -5.289   6.703  1.00  0.00     0.068 A 
ATOM     16  C   UNL     1      -0.513  -6.470   6.311  1.00  0.00     0.158 A 
BRANCH  14  17
ATOM     17  O   UNL     1      -2.161  -8.231   6.838  1.00  0.00    -0.504 OA
ATOM     18  H   UNL     1      -1.899  -9.146   7.175  1.00  0.00     0.293 HD
ENDBRANCH  14  17
BRANCH  16  19
ATOM     19  O   UNL     1      -0.161  -7.024   5.078  1.00  0.00    -0.504 OA
ATOM     20  H   UNL     1       0.022  -8.006   4.931  1.00  0.00     0.293 HD
ENDBRANCH  16  19
ENDBRANCH   1  11
BRANCH  10  21
ATOM     21  O   UNL     1       2.269  -4.673   9.495  1.00  0.00    -0.500 OA
ATOM     22  H   UNL     1       1.966  -5.111  10.357  1.00  0.00     0.294 HD
ENDBRANCH  10  21
BRANCH   5  23
ATOM     23  O   UNL     1      -0.113   2.505   7.727  1.00  0.00    -0.507 OA
ATOM     24  H   UNL     1      -1.090   2.524   7.458  1.00  0.00     0.293 HD
ENDBRANCH   5  23
BRANCH   7  25
ATOM     25  O   UNL     1       3.559   0.377   9.971  1.00  0.00    -0.507 OA
ATOM     26  H   UNL     1       4.469   0.429   9.537  1.00  0.00     0.293 HD
ENDBRANCH   7  25
TORSDOF 6
ENDMDL
MODEL 5
REMARK VINA RESULT:    -4.601      2.904      5.246
REMARK INTER + INTRA:          -5.804
REMARK INTER:                  -5.484
REMARK INTRA:                  -0.320
REMARK UNBOUND:                -0.262
REMARK SMILES Oc1cc(O)c2cc(O)c(-c3ccc(O)c(O)c3)[o+]c2c1
REMARK SMILES IDX 10 1 19 2 20 3 21 4 2 5 3 6 4 7 6 8 7 9 8 10 11 11 12 12
REMARK SMILES IDX 13 13 14 14 18 15 16 16 15 17 17 19 9 21 1 23 5 25
REMARK H PARENT 15 18 17 20 9 22 1 24 5 26
REMARK Flexibility Score: inf
ROOT
ATOM      1  C   UNL     1       1.092   2.212   8.418  1.00  0.00     0.402 A 
ATOM      2  O   UNL     1       0.417   1.096   8.156  1.00  0.00    -0.202 OA
ATOM      3  C   UNL     1       0.866  -0.116   8.460  1.00  0.00     0.368 A 
ATOM      4  C   UNL     1       0.082  -1.231   8.148  1.00  0.00     0.162 A 
ATOM      5  C   UNL     1       0.530  -2.518   8.459  1.00  0.00     0.128 A 
ATOM      6  C   UNL     1       1.766  -2.692   9.086  1.00  0.00     0.093 A 
ATOM      7  C   UNL     1       2.570  -1.592   9.410  1.00  0.00     0.136 A 
ATOM      8  C   UNL     1       2.122  -0.283   9.093  1.00  0.00     0.125 A 
ATOM      9  C   UNL     1       2.866   0.876   9.369  1.00  0.00     0.078 A 
ATOM     10  C   UNL     1       2.360   2.132   9.023  1.00  0.00     0.223 A 
ENDROOT
BRANCH   1  11
ATOM     11  C   UNL     1       0.480   3.507   8.040  1.00  0.00     0.087 A 
ATOM     12  C   UNL     1       0.851   4.175   6.862  1.00  0.00     0.022 A 
ATOM     13  C   UNL     1       0.278   5.406   6.539  1.00  0.00     0.051 A 
ATOM     14  C   UNL     1      -0.664   6.000   7.387  1.00  0.00     0.157 A 
ATOM     15  C   UNL     1      -0.448   4.111   8.902  1.00  0.00     0.068 A 
ATOM     16  C   UNL     1      -1.029   5.345   8.587  1.00  0.00     0.158 A 
BRANCH  14  17
ATOM     17  O   UNL     1      -1.203   7.230   7.003  1.00  0.00    -0.504 OA
ATOM     18  H   UNL     1      -0.667   8.083   6.932  1.00  0.00     0.293 HD
ENDBRANCH  14  17
BRANCH  16  19
ATOM     19  O   UNL     1      -1.954   5.879   9.486  1.00  0.00    -0.504 OA
ATOM     20  H   UNL     1      -2.746   6.443   9.213  1.00  0.00     0.293 HD
ENDBRANCH  16  19
ENDBRANCH   1  11
BRANCH  10  21
ATOM     21  O   UNL     1       3.121   3.280   9.251  1.00  0.00    -0.500 OA
ATOM     22  H   UNL     1       3.267   3.644  10.185  1.00  0.00     0.294 HD
ENDBRANCH  10  21
BRANCH   5  23
ATOM     23  O   UNL     1      -0.247  -3.633   8.150  1.00  0.00    -0.507 OA
ATOM     24  H   UNL     1      -1.242  -3.653   8.338  1.00  0.00     0.293 HD
ENDBRANCH   5  23
BRANCH   7  25
ATOM     25  O   UNL     1       3.792  -1.851  10.039  1.00  0.00    -0.507 OA
ATOM     26  H   UNL     1       4.574  -1.214  10.048  1.00  0.00     0.293 HD
ENDBRANCH   7  25
TORSDOF 6
ENDMDL
MODEL 6
REMARK VINA RESULT:    -4.594      8.182     11.329
REMARK INTER + INTRA:          -5.796
REMARK INTER:                  -5.447
REMARK INTRA:                  -0.348
REMARK UNBOUND:                -0.262
REMARK SMILES Oc1cc(O)c2cc(O)c(-c3ccc(O)c(O)c3)[o+]c2c1
REMARK SMILES IDX 10 1 19 2 20 3 21 4 2 5 3 6 4 7 6 8 7 9 8 10 11 11 12 12
REMARK SMILES IDX 13 13 14 14 18 15 16 16 15 17 17 19 9 21 1 23 5 25
REMARK H PARENT 15 18 17 20 9 22 1 24 5 26
REMARK Flexibility Score: inf
ROOT
ATOM      1  C   UNL     1      -4.078   6.559   2.791  1.00  0.00     0.402 A 
ATOM      2  O   UNL     1      -5.392   6.405   2.930  1.00  0.00    -0.202 OA
ATOM      3  C   UNL     1      -5.998   6.341   4.110  1.00  0.00     0.368 A 
ATOM      4  C   UNL     1      -7.386   6.182   4.154  1.00  0.00     0.162 A 
ATOM      5  C   UNL     1      -8.050   6.114   5.383  1.00  0.00     0.128 A 
ATOM      6  C   UNL     1      -7.323   6.208   6.572  1.00  0.00     0.093 A 
ATOM      7  C   UNL     1      -5.931   6.368   6.555  1.00  0.00     0.136 A 
ATOM      8  C   UNL     1      -5.253   6.434   5.310  1.00  0.00     0.125 A 
ATOM      9  C   UNL     1      -3.861   6.581   5.197  1.00  0.00     0.078 A 
ATOM     10  C   UNL     1      -3.262   6.634   3.935  1.00  0.00     0.223 A 
ENDROOT
BRANCH   1  11
ATOM     11  C   UNL     1      -3.521   6.627   1.420  1.00  0.00     0.087 A 
ATOM     12  C   UNL     1      -3.243   7.857   0.803  1.00  0.00     0.022 A 
ATOM     13  C   UNL     1      -2.741   7.895  -0.499  1.00  0.00     0.051 A 
ATOM     14  C   UNL     1      -2.518   6.713  -1.214  1.00  0.00     0.157 A 
ATOM     15  C   UNL     1      -3.320   5.441   0.697  1.00  0.00     0.068 A 
ATOM     16  C   UNL     1      -2.816   5.469  -0.609  1.00  0.00     0.158 A 
BRANCH  14  17
ATOM     17  O   UNL     1      -2.011   6.821  -2.511  1.00  0.00    -0.504 OA
ATOM     18  H   UNL     1      -1.231   6.281  -2.858  1.00  0.00     0.293 HD
ENDBRANCH  14  17
BRANCH  16  19
ATOM     19  O   UNL     1      -2.630   4.249  -1.263  1.00  0.00    -0.504 OA
ATOM     20  H   UNL     1      -3.375   3.599  -1.467  1.00  0.00     0.293 HD
ENDBRANCH  16  19
ENDBRANCH   1  11
BRANCH  10  21
ATOM     21  O   UNL     1      -1.874   6.729   3.822  1.00  0.00    -0.500 OA
ATOM     22  H   UNL     1      -1.264   6.565   4.614  1.00  0.00     0.294 HD
ENDBRANCH  10  21
BRANCH   5  23
ATOM     23  O   UNL     1      -9.433   5.956   5.434  1.00  0.00    -0.507 OA
ATOM     24  H   UNL     1      -9.864   5.256   6.026  1.00  0.00     0.293 HD
ENDBRANCH   5  23
BRANCH   7  25
ATOM     25  O   UNL     1      -5.279   6.456   7.788  1.00  0.00    -0.507 OA
ATOM     26  H   UNL     1      -5.709   6.247   8.677  1.00  0.00     0.293 HD
ENDBRANCH   7  25
TORSDOF 6
ENDMDL
MODEL 7
REMARK VINA RESULT:    -4.531      1.050      1.702
REMARK INTER + INTRA:          -5.721
REMARK INTER:                  -5.623
REMARK INTRA:                  -0.098
REMARK UNBOUND:                -0.262
REMARK SMILES Oc1cc(O)c2cc(O)c(-c3ccc(O)c(O)c3)[o+]c2c1
REMARK SMILES IDX 10 1 19 2 20 3 21 4 2 5 3 6 4 7 6 8 7 9 8 10 11 11 12 12
REMARK SMILES IDX 13 13 14 14 18 15 16 16 15 17 17 19 9 21 1 23 5 25
REMARK H PARENT 15 18 17 20 9 22 1 24 5 26
REMARK Flexibility Score: inf
ROOT
ATOM      1  C   UNL     1       1.893   2.489   8.019  1.00  0.00     0.402 A 
ATOM      2  O   UNL     1       3.028   2.053   8.559  1.00  0.00    -0.202 OA
ATOM      3  C   UNL     1       4.207   2.621   8.337  1.00  0.00     0.368 A 
ATOM      4  C   UNL     1       5.345   2.092   8.954  1.00  0.00     0.162 A 
ATOM      5  C   UNL     1       6.598   2.673   8.740  1.00  0.00     0.128 A 
ATOM      6  C   UNL     1       6.715   3.788   7.907  1.00  0.00     0.093 A 
ATOM      7  C   UNL     1       5.591   4.338   7.277  1.00  0.00     0.136 A 
ATOM      8  C   UNL     1       4.317   3.750   7.489  1.00  0.00     0.125 A 
ATOM      9  C   UNL     1       3.138   4.225   6.891  1.00  0.00     0.078 A 
ATOM     10  C   UNL     1       1.919   3.591   7.143  1.00  0.00     0.223 A 
ENDROOT
BRANCH   1  11
ATOM     11  C   UNL     1       0.638   1.775   8.351  1.00  0.00     0.087 A 
ATOM     12  C   UNL     1      -0.488   2.462   8.831  1.00  0.00     0.022 A 
ATOM     13  C   UNL     1      -1.652   1.764   9.160  1.00  0.00     0.051 A 
ATOM     14  C   UNL     1      -1.711   0.372   9.030  1.00  0.00     0.157 A 
ATOM     15  C   UNL     1       0.589   0.377   8.241  1.00  0.00     0.068 A 
ATOM     16  C   UNL     1      -0.573  -0.331   8.568  1.00  0.00     0.158 A 
BRANCH  14  17
ATOM     17  O   UNL     1      -2.906  -0.265   9.372  1.00  0.00    -0.504 OA
ATOM     18  H   UNL     1      -3.370  -0.153  10.262  1.00  0.00     0.293 HD
ENDBRANCH  14  17
BRANCH  16  19
ATOM     19  O   UNL     1      -0.553  -1.720   8.422  1.00  0.00    -0.504 OA
ATOM     20  H   UNL     1      -0.042  -2.344   9.030  1.00  0.00     0.293 HD
ENDBRANCH  16  19
ENDBRANCH   1  11
BRANCH  10  21
ATOM     21  O   UNL     1       0.756   4.031   6.509  1.00  0.00    -0.500 OA
ATOM     22  H   UNL     1      -0.163   3.731   6.815  1.00  0.00     0.294 HD
ENDBRANCH  10  21
BRANCH   5  23
ATOM     23  O   UNL     1       7.736   2.151   9.351  1.00  0.00    -0.507 OA
ATOM     24  H   UNL     1       8.605   2.037   8.843  1.00  0.00     0.293 HD
ENDBRANCH   5  23
BRANCH   7  25
ATOM     25  O   UNL     1       5.792   5.456   6.462  1.00  0.00    -0.507 OA
ATOM     26  H   UNL     1       6.279   6.291   6.750  1.00  0.00     0.293 HD
ENDBRANCH   7  25
TORSDOF 6
ENDMDL
MODEL 8
REMARK VINA RESULT:    -4.445      1.405      2.903
REMARK INTER + INTRA:          -5.617
REMARK INTER:                  -5.338
REMARK INTRA:                  -0.279
REMARK UNBOUND:                -0.262
REMARK SMILES Oc1cc(O)c2cc(O)c(-c3ccc(O)c(O)c3)[o+]c2c1
REMARK SMILES IDX 10 1 19 2 20 3 21 4 2 5 3 6 4 7 6 8 7 9 8 10 11 11 12 12
REMARK SMILES IDX 13 13 14 14 18 15 16 16 15 17 17 19 9 21 1 23 5 25
REMARK H PARENT 15 18 17 20 9 22 1 24 5 26
REMARK Flexibility Score: inf
ROOT
ATOM      1  C   UNL     1       0.494   1.665   8.720  1.00  0.00     0.402 A 
ATOM      2  O   UNL     1       0.915   2.712   8.016  1.00  0.00    -0.202 OA
ATOM      3  C   UNL     1       2.199   2.973   7.794  1.00  0.00     0.368 A 
ATOM      4  C   UNL     1       2.543   4.096   7.037  1.00  0.00     0.162 A 
ATOM      5  C   UNL     1       3.886   4.393   6.786  1.00  0.00     0.128 A 
ATOM      6  C   UNL     1       4.888   3.562   7.292  1.00  0.00     0.093 A 
ATOM      7  C   UNL     1       4.569   2.430   8.053  1.00  0.00     0.136 A 
ATOM      8  C   UNL     1       3.208   2.126   8.313  1.00  0.00     0.125 A 
ATOM      9  C   UNL     1       2.795   1.021   9.075  1.00  0.00     0.078 A 
ATOM     10  C   UNL     1       1.434   0.789   9.294  1.00  0.00     0.223 A 
ENDROOT
BRANCH   1  11
ATOM     11  C   UNL     1      -0.965   1.475   8.890  1.00  0.00     0.087 A 
ATOM     12  C   UNL     1      -1.645   0.425   8.254  1.00  0.00     0.022 A 
ATOM     13  C   UNL     1      -3.025   0.282   8.410  1.00  0.00     0.051 A 
ATOM     14  C   UNL     1      -3.754   1.186   9.190  1.00  0.00     0.157 A 
ATOM     15  C   UNL     1      -1.697   2.397   9.655  1.00  0.00     0.068 A 
ATOM     16  C   UNL     1      -3.081   2.261   9.818  1.00  0.00     0.158 A 
BRANCH  14  17
ATOM     17  O   UNL     1      -5.131   0.984   9.309  1.00  0.00    -0.504 OA
ATOM     18  H   UNL     1      -5.675   1.266  10.112  1.00  0.00     0.293 HD
ENDBRANCH  14  17
BRANCH  16  19
ATOM     19  O   UNL     1      -3.741   3.208  10.603  1.00  0.00    -0.504 OA
ATOM     20  H   UNL     1      -4.084   4.091  10.254  1.00  0.00     0.293 HD
ENDBRANCH  16  19
ENDBRANCH   1  11
BRANCH  10  21
ATOM     21  O   UNL     1       1.026  -0.280  10.092  1.00  0.00    -0.500 OA
ATOM     22  H   UNL     1       1.284  -1.236   9.875  1.00  0.00     0.294 HD
ENDBRANCH  10  21
BRANCH   5  23
ATOM     23  O   UNL     1       4.237   5.511   6.033  1.00  0.00    -0.507 OA
ATOM     24  H   UNL     1       4.710   6.304   6.450  1.00  0.00     0.293 HD
ENDBRANCH   5  23
BRANCH   7  25
ATOM     25  O   UNL     1       5.630   1.648   8.520  1.00  0.00    -0.507 OA
ATOM     26  H   UNL     1       5.642   0.640   8.512  1.00  0.00     0.293 HD
ENDBRANCH   7  25
TORSDOF 6
ENDMDL
