MODEL 1
REMARK VINA RESULT:    -4.333      0.000      0.000
REMARK INTER + INTRA:         -16.983
REMARK INTER:                 -10.920
REMARK INTRA:                  -6.063
REMARK UNBOUND:                -6.063
REMARK SMILES CCCCCCCCCCCCCCCCCCCCCCCCCCCC(=O)[O-]
REMARK SMILES IDX 15 1 16 2 17 3 18 4 19 5 20 6 21 7 22 8 23 9 24 10 25 11
REMARK SMILES IDX 26 12 27 13 28 14 29 15 30 16 14 17 13 18 12 19 11 20 10 21
REMARK SMILES IDX 9 22 8 23 7 24 6 25 5 26 4 27 3 28 2 29 1 30
REMARK H PARENT
REMARK Flexibility Score: inf
ROOT
ATOM      1  C   UNL     1       8.965 -17.708  21.639  1.00  0.00     0.000 C 
ENDROOT
BRANCH   1   2
ATOM      2  C   UNL     1       9.932 -18.665  22.360  1.00  0.00     0.000 C 
BRANCH   2   3
ATOM      3  C   UNL     1       9.473 -18.993  23.793  1.00  0.00     0.000 C 
BRANCH   3   4
ATOM      4  C   UNL     1       7.973 -18.732  24.010  1.00  0.00     0.000 C 
BRANCH   4   5
ATOM      5  C   UNL     1       7.129 -20.013  23.892  1.00  0.00     0.000 C 
BRANCH   5   6
ATOM      6  C   UNL     1       6.146 -19.976  22.708  1.00  0.00     0.000 C 
BRANCH   6   7
ATOM      7  C   UNL     1       6.735 -20.419  21.352  1.00  0.00     0.000 C 
BRANCH   7   8
ATOM      8  C   UNL     1       7.802 -21.529  21.429  1.00  0.00     0.000 C 
BRANCH   8   9
ATOM      9  C   UNL     1       8.656 -21.695  20.160  1.00  0.00     0.000 C 
BRANCH   9  10
ATOM     10  C   UNL     1       8.541 -20.498  19.201  1.00  0.00     0.000 C 
BRANCH  10  11
ATOM     11  C   UNL     1       9.829 -20.285  18.377  1.00  0.00     0.000 C 
BRANCH  11  12
ATOM     12  C   UNL     1      11.111 -20.709  19.119  1.00  0.00     0.006 C 
BRANCH  12  13
ATOM     13  C   UNL     1      12.045 -19.543  19.472  1.00  0.00     0.053 C 
BRANCH  13  14
ATOM     14  C   UNL     1      13.485 -19.888  19.235  1.00  0.00     0.041 C 
ATOM     15  O   UNL     1      14.174 -20.408  20.152  1.00  0.00    -0.550 OA
ATOM     16  O   UNL     1      14.068 -19.633  18.001  1.00  0.00    -0.550 OA
ENDBRANCH  13  14
ENDBRANCH  12  13
ENDBRANCH  11  12
ENDBRANCH  10  11
ENDBRANCH   9  10
ENDBRANCH   8   9
ENDBRANCH   7   8
ENDBRANCH   6   7
ENDBRANCH   5   6
ENDBRANCH   4   5
ENDBRANCH   3   4
ENDBRANCH   2   3
ENDBRANCH   1   2
BRANCH   1  17
ATOM     17  C   UNL     1       9.564 -17.026  20.394  1.00  0.00     0.000 C 
BRANCH  17  18
ATOM     18  C   UNL     1       8.484 -16.425  19.477  1.00  0.00     0.000 C 
BRANCH  18  19
ATOM     19  C   UNL     1       7.095 -16.395  20.136  1.00  0.00     0.000 C 
BRANCH  19  20
ATOM     20  C   UNL     1       6.394 -15.037  19.985  1.00  0.00     0.000 C 
BRANCH  20  21
ATOM     21  C   UNL     1       6.126 -14.401  21.357  1.00  0.00     0.000 C 
BRANCH  21  22
ATOM     22  C   UNL     1       6.754 -15.192  22.520  1.00  0.00    -0.000 C 
BRANCH  22  23
ATOM     23  C   UNL     1       7.877 -14.459  23.277  1.00  0.00    -0.000 C 
BRANCH  23  24
ATOM     24  C   UNL     1       8.345 -15.211  24.532  1.00  0.00    -0.000 C 
BRANCH  24  25
ATOM     25  C   UNL     1       9.866 -15.403  24.522  1.00  0.00    -0.000 C 
BRANCH  25  26
ATOM     26  C   UNL     1      10.484 -14.828  23.238  1.00  0.00    -0.000 C 
BRANCH  26  27
ATOM     27  C   UNL     1      11.992 -15.133  23.125  1.00  0.00    -0.000 C 
BRANCH  27  28
ATOM     28  C   UNL     1      12.402 -16.500  23.708  1.00  0.00    -0.000 C 
BRANCH  28  29
ATOM     29  C   UNL     1      13.364 -17.304  22.812  1.00  0.00    -0.003 C 
ATOM     30  C   UNL     1      13.466 -16.732  21.397  1.00  0.00     0.004 C 
ENDBRANCH  28  29
ENDBRANCH  27  28
ENDBRANCH  26  27
ENDBRANCH  25  26
ENDBRANCH  24  25
ENDBRANCH  23  24
ENDBRANCH  22  23
ENDBRANCH  21  22
ENDBRANCH  20  21
ENDBRANCH  19  20
ENDBRANCH  18  19
ENDBRANCH  17  18
ENDBRANCH   1  17
TORSDOF 26
ENDMDL
MODEL 2
REMARK VINA RESULT:    -4.148      1.585      5.328
REMARK INTER + INTRA:         -16.515
REMARK INTER:                 -10.069
REMARK INTRA:                  -6.446
REMARK UNBOUND:                -6.063
REMARK SMILES CCCCCCCCCCCCCCCCCCCCCCCCCCCC(=O)[O-]
REMARK SMILES IDX 15 1 16 2 17 3 18 4 19 5 20 6 21 7 22 8 23 9 24 10 25 11
REMARK SMILES IDX 26 12 27 13 28 14 29 15 30 16 14 17 13 18 12 19 11 20 10 21
REMARK SMILES IDX 9 22 8 23 7 24 6 25 5 26 4 27 3 28 2 29 1 30
REMARK H PARENT
REMARK Flexibility Score: inf
ROOT
ATOM      1  C   UNL     1      12.916 -15.408  20.733  1.00  0.00     0.000 C 
ENDROOT
BRANCH   1   2
ATOM      2  C   UNL     1      13.522 -15.953  22.041  1.00  0.00     0.000 C 
BRANCH   2   3
ATOM      3  C   UNL     1      12.595 -15.738  23.251  1.00  0.00     0.000 C 
BRANCH   3   4
ATOM      4  C   UNL     1      11.447 -14.760  22.953  1.00  0.00     0.000 C 
BRANCH   4   5
ATOM      5  C   UNL     1      10.065 -15.361  23.261  1.00  0.00     0.000 C 
BRANCH   5   6
ATOM      6  C   UNL     1       9.396 -14.728  24.494  1.00  0.00     0.000 C 
BRANCH   6   7
ATOM      7  C   UNL     1       9.084 -15.705  25.646  1.00  0.00     0.000 C 
BRANCH   7   8
ATOM      8  C   UNL     1      10.258 -16.602  26.085  1.00  0.00     0.000 C 
BRANCH   8   9
ATOM      9  C   UNL     1      10.054 -18.106  25.831  1.00  0.00     0.000 C 
BRANCH   9  10
ATOM     10  C   UNL     1      11.121 -18.705  24.900  1.00  0.00     0.000 C 
BRANCH  10  11
ATOM     11  C   UNL     1      10.599 -18.890  23.459  1.00  0.00     0.000 C 
BRANCH  11  12
ATOM     12  C   UNL     1      11.317 -20.011  22.684  1.00  0.00     0.006 C 
BRANCH  12  13
ATOM     13  C   UNL     1      12.276 -19.506  21.597  1.00  0.00     0.053 C 
BRANCH  13  14
ATOM     14  C   UNL     1      13.712 -19.699  21.983  1.00  0.00     0.041 C 
ATOM     15  O   UNL     1      14.520 -20.237  21.181  1.00  0.00    -0.550 OA
ATOM     16  O   UNL     1      14.157 -19.287  23.233  1.00  0.00    -0.550 OA
ENDBRANCH  13  14
ENDBRANCH  12  13
ENDBRANCH  11  12
ENDBRANCH  10  11
ENDBRANCH   9  10
ENDBRANCH   8   9
ENDBRANCH   7   8
ENDBRANCH   6   7
ENDBRANCH   5   6
ENDBRANCH   4   5
ENDBRANCH   3   4
ENDBRANCH   2   3
ENDBRANCH   1   2
BRANCH   1  17
ATOM     17  C   UNL     1      12.659 -16.483  19.661  1.00  0.00     0.000 C 
BRANCH  17  18
ATOM     18  C   UNL     1      11.335 -16.258  18.909  1.00  0.00     0.000 C 
BRANCH  18  19
ATOM     19  C   UNL     1      10.115 -16.247  19.844  1.00  0.00     0.000 C 
BRANCH  19  20
ATOM     20  C   UNL     1       9.521 -17.646  20.063  1.00  0.00     0.000 C 
BRANCH  20  21
ATOM     21  C   UNL     1       8.072 -17.713  19.555  1.00  0.00     0.000 C 
BRANCH  21  22
ATOM     22  C   UNL     1       7.418 -19.089  19.783  1.00  0.00    -0.000 C 
BRANCH  22  23
ATOM     23  C   UNL     1       8.374 -20.193  20.270  1.00  0.00    -0.000 C 
BRANCH  23  24
ATOM     24  C   UNL     1       7.933 -20.825  21.599  1.00  0.00    -0.000 C 
BRANCH  24  25
ATOM     25  C   UNL     1       6.700 -20.111  22.165  1.00  0.00    -0.000 C 
BRANCH  25  26
ATOM     26  C   UNL     1       6.777 -20.011  23.696  1.00  0.00    -0.000 C 
BRANCH  26  27
ATOM     27  C   UNL     1       6.826 -18.551  24.188  1.00  0.00    -0.000 C 
BRANCH  27  28
ATOM     28  C   UNL     1       7.089 -17.521  23.071  1.00  0.00    -0.000 C 
BRANCH  28  29
ATOM     29  C   UNL     1       6.282 -16.216  23.214  1.00  0.00    -0.003 C 
ATOM     30  C   UNL     1       6.558 -15.227  22.081  1.00  0.00     0.004 C 
ENDBRANCH  28  29
ENDBRANCH  27  28
ENDBRANCH  26  27
ENDBRANCH  25  26
ENDBRANCH  24  25
ENDBRANCH  23  24
ENDBRANCH  22  23
ENDBRANCH  21  22
ENDBRANCH  20  21
ENDBRANCH  19  20
ENDBRANCH  18  19
ENDBRANCH  17  18
ENDBRANCH   1  17
TORSDOF 26
ENDMDL
MODEL 3
REMARK VINA RESULT:    -4.116      2.210      4.621
REMARK INTER + INTRA:         -16.435
REMARK INTER:                 -10.438
REMARK INTRA:                  -5.997
REMARK UNBOUND:                -6.063
REMARK SMILES CCCCCCCCCCCCCCCCCCCCCCCCCCCC(=O)[O-]
REMARK SMILES IDX 15 1 16 2 17 3 18 4 19 5 20 6 21 7 22 8 23 9 24 10 25 11
REMARK SMILES IDX 26 12 27 13 28 14 29 15 30 16 14 17 13 18 12 19 11 20 10 21
REMARK SMILES IDX 9 22 8 23 7 24 6 25 5 26 4 27 3 28 2 29 1 30
REMARK H PARENT
REMARK Flexibility Score: inf
ROOT
ATOM      1  C   UNL     1       7.500 -21.182  21.127  1.00  0.00     0.000 C 
ENDROOT
BRANCH   1   2
ATOM      2  C   UNL     1       8.732 -21.612  20.309  1.00  0.00     0.000 C 
BRANCH   2   3
ATOM      3  C   UNL     1       8.648 -21.158  18.841  1.00  0.00     0.000 C 
BRANCH   3   4
ATOM      4  C   UNL     1       8.563 -19.630  18.695  1.00  0.00     0.000 C 
BRANCH   4   5
ATOM      5  C   UNL     1       9.771 -19.041  17.945  1.00  0.00     0.000 C 
BRANCH   5   6
ATOM      6  C   UNL     1      10.956 -18.722  18.875  1.00  0.00     0.000 C 
BRANCH   6   7
ATOM      7  C   UNL     1      12.207 -19.601  18.668  1.00  0.00     0.000 C 
BRANCH   7   8
ATOM      8  C   UNL     1      12.311 -20.827  19.596  1.00  0.00     0.000 C 
BRANCH   8   9
ATOM      9  C   UNL     1      12.690 -20.506  21.053  1.00  0.00     0.000 C 
BRANCH   9  10
ATOM     10  C   UNL     1      14.121 -19.960  21.191  1.00  0.00     0.000 C 
BRANCH  10  11
ATOM     11  C   UNL     1      14.163 -18.626  21.968  1.00  0.00     0.000 C 
BRANCH  11  12
ATOM     12  C   UNL     1      14.283 -17.388  21.059  1.00  0.00     0.006 C 
BRANCH  12  13
ATOM     13  C   UNL     1      13.066 -16.455  21.107  1.00  0.00     0.053 C 
BRANCH  13  14
ATOM     14  C   UNL     1      13.468 -15.010  21.112  1.00  0.00     0.041 C 
ATOM     15  O   UNL     1      13.356 -14.322  22.161  1.00  0.00    -0.550 OA
ATOM     16  O   UNL     1      13.963 -14.422  19.955  1.00  0.00    -0.550 OA
ENDBRANCH  13  14
ENDBRANCH  12  13
ENDBRANCH  11  12
ENDBRANCH  10  11
ENDBRANCH   9  10
ENDBRANCH   8   9
ENDBRANCH   7   8
ENDBRANCH   6   7
ENDBRANCH   5   6
ENDBRANCH   4   5
ENDBRANCH   3   4
ENDBRANCH   2   3
ENDBRANCH   1   2
BRANCH   1  17
ATOM     17  C   UNL     1       7.821 -20.239  22.302  1.00  0.00     0.000 C 
BRANCH  17  18
ATOM     18  C   UNL     1       9.329 -19.955  22.432  1.00  0.00     0.000 C 
BRANCH  18  19
ATOM     19  C   UNL     1       9.692 -18.505  22.076  1.00  0.00     0.000 C 
BRANCH  19  20
ATOM     20  C   UNL     1       8.457 -17.616  21.869  1.00  0.00     0.000 C 
BRANCH  20  21
ATOM     21  C   UNL     1       8.832 -16.128  21.939  1.00  0.00     0.000 C 
BRANCH  21  22
ATOM     22  C   UNL     1      10.082 -15.863  22.800  1.00  0.00    -0.000 C 
BRANCH  22  23
ATOM     23  C   UNL     1       9.956 -14.689  23.789  1.00  0.00    -0.000 C 
BRANCH  23  24
ATOM     24  C   UNL     1       8.609 -14.669  24.528  1.00  0.00    -0.000 C 
BRANCH  24  25
ATOM     25  C   UNL     1       8.696 -15.442  25.849  1.00  0.00    -0.000 C 
BRANCH  25  26
ATOM     26  C   UNL     1       7.873 -16.738  25.783  1.00  0.00    -0.000 C 
BRANCH  26  27
ATOM     27  C   UNL     1       8.759 -17.986  25.596  1.00  0.00    -0.000 C 
BRANCH  27  28
ATOM     28  C   UNL     1      10.164 -17.858  26.217  1.00  0.00    -0.000 C 
BRANCH  28  29
ATOM     29  C   UNL     1      11.276 -18.555  25.408  1.00  0.00    -0.003 C 
ATOM     30  C   UNL     1      12.420 -17.607  25.046  1.00  0.00     0.004 C 
ENDBRANCH  28  29
ENDBRANCH  27  28
ENDBRANCH  26  27
ENDBRANCH  25  26
ENDBRANCH  24  25
ENDBRANCH  23  24
ENDBRANCH  22  23
ENDBRANCH  21  22
ENDBRANCH  20  21
ENDBRANCH  19  20
ENDBRANCH  18  19
ENDBRANCH  17  18
ENDBRANCH   1  17
TORSDOF 26
ENDMDL
MODEL 4
REMARK VINA RESULT:    -4.085      2.586      6.404
REMARK INTER + INTRA:         -16.358
REMARK INTER:                 -10.801
REMARK INTRA:                  -5.556
REMARK UNBOUND:                -6.063
REMARK SMILES CCCCCCCCCCCCCCCCCCCCCCCCCCCC(=O)[O-]
REMARK SMILES IDX 15 1 16 2 17 3 18 4 19 5 20 6 21 7 22 8 23 9 24 10 25 11
REMARK SMILES IDX 26 12 27 13 28 14 29 15 30 16 14 17 13 18 12 19 11 20 10 21
REMARK SMILES IDX 9 22 8 23 7 24 6 25 5 26 4 27 3 28 2 29 1 30
REMARK H PARENT
REMARK Flexibility Score: inf
ROOT
ATOM      1  C   UNL     1       9.031 -17.759  20.779  1.00  0.00     0.000 C 
ENDROOT
BRANCH   1   2
ATOM      2  C   UNL     1       8.016 -18.905  20.609  1.00  0.00     0.000 C 
BRANCH   2   3
ATOM      3  C   UNL     1       8.353 -20.122  21.490  1.00  0.00     0.000 C 
BRANCH   3   4
ATOM      4  C   UNL     1       7.191 -20.530  22.409  1.00  0.00     0.000 C 
BRANCH   4   5
ATOM      5  C   UNL     1       6.368 -19.323  22.891  1.00  0.00     0.000 C 
BRANCH   5   6
ATOM      6  C   UNL     1       6.873 -18.748  24.228  1.00  0.00     0.000 C 
BRANCH   6   7
ATOM      7  C   UNL     1       6.576 -17.251  24.453  1.00  0.00     0.000 C 
BRANCH   7   8
ATOM      8  C   UNL     1       6.730 -16.355  23.209  1.00  0.00     0.000 C 
BRANCH   8   9
ATOM      9  C   UNL     1       7.819 -15.272  23.321  1.00  0.00     0.000 C 
BRANCH   9  10
ATOM     10  C   UNL     1       8.447 -15.202  24.722  1.00  0.00     0.000 C 
BRANCH  10  11
ATOM     11  C   UNL     1       9.930 -15.631  24.718  1.00  0.00     0.000 C 
BRANCH  11  12
ATOM     12  C   UNL     1      10.304 -16.566  25.884  1.00  0.00     0.006 C 
BRANCH  12  13
ATOM     13  C   UNL     1      10.240 -18.060  25.534  1.00  0.00     0.053 C 
BRANCH  13  14
ATOM     14  C   UNL     1      11.268 -18.854  26.282  1.00  0.00     0.041 C 
ATOM     15  O   UNL     1      12.361 -19.155  25.735  1.00  0.00    -0.550 OA
ATOM     16  O   UNL     1      11.017 -19.265  27.585  1.00  0.00    -0.550 OA
ENDBRANCH  13  14
ENDBRANCH  12  13
ENDBRANCH  11  12
ENDBRANCH  10  11
ENDBRANCH   9  10
ENDBRANCH   8   9
ENDBRANCH   7   8
ENDBRANCH   6   7
ENDBRANCH   5   6
ENDBRANCH   4   5
ENDBRANCH   3   4
ENDBRANCH   2   3
ENDBRANCH   1   2
BRANCH   1  17
ATOM     17  C   UNL     1      10.124 -18.036  21.829  1.00  0.00     0.000 C 
BRANCH  17  18
ATOM     18  C   UNL     1      11.455 -17.341  21.488  1.00  0.00     0.000 C 
BRANCH  18  19
ATOM     19  C   UNL     1      12.458 -17.377  22.652  1.00  0.00     0.000 C 
BRANCH  19  20
ATOM     20  C   UNL     1      13.795 -16.705  22.306  1.00  0.00     0.000 C 
BRANCH  20  21
ATOM     21  C   UNL     1      14.873 -17.755  21.993  1.00  0.00     0.000 C 
BRANCH  21  22
ATOM     22  C   UNL     1      14.900 -18.911  23.011  1.00  0.00    -0.000 C 
BRANCH  22  23
ATOM     23  C   UNL     1      14.737 -20.317  22.406  1.00  0.00    -0.000 C 
BRANCH  23  24
ATOM     24  C   UNL     1      13.613 -21.129  23.067  1.00  0.00    -0.000 C 
BRANCH  24  25
ATOM     25  C   UNL     1      12.342 -21.107  22.210  1.00  0.00    -0.000 C 
BRANCH  25  26
ATOM     26  C   UNL     1      12.666 -20.733  20.755  1.00  0.00    -0.000 C 
BRANCH  26  27
ATOM     27  C   UNL     1      11.460 -20.931  19.815  1.00  0.00    -0.000 C 
BRANCH  27  28
ATOM     28  C   UNL     1      11.677 -20.382  18.391  1.00  0.00    -0.000 C 
BRANCH  28  29
ATOM     29  C   UNL     1      10.608 -19.370  17.936  1.00  0.00    -0.003 C 
ATOM     30  C   UNL     1      10.899 -18.790  16.551  1.00  0.00     0.004 C 
ENDBRANCH  28  29
ENDBRANCH  27  28
ENDBRANCH  26  27
ENDBRANCH  25  26
ENDBRANCH  24  25
ENDBRANCH  23  24
ENDBRANCH  22  23
ENDBRANCH  21  22
ENDBRANCH  20  21
ENDBRANCH  19  20
ENDBRANCH  18  19
ENDBRANCH  17  18
ENDBRANCH   1  17
TORSDOF 26
ENDMDL
MODEL 5
REMARK VINA RESULT:    -4.069      2.859      6.594
REMARK INTER + INTRA:         -16.316
REMARK INTER:                 -10.372
REMARK INTRA:                  -5.944
REMARK UNBOUND:                -6.063
REMARK SMILES CCCCCCCCCCCCCCCCCCCCCCCCCCCC(=O)[O-]
REMARK SMILES IDX 15 1 16 2 17 3 18 4 19 5 20 6 21 7 22 8 23 9 24 10 25 11
REMARK SMILES IDX 26 12 27 13 28 14 29 15 30 16 14 17 13 18 12 19 11 20 10 21
REMARK SMILES IDX 9 22 8 23 7 24 6 25 5 26 4 27 3 28 2 29 1 30
REMARK H PARENT
REMARK Flexibility Score: inf
ROOT
ATOM      1  C   UNL     1       7.644 -18.683  23.104  1.00  0.00     0.000 C 
ENDROOT
BRANCH   1   2
ATOM      2  C   UNL     1       7.120 -17.247  22.916  1.00  0.00     0.000 C 
BRANCH   2   3
ATOM      3  C   UNL     1       8.002 -16.421  21.962  1.00  0.00     0.000 C 
BRANCH   3   4
ATOM      4  C   UNL     1       9.459 -16.909  21.929  1.00  0.00     0.000 C 
BRANCH   4   5
ATOM      5  C   UNL     1      10.231 -16.381  20.708  1.00  0.00     0.000 C 
BRANCH   5   6
ATOM      6  C   UNL     1      11.723 -16.759  20.731  1.00  0.00     0.000 C 
BRANCH   6   7
ATOM      7  C   UNL     1      12.593 -15.939  21.706  1.00  0.00     0.000 C 
BRANCH   7   8
ATOM      8  C   UNL     1      13.861 -16.651  22.215  1.00  0.00     0.000 C 
BRANCH   8   9
ATOM      9  C   UNL     1      13.604 -17.812  23.193  1.00  0.00     0.000 C 
BRANCH   9  10
ATOM     10  C   UNL     1      12.611 -17.444  24.307  1.00  0.00     0.000 C 
BRANCH  10  11
ATOM     11  C   UNL     1      11.445 -18.452  24.405  1.00  0.00     0.000 C 
BRANCH  11  12
ATOM     12  C   UNL     1      10.373 -18.055  25.437  1.00  0.00     0.006 C 
BRANCH  12  13
ATOM     13  C   UNL     1      10.486 -16.607  25.932  1.00  0.00     0.053 C 
BRANCH  13  14
ATOM     14  C   UNL     1       9.267 -15.802  25.590  1.00  0.00     0.041 C 
ATOM     15  O   UNL     1       8.153 -16.087  26.101  1.00  0.00    -0.550 OA
ATOM     16  O   UNL     1       9.364 -14.737  24.704  1.00  0.00    -0.550 OA
ENDBRANCH  13  14
ENDBRANCH  12  13
ENDBRANCH  11  12
ENDBRANCH  10  11
ENDBRANCH   9  10
ENDBRANCH   8   9
ENDBRANCH   7   8
ENDBRANCH   6   7
ENDBRANCH   5   6
ENDBRANCH   4   5
ENDBRANCH   3   4
ENDBRANCH   2   3
ENDBRANCH   1   2
BRANCH   1  17
ATOM     17  C   UNL     1       6.797 -19.760  22.399  1.00  0.00     0.000 C 
BRANCH  17  18
ATOM     18  C   UNL     1       7.500 -20.339  21.157  1.00  0.00     0.000 C 
BRANCH  18  19
ATOM     19  C   UNL     1       7.352 -19.440  19.919  1.00  0.00     0.000 C 
BRANCH  19  20
ATOM     20  C   UNL     1       8.675 -19.247  19.163  1.00  0.00     0.000 C 
BRANCH  20  21
ATOM     21  C   UNL     1       9.099 -20.543  18.456  1.00  0.00     0.000 C 
BRANCH  21  22
ATOM     22  C   UNL     1      10.372 -20.375  17.606  1.00  0.00    -0.000 C 
BRANCH  22  23
ATOM     23  C   UNL     1      10.750 -18.920  17.276  1.00  0.00    -0.000 C 
BRANCH  23  24
ATOM     24  C   UNL     1      12.171 -18.782  16.708  1.00  0.00    -0.000 C 
BRANCH  24  25
ATOM     25  C   UNL     1      13.151 -18.310  17.788  1.00  0.00    -0.000 C 
BRANCH  25  26
ATOM     26  C   UNL     1      13.994 -19.481  18.316  1.00  0.00    -0.000 C 
BRANCH  26  27
ATOM     27  C   UNL     1      13.859 -19.662  19.841  1.00  0.00    -0.000 C 
BRANCH  27  28
ATOM     28  C   UNL     1      12.866 -20.765  20.258  1.00  0.00    -0.000 C 
BRANCH  28  29
ATOM     29  C   UNL     1      11.711 -20.269  21.150  1.00  0.00    -0.003 C 
ATOM     30  C   UNL     1      10.900 -21.417  21.752  1.00  0.00     0.004 C 
ENDBRANCH  28  29
ENDBRANCH  27  28
ENDBRANCH  26  27
ENDBRANCH  25  26
ENDBRANCH  24  25
ENDBRANCH  23  24
ENDBRANCH  22  23
ENDBRANCH  21  22
ENDBRANCH  20  21
ENDBRANCH  19  20
ENDBRANCH  18  19
ENDBRANCH  17  18
ENDBRANCH   1  17
TORSDOF 26
ENDMDL
MODEL 6
REMARK VINA RESULT:    -4.015      2.585      6.403
REMARK INTER + INTRA:         -16.181
REMARK INTER:                 -10.508
REMARK INTRA:                  -5.673
REMARK UNBOUND:                -6.063
REMARK SMILES CCCCCCCCCCCCCCCCCCCCCCCCCCCC(=O)[O-]
REMARK SMILES IDX 15 1 16 2 17 3 18 4 19 5 20 6 21 7 22 8 23 9 24 10 25 11
REMARK SMILES IDX 26 12 27 13 28 14 29 15 30 16 14 17 13 18 12 19 11 20 10 21
REMARK SMILES IDX 9 22 8 23 7 24 6 25 5 26 4 27 3 28 2 29 1 30
REMARK H PARENT
REMARK Flexibility Score: inf
ROOT
ATOM      1  C   UNL     1       9.300 -20.345  21.796  1.00  0.00     0.000 C 
ENDROOT
BRANCH   1   2
ATOM      2  C   UNL     1       7.820 -20.434  22.215  1.00  0.00     0.000 C 
BRANCH   2   3
ATOM      3  C   UNL     1       6.877 -19.801  21.176  1.00  0.00     0.000 C 
BRANCH   3   4
ATOM      4  C   UNL     1       7.626 -18.963  20.127  1.00  0.00     0.000 C 
BRANCH   4   5
ATOM      5  C   UNL     1       7.184 -17.489  20.124  1.00  0.00     0.000 C 
BRANCH   5   6
ATOM      6  C   UNL     1       7.825 -16.669  21.258  1.00  0.00     0.000 C 
BRANCH   6   7
ATOM      7  C   UNL     1       6.890 -15.649  21.940  1.00  0.00     0.000 C 
BRANCH   7   8
ATOM      8  C   UNL     1       6.716 -15.829  23.461  1.00  0.00     0.000 C 
BRANCH   8   9
ATOM      9  C   UNL     1       6.654 -17.291  23.937  1.00  0.00     0.000 C 
BRANCH   9  10
ATOM     10  C   UNL     1       7.434 -17.527  25.241  1.00  0.00     0.000 C 
BRANCH  10  11
ATOM     11  C   UNL     1       8.611 -18.508  25.047  1.00  0.00     0.000 C 
BRANCH  11  12
ATOM     12  C   UNL     1       9.961 -17.807  24.804  1.00  0.00     0.006 C 
BRANCH  12  13
ATOM     13  C   UNL     1       9.989 -16.333  25.231  1.00  0.00     0.053 C 
BRANCH  13  14
ATOM     14  C   UNL     1      10.572 -15.452  24.167  1.00  0.00     0.041 C 
ATOM     15  O   UNL     1      11.708 -15.703  23.686  1.00  0.00    -0.550 OA
ATOM     16  O   UNL     1       9.860 -14.351  23.709  1.00  0.00    -0.550 OA
ENDBRANCH  13  14
ENDBRANCH  12  13
ENDBRANCH  11  12
ENDBRANCH  10  11
ENDBRANCH   9  10
ENDBRANCH   8   9
ENDBRANCH   7   8
ENDBRANCH   6   7
ENDBRANCH   5   6
ENDBRANCH   4   5
ENDBRANCH   3   4
ENDBRANCH   2   3
ENDBRANCH   1   2
BRANCH   1  17
ATOM     17  C   UNL     1       9.850 -21.629  21.146  1.00  0.00     0.000 C 
BRANCH  17  18
ATOM     18  C   UNL     1      11.328 -21.877  21.496  1.00  0.00     0.000 C 
BRANCH  18  19
ATOM     19  C   UNL     1      11.947 -20.728  22.309  1.00  0.00     0.000 C 
BRANCH  19  20
ATOM     20  C   UNL     1      13.289 -21.108  22.950  1.00  0.00     0.000 C 
BRANCH  20  21
ATOM     21  C   UNL     1      13.968 -19.879  23.574  1.00  0.00     0.000 C 
BRANCH  21  22
ATOM     22  C   UNL     1      13.550 -18.557  22.904  1.00  0.00    -0.000 C 
BRANCH  22  23
ATOM     23  C   UNL     1      14.707 -17.726  22.321  1.00  0.00    -0.000 C 
BRANCH  23  24
ATOM     24  C   UNL     1      15.516 -18.486  21.258  1.00  0.00    -0.000 C 
BRANCH  24  25
ATOM     25  C   UNL     1      14.783 -18.495  19.912  1.00  0.00    -0.000 C 
BRANCH  25  26
ATOM     26  C   UNL     1      14.313 -19.912  19.551  1.00  0.00    -0.000 C 
BRANCH  26  27
ATOM     27  C   UNL     1      12.973 -19.910  18.788  1.00  0.00    -0.000 C 
BRANCH  27  28
ATOM     28  C   UNL     1      12.357 -18.509  18.605  1.00  0.00    -0.000 C 
BRANCH  28  29
ATOM     29  C   UNL     1      11.103 -18.254  19.464  1.00  0.00    -0.003 C 
ATOM     30  C   UNL     1      11.287 -17.094  20.442  1.00  0.00     0.004 C 
ENDBRANCH  28  29
ENDBRANCH  27  28
ENDBRANCH  26  27
ENDBRANCH  25  26
ENDBRANCH  24  25
ENDBRANCH  23  24
ENDBRANCH  22  23
ENDBRANCH  21  22
ENDBRANCH  20  21
ENDBRANCH  19  20
ENDBRANCH  18  19
ENDBRANCH  17  18
ENDBRANCH   1  17
TORSDOF 26
ENDMDL
MODEL 7
REMARK VINA RESULT:    -4.015      2.787      6.507
REMARK INTER + INTRA:         -16.181
REMARK INTER:                 -10.427
REMARK INTRA:                  -5.754
REMARK UNBOUND:                -6.063
REMARK SMILES CCCCCCCCCCCCCCCCCCCCCCCCCCCC(=O)[O-]
REMARK SMILES IDX 15 1 16 2 17 3 18 4 19 5 20 6 21 7 22 8 23 9 24 10 25 11
REMARK SMILES IDX 26 12 27 13 28 14 29 15 30 16 14 17 13 18 12 19 11 20 10 21
REMARK SMILES IDX 9 22 8 23 7 24 6 25 5 26 4 27 3 28 2 29 1 30
REMARK H PARENT
REMARK Flexibility Score: inf
ROOT
ATOM      1  C   UNL     1      13.457 -16.769  20.810  1.00  0.00     0.000 C 
ENDROOT
BRANCH   1   2
ATOM      2  C   UNL     1      12.066 -16.411  21.368  1.00  0.00     0.000 C 
BRANCH   2   3
ATOM      3  C   UNL     1      12.139 -15.374  22.504  1.00  0.00     0.000 C 
BRANCH   3   4
ATOM      4  C   UNL     1      11.475 -15.866  23.800  1.00  0.00     0.000 C 
BRANCH   4   5
ATOM      5  C   UNL     1      10.088 -15.242  24.026  1.00  0.00     0.000 C 
BRANCH   5   6
ATOM      6  C   UNL     1       9.378 -15.794  25.276  1.00  0.00     0.000 C 
BRANCH   6   7
ATOM      7  C   UNL     1      10.135 -16.914  26.020  1.00  0.00     0.000 C 
BRANCH   7   8
ATOM      8  C   UNL     1       9.475 -18.305  25.962  1.00  0.00     0.000 C 
BRANCH   8   9
ATOM      9  C   UNL     1       7.963 -18.294  25.678  1.00  0.00     0.000 C 
BRANCH   9  10
ATOM     10  C   UNL     1       7.555 -19.284  24.574  1.00  0.00     0.000 C 
BRANCH  10  11
ATOM     11  C   UNL     1       6.489 -18.694  23.627  1.00  0.00     0.000 C 
BRANCH  11  12
ATOM     12  C   UNL     1       6.707 -17.202  23.308  1.00  0.00     0.006 C 
BRANCH  12  13
ATOM     13  C   UNL     1       7.514 -16.947  22.028  1.00  0.00     0.053 C 
BRANCH  13  14
ATOM     14  C   UNL     1       7.089 -15.682  21.342  1.00  0.00     0.041 C 
ATOM     15  O   UNL     1       6.817 -14.654  22.015  1.00  0.00    -0.550 OA
ATOM     16  O   UNL     1       6.992 -15.642  19.957  1.00  0.00    -0.550 OA
ENDBRANCH  13  14
ENDBRANCH  12  13
ENDBRANCH  11  12
ENDBRANCH  10  11
ENDBRANCH   9  10
ENDBRANCH   8   9
ENDBRANCH   7   8
ENDBRANCH   6   7
ENDBRANCH   5   6
ENDBRANCH   4   5
ENDBRANCH   3   4
ENDBRANCH   2   3
ENDBRANCH   1   2
BRANCH   1  17
ATOM     17  C   UNL     1      14.480 -17.182  21.885  1.00  0.00     0.000 C 
BRANCH  17  18
ATOM     18  C   UNL     1      15.035 -18.599  21.653  1.00  0.00     0.000 C 
BRANCH  18  19
ATOM     19  C   UNL     1      14.319 -19.663  22.501  1.00  0.00     0.000 C 
BRANCH  19  20
ATOM     20  C   UNL     1      13.755 -19.098  23.813  1.00  0.00     0.000 C 
BRANCH  20  21
ATOM     21  C   UNL     1      12.240 -19.335  23.908  1.00  0.00     0.000 C 
BRANCH  21  22
ATOM     22  C   UNL     1      11.664 -20.045  22.669  1.00  0.00    -0.000 C 
BRANCH  22  23
ATOM     23  C   UNL     1      10.289 -19.530  22.203  1.00  0.00    -0.000 C 
BRANCH  23  24
ATOM     24  C   UNL     1       9.364 -20.653  21.709  1.00  0.00    -0.000 C 
BRANCH  24  25
ATOM     25  C   UNL     1       8.530 -20.188  20.510  1.00  0.00    -0.000 C 
BRANCH  25  26
ATOM     26  C   UNL     1       9.372 -19.331  19.552  1.00  0.00    -0.000 C 
BRANCH  26  27
ATOM     27  C   UNL     1      10.115 -20.181  18.502  1.00  0.00    -0.000 C 
BRANCH  27  28
ATOM     28  C   UNL     1      11.471 -19.592  18.064  1.00  0.00    -0.000 C 
BRANCH  28  29
ATOM     29  C   UNL     1      12.655 -20.001  18.962  1.00  0.00    -0.003 C 
ATOM     30  C   UNL     1      14.006 -19.591  18.376  1.00  0.00     0.004 C 
ENDBRANCH  28  29
ENDBRANCH  27  28
ENDBRANCH  26  27
ENDBRANCH  25  26
ENDBRANCH  24  25
ENDBRANCH  23  24
ENDBRANCH  22  23
ENDBRANCH  21  22
ENDBRANCH  20  21
ENDBRANCH  19  20
ENDBRANCH  18  19
ENDBRANCH  17  18
ENDBRANCH   1  17
TORSDOF 26
ENDMDL
MODEL 8
REMARK VINA RESULT:    -3.988      2.371      5.827
REMARK INTER + INTRA:         -16.111
REMARK INTER:                 -10.276
REMARK INTRA:                  -5.835
REMARK UNBOUND:                -6.063
REMARK SMILES CCCCCCCCCCCCCCCCCCCCCCCCCCCC(=O)[O-]
REMARK SMILES IDX 15 1 16 2 17 3 18 4 19 5 20 6 21 7 22 8 23 9 24 10 25 11
REMARK SMILES IDX 26 12 27 13 28 14 29 15 30 16 14 17 13 18 12 19 11 20 10 21
REMARK SMILES IDX 9 22 8 23 7 24 6 25 5 26 4 27 3 28 2 29 1 30
REMARK H PARENT
REMARK Flexibility Score: inf
ROOT
ATOM      1  C   UNL     1      12.432 -20.190  19.047  1.00  0.00     0.000 C 
ENDROOT
BRANCH   1   2
ATOM      2  C   UNL     1      11.143 -20.371  18.223  1.00  0.00     0.000 C 
BRANCH   2   3
ATOM      3  C   UNL     1      10.583 -19.032  17.710  1.00  0.00     0.000 C 
BRANCH   3   4
ATOM      4  C   UNL     1      10.998 -17.840  18.587  1.00  0.00     0.000 C 
BRANCH   4   5
ATOM      5  C   UNL     1       9.936 -17.485  19.641  1.00  0.00     0.000 C 
BRANCH   5   6
ATOM      6  C   UNL     1      10.547 -17.011  20.973  1.00  0.00     0.000 C 
BRANCH   6   7
ATOM      7  C   UNL     1      12.041 -16.632  20.911  1.00  0.00     0.000 C 
BRANCH   7   8
ATOM      8  C   UNL     1      12.729 -16.440  22.276  1.00  0.00     0.000 C 
BRANCH   8   9
ATOM      9  C   UNL     1      14.144 -17.037  22.379  1.00  0.00     0.000 C 
BRANCH   9  10
ATOM     10  C   UNL     1      14.629 -17.654  21.056  1.00  0.00     0.000 C 
BRANCH  10  11
ATOM     11  C   UNL     1      15.511 -18.901  21.284  1.00  0.00     0.000 C 
BRANCH  11  12
ATOM     12  C   UNL     1      15.500 -19.405  22.740  1.00  0.00     0.006 C 
BRANCH  12  13
ATOM     13  C   UNL     1      15.547 -20.933  22.874  1.00  0.00     0.053 C 
BRANCH  13  14
ATOM     14  C   UNL     1      16.921 -21.422  23.226  1.00  0.00     0.041 C 
ATOM     15  O   UNL     1      17.116 -22.639  23.480  1.00  0.00    -0.550 OA
ATOM     16  O   UNL     1      17.984 -20.530  23.275  1.00  0.00    -0.550 OA
ENDBRANCH  13  14
ENDBRANCH  12  13
ENDBRANCH  11  12
ENDBRANCH  10  11
ENDBRANCH   9  10
ENDBRANCH   8   9
ENDBRANCH   7   8
ENDBRANCH   6   7
ENDBRANCH   5   6
ENDBRANCH   4   5
ENDBRANCH   3   4
ENDBRANCH   2   3
ENDBRANCH   1   2
BRANCH   1  17
ATOM     17  C   UNL     1      12.510 -21.083  20.300  1.00  0.00     0.000 C 
BRANCH  17  18
ATOM     18  C   UNL     1      12.056 -20.348  21.574  1.00  0.00     0.000 C 
BRANCH  18  19
ATOM     19  C   UNL     1      10.581 -20.610  21.917  1.00  0.00     0.000 C 
BRANCH  19  20
ATOM     20  C   UNL     1      10.076 -21.957  21.378  1.00  0.00     0.000 C 
BRANCH  20  21
ATOM     21  C   UNL     1       8.593 -21.871  20.984  1.00  0.00     0.000 C 
BRANCH  21  22
ATOM     22  C   UNL     1       8.194 -20.484  20.445  1.00  0.00    -0.000 C 
BRANCH  22  23
ATOM     23  C   UNL     1       7.133 -19.741  21.276  1.00  0.00    -0.000 C 
BRANCH  23  24
ATOM     24  C   UNL     1       6.887 -20.384  22.649  1.00  0.00    -0.000 C 
BRANCH  24  25
ATOM     25  C   UNL     1       6.939 -19.334  23.764  1.00  0.00    -0.000 C 
BRANCH  25  26
ATOM     26  C   UNL     1       8.123 -18.375  23.563  1.00  0.00    -0.000 C 
BRANCH  26  27
ATOM     27  C   UNL     1       9.154 -18.468  24.706  1.00  0.00    -0.000 C 
BRANCH  27  28
ATOM     28  C   UNL     1      10.214 -17.349  24.687  1.00  0.00    -0.000 C 
BRANCH  28  29
ATOM     29  C   UNL     1       9.690 -15.977  25.154  1.00  0.00    -0.003 C 
ATOM     30  C   UNL     1       9.801 -14.905  24.070  1.00  0.00     0.004 C 
ENDBRANCH  28  29
ENDBRANCH  27  28
ENDBRANCH  26  27
ENDBRANCH  25  26
ENDBRANCH  24  25
ENDBRANCH  23  24
ENDBRANCH  22  23
ENDBRANCH  21  22
ENDBRANCH  20  21
ENDBRANCH  19  20
ENDBRANCH  18  19
ENDBRANCH  17  18
ENDBRANCH   1  17
TORSDOF 26
ENDMDL
MODEL 9
REMARK VINA RESULT:    -3.972      2.211      4.969
REMARK INTER + INTRA:         -16.072
REMARK INTER:                 -10.072
REMARK INTRA:                  -6.000
REMARK UNBOUND:                -6.063
REMARK SMILES CCCCCCCCCCCCCCCCCCCCCCCCCCCC(=O)[O-]
REMARK SMILES IDX 15 1 16 2 17 3 18 4 19 5 20 6 21 7 22 8 23 9 24 10 25 11
REMARK SMILES IDX 26 12 27 13 28 14 29 15 30 16 14 17 13 18 12 19 11 20 10 21
REMARK SMILES IDX 9 22 8 23 7 24 6 25 5 26 4 27 3 28 2 29 1 30
REMARK H PARENT
REMARK Flexibility Score: inf
ROOT
ATOM      1  C   UNL     1       8.131 -20.287  20.176  1.00  0.00     0.000 C 
ENDROOT
BRANCH   1   2
ATOM      2  C   UNL     1       8.214 -21.574  21.017  1.00  0.00     0.000 C 
BRANCH   2   3
ATOM      3  C   UNL     1       9.625 -22.190  21.007  1.00  0.00     0.000 C 
BRANCH   3   4
ATOM      4  C   UNL     1      10.711 -21.194  21.448  1.00  0.00     0.000 C 
BRANCH   4   5
ATOM      5  C   UNL     1      12.002 -21.325  20.623  1.00  0.00     0.000 C 
BRANCH   5   6
ATOM      6  C   UNL     1      12.099 -20.286  19.491  1.00  0.00     0.000 C 
BRANCH   6   7
ATOM      7  C   UNL     1      11.525 -18.894  19.828  1.00  0.00     0.000 C 
BRANCH   7   8
ATOM      8  C   UNL     1      12.437 -17.703  19.474  1.00  0.00     0.000 C 
BRANCH   8   9
ATOM      9  C   UNL     1      13.107 -17.019  20.680  1.00  0.00     0.000 C 
BRANCH   9  10
ATOM     10  C   UNL     1      14.324 -17.798  21.207  1.00  0.00     0.000 C 
BRANCH  10  11
ATOM     11  C   UNL     1      14.317 -17.918  22.746  1.00  0.00     0.000 C 
BRANCH  11  12
ATOM     12  C   UNL     1      13.937 -19.322  23.252  1.00  0.00     0.006 C 
BRANCH  12  13
ATOM     13  C   UNL     1      13.467 -19.356  24.713  1.00  0.00     0.053 C 
BRANCH  13  14
ATOM     14  C   UNL     1      14.537 -19.862  25.634  1.00  0.00     0.041 C 
ATOM     15  O   UNL     1      15.641 -20.253  25.172  1.00  0.00    -0.550 OA
ATOM     16  O   UNL     1      14.311 -19.904  27.004  1.00  0.00    -0.550 OA
ENDBRANCH  13  14
ENDBRANCH  12  13
ENDBRANCH  11  12
ENDBRANCH  10  11
ENDBRANCH   9  10
ENDBRANCH   8   9
ENDBRANCH   7   8
ENDBRANCH   6   7
ENDBRANCH   5   6
ENDBRANCH   4   5
ENDBRANCH   3   4
ENDBRANCH   2   3
ENDBRANCH   1   2
BRANCH   1  17
ATOM     17  C   UNL     1       7.704 -19.040  20.973  1.00  0.00     0.000 C 
BRANCH  17  18
ATOM     18  C   UNL     1       8.188 -17.732  20.320  1.00  0.00     0.000 C 
BRANCH  18  19
ATOM     19  C   UNL     1       7.598 -16.480  20.991  1.00  0.00     0.000 C 
BRANCH  19  20
ATOM     20  C   UNL     1       7.132 -16.742  22.431  1.00  0.00     0.000 C 
BRANCH  20  21
ATOM     21  C   UNL     1       7.084 -15.436  23.239  1.00  0.00     0.000 C 
BRANCH  21  22
ATOM     22  C   UNL     1       8.247 -15.305  24.241  1.00  0.00    -0.000 C 
BRANCH  22  23
ATOM     23  C   UNL     1       9.441 -14.468  23.749  1.00  0.00    -0.000 C 
BRANCH  23  24
ATOM     24  C   UNL     1      10.627 -15.328  23.285  1.00  0.00    -0.000 C 
BRANCH  24  25
ATOM     25  C   UNL     1      10.745 -16.601  24.130  1.00  0.00    -0.000 C 
BRANCH  25  26
ATOM     26  C   UNL     1      10.545 -17.856  23.266  1.00  0.00    -0.000 C 
BRANCH  26  27
ATOM     27  C   UNL     1       9.700 -18.931  23.978  1.00  0.00    -0.000 C 
BRANCH  27  28
ATOM     28  C   UNL     1       9.288 -18.555  25.415  1.00  0.00    -0.000 C 
BRANCH  28  29
ATOM     29  C   UNL     1       7.777 -18.679  25.690  1.00  0.00    -0.003 C 
ATOM     30  C   UNL     1       7.089 -19.676  24.756  1.00  0.00     0.004 C 
ENDBRANCH  28  29
ENDBRANCH  27  28
ENDBRANCH  26  27
ENDBRANCH  25  26
ENDBRANCH  24  25
ENDBRANCH  23  24
ENDBRANCH  22  23
ENDBRANCH  21  22
ENDBRANCH  20  21
ENDBRANCH  19  20
ENDBRANCH  18  19
ENDBRANCH  17  18
ENDBRANCH   1  17
TORSDOF 26
ENDMDL
