MODEL 1
REMARK VINA RESULT:    -6.482      0.000      0.000
REMARK INTER + INTRA:         -10.814
REMARK INTER:                  -9.513
REMARK INTRA:                  -1.301
REMARK UNBOUND:                -1.301
REMARK SMILES O=c1c(O[C@@H]2O[C@@H](CO)[C@H](O)[C@H](O)[C@@H]2O)c(-c2ccc(O)c(O)c2)oc2cc(O)cc(O)c12
REMARK SMILES IDX 4 1 3 2 16 3 25 4 2 5 26 6 1 7 33 8 27 9 31 10 28 11 30 12
REMARK SMILES IDX 17 13 18 14 19 15 20 16 24 17 22 18 21 19 23 21 32 23 29 25
REMARK SMILES IDX 5 27 14 28 6 29 12 30 7 31 10 32 15 33 13 35 8 37 9 38 11 40
REMARK H PARENT 21 20 23 22 32 24 29 26 15 34 13 36 9 39 11 41
REMARK Flexibility Score: inf
ROOT
ATOM      1  O   UNL     1      18.170 -10.592  18.003  1.00  0.00    -0.454 OA
ENDROOT
BRANCH   1   2
ATOM      2  C   UNL     1      18.860 -11.824  18.025  1.00  0.00     0.214 A 
ATOM      3  C   UNL     1      19.649 -12.122  19.155  1.00  0.00     0.180 A 
ATOM      4  O   UNL     1      20.256 -13.299  19.260  1.00  0.00    -0.452 OA
ATOM      5  C   UNL     1      18.779 -12.793  16.996  1.00  0.00     0.239 A 
ATOM      6  C   UNL     1      20.193 -14.238  18.327  1.00  0.00     0.146 A 
ATOM      7  O   UNL     1      18.107 -12.566  15.955  1.00  0.00    -0.285 OA
ATOM      8  C   UNL     1      19.457 -14.023  17.140  1.00  0.00     0.111 A 
ATOM      9  C   UNL     1      20.873 -15.443  18.529  1.00  0.00     0.094 A 
ATOM     10  C   UNL     1      19.422 -15.045  16.159  1.00  0.00     0.134 A 
ATOM     11  C   UNL     1      20.834 -16.447  17.562  1.00  0.00     0.123 A 
ATOM     12  C   UNL     1      20.113 -16.247  16.381  1.00  0.00     0.093 A 
BRANCH   3  13
ATOM     13  C   UNL     1      19.819 -11.157  20.259  1.00  0.00     0.025 A 
ATOM     14  C   UNL     1      19.014 -11.260  21.403  1.00  0.00     0.016 A 
ATOM     15  C   UNL     1      19.180 -10.368  22.465  1.00  0.00     0.051 A 
ATOM     16  C   UNL     1      20.167  -9.375  22.406  1.00  0.00     0.157 A 
ATOM     17  C   UNL     1      20.822 -10.175  20.211  1.00  0.00     0.062 A 
ATOM     18  C   UNL     1      20.993  -9.282  21.279  1.00  0.00     0.158 A 
BRANCH  16  19
ATOM     19  O   UNL     1      20.337  -8.482  23.462  1.00  0.00    -0.504 OA
ATOM     20  H   UNL     1      19.547  -8.132  23.992  1.00  0.00     0.293 HD
ENDBRANCH  16  19
BRANCH  18  21
ATOM     21  O   UNL     1      21.987  -8.306  21.231  1.00  0.00    -0.504 OA
ATOM     22  H   UNL     1      22.583  -8.197  20.418  1.00  0.00     0.293 HD
ENDBRANCH  18  21
ENDBRANCH   3  13
BRANCH  10  23
ATOM     23  O   UNL     1      18.711 -14.878  14.970  1.00  0.00    -0.507 OA
ATOM     24  H   UNL     1      18.284 -15.662  14.488  1.00  0.00     0.293 HD
ENDBRANCH  10  23
BRANCH  11  25
ATOM     25  O   UNL     1      21.519 -17.640  17.783  1.00  0.00    -0.508 OA
ATOM     26  H   UNL     1      22.319 -17.904  17.218  1.00  0.00     0.293 HD
ENDBRANCH  11  25
ENDBRANCH   1   2
BRANCH   1  27
ATOM     27  C   UNL     1      18.154  -9.630  16.942  1.00  0.00     0.339 C 
ATOM     28  C   UNL     1      17.426  -8.342  17.372  1.00  0.00     0.214 C 
ATOM     29  O   UNL     1      19.465  -9.349  16.477  1.00  0.00    -0.332 OA
ATOM     30  C   UNL     1      18.246  -7.553  18.409  1.00  0.00     0.180 C 
ATOM     31  C   UNL     1      20.269  -8.763  17.490  1.00  0.00     0.179 C 
ATOM     32  C   UNL     1      19.697  -7.391  17.917  1.00  0.00     0.177 C 
BRANCH  28  33
ATOM     33  O   UNL     1      16.161  -8.665  17.887  1.00  0.00    -0.384 OA
ATOM     34  H   UNL     1      16.312  -9.091  18.770  1.00  0.00     0.211 HD
ENDBRANCH  28  33
BRANCH  30  35
ATOM     35  O   UNL     1      18.218  -8.220  19.647  1.00  0.00    -0.387 OA
ATOM     36  H   UNL     1      17.354  -7.992  20.080  1.00  0.00     0.211 HD
ENDBRANCH  30  35
BRANCH  31  37
ATOM     37  C   UNL     1      21.703  -8.629  16.951  1.00  0.00     0.191 C 
BRANCH  37  38
ATOM     38  O   UNL     1      21.894  -7.388  16.324  1.00  0.00    -0.394 OA
ATOM     39  H   UNL     1      21.993  -6.714  17.047  1.00  0.00     0.210 HD
ENDBRANCH  37  38
ENDBRANCH  31  37
BRANCH  32  40
ATOM     40  O   UNL     1      20.493  -6.834  18.934  1.00  0.00    -0.387 OA
ATOM     41  H   UNL     1      20.239  -7.291  19.778  1.00  0.00     0.211 HD
ENDBRANCH  32  40
ENDBRANCH   1  27
TORSDOF 12
ENDMDL
MODEL 2
REMARK VINA RESULT:    -6.429      2.009      4.665
REMARK INTER + INTRA:         -10.736
REMARK INTER:                  -9.870
REMARK INTRA:                  -0.866
REMARK UNBOUND:                -1.301
REMARK SMILES O=c1c(O[C@@H]2O[C@@H](CO)[C@H](O)[C@H](O)[C@@H]2O)c(-c2ccc(O)c(O)c2)oc2cc(O)cc(O)c12
REMARK SMILES IDX 4 1 3 2 16 3 25 4 2 5 26 6 1 7 33 8 27 9 31 10 28 11 30 12
REMARK SMILES IDX 17 13 18 14 19 15 20 16 24 17 22 18 21 19 23 21 32 23 29 25
REMARK SMILES IDX 5 27 14 28 6 29 12 30 7 31 10 32 15 33 13 35 8 37 9 38 11 40
REMARK H PARENT 21 20 23 22 32 24 29 26 15 34 13 36 9 39 11 41
REMARK Flexibility Score: inf
ROOT
ATOM      1  O   UNL     1      20.036 -10.346  19.394  1.00  0.00    -0.454 OA
ENDROOT
BRANCH   1   2
ATOM      2  C   UNL     1      20.005 -10.894  18.093  1.00  0.00     0.214 A 
ATOM      3  C   UNL     1      20.410 -10.076  17.019  1.00  0.00     0.180 A 
ATOM      4  O   UNL     1      20.474 -10.567  15.786  1.00  0.00    -0.452 OA
ATOM      5  C   UNL     1      19.625 -12.228  17.807  1.00  0.00     0.239 A 
ATOM      6  C   UNL     1      20.142 -11.812  15.479  1.00  0.00     0.146 A 
ATOM      7  O   UNL     1      19.233 -12.993  18.727  1.00  0.00    -0.285 OA
ATOM      8  C   UNL     1      19.690 -12.702  16.478  1.00  0.00     0.111 A 
ATOM      9  C   UNL     1      20.239 -12.232  14.148  1.00  0.00     0.094 A 
ATOM     10  C   UNL     1      19.332 -14.023  16.110  1.00  0.00     0.134 A 
ATOM     11  C   UNL     1      19.887 -13.534  13.791  1.00  0.00     0.123 A 
ATOM     12  C   UNL     1      19.434 -14.425  14.769  1.00  0.00     0.093 A 
BRANCH   3  13
ATOM     13  C   UNL     1      20.789  -8.663  17.220  1.00  0.00     0.025 A 
ATOM     14  C   UNL     1      21.773  -8.084  16.405  1.00  0.00     0.016 A 
ATOM     15  C   UNL     1      22.125  -6.742  16.569  1.00  0.00     0.051 A 
ATOM     16  C   UNL     1      21.482  -5.957  17.536  1.00  0.00     0.157 A 
ATOM     17  C   UNL     1      20.132  -7.869  18.173  1.00  0.00     0.062 A 
ATOM     18  C   UNL     1      20.480  -6.520  18.336  1.00  0.00     0.158 A 
BRANCH  16  19
ATOM     19  O   UNL     1      21.829  -4.618  17.704  1.00  0.00    -0.504 OA
ATOM     20  H   UNL     1      21.606  -3.920  17.003  1.00  0.00     0.293 HD
ENDBRANCH  16  19
BRANCH  18  21
ATOM     21  O   UNL     1      19.829  -5.732  19.283  1.00  0.00    -0.504 OA
ATOM     22  H   UNL     1      19.147  -5.033  19.012  1.00  0.00     0.293 HD
ENDBRANCH  18  21
ENDBRANCH   3  13
BRANCH  10  23
ATOM     23  O   UNL     1      18.877 -14.938  17.061  1.00  0.00    -0.507 OA
ATOM     24  H   UNL     1      19.504 -15.364  17.735  1.00  0.00     0.293 HD
ENDBRANCH  10  23
BRANCH  11  25
ATOM     25  O   UNL     1      19.990 -13.932  12.460  1.00  0.00    -0.508 OA
ATOM     26  H   UNL     1      19.169 -14.043  11.876  1.00  0.00     0.293 HD
ENDBRANCH  11  25
ENDBRANCH   1   2
BRANCH   1  27
ATOM     27  C   UNL     1      19.220 -10.723  20.509  1.00  0.00     0.339 C 
ATOM     28  C   UNL     1      20.083 -11.198  21.694  1.00  0.00     0.214 C 
ATOM     29  O   UNL     1      18.351  -9.669  20.896  1.00  0.00    -0.332 OA
ATOM     30  C   UNL     1      20.851 -10.027  22.333  1.00  0.00     0.180 C 
ATOM     31  C   UNL     1      19.072  -8.529  21.339  1.00  0.00     0.179 C 
ATOM     32  C   UNL     1      19.889  -8.857  22.610  1.00  0.00     0.177 C 
BRANCH  28  33
ATOM     33  O   UNL     1      20.972 -12.193  21.259  1.00  0.00    -0.384 OA
ATOM     34  H   UNL     1      21.764 -11.725  20.886  1.00  0.00     0.211 HD
ENDBRANCH  28  33
BRANCH  30  35
ATOM     35  O   UNL     1      21.892  -9.617  21.481  1.00  0.00    -0.387 OA
ATOM     36  H   UNL     1      22.406 -10.431  21.238  1.00  0.00     0.211 HD
ENDBRANCH  30  35
BRANCH  31  37
ATOM     37  C   UNL     1      18.068  -7.392  21.594  1.00  0.00     0.191 C 
BRANCH  37  38
ATOM     38  O   UNL     1      18.730  -6.179  21.840  1.00  0.00    -0.394 OA
ATOM     39  H   UNL     1      19.610  -6.408  22.239  1.00  0.00     0.210 HD
ENDBRANCH  37  38
ENDBRANCH  31  37
BRANCH  32  40
ATOM     40  O   UNL     1      20.611  -7.724  23.024  1.00  0.00    -0.387 OA
ATOM     41  H   UNL     1      20.183  -7.401  23.859  1.00  0.00     0.211 HD
ENDBRANCH  32  40
ENDBRANCH   1  27
TORSDOF 12
ENDMDL
MODEL 3
REMARK VINA RESULT:    -6.381      2.383      7.363
REMARK INTER + INTRA:         -10.667
REMARK INTER:                  -9.360
REMARK INTRA:                  -1.306
REMARK UNBOUND:                -1.301
REMARK SMILES O=c1c(O[C@@H]2O[C@@H](CO)[C@H](O)[C@H](O)[C@@H]2O)c(-c2ccc(O)c(O)c2)oc2cc(O)cc(O)c12
REMARK SMILES IDX 4 1 3 2 16 3 25 4 2 5 26 6 1 7 33 8 27 9 31 10 28 11 30 12
REMARK SMILES IDX 17 13 18 14 19 15 20 16 24 17 22 18 21 19 23 21 32 23 29 25
REMARK SMILES IDX 5 27 14 28 6 29 12 30 7 31 10 32 15 33 13 35 8 37 9 38 11 40
REMARK H PARENT 21 20 23 22 32 24 29 26 15 34 13 36 9 39 11 41
REMARK Flexibility Score: inf
ROOT
ATOM      1  O   UNL     1      18.126 -10.278  19.040  1.00  0.00    -0.454 OA
ENDROOT
BRANCH   1   2
ATOM      2  C   UNL     1      18.853  -9.067  19.037  1.00  0.00     0.214 A 
ATOM      3  C   UNL     1      19.702  -8.806  17.942  1.00  0.00     0.180 A 
ATOM      4  O   UNL     1      20.348  -7.649  17.852  1.00  0.00    -0.452 OA
ATOM      5  C   UNL     1      18.753  -8.083  20.050  1.00  0.00     0.239 A 
ATOM      6  C   UNL     1      20.270  -6.697  18.770  1.00  0.00     0.146 A 
ATOM      7  O   UNL     1      18.026  -8.277  21.061  1.00  0.00    -0.285 OA
ATOM      8  C   UNL     1      19.473  -6.875  19.923  1.00  0.00     0.111 A 
ATOM      9  C   UNL     1      20.994  -5.515  18.586  1.00  0.00     0.094 A 
ATOM     10  C   UNL     1      19.423  -5.840  20.890  1.00  0.00     0.134 A 
ATOM     11  C   UNL     1      20.940  -4.498  19.539  1.00  0.00     0.123 A 
ATOM     12  C   UNL     1      20.158  -4.661  20.687  1.00  0.00     0.093 A 
BRANCH   3  13
ATOM     13  C   UNL     1      19.894  -9.790  16.857  1.00  0.00     0.025 A 
ATOM     14  C   UNL     1      19.153  -9.673  15.672  1.00  0.00     0.016 A 
ATOM     15  C   UNL     1      19.341 -10.584  14.630  1.00  0.00     0.051 A 
ATOM     16  C   UNL     1      20.289 -11.609  14.750  1.00  0.00     0.157 A 
ATOM     17  C   UNL     1      20.859 -10.804  16.967  1.00  0.00     0.062 A 
ATOM     18  C   UNL     1      21.053 -11.716  15.919  1.00  0.00     0.158 A 
BRANCH  16  19
ATOM     19  O   UNL     1      20.482 -12.519  13.713  1.00  0.00    -0.504 OA
ATOM     20  H   UNL     1      19.716 -12.814  13.118  1.00  0.00     0.293 HD
ENDBRANCH  16  19
BRANCH  18  21
ATOM     21  O   UNL     1      22.009 -12.725  16.028  1.00  0.00    -0.504 OA
ATOM     22  H   UNL     1      22.537 -12.863  16.882  1.00  0.00     0.293 HD
ENDBRANCH  18  21
ENDBRANCH   3  13
BRANCH  10  23
ATOM     23  O   UNL     1      18.653  -5.971  22.046  1.00  0.00    -0.507 OA
ATOM     24  H   UNL     1      17.723  -5.571  22.117  1.00  0.00     0.293 HD
ENDBRANCH  10  23
BRANCH  11  25
ATOM     25  O   UNL     1      21.669  -3.328  19.337  1.00  0.00    -0.508 OA
ATOM     26  H   UNL     1      21.217  -2.422  19.301  1.00  0.00     0.293 HD
ENDBRANCH  11  25
ENDBRANCH   1   2
BRANCH   1  27
ATOM     27  C   UNL     1      18.037 -11.228  20.108  1.00  0.00     0.339 C 
ATOM     28  C   UNL     1      17.276 -12.492  19.664  1.00  0.00     0.214 C 
ATOM     29  O   UNL     1      19.319 -11.554  20.621  1.00  0.00    -0.332 OA
ATOM     30  C   UNL     1      18.101 -13.321  18.662  1.00  0.00     0.180 C 
ATOM     31  C   UNL     1      20.135 -12.180  19.642  1.00  0.00     0.179 C 
ATOM     32  C   UNL     1      19.526 -13.533  19.206  1.00  0.00     0.177 C 
BRANCH  28  33
ATOM     33  O   UNL     1      16.042 -12.127  19.102  1.00  0.00    -0.384 OA
ATOM     34  H   UNL     1      15.351 -12.304  19.792  1.00  0.00     0.211 HD
ENDBRANCH  28  33
BRANCH  30  35
ATOM     35  O   UNL     1      18.141 -12.666  17.419  1.00  0.00    -0.387 OA
ATOM     36  H   UNL     1      18.594 -11.795  17.564  1.00  0.00     0.211 HD
ENDBRANCH  30  35
BRANCH  31  37
ATOM     37  C   UNL     1      21.543 -12.362  20.232  1.00  0.00     0.191 C 
BRANCH  37  38
ATOM     38  O   UNL     1      21.724 -13.668  20.714  1.00  0.00    -0.394 OA
ATOM     39  H   UNL     1      22.692 -13.874  20.627  1.00  0.00     0.210 HD
ENDBRANCH  37  38
ENDBRANCH  31  37
BRANCH  32  40
ATOM     40  O   UNL     1      20.336 -14.129  18.223  1.00  0.00    -0.387 OA
ATOM     41  H   UNL     1      19.825 -14.094  17.372  1.00  0.00     0.211 HD
ENDBRANCH  32  40
ENDBRANCH   1  27
TORSDOF 12
ENDMDL
MODEL 4
REMARK VINA RESULT:    -6.372      2.024      6.589
REMARK INTER + INTRA:         -10.652
REMARK INTER:                  -9.836
REMARK INTRA:                  -0.816
REMARK UNBOUND:                -1.301
REMARK SMILES O=c1c(O[C@@H]2O[C@@H](CO)[C@H](O)[C@H](O)[C@@H]2O)c(-c2ccc(O)c(O)c2)oc2cc(O)cc(O)c12
REMARK SMILES IDX 4 1 3 2 16 3 25 4 2 5 26 6 1 7 33 8 27 9 31 10 28 11 30 12
REMARK SMILES IDX 17 13 18 14 19 15 20 16 24 17 22 18 21 19 23 21 32 23 29 25
REMARK SMILES IDX 5 27 14 28 6 29 12 30 7 31 10 32 15 33 13 35 8 37 9 38 11 40
REMARK H PARENT 21 20 23 22 32 24 29 26 15 34 13 36 9 39 11 41
REMARK Flexibility Score: inf
ROOT
ATOM      1  O   UNL     1      20.019 -10.723  17.813  1.00  0.00    -0.454 OA
ENDROOT
BRANCH   1   2
ATOM      2  C   UNL     1      19.984 -10.171  19.112  1.00  0.00     0.214 A 
ATOM      3  C   UNL     1      20.401 -10.981  20.188  1.00  0.00     0.180 A 
ATOM      4  O   UNL     1      20.462 -10.485  21.420  1.00  0.00    -0.452 OA
ATOM      5  C   UNL     1      19.589  -8.841  19.395  1.00  0.00     0.239 A 
ATOM      6  C   UNL     1      20.116  -9.243  21.723  1.00  0.00     0.146 A 
ATOM      7  O   UNL     1      19.186  -8.083  18.472  1.00  0.00    -0.285 OA
ATOM      8  C   UNL     1      19.651  -8.361  20.722  1.00  0.00     0.111 A 
ATOM      9  C   UNL     1      20.210  -8.818  23.052  1.00  0.00     0.094 A 
ATOM     10  C   UNL     1      19.278  -7.043  21.086  1.00  0.00     0.134 A 
ATOM     11  C   UNL     1      19.844  -7.519  23.405  1.00  0.00     0.123 A 
ATOM     12  C   UNL     1      19.379  -6.636  22.426  1.00  0.00     0.093 A 
BRANCH   3  13
ATOM     13  C   UNL     1      20.796 -12.390  19.991  1.00  0.00     0.025 A 
ATOM     14  C   UNL     1      21.759 -12.967  20.832  1.00  0.00     0.016 A 
ATOM     15  C   UNL     1      22.125 -14.305  20.671  1.00  0.00     0.051 A 
ATOM     16  C   UNL     1      21.518 -15.090  19.681  1.00  0.00     0.157 A 
ATOM     17  C   UNL     1      20.173 -13.184  19.014  1.00  0.00     0.062 A 
ATOM     18  C   UNL     1      20.536 -14.529  18.855  1.00  0.00     0.158 A 
BRANCH  16  19
ATOM     19  O   UNL     1      21.879 -16.425  19.517  1.00  0.00    -0.504 OA
ATOM     20  H   UNL     1      21.185 -17.146  19.358  1.00  0.00     0.293 HD
ENDBRANCH  16  19
BRANCH  18  21
ATOM     21  O   UNL     1      19.920 -15.316  17.884  1.00  0.00    -0.504 OA
ATOM     22  H   UNL     1      19.384 -16.140  18.133  1.00  0.00     0.293 HD
ENDBRANCH  18  21
ENDBRANCH   3  13
BRANCH  10  23
ATOM     23  O   UNL     1      18.811  -6.138  20.133  1.00  0.00    -0.507 OA
ATOM     24  H   UNL     1      19.053  -6.222  19.152  1.00  0.00     0.293 HD
ENDBRANCH  10  23
BRANCH  11  25
ATOM     25  O   UNL     1      19.945  -7.115  24.736  1.00  0.00    -0.508 OA
ATOM     26  H   UNL     1      20.308  -6.203  24.986  1.00  0.00     0.293 HD
ENDBRANCH  11  25
ENDBRANCH   1   2
BRANCH   1  27
ATOM     27  C   UNL     1      19.200 -10.355  16.697  1.00  0.00     0.339 C 
ATOM     28  C   UNL     1      20.060  -9.874  15.513  1.00  0.00     0.214 C 
ATOM     29  O   UNL     1      18.342 -11.418  16.310  1.00  0.00    -0.332 OA
ATOM     30  C   UNL     1      20.840 -11.038  14.875  1.00  0.00     0.180 C 
ATOM     31  C   UNL     1      19.074 -12.552  15.870  1.00  0.00     0.179 C 
ATOM     32  C   UNL     1      19.889 -12.217  14.598  1.00  0.00     0.177 C 
BRANCH  28  33
ATOM     33  O   UNL     1      20.940  -8.870  15.947  1.00  0.00    -0.384 OA
ATOM     34  H   UNL     1      20.818  -8.788  16.928  1.00  0.00     0.211 HD
ENDBRANCH  28  33
BRANCH  30  35
ATOM     35  O   UNL     1      21.883 -11.437  15.729  1.00  0.00    -0.387 OA
ATOM     36  H   UNL     1      21.665 -11.095  16.634  1.00  0.00     0.211 HD
ENDBRANCH  30  35
BRANCH  31  37
ATOM     37  C   UNL     1      18.081 -13.698  15.614  1.00  0.00     0.191 C 
BRANCH  37  38
ATOM     38  O   UNL     1      18.754 -14.906  15.375  1.00  0.00    -0.394 OA
ATOM     39  H   UNL     1      18.633 -15.467  16.186  1.00  0.00     0.210 HD
ENDBRANCH  37  38
ENDBRANCH  31  37
BRANCH  32  40
ATOM     40  O   UNL     1      20.622 -13.344  14.187  1.00  0.00    -0.387 OA
ATOM     41  H   UNL     1      21.456 -13.005  13.769  1.00  0.00     0.211 HD
ENDBRANCH  32  40
ENDBRANCH   1  27
TORSDOF 12
ENDMDL
MODEL 5
REMARK VINA RESULT:    -6.304      1.301      2.280
REMARK INTER + INTRA:         -10.553
REMARK INTER:                  -8.570
REMARK INTRA:                  -1.983
REMARK UNBOUND:                -1.301
REMARK SMILES O=c1c(O[C@@H]2O[C@@H](CO)[C@H](O)[C@H](O)[C@@H]2O)c(-c2ccc(O)c(O)c2)oc2cc(O)cc(O)c12
REMARK SMILES IDX 4 1 3 2 16 3 25 4 2 5 26 6 1 7 33 8 27 9 31 10 28 11 30 12
REMARK SMILES IDX 17 13 18 14 19 15 20 16 24 17 22 18 21 19 23 21 32 23 29 25
REMARK SMILES IDX 5 27 14 28 6 29 12 30 7 31 10 32 15 33 13 35 8 37 9 38 11 40
REMARK H PARENT 21 20 23 22 32 24 29 26 15 34 13 36 9 39 11 41
REMARK Flexibility Score: inf
ROOT
ATOM      1  O   UNL     1      18.857 -10.515  18.105  1.00  0.00    -0.454 OA
ENDROOT
BRANCH   1   2
ATOM      2  C   UNL     1      19.389 -11.811  17.930  1.00  0.00     0.214 A 
ATOM      3  C   UNL     1      20.145 -12.365  18.982  1.00  0.00     0.180 A 
ATOM      4  O   UNL     1      20.602 -13.610  18.900  1.00  0.00    -0.452 OA
ATOM      5  C   UNL     1      19.178 -12.601  16.774  1.00  0.00     0.239 A 
ATOM      6  C   UNL     1      20.414 -14.387  17.843  1.00  0.00     0.146 A 
ATOM      7  O   UNL     1      18.529 -12.144  15.796  1.00  0.00    -0.285 OA
ATOM      8  C   UNL     1      19.699 -13.913  16.721  1.00  0.00     0.111 A 
ATOM      9  C   UNL     1      20.941 -15.682  17.851  1.00  0.00     0.094 A 
ATOM     10  C   UNL     1      19.528 -14.769  15.604  1.00  0.00     0.134 A 
ATOM     11  C   UNL     1      20.769 -16.521  16.750  1.00  0.00     0.123 A 
ATOM     12  C   UNL     1      20.066 -16.065  15.631  1.00  0.00     0.093 A 
BRANCH   3  13
ATOM     13  C   UNL     1      20.444 -11.600  20.209  1.00  0.00     0.025 A 
ATOM     14  C   UNL     1      21.739 -11.106  20.423  1.00  0.00     0.016 A 
ATOM     15  C   UNL     1      22.030 -10.361  21.569  1.00  0.00     0.051 A 
ATOM     16  C   UNL     1      21.024 -10.083  22.504  1.00  0.00     0.157 A 
ATOM     17  C   UNL     1      19.433 -11.302  21.137  1.00  0.00     0.062 A 
ATOM     18  C   UNL     1      19.722 -10.550  22.285  1.00  0.00     0.158 A 
BRANCH  16  19
ATOM     19  O   UNL     1      21.308  -9.340  23.649  1.00  0.00    -0.504 OA
ATOM     20  H   UNL     1      21.303  -9.763  24.570  1.00  0.00     0.293 HD
ENDBRANCH  16  19
BRANCH  18  21
ATOM     21  O   UNL     1      18.719 -10.255  23.208  1.00  0.00    -0.504 OA
ATOM     22  H   UNL     1      18.632  -9.332  23.617  1.00  0.00     0.293 HD
ENDBRANCH  18  21
ENDBRANCH   3  13
BRANCH  10  23
ATOM     23  O   UNL     1      18.832 -14.344  14.472  1.00  0.00    -0.507 OA
ATOM     24  H   UNL     1      19.032 -14.718  13.550  1.00  0.00     0.293 HD
ENDBRANCH  10  23
BRANCH  11  25
ATOM     25  O   UNL     1      21.302 -17.808  16.778  1.00  0.00    -0.508 OA
ATOM     26  H   UNL     1      21.202 -18.405  17.591  1.00  0.00     0.293 HD
ENDBRANCH  11  25
ENDBRANCH   1   2
BRANCH   1  27
ATOM     27  C   UNL     1      19.438  -9.278  17.678  1.00  0.00     0.339 C 
ATOM     28  C   UNL     1      18.456  -8.475  16.803  1.00  0.00     0.214 C 
ATOM     29  O   UNL     1      19.891  -8.508  18.781  1.00  0.00    -0.332 OA
ATOM     30  C   UNL     1      17.285  -7.924  17.636  1.00  0.00     0.180 C 
ATOM     31  C   UNL     1      18.820  -8.133  19.635  1.00  0.00     0.179 C 
ATOM     32  C   UNL     1      17.823  -7.214  18.892  1.00  0.00     0.177 C 
BRANCH  28  33
ATOM     33  O   UNL     1      17.981  -9.287  15.761  1.00  0.00    -0.384 OA
ATOM     34  H   UNL     1      17.401  -8.715  15.195  1.00  0.00     0.211 HD
ENDBRANCH  28  33
BRANCH  30  35
ATOM     35  O   UNL     1      16.420  -8.972  17.995  1.00  0.00    -0.387 OA
ATOM     36  H   UNL     1      15.587  -8.556  18.339  1.00  0.00     0.211 HD
ENDBRANCH  30  35
BRANCH  31  37
ATOM     37  C   UNL     1      19.411  -7.437  20.872  1.00  0.00     0.191 C 
BRANCH  37  38
ATOM     38  O   UNL     1      18.478  -7.391  21.921  1.00  0.00    -0.394 OA
ATOM     39  H   UNL     1      18.165  -8.321  22.066  1.00  0.00     0.210 HD
ENDBRANCH  37  38
ENDBRANCH  31  37
BRANCH  32  40
ATOM     40  O   UNL     1      16.761  -6.868  19.746  1.00  0.00    -0.387 OA
ATOM     41  H   UNL     1      16.638  -7.629  20.371  1.00  0.00     0.211 HD
ENDBRANCH  32  40
ENDBRANCH   1  27
TORSDOF 12
ENDMDL
MODEL 6
REMARK VINA RESULT:    -6.195      1.939      3.364
REMARK INTER + INTRA:         -10.393
REMARK INTER:                  -8.487
REMARK INTRA:                  -1.906
REMARK UNBOUND:                -1.301
REMARK SMILES O=c1c(O[C@@H]2O[C@@H](CO)[C@H](O)[C@H](O)[C@@H]2O)c(-c2ccc(O)c(O)c2)oc2cc(O)cc(O)c12
REMARK SMILES IDX 4 1 3 2 16 3 25 4 2 5 26 6 1 7 33 8 27 9 31 10 28 11 30 12
REMARK SMILES IDX 17 13 18 14 19 15 20 16 24 17 22 18 21 19 23 21 32 23 29 25
REMARK SMILES IDX 5 27 14 28 6 29 12 30 7 31 10 32 15 33 13 35 8 37 9 38 11 40
REMARK H PARENT 21 20 23 22 32 24 29 26 15 34 13 36 9 39 11 41
REMARK Flexibility Score: inf
ROOT
ATOM      1  O   UNL     1      20.405 -12.609  17.477  1.00  0.00    -0.454 OA
ENDROOT
BRANCH   1   2
ATOM      2  C   UNL     1      20.776 -13.790  18.157  1.00  0.00     0.214 A 
ATOM      3  C   UNL     1      21.019 -13.709  19.543  1.00  0.00     0.180 A 
ATOM      4  O   UNL     1      21.295 -14.803  20.244  1.00  0.00    -0.452 OA
ATOM      5  C   UNL     1      20.885 -15.058  17.536  1.00  0.00     0.239 A 
ATOM      6  C   UNL     1      21.391 -16.009  19.703  1.00  0.00     0.146 A 
ATOM      7  O   UNL     1      20.701 -15.180  16.295  1.00  0.00    -0.285 OA
ATOM      8  C   UNL     1      21.200 -16.192  18.315  1.00  0.00     0.111 A 
ATOM      9  C   UNL     1      21.691 -17.100  20.526  1.00  0.00     0.094 A 
ATOM     10  C   UNL     1      21.322 -17.495  17.771  1.00  0.00     0.134 A 
ATOM     11  C   UNL     1      21.809 -18.380  19.985  1.00  0.00     0.123 A 
ATOM     12  C   UNL     1      21.626 -18.576  18.613  1.00  0.00     0.093 A 
BRANCH   3  13
ATOM     13  C   UNL     1      20.963 -12.423  20.266  1.00  0.00     0.025 A 
ATOM     14  C   UNL     1      22.125 -11.905  20.857  1.00  0.00     0.016 A 
ATOM     15  C   UNL     1      22.091 -10.679  21.525  1.00  0.00     0.051 A 
ATOM     16  C   UNL     1      20.899  -9.943  21.592  1.00  0.00     0.157 A 
ATOM     17  C   UNL     1      19.775 -11.674  20.316  1.00  0.00     0.062 A 
ATOM     18  C   UNL     1      19.741 -10.440  20.981  1.00  0.00     0.158 A 
BRANCH  16  19
ATOM     19  O   UNL     1      20.860  -8.719  22.256  1.00  0.00    -0.504 OA
ATOM     20  H   UNL     1      20.709  -7.850  21.757  1.00  0.00     0.293 HD
ENDBRANCH  16  19
BRANCH  18  21
ATOM     21  O   UNL     1      18.562  -9.698  21.033  1.00  0.00    -0.504 OA
ATOM     22  H   UNL     1      18.161  -9.402  21.916  1.00  0.00     0.293 HD
ENDBRANCH  18  21
ENDBRANCH   3  13
BRANCH  10  23
ATOM     23  O   UNL     1      21.145 -17.725  16.406  1.00  0.00    -0.507 OA
ATOM     24  H   UNL     1      20.444 -18.371  16.059  1.00  0.00     0.293 HD
ENDBRANCH  10  23
BRANCH  11  25
ATOM     25  O   UNL     1      22.110 -19.453  20.823  1.00  0.00    -0.508 OA
ATOM     26  H   UNL     1      21.666 -20.357  20.705  1.00  0.00     0.293 HD
ENDBRANCH  11  25
ENDBRANCH   1   2
BRANCH   1  27
ATOM     27  C   UNL     1      21.248 -11.774  16.674  1.00  0.00     0.339 C 
ATOM     28  C   UNL     1      20.741 -11.708  15.221  1.00  0.00     0.214 C 
ATOM     29  O   UNL     1      21.376 -10.476  17.233  1.00  0.00    -0.332 OA
ATOM     30  C   UNL     1      19.429 -10.908  15.120  1.00  0.00     0.180 C 
ATOM     31  C   UNL     1      20.129  -9.798  17.283  1.00  0.00     0.179 C 
ATOM     32  C   UNL     1      19.577  -9.564  15.857  1.00  0.00     0.177 C 
BRANCH  28  33
ATOM     33  O   UNL     1      20.564 -13.008  14.723  1.00  0.00    -0.384 OA
ATOM     34  H   UNL     1      21.071 -13.615  15.323  1.00  0.00     0.211 HD
ENDBRANCH  28  33
BRANCH  30  35
ATOM     35  O   UNL     1      18.371 -11.655  15.665  1.00  0.00    -0.387 OA
ATOM     36  H   UNL     1      18.707 -12.578  15.801  1.00  0.00     0.211 HD
ENDBRANCH  30  35
BRANCH  31  37
ATOM     37  C   UNL     1      20.331  -8.471  18.032  1.00  0.00     0.191 C 
BRANCH  37  38
ATOM     38  O   UNL     1      19.134  -8.037  18.623  1.00  0.00    -0.394 OA
ATOM     39  H   UNL     1      19.122  -8.401  19.547  1.00  0.00     0.210 HD
ENDBRANCH  37  38
ENDBRANCH  31  37
BRANCH  32  40
ATOM     40  O   UNL     1      18.334  -8.910  15.925  1.00  0.00    -0.387 OA
ATOM     41  H   UNL     1      18.359  -8.332  16.732  1.00  0.00     0.211 HD
ENDBRANCH  32  40
ENDBRANCH   1  27
TORSDOF 12
ENDMDL
MODEL 7
REMARK VINA RESULT:    -6.165      2.457      7.525
REMARK INTER + INTRA:         -10.349
REMARK INTER:                  -8.390
REMARK INTRA:                  -1.959
REMARK UNBOUND:                -1.301
REMARK SMILES O=c1c(O[C@@H]2O[C@@H](CO)[C@H](O)[C@H](O)[C@@H]2O)c(-c2ccc(O)c(O)c2)oc2cc(O)cc(O)c12
REMARK SMILES IDX 4 1 3 2 16 3 25 4 2 5 26 6 1 7 33 8 27 9 31 10 28 11 30 12
REMARK SMILES IDX 17 13 18 14 19 15 20 16 24 17 22 18 21 19 23 21 32 23 29 25
REMARK SMILES IDX 5 27 14 28 6 29 12 30 7 31 10 32 15 33 13 35 8 37 9 38 11 40
REMARK H PARENT 21 20 23 22 32 24 29 26 15 34 13 36 9 39 11 41
REMARK Flexibility Score: inf
ROOT
ATOM      1  O   UNL     1      18.854 -10.442  19.104  1.00  0.00    -0.454 OA
ENDROOT
BRANCH   1   2
ATOM      2  C   UNL     1      19.374  -9.141  19.280  1.00  0.00     0.214 A 
ATOM      3  C   UNL     1      20.137  -8.585  18.232  1.00  0.00     0.180 A 
ATOM      4  O   UNL     1      20.583  -7.337  18.314  1.00  0.00    -0.452 OA
ATOM      5  C   UNL     1      19.146  -8.348  20.429  1.00  0.00     0.239 A 
ATOM      6  C   UNL     1      20.379  -6.557  19.365  1.00  0.00     0.146 A 
ATOM      7  O   UNL     1      18.490  -8.806  21.403  1.00  0.00    -0.285 OA
ATOM      8  C   UNL     1      19.656  -7.032  20.482  1.00  0.00     0.111 A 
ATOM      9  C   UNL     1      20.895  -5.257  19.357  1.00  0.00     0.094 A 
ATOM     10  C   UNL     1      19.467  -6.173  21.594  1.00  0.00     0.134 A 
ATOM     11  C   UNL     1      20.705  -4.415  20.453  1.00  0.00     0.123 A 
ATOM     12  C   UNL     1      19.994  -4.873  21.567  1.00  0.00     0.093 A 
BRANCH   3  13
ATOM     13  C   UNL     1      20.454  -9.353  17.011  1.00  0.00     0.025 A 
ATOM     14  C   UNL     1      21.768  -9.791  16.786  1.00  0.00     0.016 A 
ATOM     15  C   UNL     1      22.077 -10.538  15.647  1.00  0.00     0.051 A 
ATOM     16  C   UNL     1      21.073 -10.875  14.729  1.00  0.00     0.157 A 
ATOM     17  C   UNL     1      19.445  -9.711  16.102  1.00  0.00     0.062 A 
ATOM     18  C   UNL     1      19.754 -10.465  14.961  1.00  0.00     0.158 A 
BRANCH  16  19
ATOM     19  O   UNL     1      21.375 -11.620  13.591  1.00  0.00    -0.504 OA
ATOM     20  H   UNL     1      21.055 -11.338  12.672  1.00  0.00     0.293 HD
ENDBRANCH  16  19
BRANCH  18  21
ATOM     21  O   UNL     1      18.753 -10.819  14.056  1.00  0.00    -0.504 OA
ATOM     22  H   UNL     1      18.825 -11.656  13.488  1.00  0.00     0.293 HD
ENDBRANCH  18  21
ENDBRANCH   3  13
BRANCH  10  23
ATOM     23  O   UNL     1      18.762  -6.598  22.721  1.00  0.00    -0.507 OA
ATOM     24  H   UNL     1      17.768  -6.429  22.824  1.00  0.00     0.293 HD
ENDBRANCH  10  23
BRANCH  11  25
ATOM     25  O   UNL     1      21.229  -3.124  20.424  1.00  0.00    -0.508 OA
ATOM     26  H   UNL     1      20.797  -2.366  20.941  1.00  0.00     0.293 HD
ENDBRANCH  11  25
ENDBRANCH   1   2
BRANCH   1  27
ATOM     27  C   UNL     1      19.441 -11.673  19.544  1.00  0.00     0.339 C 
ATOM     28  C   UNL     1      18.468 -12.463  20.440  1.00  0.00     0.214 C 
ATOM     29  O   UNL     1      19.882 -12.458  18.447  1.00  0.00    -0.332 OA
ATOM     30  C   UNL     1      17.289 -13.027  19.627  1.00  0.00     0.180 C 
ATOM     31  C   UNL     1      18.803 -12.846  17.609  1.00  0.00     0.179 C 
ATOM     32  C   UNL     1      17.814 -13.755  18.376  1.00  0.00     0.177 C 
BRANCH  28  33
ATOM     33  O   UNL     1      18.003 -11.636  21.474  1.00  0.00    -0.384 OA
ATOM     34  H   UNL     1      18.737 -11.001  21.684  1.00  0.00     0.211 HD
ENDBRANCH  28  33
BRANCH  30  35
ATOM     35  O   UNL     1      16.419 -11.984  19.262  1.00  0.00    -0.387 OA
ATOM     36  H   UNL     1      16.836 -11.515  18.493  1.00  0.00     0.211 HD
ENDBRANCH  30  35
BRANCH  31  37
ATOM     37  C   UNL     1      19.381 -13.560  16.376  1.00  0.00     0.191 C 
BRANCH  37  38
ATOM     38  O   UNL     1      18.440 -13.617  15.337  1.00  0.00    -0.394 OA
ATOM     39  H   UNL     1      17.555 -13.417  15.740  1.00  0.00     0.210 HD
ENDBRANCH  37  38
ENDBRANCH  31  37
BRANCH  32  40
ATOM     40  O   UNL     1      16.743 -14.113  17.539  1.00  0.00    -0.387 OA
ATOM     41  H   UNL     1      16.697 -15.105  17.542  1.00  0.00     0.211 HD
ENDBRANCH  32  40
ENDBRANCH   1  27
TORSDOF 12
ENDMDL
MODEL 8
REMARK VINA RESULT:    -6.140      2.619      7.950
REMARK INTER + INTRA:         -10.313
REMARK INTER:                  -8.714
REMARK INTRA:                  -1.598
REMARK UNBOUND:                -1.301
REMARK SMILES O=c1c(O[C@@H]2O[C@@H](CO)[C@H](O)[C@H](O)[C@@H]2O)c(-c2ccc(O)c(O)c2)oc2cc(O)cc(O)c12
REMARK SMILES IDX 4 1 3 2 16 3 25 4 2 5 26 6 1 7 33 8 27 9 31 10 28 11 30 12
REMARK SMILES IDX 17 13 18 14 19 15 20 16 24 17 22 18 21 19 23 21 32 23 29 25
REMARK SMILES IDX 5 27 14 28 6 29 12 30 7 31 10 32 15 33 13 35 8 37 9 38 11 40
REMARK H PARENT 21 20 23 22 32 24 29 26 15 34 13 36 9 39 11 41
REMARK Flexibility Score: inf
ROOT
ATOM      1  O   UNL     1      20.087  -8.846  19.590  1.00  0.00    -0.454 OA
ENDROOT
BRANCH   1   2
ATOM      2  C   UNL     1      20.524  -7.612  19.061  1.00  0.00     0.214 A 
ATOM      3  C   UNL     1      20.884  -7.564  17.699  1.00  0.00     0.180 A 
ATOM      4  O   UNL     1      21.227  -6.412  17.133  1.00  0.00    -0.452 OA
ATOM      5  C   UNL     1      20.589  -6.411  19.808  1.00  0.00     0.239 A 
ATOM      6  C   UNL     1      21.286  -5.265  17.794  1.00  0.00     0.146 A 
ATOM      7  O   UNL     1      20.300  -6.404  21.035  1.00  0.00    -0.285 OA
ATOM      8  C   UNL     1      20.978  -5.212  19.172  1.00  0.00     0.111 A 
ATOM      9  C   UNL     1      21.664  -4.106  17.108  1.00  0.00     0.094 A 
ATOM     10  C   UNL     1      21.063  -3.969  19.847  1.00  0.00     0.134 A 
ATOM     11  C   UNL     1      21.745  -2.884  17.778  1.00  0.00     0.123 A 
ATOM     12  C   UNL     1      21.446  -2.818  19.142  1.00  0.00     0.093 A 
BRANCH   3  13
ATOM     13  C   UNL     1      20.880  -8.774  16.852  1.00  0.00     0.025 A 
ATOM     14  C   UNL     1      22.060  -9.179  16.211  1.00  0.00     0.016 A 
ATOM     15  C   UNL     1      22.075 -10.334  15.426  1.00  0.00     0.051 A 
ATOM     16  C   UNL     1      20.917 -11.111  15.290  1.00  0.00     0.157 A 
ATOM     17  C   UNL     1      19.726  -9.566  16.732  1.00  0.00     0.062 A 
ATOM     18  C   UNL     1      19.742 -10.729  15.949  1.00  0.00     0.158 A 
BRANCH  16  19
ATOM     19  O   UNL     1      20.927 -12.265  14.508  1.00  0.00    -0.504 OA
ATOM     20  H   UNL     1      20.586 -13.150  14.865  1.00  0.00     0.293 HD
ENDBRANCH  16  19
BRANCH  18  21
ATOM     21  O   UNL     1      18.597 -11.514  15.827  1.00  0.00    -0.504 OA
ATOM     22  H   UNL     1      18.171 -11.958  16.633  1.00  0.00     0.293 HD
ENDBRANCH  18  21
ENDBRANCH   3  13
BRANCH  10  23
ATOM     23  O   UNL     1      20.772  -3.868  21.208  1.00  0.00    -0.507 OA
ATOM     24  H   UNL     1      19.964  -3.356  21.545  1.00  0.00     0.293 HD
ENDBRANCH  10  23
BRANCH  11  25
ATOM     25  O   UNL     1      22.125  -1.742  17.077  1.00  0.00    -0.508 OA
ATOM     26  H   UNL     1      21.786  -1.559  16.139  1.00  0.00     0.293 HD
ENDBRANCH  11  25
ENDBRANCH   1   2
BRANCH   1  27
ATOM     27  C   UNL     1      20.726  -9.624  20.608  1.00  0.00     0.339 C 
ATOM     28  C   UNL     1      19.718 -10.061  21.688  1.00  0.00     0.214 C 
ATOM     29  O   UNL     1      21.406 -10.741  20.058  1.00  0.00    -0.332 OA
ATOM     30  C   UNL     1      18.739 -11.118  21.147  1.00  0.00     0.180 C 
ATOM     31  C   UNL     1      20.511 -11.640  19.419  1.00  0.00     0.179 C 
ATOM     32  C   UNL     1      19.519 -12.243  20.441  1.00  0.00     0.177 C 
BRANCH  28  33
ATOM     33  O   UNL     1      19.020  -8.939  22.162  1.00  0.00    -0.384 OA
ATOM     34  H   UNL     1      18.354  -8.701  21.465  1.00  0.00     0.211 HD
ENDBRANCH  28  33
BRANCH  30  35
ATOM     35  O   UNL     1      17.830 -10.516  20.259  1.00  0.00    -0.387 OA
ATOM     36  H   UNL     1      16.947 -10.505  20.710  1.00  0.00     0.211 HD
ENDBRANCH  30  35
BRANCH  31  37
ATOM     37  C   UNL     1      21.339 -12.735  18.727  1.00  0.00     0.191 C 
BRANCH  37  38
ATOM     38  O   UNL     1      20.540 -13.509  17.871  1.00  0.00    -0.394 OA
ATOM     39  H   UNL     1      20.092 -14.192  18.435  1.00  0.00     0.210 HD
ENDBRANCH  37  38
ENDBRANCH  31  37
BRANCH  32  40
ATOM     40  O   UNL     1      18.629 -13.114  19.789  1.00  0.00    -0.387 OA
ATOM     41  H   UNL     1      18.889 -14.036  20.050  1.00  0.00     0.211 HD
ENDBRANCH  32  40
ENDBRANCH   1  27
TORSDOF 12
ENDMDL
MODEL 9
REMARK VINA RESULT:    -5.838      1.955      6.778
REMARK INTER + INTRA:          -9.869
REMARK INTER:                  -8.728
REMARK INTRA:                  -1.140
REMARK UNBOUND:                -1.301
REMARK SMILES O=c1c(O[C@@H]2O[C@@H](CO)[C@H](O)[C@H](O)[C@@H]2O)c(-c2ccc(O)c(O)c2)oc2cc(O)cc(O)c12
REMARK SMILES IDX 4 1 3 2 16 3 25 4 2 5 26 6 1 7 33 8 27 9 31 10 28 11 30 12
REMARK SMILES IDX 17 13 18 14 19 15 20 16 24 17 22 18 21 19 23 21 32 23 29 25
REMARK SMILES IDX 5 27 14 28 6 29 12 30 7 31 10 32 15 33 13 35 8 37 9 38 11 40
REMARK H PARENT 21 20 23 22 32 24 29 26 15 34 13 36 9 39 11 41
REMARK Flexibility Score: inf
ROOT
ATOM      1  O   UNL     1      20.998  -9.187  18.586  1.00  0.00    -0.454 OA
ENDROOT
BRANCH   1   2
ATOM      2  C   UNL     1      20.723  -9.005  19.959  1.00  0.00     0.214 A 
ATOM      3  C   UNL     1      20.575 -10.153  20.764  1.00  0.00     0.180 A 
ATOM      4  O   UNL     1      20.393 -10.038  22.075  1.00  0.00    -0.452 OA
ATOM      5  C   UNL     1      20.623  -7.738  20.584  1.00  0.00     0.239 A 
ATOM      6  C   UNL     1      20.309  -8.872  22.699  1.00  0.00     0.146 A 
ATOM      7  O   UNL     1      20.725  -6.681  19.906  1.00  0.00    -0.285 OA
ATOM      8  C   UNL     1      20.410  -7.661  21.977  1.00  0.00     0.111 A 
ATOM      9  C   UNL     1      20.111  -8.856  24.084  1.00  0.00     0.094 A 
ATOM     10  C   UNL     1      20.303  -6.434  22.677  1.00  0.00     0.134 A 
ATOM     11  C   UNL     1      20.009  -7.645  24.768  1.00  0.00     0.123 A 
ATOM     12  C   UNL     1      20.103  -6.439  24.067  1.00  0.00     0.093 A 
BRANCH   3  13
ATOM     13  C   UNL     1      20.629 -11.513  20.192  1.00  0.00     0.025 A 
ATOM     14  C   UNL     1      21.832 -12.235  20.225  1.00  0.00     0.016 A 
ATOM     15  C   UNL     1      21.891 -13.531  19.708  1.00  0.00     0.051 A 
ATOM     16  C   UNL     1      20.744 -14.131  19.172  1.00  0.00     0.157 A 
ATOM     17  C   UNL     1      19.476 -12.125  19.675  1.00  0.00     0.062 A 
ATOM     18  C   UNL     1      19.532 -13.428  19.161  1.00  0.00     0.158 A 
BRANCH  16  19
ATOM     19  O   UNL     1      20.797 -15.424  18.656  1.00  0.00    -0.504 OA
ATOM     20  H   UNL     1      21.583 -15.741  18.101  1.00  0.00     0.293 HD
ENDBRANCH  16  19
BRANCH  18  21
ATOM     21  O   UNL     1      18.388 -14.035  18.645  1.00  0.00    -0.504 OA
ATOM     22  H   UNL     1      18.280 -14.201  17.650  1.00  0.00     0.293 HD
ENDBRANCH  18  21
ENDBRANCH   3  13
BRANCH  10  23
ATOM     23  O   UNL     1      20.393  -5.213  22.008  1.00  0.00    -0.507 OA
ATOM     24  H   UNL     1      21.093  -4.520  22.251  1.00  0.00     0.293 HD
ENDBRANCH  10  23
BRANCH  11  25
ATOM     25  O   UNL     1      19.810  -7.651  26.148  1.00  0.00    -0.508 OA
ATOM     26  H   UNL     1      19.234  -8.354  26.596  1.00  0.00     0.293 HD
ENDBRANCH  11  25
ENDBRANCH   1   2
BRANCH   1  27
ATOM     27  C   UNL     1      20.341  -8.552  17.483  1.00  0.00     0.339 C 
ATOM     28  C   UNL     1      20.727  -9.220  16.149  1.00  0.00     0.214 C 
ATOM     29  O   UNL     1      18.933  -8.532  17.659  1.00  0.00    -0.332 OA
ATOM     30  C   UNL     1      20.113 -10.626  16.027  1.00  0.00     0.180 C 
ATOM     31  C   UNL     1      18.389  -9.843  17.704  1.00  0.00     0.179 C 
ATOM     32  C   UNL     1      18.610 -10.573  16.359  1.00  0.00     0.177 C 
BRANCH  28  33
ATOM     33  O   UNL     1      22.125  -9.281  16.039  1.00  0.00    -0.384 OA
ATOM     34  H   UNL     1      22.490  -8.580  16.640  1.00  0.00     0.211 HD
ENDBRANCH  28  33
BRANCH  30  35
ATOM     35  O   UNL     1      20.777 -11.513  16.892  1.00  0.00    -0.387 OA
ATOM     36  H   UNL     1      20.208 -12.323  16.972  1.00  0.00     0.211 HD
ENDBRANCH  30  35
BRANCH  31  37
ATOM     37  C   UNL     1      16.893  -9.733  18.044  1.00  0.00     0.191 C 
BRANCH  37  38
ATOM     38  O   UNL     1      16.410 -10.930  18.595  1.00  0.00    -0.394 OA
ATOM     39  H   UNL     1      15.821 -10.680  19.354  1.00  0.00     0.210 HD
ENDBRANCH  37  38
ENDBRANCH  31  37
BRANCH  32  40
ATOM     40  O   UNL     1      18.083 -11.875  16.427  1.00  0.00    -0.387 OA
ATOM     41  H   UNL     1      18.299 -12.316  15.565  1.00  0.00     0.211 HD
ENDBRANCH  32  40
ENDBRANCH   1  27
TORSDOF 12
ENDMDL
