MODEL 1
REMARK VINA RESULT:    -8.724      0.000      0.000
REMARK INTER + INTRA:         -11.002
REMARK INTER:                 -10.764
REMARK INTRA:                  -0.237
REMARK UNBOUND:                -0.237
REMARK SMILES Oc1cc(O)c2cc(O)c(-c3cc(O)c(O)c(O)c3)[o+]c2c1
REMARK SMILES IDX 10 1 20 2 21 3 22 4 2 5 3 6 4 7 6 8 7 9 8 10 11 11 12 12
REMARK SMILES IDX 13 13 19 14 15 15 17 16 14 17 16 19 18 21 9 23 1 25 5 27
REMARK H PARENT 14 18 16 20 18 22 9 24 1 26 5 28
REMARK Flexibility Score: inf
ROOT
ATOM      1  C   UNL     1      57.995  -0.965  15.679  1.00  0.00     0.402 A 
ATOM      2  O   UNL     1      58.009  -0.575  16.952  1.00  0.00    -0.202 OA
ATOM      3  C   UNL     1      58.029   0.700  17.323  1.00  0.00     0.368 A 
ATOM      4  C   UNL     1      58.044   1.011  18.686  1.00  0.00     0.162 A 
ATOM      5  C   UNL     1      58.068   2.345  19.106  1.00  0.00     0.128 A 
ATOM      6  C   UNL     1      58.079   3.371  18.159  1.00  0.00     0.093 A 
ATOM      7  C   UNL     1      58.064   3.086  16.787  1.00  0.00     0.136 A 
ATOM      8  C   UNL     1      58.037   1.734  16.356  1.00  0.00     0.125 A 
ATOM      9  C   UNL     1      58.008   1.355  15.004  1.00  0.00     0.078 A 
ATOM     10  C   UNL     1      57.976   0.001  14.656  1.00  0.00     0.223 A 
ENDROOT
BRANCH   1  11
ATOM     11  C   UNL     1      57.983  -2.418  15.392  1.00  0.00     0.091 A 
ATOM     12  C   UNL     1      59.071  -3.238  15.727  1.00  0.00     0.068 A 
ATOM     13  C   UNL     1      59.040  -4.615  15.472  1.00  0.00     0.162 A 
ATOM     14  C   UNL     1      56.840  -2.998  14.826  1.00  0.00     0.068 A 
ATOM     15  C   UNL     1      57.893  -5.190  14.875  1.00  0.00     0.200 A 
ATOM     16  C   UNL     1      56.794  -4.369  14.561  1.00  0.00     0.162 A 
BRANCH  13  17
ATOM     17  O   UNL     1      60.161  -5.366  15.832  1.00  0.00    -0.504 OA
ATOM     18  H   UNL     1      61.052  -5.315  15.362  1.00  0.00     0.293 HD
ENDBRANCH  13  17
BRANCH  15  19
ATOM     19  O   UNL     1      57.808  -6.555  14.586  1.00  0.00    -0.502 OA
ATOM     20  H   UNL     1      58.250  -7.279  15.133  1.00  0.00     0.293 HD
ENDBRANCH  15  19
BRANCH  16  21
ATOM     21  O   UNL     1      55.641  -4.901  13.982  1.00  0.00    -0.504 OA
ATOM     22  H   UNL     1      55.652  -5.366  13.082  1.00  0.00     0.293 HD
ENDBRANCH  16  21
ENDBRANCH   1  11
BRANCH  10  23
ATOM     23  O   UNL     1      57.897  -0.375  13.316  1.00  0.00    -0.500 OA
ATOM     24  H   UNL     1      57.086  -0.854  12.944  1.00  0.00     0.294 HD
ENDBRANCH  10  23
BRANCH   5  25
ATOM     25  O   UNL     1      58.083   2.661  20.461  1.00  0.00    -0.507 OA
ATOM     26  H   UNL     1      58.952   2.757  20.974  1.00  0.00     0.293 HD
ENDBRANCH   5  25
BRANCH   7  27
ATOM     27  O   UNL     1      58.081   4.169  15.905  1.00  0.00    -0.507 OA
ATOM     28  H   UNL     1      57.292   4.774  15.728  1.00  0.00     0.293 HD
ENDBRANCH   7  27
TORSDOF 7
ENDMDL
MODEL 2
REMARK VINA RESULT:    -8.067      1.048      3.152
REMARK INTER + INTRA:         -10.191
REMARK INTER:                 -10.028
REMARK INTRA:                  -0.162
REMARK UNBOUND:                -0.237
REMARK SMILES Oc1cc(O)c2cc(O)c(-c3cc(O)c(O)c(O)c3)[o+]c2c1
REMARK SMILES IDX 10 1 20 2 21 3 22 4 2 5 3 6 4 7 6 8 7 9 8 10 11 11 12 12
REMARK SMILES IDX 13 13 19 14 15 15 17 16 14 17 16 19 18 21 9 23 1 25 5 27
REMARK H PARENT 14 18 16 20 18 22 9 24 1 26 5 28
REMARK Flexibility Score: inf
ROOT
ATOM      1  C   UNL     1      58.201  -1.170  16.873  1.00  0.00     0.402 A 
ATOM      2  O   UNL     1      58.098  -0.100  16.088  1.00  0.00    -0.202 OA
ATOM      3  C   UNL     1      58.104   1.146  16.549  1.00  0.00     0.368 A 
ATOM      4  C   UNL     1      57.988   2.206  15.644  1.00  0.00     0.162 A 
ATOM      5  C   UNL     1      57.988   3.527  16.102  1.00  0.00     0.128 A 
ATOM      6  C   UNL     1      58.104   3.789  17.468  1.00  0.00     0.093 A 
ATOM      7  C   UNL     1      58.221   2.745  18.395  1.00  0.00     0.136 A 
ATOM      8  C   UNL     1      58.224   1.403  17.936  1.00  0.00     0.125 A 
ATOM      9  C   UNL     1      58.351   0.294  18.789  1.00  0.00     0.078 A 
ATOM     10  C   UNL     1      58.351  -1.000  18.262  1.00  0.00     0.223 A 
ENDROOT
BRANCH   1  11
ATOM     11  C   UNL     1      58.172  -2.508  16.241  1.00  0.00     0.091 A 
ATOM     12  C   UNL     1      57.071  -2.934  15.482  1.00  0.00     0.068 A 
ATOM     13  C   UNL     1      57.064  -4.193  14.868  1.00  0.00     0.162 A 
ATOM     14  C   UNL     1      59.289  -3.347  16.353  1.00  0.00     0.068 A 
ATOM     15  C   UNL     1      58.184  -5.046  15.008  1.00  0.00     0.200 A 
ATOM     16  C   UNL     1      59.297  -4.608  15.751  1.00  0.00     0.162 A 
BRANCH  13  17
ATOM     17  O   UNL     1      55.933  -4.547  14.130  1.00  0.00    -0.504 OA
ATOM     18  H   UNL     1      55.546  -5.478  14.097  1.00  0.00     0.293 HD
ENDBRANCH  13  17
BRANCH  15  19
ATOM     19  O   UNL     1      58.230  -6.318  14.430  1.00  0.00    -0.502 OA
ATOM     20  H   UNL     1      59.075  -6.854  14.304  1.00  0.00     0.293 HD
ENDBRANCH  15  19
BRANCH  16  21
ATOM     21  O   UNL     1      60.424  -5.416  15.903  1.00  0.00    -0.504 OA
ATOM     22  H   UNL     1      61.346  -5.032  16.073  1.00  0.00     0.293 HD
ENDBRANCH  16  21
ENDBRANCH   1  11
BRANCH  10  23
ATOM     23  O   UNL     1      58.526  -2.098  19.104  1.00  0.00    -0.500 OA
ATOM     24  H   UNL     1      57.970  -2.221  19.942  1.00  0.00     0.294 HD
ENDBRANCH  10  23
BRANCH   5  25
ATOM     25  O   UNL     1      57.873   4.587  15.207  1.00  0.00    -0.507 OA
ATOM     26  H   UNL     1      58.211   4.516  14.254  1.00  0.00     0.293 HD
ENDBRANCH   5  25
BRANCH   7  27
ATOM     27  O   UNL     1      58.329   3.092  19.745  1.00  0.00    -0.507 OA
ATOM     28  H   UNL     1      59.158   2.957  20.304  1.00  0.00     0.293 HD
ENDBRANCH   7  27
TORSDOF 7
ENDMDL
MODEL 3
REMARK VINA RESULT:    -7.353      3.029      4.827
REMARK INTER + INTRA:          -9.310
REMARK INTER:                  -9.205
REMARK INTRA:                  -0.104
REMARK UNBOUND:                -0.237
REMARK SMILES Oc1cc(O)c2cc(O)c(-c3cc(O)c(O)c(O)c3)[o+]c2c1
REMARK SMILES IDX 10 1 20 2 21 3 22 4 2 5 3 6 4 7 6 8 7 9 8 10 11 11 12 12
REMARK SMILES IDX 13 13 19 14 15 15 17 16 14 17 16 19 18 21 9 23 1 25 5 27
REMARK H PARENT 14 18 16 20 18 22 9 24 1 26 5 28
REMARK Flexibility Score: inf
ROOT
ATOM      1  C   UNL     1      59.665  -0.794  15.051  1.00  0.00     0.402 A 
ATOM      2  O   UNL     1      59.520   0.386  15.651  1.00  0.00    -0.202 OA
ATOM      3  C   UNL     1      59.039   0.525  16.881  1.00  0.00     0.368 A 
ATOM      4  C   UNL     1      58.922   1.807  17.425  1.00  0.00     0.162 A 
ATOM      5  C   UNL     1      58.417   1.983  18.717  1.00  0.00     0.128 A 
ATOM      6  C   UNL     1      58.026   0.871  19.467  1.00  0.00     0.093 A 
ATOM      7  C   UNL     1      58.132  -0.424  18.945  1.00  0.00     0.136 A 
ATOM      8  C   UNL     1      58.647  -0.608  17.635  1.00  0.00     0.125 A 
ATOM      9  C   UNL     1      58.802  -1.868  17.036  1.00  0.00     0.078 A 
ATOM     10  C   UNL     1      59.323  -1.971  15.743  1.00  0.00     0.223 A 
ENDROOT
BRANCH   1  11
ATOM     11  C   UNL     1      60.203  -0.817  13.672  1.00  0.00     0.091 A 
ATOM     12  C   UNL     1      59.611  -0.069  12.643  1.00  0.00     0.068 A 
ATOM     13  C   UNL     1      60.142  -0.080  11.348  1.00  0.00     0.162 A 
ATOM     14  C   UNL     1      61.362  -1.556  13.398  1.00  0.00     0.068 A 
ATOM     15  C   UNL     1      61.297  -0.850  11.072  1.00  0.00     0.200 A 
ATOM     16  C   UNL     1      61.903  -1.582  12.110  1.00  0.00     0.162 A 
BRANCH  13  17
ATOM     17  O   UNL     1      59.497   0.689  10.377  1.00  0.00    -0.504 OA
ATOM     18  H   UNL     1      59.935   1.442   9.866  1.00  0.00     0.293 HD
ENDBRANCH  13  17
BRANCH  15  19
ATOM     19  O   UNL     1      61.865  -0.910   9.796  1.00  0.00    -0.502 OA
ATOM     20  H   UNL     1      62.239  -0.113   9.303  1.00  0.00     0.293 HD
ENDBRANCH  15  19
BRANCH  16  21
ATOM     21  O   UNL     1      63.049  -2.344  11.880  1.00  0.00    -0.504 OA
ATOM     22  H   UNL     1      63.633  -2.685  12.634  1.00  0.00     0.293 HD
ENDBRANCH  16  21
ENDBRANCH   1  11
BRANCH  10  23
ATOM     23  O   UNL     1      59.523  -3.225  15.166  1.00  0.00    -0.500 OA
ATOM     24  H   UNL     1      59.365  -4.081  15.685  1.00  0.00     0.294 HD
ENDBRANCH  10  23
BRANCH   5  25
ATOM     25  O   UNL     1      58.298   3.257  19.265  1.00  0.00    -0.507 OA
ATOM     26  H   UNL     1      57.869   3.407  20.171  1.00  0.00     0.293 HD
ENDBRANCH   5  25
BRANCH   7  27
ATOM     27  O   UNL     1      57.716  -1.482  19.758  1.00  0.00    -0.507 OA
ATOM     28  H   UNL     1      58.313  -1.973  20.406  1.00  0.00     0.293 HD
ENDBRANCH   7  27
TORSDOF 7
ENDMDL
MODEL 4
REMARK VINA RESULT:    -7.325      1.105      7.029
REMARK INTER + INTRA:          -9.276
REMARK INTER:                  -9.056
REMARK INTRA:                  -0.220
REMARK UNBOUND:                -0.237
REMARK SMILES Oc1cc(O)c2cc(O)c(-c3cc(O)c(O)c(O)c3)[o+]c2c1
REMARK SMILES IDX 10 1 20 2 21 3 22 4 2 5 3 6 4 7 6 8 7 9 8 10 11 11 12 12
REMARK SMILES IDX 13 13 19 14 15 15 17 16 14 17 16 19 18 21 9 23 1 25 5 27
REMARK H PARENT 14 18 16 20 18 22 9 24 1 26 5 28
REMARK Flexibility Score: inf
ROOT
ATOM      1  C   UNL     1      57.506  -0.534  16.215  1.00  0.00     0.402 A 
ATOM      2  O   UNL     1      58.497  -1.411  16.369  1.00  0.00    -0.202 OA
ATOM      3  C   UNL     1      58.453  -2.651  15.895  1.00  0.00     0.368 A 
ATOM      4  C   UNL     1      59.543  -3.499  16.109  1.00  0.00     0.162 A 
ATOM      5  C   UNL     1      59.523  -4.811  15.624  1.00  0.00     0.128 A 
ATOM      6  C   UNL     1      58.408  -5.275  14.923  1.00  0.00     0.093 A 
ATOM      7  C   UNL     1      57.303  -4.445  14.695  1.00  0.00     0.136 A 
ATOM      8  C   UNL     1      57.319  -3.113  15.183  1.00  0.00     0.125 A 
ATOM      9  C   UNL     1      56.264  -2.206  14.991  1.00  0.00     0.078 A 
ATOM     10  C   UNL     1      56.354  -0.906  15.496  1.00  0.00     0.223 A 
ENDROOT
BRANCH   1  11
ATOM     11  C   UNL     1      57.669   0.817  16.798  1.00  0.00     0.091 A 
ATOM     12  C   UNL     1      57.779   1.006  18.184  1.00  0.00     0.068 A 
ATOM     13  C   UNL     1      57.957   2.285  18.725  1.00  0.00     0.162 A 
ATOM     14  C   UNL     1      57.774   1.926  15.949  1.00  0.00     0.068 A 
ATOM     15  C   UNL     1      58.034   3.405  17.861  1.00  0.00     0.200 A 
ATOM     16  C   UNL     1      57.947   3.210  16.470  1.00  0.00     0.162 A 
BRANCH  13  17
ATOM     17  O   UNL     1      58.058   2.394  20.113  1.00  0.00    -0.504 OA
ATOM     18  H   UNL     1      58.881   2.717  20.599  1.00  0.00     0.293 HD
ENDBRANCH  13  17
BRANCH  15  19
ATOM     19  O   UNL     1      58.199   4.707  18.342  1.00  0.00    -0.502 OA
ATOM     20  H   UNL     1      57.994   5.539  17.809  1.00  0.00     0.293 HD
ENDBRANCH  15  19
BRANCH  16  21
ATOM     21  O   UNL     1      58.029   4.287  15.587  1.00  0.00    -0.504 OA
ATOM     22  H   UNL     1      58.631   5.084  15.759  1.00  0.00     0.293 HD
ENDBRANCH  16  21
ENDBRANCH   1  11
BRANCH  10  23
ATOM     23  O   UNL     1      55.328   0.008  15.263  1.00  0.00    -0.500 OA
ATOM     24  H   UNL     1      55.073   0.708  15.949  1.00  0.00     0.294 HD
ENDBRANCH  10  23
BRANCH   5  25
ATOM     25  O   UNL     1      60.606  -5.661  15.834  1.00  0.00    -0.507 OA
ATOM     26  H   UNL     1      61.534  -5.428  15.502  1.00  0.00     0.293 HD
ENDBRANCH   5  25
BRANCH   7  27
ATOM     27  O   UNL     1      56.226  -4.987  13.989  1.00  0.00    -0.507 OA
ATOM     28  H   UNL     1      55.862  -4.612  13.126  1.00  0.00     0.293 HD
ENDBRANCH   7  27
TORSDOF 7
ENDMDL
MODEL 5
REMARK VINA RESULT:    -7.290      4.022      5.555
REMARK INTER + INTRA:          -9.232
REMARK INTER:                  -8.922
REMARK INTRA:                  -0.310
REMARK UNBOUND:                -0.237
REMARK SMILES Oc1cc(O)c2cc(O)c(-c3cc(O)c(O)c(O)c3)[o+]c2c1
REMARK SMILES IDX 10 1 20 2 21 3 22 4 2 5 3 6 4 7 6 8 7 9 8 10 11 11 12 12
REMARK SMILES IDX 13 13 19 14 15 15 17 16 14 17 16 19 18 21 9 23 1 25 5 27
REMARK H PARENT 14 18 16 20 18 22 9 24 1 26 5 28
REMARK Flexibility Score: inf
ROOT
ATOM      1  C   UNL     1      60.032  -0.234  13.605  1.00  0.00     0.402 A 
ATOM      2  O   UNL     1      60.292  -0.571  14.866  1.00  0.00    -0.202 OA
ATOM      3  C   UNL     1      59.365  -0.608  15.817  1.00  0.00     0.368 A 
ATOM      4  C   UNL     1      59.737  -0.972  17.115  1.00  0.00     0.162 A 
ATOM      5  C   UNL     1      58.783  -1.016  18.135  1.00  0.00     0.128 A 
ATOM      6  C   UNL     1      57.452  -0.694  17.858  1.00  0.00     0.093 A 
ATOM      7  C   UNL     1      57.055  -0.325  16.566  1.00  0.00     0.136 A 
ATOM      8  C   UNL     1      58.019  -0.281  15.526  1.00  0.00     0.125 A 
ATOM      9  C   UNL     1      57.710   0.063  14.200  1.00  0.00     0.078 A 
ATOM     10  C   UNL     1      58.713   0.079  13.227  1.00  0.00     0.223 A 
ENDROOT
BRANCH   1  11
ATOM     11  C   UNL     1      61.154  -0.220  12.638  1.00  0.00     0.091 A 
ATOM     12  C   UNL     1      61.699  -1.412  12.135  1.00  0.00     0.068 A 
ATOM     13  C   UNL     1      62.744  -1.388  11.203  1.00  0.00     0.162 A 
ATOM     14  C   UNL     1      61.644   1.005  12.169  1.00  0.00     0.068 A 
ATOM     15  C   UNL     1      63.253  -0.146  10.754  1.00  0.00     0.200 A 
ATOM     16  C   UNL     1      62.689   1.047  11.242  1.00  0.00     0.162 A 
BRANCH  13  17
ATOM     17  O   UNL     1      63.236  -2.614  10.750  1.00  0.00    -0.504 OA
ATOM     18  H   UNL     1      62.942  -3.061   9.894  1.00  0.00     0.293 HD
ENDBRANCH  13  17
BRANCH  15  19
ATOM     19  O   UNL     1      64.303  -0.059   9.835  1.00  0.00    -0.502 OA
ATOM     20  H   UNL     1      65.268   0.090  10.089  1.00  0.00     0.293 HD
ENDBRANCH  15  19
BRANCH  16  21
ATOM     21  O   UNL     1      63.157   2.291  10.816  1.00  0.00    -0.504 OA
ATOM     22  H   UNL     1      64.140   2.535  10.833  1.00  0.00     0.293 HD
ENDBRANCH  16  21
ENDBRANCH   1  11
BRANCH  10  23
ATOM     23  O   UNL     1      58.398   0.374  11.901  1.00  0.00    -0.500 OA
ATOM     24  H   UNL     1      57.550   0.869  11.653  1.00  0.00     0.294 HD
ENDBRANCH  10  23
BRANCH   5  25
ATOM     25  O   UNL     1      59.145  -1.379  19.430  1.00  0.00    -0.507 OA
ATOM     26  H   UNL     1      59.211  -0.693  20.173  1.00  0.00     0.293 HD
ENDBRANCH   5  25
BRANCH   7  27
ATOM     27  O   UNL     1      55.706  -0.014  16.372  1.00  0.00    -0.507 OA
ATOM     28  H   UNL     1      55.348   0.507  15.586  1.00  0.00     0.293 HD
ENDBRANCH   7  27
TORSDOF 7
ENDMDL
MODEL 6
REMARK VINA RESULT:    -7.286      3.856      6.583
REMARK INTER + INTRA:          -9.227
REMARK INTER:                  -8.978
REMARK INTRA:                  -0.248
REMARK UNBOUND:                -0.237
REMARK SMILES Oc1cc(O)c2cc(O)c(-c3cc(O)c(O)c(O)c3)[o+]c2c1
REMARK SMILES IDX 10 1 20 2 21 3 22 4 2 5 3 6 4 7 6 8 7 9 8 10 11 11 12 12
REMARK SMILES IDX 13 13 19 14 15 15 17 16 14 17 16 19 18 21 9 23 1 25 5 27
REMARK H PARENT 14 18 16 20 18 22 9 24 1 26 5 28
REMARK Flexibility Score: inf
ROOT
ATOM      1  C   UNL     1      60.061  -1.141  14.493  1.00  0.00     0.402 A 
ATOM      2  O   UNL     1      60.555  -0.069  13.878  1.00  0.00    -0.202 OA
ATOM      3  C   UNL     1      61.400  -0.140  12.855  1.00  0.00     0.368 A 
ATOM      4  C   UNL     1      61.867   1.044  12.276  1.00  0.00     0.162 A 
ATOM      5  C   UNL     1      62.759   0.999  11.200  1.00  0.00     0.128 A 
ATOM      6  C   UNL     1      63.186  -0.234  10.702  1.00  0.00     0.093 A 
ATOM      7  C   UNL     1      62.733  -1.434  11.265  1.00  0.00     0.136 A 
ATOM      8  C   UNL     1      61.826  -1.394  12.355  1.00  0.00     0.125 A 
ATOM      9  C   UNL     1      61.309  -2.545  12.973  1.00  0.00     0.078 A 
ATOM     10  C   UNL     1      60.414  -2.426  14.040  1.00  0.00     0.223 A 
ENDROOT
BRANCH   1  11
ATOM     11  C   UNL     1      59.134  -0.932  15.629  1.00  0.00     0.091 A 
ATOM     12  C   UNL     1      57.853  -0.393  15.436  1.00  0.00     0.068 A 
ATOM     13  C   UNL     1      56.975  -0.221  16.514  1.00  0.00     0.162 A 
ATOM     14  C   UNL     1      59.519  -1.333  16.915  1.00  0.00     0.068 A 
ATOM     15  C   UNL     1      57.382  -0.603  17.815  1.00  0.00     0.200 A 
ATOM     16  C   UNL     1      58.658  -1.164  18.002  1.00  0.00     0.162 A 
BRANCH  13  17
ATOM     17  O   UNL     1      55.717   0.322  16.245  1.00  0.00    -0.504 OA
ATOM     18  H   UNL     1      54.925  -0.214  15.924  1.00  0.00     0.293 HD
ENDBRANCH  13  17
BRANCH  15  19
ATOM     19  O   UNL     1      56.555  -0.444  18.931  1.00  0.00    -0.502 OA
ATOM     20  H   UNL     1      56.891  -0.266  19.866  1.00  0.00     0.293 HD
ENDBRANCH  15  19
BRANCH  16  21
ATOM     21  O   UNL     1      59.091  -1.563  19.267  1.00  0.00    -0.504 OA
ATOM     22  H   UNL     1      59.999  -1.987  19.420  1.00  0.00     0.293 HD
ENDBRANCH  16  21
ENDBRANCH   1  11
BRANCH  10  23
ATOM     23  O   UNL     1      59.863  -3.567  14.621  1.00  0.00    -0.500 OA
ATOM     24  H   UNL     1      58.862  -3.682  14.726  1.00  0.00     0.294 HD
ENDBRANCH  10  23
BRANCH   5  25
ATOM     25  O   UNL     1      63.228   2.174  10.618  1.00  0.00    -0.507 OA
ATOM     26  H   UNL     1      63.544   2.955  11.182  1.00  0.00     0.293 HD
ENDBRANCH   5  25
BRANCH   7  27
ATOM     27  O   UNL     1      63.211  -2.625  10.712  1.00  0.00    -0.507 OA
ATOM     28  H   UNL     1      63.128  -2.875   9.738  1.00  0.00     0.293 HD
ENDBRANCH   7  27
TORSDOF 7
ENDMDL
MODEL 7
REMARK VINA RESULT:    -7.236      4.408      6.391
REMARK INTER + INTRA:          -9.165
REMARK INTER:                  -8.901
REMARK INTRA:                  -0.263
REMARK UNBOUND:                -0.237
REMARK SMILES Oc1cc(O)c2cc(O)c(-c3cc(O)c(O)c(O)c3)[o+]c2c1
REMARK SMILES IDX 10 1 20 2 21 3 22 4 2 5 3 6 4 7 6 8 7 9 8 10 11 11 12 12
REMARK SMILES IDX 13 13 19 14 15 15 17 16 14 17 16 19 18 21 9 23 1 25 5 27
REMARK H PARENT 14 18 16 20 18 22 9 24 1 26 5 28
REMARK Flexibility Score: inf
ROOT
ATOM      1  C   UNL     1      60.264  -0.283  12.661  1.00  0.00     0.402 A 
ATOM      2  O   UNL     1      59.256   0.490  13.058  1.00  0.00    -0.202 OA
ATOM      3  C   UNL     1      58.507   0.223  14.122  1.00  0.00     0.368 A 
ATOM      4  C   UNL     1      57.467   1.095  14.458  1.00  0.00     0.162 A 
ATOM      5  C   UNL     1      56.661   0.837  15.571  1.00  0.00     0.128 A 
ATOM      6  C   UNL     1      56.895  -0.299  16.349  1.00  0.00     0.093 A 
ATOM      7  C   UNL     1      57.929  -1.188  16.033  1.00  0.00     0.136 A 
ATOM      8  C   UNL     1      58.752  -0.930  14.907  1.00  0.00     0.125 A 
ATOM      9  C   UNL     1      59.819  -1.758  14.523  1.00  0.00     0.078 A 
ATOM     10  C   UNL     1      60.590  -1.434  13.402  1.00  0.00     0.223 A 
ENDROOT
BRANCH   1  11
ATOM     11  C   UNL     1      61.020   0.116  11.452  1.00  0.00     0.091 A 
ATOM     12  C   UNL     1      62.349   0.557  11.534  1.00  0.00     0.068 A 
ATOM     13  C   UNL     1      63.063   0.910  10.382  1.00  0.00     0.162 A 
ATOM     14  C   UNL     1      60.417  -0.001  10.193  1.00  0.00     0.068 A 
ATOM     15  C   UNL     1      62.438   0.815   9.115  1.00  0.00     0.200 A 
ATOM     16  C   UNL     1      61.112   0.351   9.033  1.00  0.00     0.162 A 
BRANCH  13  17
ATOM     17  O   UNL     1      64.381   1.341  10.543  1.00  0.00    -0.504 OA
ATOM     18  H   UNL     1      65.053   0.897  11.153  1.00  0.00     0.293 HD
ENDBRANCH  13  17
BRANCH  15  19
ATOM     19  O   UNL     1      63.095   1.165   7.932  1.00  0.00    -0.502 OA
ATOM     20  H   UNL     1      62.909   2.008   7.408  1.00  0.00     0.293 HD
ENDBRANCH  15  19
BRANCH  16  21
ATOM     21  O   UNL     1      60.466   0.233   7.802  1.00  0.00    -0.504 OA
ATOM     22  H   UNL     1      60.966   0.024   6.946  1.00  0.00     0.293 HD
ENDBRANCH  16  21
ENDBRANCH   1  11
BRANCH  10  23
ATOM     23  O   UNL     1      61.680  -2.229  13.050  1.00  0.00    -0.500 OA
ATOM     24  H   UNL     1      61.566  -3.197  12.773  1.00  0.00     0.294 HD
ENDBRANCH  10  23
BRANCH   5  25
ATOM     25  O   UNL     1      55.625   1.702  15.911  1.00  0.00    -0.507 OA
ATOM     26  H   UNL     1      55.544   2.092  16.844  1.00  0.00     0.293 HD
ENDBRANCH   5  25
BRANCH   7  27
ATOM     27  O   UNL     1      58.094  -2.303  16.860  1.00  0.00    -0.507 OA
ATOM     28  H   UNL     1      57.653  -2.416  17.761  1.00  0.00     0.293 HD
ENDBRANCH   7  27
TORSDOF 7
ENDMDL
MODEL 8
REMARK VINA RESULT:    -7.176      3.411      6.196
REMARK INTER + INTRA:          -9.092
REMARK INTER:                  -9.018
REMARK INTRA:                  -0.074
REMARK UNBOUND:                -0.237
REMARK SMILES Oc1cc(O)c2cc(O)c(-c3cc(O)c(O)c(O)c3)[o+]c2c1
REMARK SMILES IDX 10 1 20 2 21 3 22 4 2 5 3 6 4 7 6 8 7 9 8 10 11 11 12 12
REMARK SMILES IDX 13 13 19 14 15 15 17 16 14 17 16 19 18 21 9 23 1 25 5 27
REMARK H PARENT 14 18 16 20 18 22 9 24 1 26 5 28
REMARK Flexibility Score: inf
ROOT
ATOM      1  C   UNL     1      59.147  -0.185  14.432  1.00  0.00     0.402 A 
ATOM      2  O   UNL     1      60.156  -0.989  14.103  1.00  0.00    -0.202 OA
ATOM      3  C   UNL     1      60.717  -0.999  12.899  1.00  0.00     0.368 A 
ATOM      4  C   UNL     1      61.772  -1.882  12.649  1.00  0.00     0.162 A 
ATOM      5  C   UNL     1      62.380  -1.917  11.390  1.00  0.00     0.128 A 
ATOM      6  C   UNL     1      61.930  -1.067  10.378  1.00  0.00     0.093 A 
ATOM      7  C   UNL     1      60.874  -0.174  10.603  1.00  0.00     0.136 A 
ATOM      8  C   UNL     1      60.256  -0.132  11.879  1.00  0.00     0.125 A 
ATOM      9  C   UNL     1      59.202   0.739  12.200  1.00  0.00     0.078 A 
ATOM     10  C   UNL     1      58.647   0.726  13.483  1.00  0.00     0.223 A 
ENDROOT
BRANCH   1  11
ATOM     11  C   UNL     1      58.599  -0.274  15.805  1.00  0.00     0.091 A 
ATOM     12  C   UNL     1      59.428  -0.157  16.931  1.00  0.00     0.068 A 
ATOM     13  C   UNL     1      58.897  -0.218  18.225  1.00  0.00     0.162 A 
ATOM     14  C   UNL     1      57.218  -0.420  15.987  1.00  0.00     0.068 A 
ATOM     15  C   UNL     1      57.504  -0.394  18.402  1.00  0.00     0.200 A 
ATOM     16  C   UNL     1      56.671  -0.488  17.271  1.00  0.00     0.162 A 
BRANCH  13  17
ATOM     17  O   UNL     1      59.785  -0.095  19.296  1.00  0.00    -0.504 OA
ATOM     18  H   UNL     1      59.698  -0.600  20.165  1.00  0.00     0.293 HD
ENDBRANCH  13  17
BRANCH  15  19
ATOM     19  O   UNL     1      56.918  -0.475  19.669  1.00  0.00    -0.502 OA
ATOM     20  H   UNL     1      56.947   0.264  20.356  1.00  0.00     0.293 HD
ENDBRANCH  15  19
BRANCH  16  21
ATOM     21  O   UNL     1      55.292  -0.650  17.405  1.00  0.00    -0.504 OA
ATOM     22  H   UNL     1      54.886  -1.384  17.972  1.00  0.00     0.293 HD
ENDBRANCH  16  21
ENDBRANCH   1  11
BRANCH  10  23
ATOM     23  O   UNL     1      57.634   1.624  13.816  1.00  0.00    -0.500 OA
ATOM     24  H   UNL     1      56.832   1.343  14.367  1.00  0.00     0.294 HD
ENDBRANCH  10  23
BRANCH   5  25
ATOM     25  O   UNL     1      63.431  -2.793  11.134  1.00  0.00    -0.507 OA
ATOM     26  H   UNL     1      64.381  -2.461  11.016  1.00  0.00     0.293 HD
ENDBRANCH   5  25
BRANCH   7  27
ATOM     27  O   UNL     1      60.481   0.640   9.537  1.00  0.00    -0.507 OA
ATOM     28  H   UNL     1      59.622   1.168   9.508  1.00  0.00     0.293 HD
ENDBRANCH   7  27
TORSDOF 7
ENDMDL
MODEL 9
REMARK VINA RESULT:    -7.145      3.431      6.425
REMARK INTER + INTRA:          -9.053
REMARK INTER:                  -8.943
REMARK INTRA:                  -0.110
REMARK UNBOUND:                -0.237
REMARK SMILES Oc1cc(O)c2cc(O)c(-c3cc(O)c(O)c(O)c3)[o+]c2c1
REMARK SMILES IDX 10 1 20 2 21 3 22 4 2 5 3 6 4 7 6 8 7 9 8 10 11 11 12 12
REMARK SMILES IDX 13 13 19 14 15 15 17 16 14 17 16 19 18 21 9 23 1 25 5 27
REMARK H PARENT 14 18 16 20 18 22 9 24 1 26 5 28
REMARK Flexibility Score: inf
ROOT
ATOM      1  C   UNL     1      59.046  -0.149  14.384  1.00  0.00     0.402 A 
ATOM      2  O   UNL     1      60.069  -0.934  14.054  1.00  0.00    -0.202 OA
ATOM      3  C   UNL     1      60.619  -0.945  12.845  1.00  0.00     0.368 A 
ATOM      4  C   UNL     1      61.690  -1.808  12.594  1.00  0.00     0.162 A 
ATOM      5  C   UNL     1      62.287  -1.843  11.330  1.00  0.00     0.128 A 
ATOM      6  C   UNL     1      61.809  -1.013  10.313  1.00  0.00     0.093 A 
ATOM      7  C   UNL     1      60.738  -0.140  10.540  1.00  0.00     0.136 A 
ATOM      8  C   UNL     1      60.130  -0.099  11.821  1.00  0.00     0.125 A 
ATOM      9  C   UNL     1      59.061   0.753  12.143  1.00  0.00     0.078 A 
ATOM     10  C   UNL     1      58.518   0.742  13.431  1.00  0.00     0.223 A 
ENDROOT
BRANCH   1  11
ATOM     11  C   UNL     1      58.513  -0.234  15.763  1.00  0.00     0.091 A 
ATOM     12  C   UNL     1      57.143  -0.418  16.007  1.00  0.00     0.068 A 
ATOM     13  C   UNL     1      56.652  -0.521  17.314  1.00  0.00     0.162 A 
ATOM     14  C   UNL     1      59.398  -0.189  16.848  1.00  0.00     0.068 A 
ATOM     15  C   UNL     1      57.550  -0.447  18.406  1.00  0.00     0.200 A 
ATOM     16  C   UNL     1      58.926  -0.286  18.159  1.00  0.00     0.162 A 
BRANCH  13  17
ATOM     17  O   UNL     1      55.277  -0.702  17.478  1.00  0.00    -0.504 OA
ATOM     18  H   UNL     1      54.819  -0.790  18.373  1.00  0.00     0.293 HD
ENDBRANCH  13  17
BRANCH  15  19
ATOM     19  O   UNL     1      57.118  -0.531  19.733  1.00  0.00    -0.502 OA
ATOM     20  H   UNL     1      56.169  -0.737  20.009  1.00  0.00     0.293 HD
ENDBRANCH  15  19
BRANCH  16  21
ATOM     21  O   UNL     1      59.843  -0.219  19.209  1.00  0.00    -0.504 OA
ATOM     22  H   UNL     1      59.708   0.390  20.007  1.00  0.00     0.293 HD
ENDBRANCH  16  21
ENDBRANCH   1  11
BRANCH  10  23
ATOM     23  O   UNL     1      57.490   1.622  13.764  1.00  0.00    -0.500 OA
ATOM     24  H   UNL     1      56.661   1.716  13.188  1.00  0.00     0.294 HD
ENDBRANCH  10  23
BRANCH   5  25
ATOM     25  O   UNL     1      63.354  -2.699  11.073  1.00  0.00    -0.507 OA
ATOM     26  H   UNL     1      64.000  -2.975  11.803  1.00  0.00     0.293 HD
ENDBRANCH   5  25
BRANCH   7  27
ATOM     27  O   UNL     1      60.318   0.654   9.469  1.00  0.00    -0.507 OA
ATOM     28  H   UNL     1      60.472   0.430   8.497  1.00  0.00     0.293 HD
ENDBRANCH   7  27
TORSDOF 7
ENDMDL
