MODEL 1
REMARK VINA RESULT:    -7.044      0.000      0.000
REMARK INTER + INTRA:          -8.568
REMARK INTER:                  -8.279
REMARK INTRA:                  -0.289
REMARK UNBOUND:                -0.289
REMARK SMILES O=c1cc(-c2ccc(O)c(O)c2)oc2cc(O)cc(O)c12
REMARK SMILES IDX 4 1 3 2 2 3 1 4 21 5 19 6 18 7 16 8 15 9 14 10 13 11 5 12
REMARK SMILES IDX 6 13 7 14 8 15 12 16 10 17 9 18 11 20 20 22 17 24
REMARK H PARENT 9 19 11 21 20 23 17 25
REMARK Flexibility Score: inf
ROOT
ATOM      1  C   UNL     1     125.498 124.702 128.807  1.00  0.00     0.138 A 
ATOM      2  C   UNL     1     125.504 125.233 130.105  1.00  0.00     0.100 A 
ATOM      3  C   UNL     1     125.425 124.374 131.201  1.00  0.00     0.197 A 
ATOM      4  O   UNL     1     125.377 124.885 132.351  1.00  0.00    -0.289 OA
ATOM      5  C   UNL     1     125.376 122.974 130.999  1.00  0.00     0.107 A 
ATOM      6  C   UNL     1     125.328 122.001 132.041  1.00  0.00     0.134 A 
ATOM      7  C   UNL     1     125.182 120.647 131.716  1.00  0.00     0.093 A 
ATOM      8  C   UNL     1     125.139 120.226 130.385  1.00  0.00     0.123 A 
ATOM      9  C   UNL     1     125.235 121.163 129.359  1.00  0.00     0.094 A 
ATOM     10  C   UNL     1     125.347 122.525 129.651  1.00  0.00     0.146 A 
ATOM     11  O   UNL     1     125.418 123.386 128.642  1.00  0.00    -0.456 OA
ENDROOT
BRANCH   1  12
ATOM     12  C   UNL     1     125.582 125.569 127.604  1.00  0.00     0.021 A 
ATOM     13  C   UNL     1     126.552 126.583 127.488  1.00  0.00     0.016 A 
ATOM     14  C   UNL     1     126.601 127.390 126.348  1.00  0.00     0.051 A 
ATOM     15  C   UNL     1     125.681 127.203 125.310  1.00  0.00     0.157 A 
ATOM     16  C   UNL     1     124.653 125.397 126.562  1.00  0.00     0.062 A 
ATOM     17  C   UNL     1     124.704 126.206 125.418  1.00  0.00     0.158 A 
BRANCH  15  18
ATOM     18  O   UNL     1     125.728 128.005 124.171  1.00  0.00    -0.504 OA
ATOM     19  H   UNL     1     124.913 128.139 123.583  1.00  0.00     0.293 HD
ENDBRANCH  15  18
BRANCH  17  20
ATOM     20  O   UNL     1     123.785 126.025 124.384  1.00  0.00    -0.504 OA
ATOM     21  H   UNL     1     123.986 126.325 123.438  1.00  0.00     0.293 HD
ENDBRANCH  17  20
ENDBRANCH   1  12
BRANCH   6  22
ATOM     22  O   UNL     1     125.442 122.304 133.403  1.00  0.00    -0.507 OA
ATOM     23  H   UNL     1     125.111 121.722 134.156  1.00  0.00     0.293 HD
ENDBRANCH   6  22
BRANCH   8  24
ATOM     24  O   UNL     1     125.009 118.875 130.070  1.00  0.00    -0.508 OA
ATOM     25  H   UNL     1     125.275 118.514 129.161  1.00  0.00     0.293 HD
ENDBRANCH   8  24
TORSDOF 5
ENDMDL
MODEL 2
REMARK VINA RESULT:    -7.040      2.161      3.545
REMARK INTER + INTRA:          -8.564
REMARK INTER:                  -8.300
REMARK INTRA:                  -0.264
REMARK UNBOUND:                -0.289
REMARK SMILES O=c1cc(-c2ccc(O)c(O)c2)oc2cc(O)cc(O)c12
REMARK SMILES IDX 4 1 3 2 2 3 1 4 21 5 19 6 18 7 16 8 15 9 14 10 13 11 5 12
REMARK SMILES IDX 6 13 7 14 8 15 12 16 10 17 9 18 11 20 20 22 17 24
REMARK H PARENT 9 19 11 21 20 23 17 25
REMARK Flexibility Score: inf
ROOT
ATOM      1  C   UNL     1     125.368 123.654 127.582  1.00  0.00     0.138 A 
ATOM      2  C   UNL     1     125.668 122.413 128.161  1.00  0.00     0.100 A 
ATOM      3  C   UNL     1     125.464 122.222 129.527  1.00  0.00     0.197 A 
ATOM      4  O   UNL     1     125.796 121.115 130.026  1.00  0.00    -0.289 OA
ATOM      5  C   UNL     1     124.923 123.268 130.313  1.00  0.00     0.107 A 
ATOM      6  C   UNL     1     124.641 123.176 131.708  1.00  0.00     0.134 A 
ATOM      7  C   UNL     1     124.198 124.311 132.399  1.00  0.00     0.093 A 
ATOM      8  C   UNL     1     123.973 125.519 131.733  1.00  0.00     0.123 A 
ATOM      9  C   UNL     1     124.198 125.604 130.361  1.00  0.00     0.094 A 
ATOM     10  C   UNL     1     124.673 124.500 129.650  1.00  0.00     0.146 A 
ATOM     11  O   UNL     1     124.891 124.630 128.346  1.00  0.00    -0.456 OA
ENDROOT
BRANCH   1  12
ATOM     12  C   UNL     1     125.562 123.912 126.133  1.00  0.00     0.021 A 
ATOM     13  C   UNL     1     126.628 124.701 125.657  1.00  0.00     0.016 A 
ATOM     14  C   UNL     1     126.780 124.936 124.287  1.00  0.00     0.051 A 
ATOM     15  C   UNL     1     125.869 124.394 123.373  1.00  0.00     0.157 A 
ATOM     16  C   UNL     1     124.645 123.384 125.207  1.00  0.00     0.062 A 
ATOM     17  C   UNL     1     124.799 123.619 123.833  1.00  0.00     0.158 A 
BRANCH  15  18
ATOM     18  O   UNL     1     126.018 124.625 122.006  1.00  0.00    -0.504 OA
ATOM     19  H   UNL     1     125.288 124.386 121.345  1.00  0.00     0.293 HD
ENDBRANCH  15  18
BRANCH  17  20
ATOM     20  O   UNL     1     123.890 123.084 122.920  1.00  0.00    -0.504 OA
ATOM     21  H   UNL     1     123.701 122.089 122.881  1.00  0.00     0.293 HD
ENDBRANCH  17  20
ENDBRANCH   1  12
BRANCH   6  22
ATOM     22  O   UNL     1     124.754 121.999 132.456  1.00  0.00    -0.507 OA
ATOM     23  H   UNL     1     124.669 121.938 133.459  1.00  0.00     0.293 HD
ENDBRANCH   6  22
BRANCH   8  24
ATOM     24  O   UNL     1     123.518 126.638 132.426  1.00  0.00    -0.508 OA
ATOM     25  H   UNL     1     124.149 127.223 132.962  1.00  0.00     0.293 HD
ENDBRANCH   8  24
TORSDOF 5
ENDMDL
MODEL 3
REMARK VINA RESULT:    -6.905      1.941      3.464
REMARK INTER + INTRA:          -8.404
REMARK INTER:                  -8.126
REMARK INTRA:                  -0.278
REMARK UNBOUND:                -0.289
REMARK SMILES O=c1cc(-c2ccc(O)c(O)c2)oc2cc(O)cc(O)c12
REMARK SMILES IDX 4 1 3 2 2 3 1 4 21 5 19 6 18 7 16 8 15 9 14 10 13 11 5 12
REMARK SMILES IDX 6 13 7 14 8 15 12 16 10 17 9 18 11 20 20 22 17 24
REMARK H PARENT 9 19 11 21 20 23 17 25
REMARK Flexibility Score: inf
ROOT
ATOM      1  C   UNL     1     125.029 124.288 127.916  1.00  0.00     0.138 A 
ATOM      2  C   UNL     1     125.406 122.992 128.298  1.00  0.00     0.100 A 
ATOM      3  C   UNL     1     125.253 122.592 129.625  1.00  0.00     0.197 A 
ATOM      4  O   UNL     1     125.652 121.443 129.947  1.00  0.00    -0.289 OA
ATOM      5  C   UNL     1     124.686 123.482 130.569  1.00  0.00     0.107 A 
ATOM      6  C   UNL     1     124.450 123.172 131.942  1.00  0.00     0.134 A 
ATOM      7  C   UNL     1     123.974 124.168 132.803  1.00  0.00     0.093 A 
ATOM      8  C   UNL     1     123.671 125.447 132.329  1.00  0.00     0.123 A 
ATOM      9  C   UNL     1     123.850 125.745 130.980  1.00  0.00     0.094 A 
ATOM     10  C   UNL     1     124.356 124.783 130.103  1.00  0.00     0.146 A 
ATOM     11  O   UNL     1     124.528 125.115 128.828  1.00  0.00    -0.456 OA
ENDROOT
BRANCH   1  12
ATOM     12  C   UNL     1     125.166 124.766 126.517  1.00  0.00     0.021 A 
ATOM     13  C   UNL     1     124.164 125.535 125.895  1.00  0.00     0.016 A 
ATOM     14  C   UNL     1     124.317 125.962 124.573  1.00  0.00     0.051 A 
ATOM     15  C   UNL     1     125.467 125.624 123.850  1.00  0.00     0.157 A 
ATOM     16  C   UNL     1     126.311 124.420 125.778  1.00  0.00     0.062 A 
ATOM     17  C   UNL     1     126.465 124.850 124.452  1.00  0.00     0.158 A 
BRANCH  15  18
ATOM     18  O   UNL     1     125.623 126.049 122.532  1.00  0.00    -0.504 OA
ATOM     19  H   UNL     1     126.148 126.886 122.303  1.00  0.00     0.293 HD
ENDBRANCH  15  18
BRANCH  17  20
ATOM     20  O   UNL     1     127.607 124.511 123.728  1.00  0.00    -0.504 OA
ATOM     21  H   UNL     1     127.667 123.645 123.206  1.00  0.00     0.293 HD
ENDBRANCH  17  20
ENDBRANCH   1  12
BRANCH   6  22
ATOM     22  O   UNL     1     124.643 121.905 132.504  1.00  0.00    -0.507 OA
ATOM     23  H   UNL     1     124.452 121.661 133.464  1.00  0.00     0.293 HD
ENDBRANCH   6  22
BRANCH   8  24
ATOM     24  O   UNL     1     123.183 126.428 133.190  1.00  0.00    -0.508 OA
ATOM     25  H   UNL     1     122.318 126.920 132.996  1.00  0.00     0.293 HD
ENDBRANCH   8  24
TORSDOF 5
ENDMDL
MODEL 4
REMARK VINA RESULT:    -6.867      1.556      1.914
REMARK INTER + INTRA:          -8.360
REMARK INTER:                  -8.081
REMARK INTRA:                  -0.279
REMARK UNBOUND:                -0.289
REMARK SMILES O=c1cc(-c2ccc(O)c(O)c2)oc2cc(O)cc(O)c12
REMARK SMILES IDX 4 1 3 2 2 3 1 4 21 5 19 6 18 7 16 8 15 9 14 10 13 11 5 12
REMARK SMILES IDX 6 13 7 14 8 15 12 16 10 17 9 18 11 20 20 22 17 24
REMARK H PARENT 9 19 11 21 20 23 17 25
REMARK Flexibility Score: inf
ROOT
ATOM      1  C   UNL     1     125.428 124.608 127.944  1.00  0.00     0.138 A 
ATOM      2  C   UNL     1     125.358 125.564 128.967  1.00  0.00     0.100 A 
ATOM      3  C   UNL     1     125.335 125.150 130.298  1.00  0.00     0.197 A 
ATOM      4  O   UNL     1     125.216 126.029 131.191  1.00  0.00    -0.289 OA
ATOM      5  C   UNL     1     125.420 123.771 130.609  1.00  0.00     0.107 A 
ATOM      6  C   UNL     1     125.440 123.234 131.931  1.00  0.00     0.134 A 
ATOM      7  C   UNL     1     125.426 121.845 132.112  1.00  0.00     0.093 A 
ATOM      8  C   UNL     1     125.451 120.975 131.019  1.00  0.00     0.123 A 
ATOM      9  C   UNL     1     125.482 121.491 129.725  1.00  0.00     0.094 A 
ATOM     10  C   UNL     1     125.461 122.870 129.511  1.00  0.00     0.146 A 
ATOM     11  O   UNL     1     125.474 123.319 128.260  1.00  0.00    -0.456 OA
ENDROOT
BRANCH   1  12
ATOM     12  C   UNL     1     125.457 124.993 126.510  1.00  0.00     0.021 A 
ATOM     13  C   UNL     1     124.405 125.716 125.914  1.00  0.00     0.016 A 
ATOM     14  C   UNL     1     124.456 126.055 124.560  1.00  0.00     0.051 A 
ATOM     15  C   UNL     1     125.552 125.673 123.777  1.00  0.00     0.157 A 
ATOM     16  C   UNL     1     126.547 124.602 125.712  1.00  0.00     0.062 A 
ATOM     17  C   UNL     1     126.598 124.944 124.353  1.00  0.00     0.158 A 
BRANCH  15  18
ATOM     18  O   UNL     1     125.606 126.011 122.425  1.00  0.00    -0.504 OA
ATOM     19  H   UNL     1     124.916 125.670 121.766  1.00  0.00     0.293 HD
ENDBRANCH  15  18
BRANCH  17  20
ATOM     20  O   UNL     1     127.686 124.562 123.569  1.00  0.00    -0.504 OA
ATOM     21  H   UNL     1     128.445 124.008 123.949  1.00  0.00     0.293 HD
ENDBRANCH  17  20
ENDBRANCH   1  12
BRANCH   6  22
ATOM     22  O   UNL     1     125.497 124.011 133.093  1.00  0.00    -0.507 OA
ATOM     23  H   UNL     1     124.706 124.454 133.534  1.00  0.00     0.293 HD
ENDBRANCH   6  22
BRANCH   8  24
ATOM     24  O   UNL     1     125.453 119.595 131.209  1.00  0.00    -0.508 OA
ATOM     25  H   UNL     1     124.980 118.971 130.565  1.00  0.00     0.293 HD
ENDBRANCH   8  24
TORSDOF 5
ENDMDL
MODEL 5
REMARK VINA RESULT:    -6.798     13.360     14.142
REMARK INTER + INTRA:          -8.279
REMARK INTER:                  -7.999
REMARK INTRA:                  -0.280
REMARK UNBOUND:                -0.289
REMARK SMILES O=c1cc(-c2ccc(O)c(O)c2)oc2cc(O)cc(O)c12
REMARK SMILES IDX 4 1 3 2 2 3 1 4 21 5 19 6 18 7 16 8 15 9 14 10 13 11 5 12
REMARK SMILES IDX 6 13 7 14 8 15 12 16 10 17 9 18 11 20 20 22 17 24
REMARK H PARENT 9 19 11 21 20 23 17 25
REMARK Flexibility Score: inf
ROOT
ATOM      1  C   UNL     1     134.014 134.799 127.977  1.00  0.00     0.138 A 
ATOM      2  C   UNL     1     133.600 136.085 128.350  1.00  0.00     0.100 A 
ATOM      3  C   UNL     1     133.742 136.500 129.674  1.00  0.00     0.197 A 
ATOM      4  O   UNL     1     133.310 137.639 129.988  1.00  0.00    -0.289 OA
ATOM      5  C   UNL     1     134.335 135.633 130.624  1.00  0.00     0.107 A 
ATOM      6  C   UNL     1     134.562 135.960 131.994  1.00  0.00     0.134 A 
ATOM      7  C   UNL     1     135.067 134.984 132.862  1.00  0.00     0.093 A 
ATOM      8  C   UNL     1     135.407 133.711 132.397  1.00  0.00     0.123 A 
ATOM      9  C   UNL     1     135.235 133.398 131.050  1.00  0.00     0.094 A 
ATOM     10  C   UNL     1     134.702 134.339 130.167  1.00  0.00     0.146 A 
ATOM     11  O   UNL     1     134.539 133.993 128.894  1.00  0.00    -0.456 OA
ENDROOT
BRANCH   1  12
ATOM     12  C   UNL     1     133.890 134.307 126.582  1.00  0.00     0.021 A 
ATOM     13  C   UNL     1     134.881 133.501 125.988  1.00  0.00     0.016 A 
ATOM     14  C   UNL     1     134.742 133.062 124.669  1.00  0.00     0.051 A 
ATOM     15  C   UNL     1     133.616 133.423 123.919  1.00  0.00     0.157 A 
ATOM     16  C   UNL     1     132.770 134.676 125.816  1.00  0.00     0.062 A 
ATOM     17  C   UNL     1     132.630 134.234 124.492  1.00  0.00     0.158 A 
BRANCH  15  18
ATOM     18  O   UNL     1     133.474 132.986 122.604  1.00  0.00    -0.504 OA
ATOM     19  H   UNL     1     132.703 132.389 122.325  1.00  0.00     0.293 HD
ENDBRANCH  15  18
BRANCH  17  20
ATOM     20  O   UNL     1     131.512 134.596 123.742  1.00  0.00    -0.504 OA
ATOM     21  H   UNL     1     131.600 134.958 122.800  1.00  0.00     0.293 HD
ENDBRANCH  17  20
ENDBRANCH   1  12
BRANCH   6  22
ATOM     22  O   UNL     1     134.333 137.225 132.548  1.00  0.00    -0.507 OA
ATOM     23  H   UNL     1     134.891 138.045 132.369  1.00  0.00     0.293 HD
ENDBRANCH   6  22
BRANCH   8  24
ATOM     24  O   UNL     1     135.923 132.751 133.265  1.00  0.00    -0.508 OA
ATOM     25  H   UNL     1     136.845 132.847 133.674  1.00  0.00     0.293 HD
ENDBRANCH   8  24
TORSDOF 5
ENDMDL
MODEL 6
REMARK VINA RESULT:    -6.756      2.886      6.590
REMARK INTER + INTRA:          -8.230
REMARK INTER:                  -7.958
REMARK INTRA:                  -0.271
REMARK UNBOUND:                -0.289
REMARK SMILES O=c1cc(-c2ccc(O)c(O)c2)oc2cc(O)cc(O)c12
REMARK SMILES IDX 4 1 3 2 2 3 1 4 21 5 19 6 18 7 16 8 15 9 14 10 13 11 5 12
REMARK SMILES IDX 6 13 7 14 8 15 12 16 10 17 9 18 11 20 20 22 17 24
REMARK H PARENT 9 19 11 21 20 23 17 25
REMARK Flexibility Score: inf
ROOT
ATOM      1  C   UNL     1     124.560 124.252 128.221  1.00  0.00     0.138 A 
ATOM      2  C   UNL     1     125.881 124.639 127.958  1.00  0.00     0.100 A 
ATOM      3  C   UNL     1     126.369 124.588 126.652  1.00  0.00     0.197 A 
ATOM      4  O   UNL     1     127.575 124.889 126.458  1.00  0.00    -0.289 OA
ATOM      5  C   UNL     1     125.518 124.180 125.597  1.00  0.00     0.107 A 
ATOM      6  C   UNL     1     125.895 124.121 124.222  1.00  0.00     0.134 A 
ATOM      7  C   UNL     1     124.994 123.606 123.281  1.00  0.00     0.093 A 
ATOM      8  C   UNL     1     123.711 123.203 123.656  1.00  0.00     0.123 A 
ATOM      9  C   UNL     1     123.316 123.303 124.988  1.00  0.00     0.094 A 
ATOM     10  C   UNL     1     124.202 123.779 125.956  1.00  0.00     0.146 A 
ATOM     11  O   UNL     1     123.790 123.842 127.218  1.00  0.00    -0.456 OA
ENDROOT
BRANCH   1  12
ATOM     12  C   UNL     1     123.988 124.289 129.590  1.00  0.00     0.021 A 
ATOM     13  C   UNL     1     123.316 123.182 130.144  1.00  0.00     0.016 A 
ATOM     14  C   UNL     1     122.778 123.250 131.432  1.00  0.00     0.051 A 
ATOM     15  C   UNL     1     122.897 124.424 132.185  1.00  0.00     0.157 A 
ATOM     16  C   UNL     1     124.090 125.468 130.350  1.00  0.00     0.062 A 
ATOM     17  C   UNL     1     123.552 125.535 131.643  1.00  0.00     0.158 A 
BRANCH  15  18
ATOM     18  O   UNL     1     122.364 124.495 133.471  1.00  0.00    -0.504 OA
ATOM     19  H   UNL     1     122.903 124.855 134.250  1.00  0.00     0.293 HD
ENDBRANCH  15  18
BRANCH  17  20
ATOM     20  O   UNL     1     123.665 126.705 132.395  1.00  0.00    -0.504 OA
ATOM     21  H   UNL     1     122.964 126.966 133.078  1.00  0.00     0.293 HD
ENDBRANCH  17  20
ENDBRANCH   1  12
BRANCH   6  22
ATOM     22  O   UNL     1     127.123 124.572 123.726  1.00  0.00    -0.507 OA
ATOM     23  H   UNL     1     127.848 125.002 124.278  1.00  0.00     0.293 HD
ENDBRANCH   6  22
BRANCH   8  24
ATOM     24  O   UNL     1     122.816 122.707 122.710  1.00  0.00    -0.508 OA
ATOM     25  H   UNL     1     122.850 121.741 122.403  1.00  0.00     0.293 HD
ENDBRANCH   8  24
TORSDOF 5
ENDMDL
MODEL 7
REMARK VINA RESULT:    -6.645      2.829      3.507
REMARK INTER + INTRA:          -8.099
REMARK INTER:                  -7.808
REMARK INTRA:                  -0.292
REMARK UNBOUND:                -0.289
REMARK SMILES O=c1cc(-c2ccc(O)c(O)c2)oc2cc(O)cc(O)c12
REMARK SMILES IDX 4 1 3 2 2 3 1 4 21 5 19 6 18 7 16 8 15 9 14 10 13 11 5 12
REMARK SMILES IDX 6 13 7 14 8 15 12 16 10 17 9 18 11 20 20 22 17 24
REMARK H PARENT 9 19 11 21 20 23 17 25
REMARK Flexibility Score: inf
ROOT
ATOM      1  C   UNL     1     124.627 124.358 127.440  1.00  0.00     0.138 A 
ATOM      2  C   UNL     1     125.390 125.272 128.180  1.00  0.00     0.100 A 
ATOM      3  C   UNL     1     125.138 125.437 129.542  1.00  0.00     0.197 A 
ATOM      4  O   UNL     1     125.802 126.305 130.166  1.00  0.00    -0.289 OA
ATOM      5  C   UNL     1     124.139 124.657 130.174  1.00  0.00     0.107 A 
ATOM      6  C   UNL     1     123.818 124.716 131.563  1.00  0.00     0.134 A 
ATOM      7  C   UNL     1     122.743 123.966 132.056  1.00  0.00     0.093 A 
ATOM      8  C   UNL     1     122.014 123.116 131.220  1.00  0.00     0.123 A 
ATOM      9  C   UNL     1     122.352 123.014 129.873  1.00  0.00     0.094 A 
ATOM     10  C   UNL     1     123.397 123.775 129.344  1.00  0.00     0.146 A 
ATOM     11  O   UNL     1     123.674 123.661 128.050  1.00  0.00    -0.456 OA
ENDROOT
BRANCH   1  12
ATOM     12  C   UNL     1     124.853 124.139 125.989  1.00  0.00     0.021 A 
ATOM     13  C   UNL     1     123.903 123.485 125.180  1.00  0.00     0.016 A 
ATOM     14  C   UNL     1     124.149 123.284 123.819  1.00  0.00     0.051 A 
ATOM     15  C   UNL     1     125.347 123.726 123.245  1.00  0.00     0.157 A 
ATOM     16  C   UNL     1     126.059 124.566 125.405  1.00  0.00     0.062 A 
ATOM     17  C   UNL     1     126.305 124.366 124.039  1.00  0.00     0.158 A 
BRANCH  15  18
ATOM     18  O   UNL     1     125.594 123.528 121.888  1.00  0.00    -0.504 OA
ATOM     19  H   UNL     1     126.538 123.475 121.523  1.00  0.00     0.293 HD
ENDBRANCH  15  18
BRANCH  17  20
ATOM     20  O   UNL     1     127.499 124.800 123.466  1.00  0.00    -0.504 OA
ATOM     21  H   UNL     1     127.675 124.706 122.473  1.00  0.00     0.293 HD
ENDBRANCH  17  20
ENDBRANCH   1  12
BRANCH   6  22
ATOM     22  O   UNL     1     124.531 125.470 132.502  1.00  0.00    -0.507 OA
ATOM     23  H   UNL     1     124.486 126.473 132.595  1.00  0.00     0.293 HD
ENDBRANCH   6  22
BRANCH   8  24
ATOM     24  O   UNL     1     120.955 122.362 131.721  1.00  0.00    -0.508 OA
ATOM     25  H   UNL     1     120.032 122.401 131.304  1.00  0.00     0.293 HD
ENDBRANCH   8  24
TORSDOF 5
ENDMDL
MODEL 8
REMARK VINA RESULT:    -6.644     13.106     15.765
REMARK INTER + INTRA:          -8.098
REMARK INTER:                  -7.823
REMARK INTRA:                  -0.274
REMARK UNBOUND:                -0.289
REMARK SMILES O=c1cc(-c2ccc(O)c(O)c2)oc2cc(O)cc(O)c12
REMARK SMILES IDX 4 1 3 2 2 3 1 4 21 5 19 6 18 7 16 8 15 9 14 10 13 11 5 12
REMARK SMILES IDX 6 13 7 14 8 15 12 16 10 17 9 18 11 20 20 22 17 24
REMARK H PARENT 9 19 11 21 20 23 17 25
REMARK Flexibility Score: inf
ROOT
ATOM      1  C   UNL     1     134.513 134.799 128.170  1.00  0.00     0.138 A 
ATOM      2  C   UNL     1     133.178 134.453 127.917  1.00  0.00     0.100 A 
ATOM      3  C   UNL     1     132.682 134.525 126.615  1.00  0.00     0.197 A 
ATOM      4  O   UNL     1     131.465 134.261 126.430  1.00  0.00    -0.289 OA
ATOM      5  C   UNL     1     133.536 134.912 125.555  1.00  0.00     0.107 A 
ATOM      6  C   UNL     1     133.149 134.989 124.184  1.00  0.00     0.134 A 
ATOM      7  C   UNL     1     134.056 135.481 123.237  1.00  0.00     0.093 A 
ATOM      8  C   UNL     1     135.355 135.844 123.603  1.00  0.00     0.123 A 
ATOM      9  C   UNL     1     135.758 135.725 124.931  1.00  0.00     0.094 A 
ATOM     10  C   UNL     1     134.866 135.271 125.905  1.00  0.00     0.146 A 
ATOM     11  O   UNL     1     135.286 135.190 127.163  1.00  0.00    -0.456 OA
ENDROOT
BRANCH   1  12
ATOM     12  C   UNL     1     135.095 134.738 129.534  1.00  0.00     0.021 A 
ATOM     13  C   UNL     1     135.879 135.787 130.054  1.00  0.00     0.016 A 
ATOM     14  C   UNL     1     136.422 135.697 131.338  1.00  0.00     0.051 A 
ATOM     15  C   UNL     1     136.199 134.558 132.121  1.00  0.00     0.157 A 
ATOM     16  C   UNL     1     134.888 133.593 130.324  1.00  0.00     0.062 A 
ATOM     17  C   UNL     1     135.433 133.504 131.613  1.00  0.00     0.158 A 
BRANCH  15  18
ATOM     18  O   UNL     1     136.739 134.466 133.403  1.00  0.00    -0.504 OA
ATOM     19  H   UNL     1     136.248 133.992 134.152  1.00  0.00     0.293 HD
ENDBRANCH  15  18
BRANCH  17  20
ATOM     20  O   UNL     1     135.215 132.369 132.394  1.00  0.00    -0.504 OA
ATOM     21  H   UNL     1     135.440 131.441 132.055  1.00  0.00     0.293 HD
ENDBRANCH  17  20
ENDBRANCH   1  12
BRANCH   6  22
ATOM     22  O   UNL     1     131.904 134.577 123.696  1.00  0.00    -0.507 OA
ATOM     23  H   UNL     1     131.029 134.670 124.188  1.00  0.00     0.293 HD
ENDBRANCH   6  22
BRANCH   8  24
ATOM     24  O   UNL     1     136.256 136.318 122.652  1.00  0.00    -0.508 OA
ATOM     25  H   UNL     1     135.965 136.523 121.702  1.00  0.00     0.293 HD
ENDBRANCH   8  24
TORSDOF 5
ENDMDL
MODEL 9
REMARK VINA RESULT:    -6.639     15.392     17.564
REMARK INTER + INTRA:          -8.092
REMARK INTER:                  -7.797
REMARK INTRA:                  -0.294
REMARK UNBOUND:                -0.289
REMARK SMILES O=c1cc(-c2ccc(O)c(O)c2)oc2cc(O)cc(O)c12
REMARK SMILES IDX 4 1 3 2 2 3 1 4 21 5 19 6 18 7 16 8 15 9 14 10 13 11 5 12
REMARK SMILES IDX 6 13 7 14 8 15 12 16 10 17 9 18 11 20 20 22 17 24
REMARK H PARENT 9 19 11 21 20 23 17 25
REMARK Flexibility Score: inf
ROOT
ATOM      1  C   UNL     1     134.714 136.440 134.653  1.00  0.00     0.138 A 
ATOM      2  C   UNL     1     135.094 137.249 135.734  1.00  0.00     0.100 A 
ATOM      3  C   UNL     1     136.432 137.606 135.891  1.00  0.00     0.197 A 
ATOM      4  O   UNL     1     136.749 138.287 136.902  1.00  0.00    -0.289 OA
ATOM      5  C   UNL     1     137.392 137.182 134.941  1.00  0.00     0.107 A 
ATOM      6  C   UNL     1     138.779 137.513 134.980  1.00  0.00     0.134 A 
ATOM      7  C   UNL     1     139.650 136.952 134.038  1.00  0.00     0.093 A 
ATOM      8  C   UNL     1     139.175 136.117 133.024  1.00  0.00     0.123 A 
ATOM      9  C   UNL     1     137.815 135.828 132.947  1.00  0.00     0.094 A 
ATOM     10  C   UNL     1     136.925 136.344 133.893  1.00  0.00     0.146 A 
ATOM     11  O   UNL     1     135.639 136.028 133.793  1.00  0.00    -0.456 OA
ENDROOT
BRANCH   1  12
ATOM     12  C   UNL     1     133.303 136.031 134.435  1.00  0.00     0.021 A 
ATOM     13  C   UNL     1     132.919 135.260 133.321  1.00  0.00     0.016 A 
ATOM     14  C   UNL     1     131.581 134.899 133.136  1.00  0.00     0.051 A 
ATOM     15  C   UNL     1     130.607 135.306 134.056  1.00  0.00     0.157 A 
ATOM     16  C   UNL     1     132.315 136.446 135.345  1.00  0.00     0.062 A 
ATOM     17  C   UNL     1     130.973 136.082 135.160  1.00  0.00     0.158 A 
BRANCH  15  18
ATOM     18  O   UNL     1     129.272 134.946 133.875  1.00  0.00    -0.504 OA
ATOM     19  H   UNL     1     128.519 135.471 134.305  1.00  0.00     0.293 HD
ENDBRANCH  15  18
BRANCH  17  20
ATOM     20  O   UNL     1     130.000 136.490 136.072  1.00  0.00    -0.504 OA
ATOM     21  H   UNL     1     129.071 136.086 136.071  1.00  0.00     0.293 HD
ENDBRANCH  17  20
ENDBRANCH   1  12
BRANCH   6  22
ATOM     22  O   UNL     1     139.348 138.400 135.901  1.00  0.00    -0.507 OA
ATOM     23  H   UNL     1     138.919 138.692 136.766  1.00  0.00     0.293 HD
ENDBRANCH   6  22
BRANCH   8  24
ATOM     24  O   UNL     1     140.046 135.576 132.081  1.00  0.00    -0.508 OA
ATOM     25  H   UNL     1     140.025 134.590 131.845  1.00  0.00     0.293 HD
ENDBRANCH   8  24
TORSDOF 5
ENDMDL
