MODEL 1
REMARK VINA RESULT:    -6.728      0.000      0.000
REMARK INTER + INTRA:          -8.207
REMARK INTER:                  -7.908
REMARK INTRA:                  -0.299
REMARK UNBOUND:                -0.299
REMARK SMILES O=c1c(O)c(-c2ccc(O)cc2)oc2cc(O)cc(O)c12
REMARK SMILES IDX 5 1 3 2 2 3 1 4 21 5 19 6 18 7 16 8 15 9 14 10 13 11 6 12
REMARK SMILES IDX 7 13 8 14 9 15 12 16 11 17 10 18 4 20 20 22 17 24
REMARK H PARENT 10 19 4 21 20 23 17 25
REMARK Flexibility Score: inf
ROOT
ATOM      1  C   UNL     1      45.930 -29.127  17.963  1.00  0.00     0.180 A 
ATOM      2  C   UNL     1      46.612 -29.543  19.120  1.00  0.00     0.208 A 
ATOM      3  C   UNL     1      46.082 -30.598  19.880  1.00  0.00     0.238 A 
ATOM      4  O   UNL     1      46.726 -31.003  20.883  1.00  0.00    -0.285 OA
ATOM      5  C   UNL     1      44.869 -31.213  19.483  1.00  0.00     0.111 A 
ATOM      6  C   UNL     1      44.222 -32.263  20.200  1.00  0.00     0.134 A 
ATOM      7  C   UNL     1      43.095 -32.884  19.646  1.00  0.00     0.093 A 
ATOM      8  C   UNL     1      42.557 -32.449  18.433  1.00  0.00     0.123 A 
ATOM      9  C   UNL     1      43.147 -31.386  17.756  1.00  0.00     0.094 A 
ATOM     10  C   UNL     1      44.293 -30.770  18.265  1.00  0.00     0.146 A 
ATOM     11  O   UNL     1      44.830 -29.767  17.581  1.00  0.00    -0.452 OA
ENDROOT
BRANCH   1  12
ATOM     12  C   UNL     1      46.412 -28.005  17.125  1.00  0.00     0.021 A 
ATOM     13  C   UNL     1      47.208 -28.276  15.999  1.00  0.00     0.016 A 
ATOM     14  C   UNL     1      47.656 -27.234  15.181  1.00  0.00     0.047 A 
ATOM     15  C   UNL     1      47.302 -25.912  15.469  1.00  0.00     0.115 A 
ATOM     16  C   UNL     1      46.044 -26.675  17.397  1.00  0.00     0.016 A 
ATOM     17  C   UNL     1      46.492 -25.635  16.577  1.00  0.00     0.047 A 
BRANCH  15  18
ATOM     18  O   UNL     1      47.756 -24.883  14.646  1.00  0.00    -0.508 OA
ATOM     19  H   UNL     1      47.555 -23.912  14.853  1.00  0.00     0.293 HD
ENDBRANCH  15  18
ENDBRANCH   1  12
BRANCH   2  20
ATOM     20  O   UNL     1      47.819 -28.937  19.480  1.00  0.00    -0.502 OA
ATOM     21  H   UNL     1      48.637 -28.959  18.883  1.00  0.00     0.293 HD
ENDBRANCH   2  20
BRANCH   6  22
ATOM     22  O   UNL     1      44.624 -32.711  21.462  1.00  0.00    -0.507 OA
ATOM     23  H   UNL     1      45.381 -33.357  21.628  1.00  0.00     0.293 HD
ENDBRANCH   6  22
BRANCH   8  24
ATOM     24  O   UNL     1      41.426 -33.063  17.897  1.00  0.00    -0.508 OA
ATOM     25  H   UNL     1      41.491 -33.699  17.110  1.00  0.00     0.293 HD
ENDBRANCH   8  24
TORSDOF 5
ENDMDL
MODEL 2
REMARK VINA RESULT:    -6.489      3.790      4.671
REMARK INTER + INTRA:          -7.926
REMARK INTER:                  -7.632
REMARK INTRA:                  -0.294
REMARK UNBOUND:                -0.299
REMARK SMILES O=c1c(O)c(-c2ccc(O)cc2)oc2cc(O)cc(O)c12
REMARK SMILES IDX 5 1 3 2 2 3 1 4 21 5 19 6 18 7 16 8 15 9 14 10 13 11 6 12
REMARK SMILES IDX 7 13 8 14 9 15 12 16 11 17 10 18 4 20 20 22 17 24
REMARK H PARENT 10 19 4 21 20 23 17 25
REMARK Flexibility Score: inf
ROOT
ATOM      1  C   UNL     1      48.054 -26.096  20.252  1.00  0.00     0.180 A 
ATOM      2  C   UNL     1      48.615 -27.243  20.840  1.00  0.00     0.208 A 
ATOM      3  C   UNL     1      47.887 -28.444  20.820  1.00  0.00     0.238 A 
ATOM      4  O   UNL     1      48.418 -29.480  21.299  1.00  0.00    -0.285 OA
ATOM      5  C   UNL     1      46.601 -28.479  20.228  1.00  0.00     0.111 A 
ATOM      6  C   UNL     1      45.760 -29.630  20.187  1.00  0.00     0.134 A 
ATOM      7  C   UNL     1      44.563 -29.585  19.461  1.00  0.00     0.093 A 
ATOM      8  C   UNL     1      44.148 -28.410  18.829  1.00  0.00     0.123 A 
ATOM      9  C   UNL     1      44.934 -27.264  18.914  1.00  0.00     0.094 A 
ATOM     10  C   UNL     1      46.151 -27.288  19.600  1.00  0.00     0.146 A 
ATOM     11  O   UNL     1      46.874 -26.177  19.647  1.00  0.00    -0.452 OA
ENDROOT
BRANCH   1  12
ATOM     12  C   UNL     1      48.749 -24.788  20.257  1.00  0.00     0.021 A 
ATOM     13  C   UNL     1      49.591 -24.450  19.184  1.00  0.00     0.016 A 
ATOM     14  C   UNL     1      50.240 -23.211  19.157  1.00  0.00     0.047 A 
ATOM     15  C   UNL     1      50.045 -22.292  20.191  1.00  0.00     0.115 A 
ATOM     16  C   UNL     1      48.542 -23.851  21.285  1.00  0.00     0.016 A 
ATOM     17  C   UNL     1      49.191 -22.613  21.254  1.00  0.00     0.047 A 
BRANCH  15  18
ATOM     18  O   UNL     1      50.698 -21.062  20.152  1.00  0.00    -0.508 OA
ATOM     19  H   UNL     1      51.006 -20.654  19.277  1.00  0.00     0.293 HD
ENDBRANCH  15  18
ENDBRANCH   1  12
BRANCH   2  20
ATOM     20  O   UNL     1      49.895 -27.192  21.399  1.00  0.00    -0.502 OA
ATOM     21  H   UNL     1      50.736 -27.249  20.837  1.00  0.00     0.293 HD
ENDBRANCH   2  20
BRANCH   6  22
ATOM     22  O   UNL     1      46.036 -30.824  20.859  1.00  0.00    -0.507 OA
ATOM     23  H   UNL     1      45.820 -31.000  21.830  1.00  0.00     0.293 HD
ENDBRANCH   6  22
BRANCH   8  24
ATOM     24  O   UNL     1      42.948 -28.369  18.122  1.00  0.00    -0.508 OA
ATOM     25  H   UNL     1      42.395 -27.521  18.064  1.00  0.00     0.293 HD
ENDBRANCH   8  24
TORSDOF 5
ENDMDL
MODEL 3
REMARK VINA RESULT:    -6.432      1.630      6.686
REMARK INTER + INTRA:          -7.860
REMARK INTER:                  -7.559
REMARK INTRA:                  -0.300
REMARK UNBOUND:                -0.299
REMARK SMILES O=c1c(O)c(-c2ccc(O)cc2)oc2cc(O)cc(O)c12
REMARK SMILES IDX 5 1 3 2 2 3 1 4 21 5 19 6 18 7 16 8 15 9 14 10 13 11 6 12
REMARK SMILES IDX 7 13 8 14 9 15 12 16 11 17 10 18 4 20 20 22 17 24
REMARK H PARENT 10 19 4 21 20 23 17 25
REMARK Flexibility Score: inf
ROOT
ATOM      1  C   UNL     1      46.223 -28.918  18.412  1.00  0.00     0.180 A 
ATOM      2  C   UNL     1      47.296 -28.343  19.116  1.00  0.00     0.208 A 
ATOM      3  C   UNL     1      48.054 -27.335  18.497  1.00  0.00     0.238 A 
ATOM      4  O   UNL     1      48.978 -26.786  19.151  1.00  0.00    -0.285 OA
ATOM      5  C   UNL     1      47.740 -26.928  17.177  1.00  0.00     0.111 A 
ATOM      6  C   UNL     1      48.465 -25.944  16.440  1.00  0.00     0.134 A 
ATOM      7  C   UNL     1      47.987 -25.526  15.191  1.00  0.00     0.093 A 
ATOM      8  C   UNL     1      46.846 -26.102  14.628  1.00  0.00     0.123 A 
ATOM      9  C   UNL     1      46.165 -27.104  15.314  1.00  0.00     0.094 A 
ATOM     10  C   UNL     1      46.597 -27.517  16.577  1.00  0.00     0.146 A 
ATOM     11  O   UNL     1      45.913 -28.468  17.201  1.00  0.00    -0.452 OA
ENDROOT
BRANCH   1  12
ATOM     12  C   UNL     1      45.394 -30.002  18.988  1.00  0.00     0.021 A 
ATOM     13  C   UNL     1      44.206 -29.679  19.665  1.00  0.00     0.016 A 
ATOM     14  C   UNL     1      43.398 -30.688  20.197  1.00  0.00     0.047 A 
ATOM     15  C   UNL     1      43.757 -32.030  20.047  1.00  0.00     0.115 A 
ATOM     16  C   UNL     1      45.741 -31.356  18.823  1.00  0.00     0.016 A 
ATOM     17  C   UNL     1      44.929 -32.363  19.355  1.00  0.00     0.047 A 
BRANCH  15  18
ATOM     18  O   UNL     1      42.943 -33.026  20.583  1.00  0.00    -0.508 OA
ATOM     19  H   UNL     1      41.959 -33.087  20.348  1.00  0.00     0.293 HD
ENDBRANCH  15  18
ENDBRANCH   1  12
BRANCH   2  20
ATOM     20  O   UNL     1      47.574 -28.745  20.425  1.00  0.00    -0.502 OA
ATOM     21  H   UNL     1      47.032 -28.423  21.219  1.00  0.00     0.293 HD
ENDBRANCH   2  20
BRANCH   6  22
ATOM     22  O   UNL     1      49.666 -25.373  16.870  1.00  0.00    -0.507 OA
ATOM     23  H   UNL     1      50.580 -25.772  16.716  1.00  0.00     0.293 HD
ENDBRANCH   6  22
BRANCH   8  24
ATOM     24  O   UNL     1      46.386 -25.691  13.378  1.00  0.00    -0.508 OA
ATOM     25  H   UNL     1      45.576 -25.088  13.284  1.00  0.00     0.293 HD
ENDBRANCH   8  24
TORSDOF 5
ENDMDL
MODEL 4
REMARK VINA RESULT:    -6.195      3.713      7.914
REMARK INTER + INTRA:          -7.581
REMARK INTER:                  -7.285
REMARK INTRA:                  -0.296
REMARK UNBOUND:                -0.299
REMARK SMILES O=c1c(O)c(-c2ccc(O)cc2)oc2cc(O)cc(O)c12
REMARK SMILES IDX 5 1 3 2 2 3 1 4 21 5 19 6 18 7 16 8 15 9 14 10 13 11 6 12
REMARK SMILES IDX 7 13 8 14 9 15 12 16 11 17 10 18 4 20 20 22 17 24
REMARK H PARENT 10 19 4 21 20 23 17 25
REMARK Flexibility Score: inf
ROOT
ATOM      1  C   UNL     1      47.335 -26.772  18.995  1.00  0.00     0.180 A 
ATOM      2  C   UNL     1      48.237 -26.911  17.925  1.00  0.00     0.208 A 
ATOM      3  C   UNL     1      49.235 -25.939  17.746  1.00  0.00     0.238 A 
ATOM      4  O   UNL     1      50.073 -26.097  16.820  1.00  0.00    -0.285 OA
ATOM      5  C   UNL     1      49.309 -24.834  18.628  1.00  0.00     0.111 A 
ATOM      6  C   UNL     1      50.254 -23.771  18.517  1.00  0.00     0.134 A 
ATOM      7  C   UNL     1      50.319 -22.796  19.521  1.00  0.00     0.093 A 
ATOM      8  C   UNL     1      49.430 -22.813  20.599  1.00  0.00     0.123 A 
ATOM      9  C   UNL     1      48.465 -23.813  20.685  1.00  0.00     0.094 A 
ATOM     10  C   UNL     1      48.399 -24.819  19.718  1.00  0.00     0.146 A 
ATOM     11  O   UNL     1      47.471 -25.759  19.844  1.00  0.00    -0.452 OA
ENDROOT
BRANCH   1  12
ATOM     12  C   UNL     1      46.240 -27.741  19.233  1.00  0.00     0.021 A 
ATOM     13  C   UNL     1      46.455 -28.827  20.099  1.00  0.00     0.016 A 
ATOM     14  C   UNL     1      45.429 -29.741  20.355  1.00  0.00     0.047 A 
ATOM     15  C   UNL     1      44.174 -29.574  19.762  1.00  0.00     0.115 A 
ATOM     16  C   UNL     1      44.969 -27.568  18.655  1.00  0.00     0.016 A 
ATOM     17  C   UNL     1      43.945 -28.483  18.915  1.00  0.00     0.047 A 
BRANCH  15  18
ATOM     18  O   UNL     1      43.160 -30.494  20.026  1.00  0.00    -0.508 OA
ATOM     19  H   UNL     1      42.628 -30.462  20.888  1.00  0.00     0.293 HD
ENDBRANCH  15  18
ENDBRANCH   1  12
BRANCH   2  20
ATOM     20  O   UNL     1      48.160 -28.021  17.080  1.00  0.00    -0.502 OA
ATOM     21  H   UNL     1      47.277 -28.435  16.806  1.00  0.00     0.293 HD
ENDBRANCH   2  20
BRANCH   6  22
ATOM     22  O   UNL     1      51.125 -23.609  17.435  1.00  0.00    -0.507 OA
ATOM     23  H   UNL     1      51.262 -24.289  16.702  1.00  0.00     0.293 HD
ENDBRANCH   6  22
BRANCH   8  24
ATOM     24  O   UNL     1      49.492 -21.831  21.585  1.00  0.00    -0.508 OA
ATOM     25  H   UNL     1      49.341 -20.852  21.369  1.00  0.00     0.293 HD
ENDBRANCH   8  24
TORSDOF 5
ENDMDL
MODEL 5
REMARK VINA RESULT:    -6.132      3.670      4.867
REMARK INTER + INTRA:          -7.507
REMARK INTER:                  -7.339
REMARK INTRA:                  -0.168
REMARK UNBOUND:                -0.299
REMARK SMILES O=c1c(O)c(-c2ccc(O)cc2)oc2cc(O)cc(O)c12
REMARK SMILES IDX 5 1 3 2 2 3 1 4 21 5 19 6 18 7 16 8 15 9 14 10 13 11 6 12
REMARK SMILES IDX 7 13 8 14 9 15 12 16 11 17 10 18 4 20 20 22 17 24
REMARK H PARENT 10 19 4 21 20 23 17 25
REMARK Flexibility Score: inf
ROOT
ATOM      1  C   UNL     1      48.500 -26.040  18.875  1.00  0.00     0.180 A 
ATOM      2  C   UNL     1      49.272 -27.162  18.529  1.00  0.00     0.208 A 
ATOM      3  C   UNL     1      48.621 -28.371  18.232  1.00  0.00     0.238 A 
ATOM      4  O   UNL     1      49.314 -29.357  17.869  1.00  0.00    -0.285 OA
ATOM      5  C   UNL     1      47.208 -28.445  18.300  1.00  0.00     0.111 A 
ATOM      6  C   UNL     1      46.447 -29.628  18.058  1.00  0.00     0.134 A 
ATOM      7  C   UNL     1      45.049 -29.555  18.026  1.00  0.00     0.093 A 
ATOM      8  C   UNL     1      44.385 -28.354  18.290  1.00  0.00     0.123 A 
ATOM      9  C   UNL     1      45.118 -27.208  18.586  1.00  0.00     0.094 A 
ATOM     10  C   UNL     1      46.515 -27.242  18.590  1.00  0.00     0.146 A 
ATOM     11  O   UNL     1      47.174 -26.124  18.866  1.00  0.00    -0.452 OA
ENDROOT
BRANCH   1  12
ATOM     12  C   UNL     1      49.115 -24.739  19.227  1.00  0.00     0.021 A 
ATOM     13  C   UNL     1      49.730 -23.971  18.223  1.00  0.00     0.016 A 
ATOM     14  C   UNL     1      50.297 -22.730  18.529  1.00  0.00     0.047 A 
ATOM     15  C   UNL     1      50.245 -22.235  19.835  1.00  0.00     0.115 A 
ATOM     16  C   UNL     1      49.049 -24.227  20.536  1.00  0.00     0.016 A 
ATOM     17  C   UNL     1      49.616 -22.985  20.838  1.00  0.00     0.047 A 
BRANCH  15  18
ATOM     18  O   UNL     1      50.815 -20.997  20.126  1.00  0.00    -0.508 OA
ATOM     19  H   UNL     1      50.265 -20.239  20.510  1.00  0.00     0.293 HD
ENDBRANCH  15  18
ENDBRANCH   1  12
BRANCH   2  20
ATOM     20  O   UNL     1      50.663 -27.061  18.446  1.00  0.00    -0.502 OA
ATOM     21  H   UNL     1      51.194 -27.477  17.691  1.00  0.00     0.293 HD
ENDBRANCH   2  20
BRANCH   6  22
ATOM     22  O   UNL     1      47.009 -30.894  17.873  1.00  0.00    -0.507 OA
ATOM     23  H   UNL     1      47.962 -31.139  18.100  1.00  0.00     0.293 HD
ENDBRANCH   6  22
BRANCH   8  24
ATOM     24  O   UNL     1      42.993 -28.294  18.272  1.00  0.00    -0.508 OA
ATOM     25  H   UNL     1      42.468 -27.927  19.057  1.00  0.00     0.293 HD
ENDBRANCH   8  24
TORSDOF 5
ENDMDL
MODEL 6
REMARK VINA RESULT:    -6.128      5.516      6.591
REMARK INTER + INTRA:          -7.503
REMARK INTER:                  -7.256
REMARK INTRA:                  -0.247
REMARK UNBOUND:                -0.299
REMARK SMILES O=c1c(O)c(-c2ccc(O)cc2)oc2cc(O)cc(O)c12
REMARK SMILES IDX 5 1 3 2 2 3 1 4 21 5 19 6 18 7 16 8 15 9 14 10 13 11 6 12
REMARK SMILES IDX 7 13 8 14 9 15 12 16 11 17 10 18 4 20 20 22 17 24
REMARK H PARENT 10 19 4 21 20 23 17 25
REMARK Flexibility Score: inf
ROOT
ATOM      1  C   UNL     1      48.961 -25.400  17.758  1.00  0.00     0.180 A 
ATOM      2  C   UNL     1      49.939 -26.383  17.529  1.00  0.00     0.208 A 
ATOM      3  C   UNL     1      49.723 -27.335  16.519  1.00  0.00     0.238 A 
ATOM      4  O   UNL     1      50.626 -28.179  16.281  1.00  0.00    -0.285 OA
ATOM      5  C   UNL     1      48.526 -27.303  15.764  1.00  0.00     0.111 A 
ATOM      6  C   UNL     1      48.185 -28.241  14.744  1.00  0.00     0.134 A 
ATOM      7  C   UNL     1      47.034 -28.036  13.973  1.00  0.00     0.093 A 
ATOM      8  C   UNL     1      46.179 -26.961  14.228  1.00  0.00     0.123 A 
ATOM      9  C   UNL     1      46.472 -26.073  15.260  1.00  0.00     0.094 A 
ATOM     10  C   UNL     1      47.632 -26.231  16.023  1.00  0.00     0.146 A 
ATOM     11  O   UNL     1      47.878 -25.356  16.989  1.00  0.00    -0.452 OA
ENDROOT
BRANCH   1  12
ATOM     12  C   UNL     1      49.105 -24.379  18.821  1.00  0.00     0.021 A 
ATOM     13  C   UNL     1      49.921 -23.257  18.596  1.00  0.00     0.016 A 
ATOM     14  C   UNL     1      50.054 -22.270  19.578  1.00  0.00     0.047 A 
ATOM     15  C   UNL     1      49.363 -22.383  20.787  1.00  0.00     0.115 A 
ATOM     16  C   UNL     1      48.397 -24.477  20.033  1.00  0.00     0.016 A 
ATOM     17  C   UNL     1      48.531 -23.488  21.012  1.00  0.00     0.047 A 
BRANCH  15  18
ATOM     18  O   UNL     1      49.505 -21.392  21.757  1.00  0.00    -0.508 OA
ATOM     19  H   UNL     1      50.413 -21.151  22.137  1.00  0.00     0.293 HD
ENDBRANCH  15  18
ENDBRANCH   1  12
BRANCH   2  20
ATOM     20  O   UNL     1      51.123 -26.384  18.270  1.00  0.00    -0.502 OA
ATOM     21  H   UNL     1      51.280 -25.749  19.044  1.00  0.00     0.293 HD
ENDBRANCH   2  20
BRANCH   6  22
ATOM     22  O   UNL     1      48.921 -29.398  14.470  1.00  0.00    -0.507 OA
ATOM     23  H   UNL     1      49.469 -29.546  13.636  1.00  0.00     0.293 HD
ENDBRANCH   6  22
BRANCH   8  24
ATOM     24  O   UNL     1      45.028 -26.773  13.466  1.00  0.00    -0.508 OA
ATOM     25  H   UNL     1      44.659 -27.508  12.873  1.00  0.00     0.293 HD
ENDBRANCH   8  24
TORSDOF 5
ENDMDL
MODEL 7
REMARK VINA RESULT:    -5.977      2.843      7.471
REMARK INTER + INTRA:          -7.325
REMARK INTER:                  -7.174
REMARK INTRA:                  -0.151
REMARK UNBOUND:                -0.299
REMARK SMILES O=c1c(O)c(-c2ccc(O)cc2)oc2cc(O)cc(O)c12
REMARK SMILES IDX 5 1 3 2 2 3 1 4 21 5 19 6 18 7 16 8 15 9 14 10 13 11 6 12
REMARK SMILES IDX 7 13 8 14 9 15 12 16 11 17 10 18 4 20 20 22 17 24
REMARK H PARENT 10 19 4 21 20 23 17 25
REMARK Flexibility Score: inf
ROOT
ATOM      1  C   UNL     1      46.710 -27.608  18.325  1.00  0.00     0.180 A 
ATOM      2  C   UNL     1      47.354 -27.591  17.076  1.00  0.00     0.208 A 
ATOM      3  C   UNL     1      48.288 -26.577  16.805  1.00  0.00     0.238 A 
ATOM      4  O   UNL     1      48.901 -26.598  15.706  1.00  0.00    -0.285 OA
ATOM      5  C   UNL     1      48.552 -25.584  17.779  1.00  0.00     0.111 A 
ATOM      6  C   UNL     1      49.448 -24.488  17.597  1.00  0.00     0.134 A 
ATOM      7  C   UNL     1      49.731 -23.641  18.675  1.00  0.00     0.093 A 
ATOM      8  C   UNL     1      49.101 -23.812  19.910  1.00  0.00     0.123 A 
ATOM      9  C   UNL     1      48.180 -24.842  20.080  1.00  0.00     0.094 A 
ATOM     10  C   UNL     1      47.904 -25.726  19.034  1.00  0.00     0.146 A 
ATOM     11  O   UNL     1      47.029 -26.701  19.242  1.00  0.00    -0.452 OA
ENDROOT
BRANCH   1  12
ATOM     12  C   UNL     1      45.696 -28.629  18.674  1.00  0.00     0.021 A 
ATOM     13  C   UNL     1      45.926 -29.487  19.764  1.00  0.00     0.016 A 
ATOM     14  C   UNL     1      44.973 -30.444  20.125  1.00  0.00     0.047 A 
ATOM     15  C   UNL     1      43.774 -30.546  19.413  1.00  0.00     0.115 A 
ATOM     16  C   UNL     1      44.480 -28.725  17.974  1.00  0.00     0.016 A 
ATOM     17  C   UNL     1      43.527 -29.681  18.339  1.00  0.00     0.047 A 
BRANCH  15  18
ATOM     18  O   UNL     1      42.833 -31.505  19.783  1.00  0.00    -0.508 OA
ATOM     19  H   UNL     1      42.606 -31.676  20.756  1.00  0.00     0.293 HD
ENDBRANCH  15  18
ENDBRANCH   1  12
BRANCH   2  20
ATOM     20  O   UNL     1      47.095 -28.593  16.137  1.00  0.00    -0.502 OA
ATOM     21  H   UNL     1      47.774 -28.872  15.438  1.00  0.00     0.293 HD
ENDBRANCH   2  20
BRANCH   6  22
ATOM     22  O   UNL     1      50.059 -24.173  16.380  1.00  0.00    -0.507 OA
ATOM     23  H   UNL     1      50.836 -23.537  16.274  1.00  0.00     0.293 HD
ENDBRANCH   6  22
BRANCH   8  24
ATOM     24  O   UNL     1      49.377 -22.955  20.974  1.00  0.00    -0.508 OA
ATOM     25  H   UNL     1      49.094 -23.178  21.921  1.00  0.00     0.293 HD
ENDBRANCH   8  24
TORSDOF 5
ENDMDL
MODEL 8
REMARK VINA RESULT:    -5.768      1.461      3.095
REMARK INTER + INTRA:          -7.079
REMARK INTER:                  -6.821
REMARK INTRA:                  -0.259
REMARK UNBOUND:                -0.299
REMARK SMILES O=c1c(O)c(-c2ccc(O)cc2)oc2cc(O)cc(O)c12
REMARK SMILES IDX 5 1 3 2 2 3 1 4 21 5 19 6 18 7 16 8 15 9 14 10 13 11 6 12
REMARK SMILES IDX 7 13 8 14 9 15 12 16 11 17 10 18 4 20 20 22 17 24
REMARK H PARENT 10 19 4 21 20 23 17 25
REMARK Flexibility Score: inf
ROOT
ATOM      1  C   UNL     1      46.294 -29.074  18.102  1.00  0.00     0.180 A 
ATOM      2  C   UNL     1      44.925 -29.389  18.165  1.00  0.00     0.208 A 
ATOM      3  C   UNL     1      44.509 -30.452  18.983  1.00  0.00     0.238 A 
ATOM      4  O   UNL     1      43.277 -30.694  19.079  1.00  0.00    -0.285 OA
ATOM      5  C   UNL     1      45.467 -31.195  19.715  1.00  0.00     0.111 A 
ATOM      6  C   UNL     1      45.162 -32.316  20.543  1.00  0.00     0.134 A 
ATOM      7  C   UNL     1      46.172 -32.895  21.322  1.00  0.00     0.093 A 
ATOM      8  C   UNL     1      47.489 -32.433  21.252  1.00  0.00     0.123 A 
ATOM      9  C   UNL     1      47.808 -31.378  20.401  1.00  0.00     0.094 A 
ATOM     10  C   UNL     1      46.815 -30.757  19.639  1.00  0.00     0.146 A 
ATOM     11  O   UNL     1      47.160 -29.747  18.850  1.00  0.00    -0.452 OA
ENDROOT
BRANCH   1  12
ATOM     12  C   UNL     1      46.812 -27.984  17.242  1.00  0.00     0.021 A 
ATOM     13  C   UNL     1      47.350 -28.296  15.982  1.00  0.00     0.016 A 
ATOM     14  C   UNL     1      47.825 -27.281  15.145  1.00  0.00     0.047 A 
ATOM     15  C   UNL     1      47.756 -25.945  15.550  1.00  0.00     0.115 A 
ATOM     16  C   UNL     1      46.728 -26.636  17.635  1.00  0.00     0.016 A 
ATOM     17  C   UNL     1      47.202 -25.624  16.796  1.00  0.00     0.047 A 
BRANCH  15  18
ATOM     18  O   UNL     1      48.234 -24.944  14.706  1.00  0.00    -0.508 OA
ATOM     19  H   UNL     1      49.167 -24.984  14.313  1.00  0.00     0.293 HD
ENDBRANCH  15  18
ENDBRANCH   1  12
BRANCH   2  20
ATOM     20  O   UNL     1      43.995 -28.628  17.453  1.00  0.00    -0.502 OA
ATOM     21  H   UNL     1      43.168 -28.235  17.887  1.00  0.00     0.293 HD
ENDBRANCH   2  20
BRANCH   6  22
ATOM     22  O   UNL     1      43.900 -32.913  20.616  1.00  0.00    -0.507 OA
ATOM     23  H   UNL     1      43.710 -33.806  21.048  1.00  0.00     0.293 HD
ENDBRANCH   6  22
BRANCH   8  24
ATOM     24  O   UNL     1      48.491 -33.024  22.018  1.00  0.00    -0.508 OA
ATOM     25  H   UNL     1      48.539 -34.029  22.143  1.00  0.00     0.293 HD
ENDBRANCH   8  24
TORSDOF 5
ENDMDL
MODEL 9
REMARK VINA RESULT:    -5.716      3.429      5.302
REMARK INTER + INTRA:          -7.018
REMARK INTER:                  -6.871
REMARK INTRA:                  -0.147
REMARK UNBOUND:                -0.299
REMARK SMILES O=c1c(O)c(-c2ccc(O)cc2)oc2cc(O)cc(O)c12
REMARK SMILES IDX 5 1 3 2 2 3 1 4 21 5 19 6 18 7 16 8 15 9 14 10 13 11 6 12
REMARK SMILES IDX 7 13 8 14 9 15 12 16 11 17 10 18 4 20 20 22 17 24
REMARK H PARENT 10 19 4 21 20 23 17 25
REMARK Flexibility Score: inf
ROOT
ATOM      1  C   UNL     1      47.983 -25.819  19.074  1.00  0.00     0.180 A 
ATOM      2  C   UNL     1      47.100 -25.944  17.987  1.00  0.00     0.208 A 
ATOM      3  C   UNL     1      46.396 -27.147  17.817  1.00  0.00     0.238 A 
ATOM      4  O   UNL     1      45.566 -27.234  16.875  1.00  0.00    -0.285 OA
ATOM      5  C   UNL     1      46.597 -28.215  18.725  1.00  0.00     0.111 A 
ATOM      6  C   UNL     1      45.967 -29.492  18.626  1.00  0.00     0.134 A 
ATOM      7  C   UNL     1      46.140 -30.429  19.653  1.00  0.00     0.093 A 
ATOM      8  C   UNL     1      46.970 -30.157  20.743  1.00  0.00     0.123 A 
ATOM      9  C   UNL     1      47.635 -28.937  20.819  1.00  0.00     0.094 A 
ATOM     10  C   UNL     1      47.455 -27.968  19.828  1.00  0.00     0.146 A 
ATOM     11  O   UNL     1      48.100 -26.814  19.945  1.00  0.00    -0.452 OA
ENDROOT
BRANCH   1  12
ATOM     12  C   UNL     1      48.779 -24.591  19.304  1.00  0.00     0.021 A 
ATOM     13  C   UNL     1      48.605 -23.869  20.497  1.00  0.00     0.016 A 
ATOM     14  C   UNL     1      49.362 -22.719  20.745  1.00  0.00     0.047 A 
ATOM     15  C   UNL     1      50.309 -22.286  19.814  1.00  0.00     0.115 A 
ATOM     16  C   UNL     1      49.748 -24.160  18.379  1.00  0.00     0.016 A 
ATOM     17  C   UNL     1      50.504 -23.012  18.631  1.00  0.00     0.047 A 
BRANCH  15  18
ATOM     18  O   UNL     1      51.056 -21.138  20.074  1.00  0.00    -0.508 OA
ATOM     19  H   UNL     1      51.954 -20.980  19.631  1.00  0.00     0.293 HD
ENDBRANCH  15  18
ENDBRANCH   1  12
BRANCH   2  20
ATOM     20  O   UNL     1      46.900 -24.870  17.116  1.00  0.00    -0.502 OA
ATOM     21  H   UNL     1      47.371 -23.980  17.233  1.00  0.00     0.293 HD
ENDBRANCH   2  20
BRANCH   6  22
ATOM     22  O   UNL     1      45.193 -29.898  17.536  1.00  0.00    -0.507 OA
ATOM     23  H   UNL     1      44.990 -30.859  17.300  1.00  0.00     0.293 HD
ENDBRANCH   6  22
BRANCH   8  24
ATOM     24  O   UNL     1      47.148 -31.101  21.753  1.00  0.00    -0.508 OA
ATOM     25  H   UNL     1      46.419 -31.297  22.429  1.00  0.00     0.293 HD
ENDBRANCH   8  24
TORSDOF 5
ENDMDL
