MODEL 1
REMARK VINA RESULT:    -6.066      0.000      0.000
REMARK INTER + INTRA:          -7.086
REMARK INTER:                  -7.307
REMARK INTRA:                   0.221
REMARK UNBOUND:                 0.221
REMARK SMILES O=c1c(O)c(-c2ccc(O)c(O)c2)oc2cc(O)cc(O)c12
REMARK SMILES IDX 5 1 3 2 2 3 1 4 22 5 20 6 19 7 17 8 16 9 15 10 14 11 6 12
REMARK SMILES IDX 7 13 8 14 9 15 13 16 11 17 10 18 12 20 4 22 21 24 18 26
REMARK H PARENT 10 19 12 21 4 23 21 25 18 27
REMARK Flexibility Score: inf
ROOT
ATOM      1  C   UNL     1      39.231  47.081   7.809  1.00  0.00     0.180 A 
ATOM      2  C   UNL     1      38.574  45.903   7.407  1.00  0.00     0.208 A 
ATOM      3  C   UNL     1      39.225  44.671   7.578  1.00  0.00     0.238 A 
ATOM      4  O   UNL     1      38.651  43.610   7.212  1.00  0.00    -0.285 OA
ATOM      5  C   UNL     1      40.508  44.635   8.164  1.00  0.00     0.111 A 
ATOM      6  C   UNL     1      41.230  43.436   8.374  1.00  0.00     0.134 A 
ATOM      7  C   UNL     1      42.498  43.483   8.972  1.00  0.00     0.093 A 
ATOM      8  C   UNL     1      43.057  44.706   9.362  1.00  0.00     0.123 A 
ATOM      9  C   UNL     1      42.348  45.891   9.156  1.00  0.00     0.094 A 
ATOM     10  C   UNL     1      41.084  45.865   8.560  1.00  0.00     0.146 A 
ATOM     11  O   UNL     1      40.435  47.008   8.371  1.00  0.00    -0.452 OA
ENDROOT
BRANCH   1  12
ATOM     12  C   UNL     1      38.619  48.419   7.644  1.00  0.00     0.025 A 
ATOM     13  C   UNL     1      37.241  48.580   7.862  1.00  0.00     0.016 A 
ATOM     14  C   UNL     1      36.646  49.838   7.733  1.00  0.00     0.051 A 
ATOM     15  C   UNL     1      37.423  50.955   7.399  1.00  0.00     0.157 A 
ATOM     16  C   UNL     1      39.398  49.547   7.329  1.00  0.00     0.062 A 
ATOM     17  C   UNL     1      38.801  50.810   7.200  1.00  0.00     0.158 A 
BRANCH  15  18
ATOM     18  O   UNL     1      36.833  52.211   7.266  1.00  0.00    -0.504 OA
ATOM     19  H   UNL     1      37.115  52.992   7.846  1.00  0.00     0.293 HD
ENDBRANCH  15  18
BRANCH  17  20
ATOM     20  O   UNL     1      39.573  51.926   6.882  1.00  0.00    -0.504 OA
ATOM     21  H   UNL     1      39.232  52.645   6.253  1.00  0.00     0.293 HD
ENDBRANCH  17  20
ENDBRANCH   1  12
BRANCH   2  22
ATOM     22  O   UNL     1      37.284  45.960   6.876  1.00  0.00    -0.502 OA
ATOM     23  H   UNL     1      36.692  45.141   6.795  1.00  0.00     0.293 HD
ENDBRANCH   2  22
BRANCH   6  24
ATOM     24  O   UNL     1      40.699  42.202   7.996  1.00  0.00    -0.507 OA
ATOM     25  H   UNL     1      40.763  41.388   8.596  1.00  0.00     0.293 HD
ENDBRANCH   6  24
BRANCH   8  26
ATOM     26  O   UNL     1      44.316  44.753   9.957  1.00  0.00    -0.508 OA
ATOM     27  H   UNL     1      44.530  44.214  10.787  1.00  0.00     0.293 HD
ENDBRANCH   8  26
TORSDOF 6
ENDMDL
MODEL 2
REMARK VINA RESULT:    -5.861      2.133      7.139
REMARK INTER + INTRA:          -6.839
REMARK INTER:                  -6.680
REMARK INTRA:                  -0.159
REMARK UNBOUND:                 0.221
REMARK SMILES O=c1c(O)c(-c2ccc(O)c(O)c2)oc2cc(O)cc(O)c12
REMARK SMILES IDX 5 1 3 2 2 3 1 4 22 5 20 6 19 7 17 8 16 9 15 10 14 11 6 12
REMARK SMILES IDX 7 13 8 14 9 15 13 16 11 17 10 18 12 20 4 22 21 24 18 26
REMARK H PARENT 10 19 12 21 4 23 21 25 18 27
REMARK Flexibility Score: inf
ROOT
ATOM      1  C   UNL     1      41.604  44.063   7.693  1.00  0.00     0.180 A 
ATOM      2  C   UNL     1      40.604  43.148   7.314  1.00  0.00     0.208 A 
ATOM      3  C   UNL     1      39.279  43.598   7.205  1.00  0.00     0.238 A 
ATOM      4  O   UNL     1      38.373  42.784   6.876  1.00  0.00    -0.285 OA
ATOM      5  C   UNL     1      38.979  44.953   7.455  1.00  0.00     0.111 A 
ATOM      6  C   UNL     1      37.671  45.486   7.363  1.00  0.00     0.134 A 
ATOM      7  C   UNL     1      37.456  46.849   7.619  1.00  0.00     0.093 A 
ATOM      8  C   UNL     1      38.523  47.687   7.964  1.00  0.00     0.123 A 
ATOM      9  C   UNL     1      39.814  47.164   8.056  1.00  0.00     0.094 A 
ATOM     10  C   UNL     1      40.049  45.809   7.807  1.00  0.00     0.146 A 
ATOM     11  O   UNL     1      41.287  45.338   7.907  1.00  0.00    -0.452 OA
ENDROOT
BRANCH   1  12
ATOM     12  C   UNL     1      43.021  43.662   7.849  1.00  0.00     0.025 A 
ATOM     13  C   UNL     1      44.007  44.296   7.076  1.00  0.00     0.016 A 
ATOM     14  C   UNL     1      45.352  43.947   7.221  1.00  0.00     0.051 A 
ATOM     15  C   UNL     1      45.732  42.972   8.152  1.00  0.00     0.157 A 
ATOM     16  C   UNL     1      43.409  42.698   8.797  1.00  0.00     0.062 A 
ATOM     17  C   UNL     1      44.759  42.349   8.944  1.00  0.00     0.158 A 
BRANCH  15  18
ATOM     18  O   UNL     1      47.073  42.620   8.299  1.00  0.00    -0.504 OA
ATOM     19  H   UNL     1      47.818  43.229   7.982  1.00  0.00     0.293 HD
ENDBRANCH  15  18
BRANCH  17  20
ATOM     20  O   UNL     1      45.142  41.389   9.879  1.00  0.00    -0.504 OA
ATOM     21  H   UNL     1      44.802  41.413  10.833  1.00  0.00     0.293 HD
ENDBRANCH  17  20
ENDBRANCH   1  12
BRANCH   2  22
ATOM     22  O   UNL     1      40.935  41.823   7.023  1.00  0.00    -0.502 OA
ATOM     23  H   UNL     1      41.086  41.496   6.076  1.00  0.00     0.293 HD
ENDBRANCH   2  22
BRANCH   6  24
ATOM     24  O   UNL     1      36.588  44.677   7.020  1.00  0.00    -0.507 OA
ATOM     25  H   UNL     1      36.658  43.666   7.014  1.00  0.00     0.293 HD
ENDBRANCH   6  24
BRANCH   8  26
ATOM     26  O   UNL     1      38.310  49.040   8.217  1.00  0.00    -0.508 OA
ATOM     27  H   UNL     1      38.990  49.597   8.721  1.00  0.00     0.293 HD
ENDBRANCH   8  26
TORSDOF 6
ENDMDL
MODEL 3
REMARK VINA RESULT:    -5.844      4.677      6.055
REMARK INTER + INTRA:          -6.819
REMARK INTER:                  -6.574
REMARK INTRA:                  -0.245
REMARK UNBOUND:                 0.221
REMARK SMILES O=c1c(O)c(-c2ccc(O)c(O)c2)oc2cc(O)cc(O)c12
REMARK SMILES IDX 5 1 3 2 2 3 1 4 22 5 20 6 19 7 17 8 16 9 15 10 14 11 6 12
REMARK SMILES IDX 7 13 8 14 9 15 13 16 11 17 10 18 12 20 4 22 21 24 18 26
REMARK H PARENT 10 19 12 21 4 23 21 25 18 27
REMARK Flexibility Score: inf
ROOT
ATOM      1  C   UNL     1      44.281  45.548   8.638  1.00  0.00     0.180 A 
ATOM      2  C   UNL     1      42.955  45.459   9.102  1.00  0.00     0.208 A 
ATOM      3  C   UNL     1      42.292  44.224   9.033  1.00  0.00     0.238 A 
ATOM      4  O   UNL     1      41.101  44.135   9.436  1.00  0.00    -0.285 OA
ATOM      5  C   UNL     1      42.970  43.097   8.522  1.00  0.00     0.111 A 
ATOM      6  C   UNL     1      42.375  41.816   8.422  1.00  0.00     0.134 A 
ATOM      7  C   UNL     1      43.119  40.742   7.910  1.00  0.00     0.093 A 
ATOM      8  C   UNL     1      44.444  40.925   7.498  1.00  0.00     0.123 A 
ATOM      9  C   UNL     1      45.034  42.187   7.595  1.00  0.00     0.094 A 
ATOM     10  C   UNL     1      44.309  43.270   8.100  1.00  0.00     0.146 A 
ATOM     11  O   UNL     1      44.893  44.460   8.176  1.00  0.00    -0.452 OA
ENDROOT
BRANCH   1  12
ATOM     12  C   UNL     1      45.040  46.819   8.660  1.00  0.00     0.025 A 
ATOM     13  C   UNL     1      46.143  46.950   9.518  1.00  0.00     0.016 A 
ATOM     14  C   UNL     1      46.886  48.133   9.540  1.00  0.00     0.051 A 
ATOM     15  C   UNL     1      46.546  49.195   8.693  1.00  0.00     0.157 A 
ATOM     16  C   UNL     1      44.714  47.881   7.796  1.00  0.00     0.062 A 
ATOM     17  C   UNL     1      45.461  49.068   7.817  1.00  0.00     0.158 A 
BRANCH  15  18
ATOM     18  O   UNL     1      47.283  50.378   8.714  1.00  0.00    -0.504 OA
ATOM     19  H   UNL     1      46.849  51.276   8.532  1.00  0.00     0.293 HD
ENDBRANCH  15  18
BRANCH  17  20
ATOM     20  O   UNL     1      45.134  50.122   6.966  1.00  0.00    -0.504 OA
ATOM     21  H   UNL     1      44.493  50.854   7.251  1.00  0.00     0.293 HD
ENDBRANCH  17  20
ENDBRANCH   1  12
BRANCH   2  22
ATOM     22  O   UNL     1      42.323  46.578   9.650  1.00  0.00    -0.502 OA
ATOM     23  H   UNL     1      42.636  47.011  10.511  1.00  0.00     0.293 HD
ENDBRANCH   2  22
BRANCH   6  24
ATOM     24  O   UNL     1      41.057  41.602   8.825  1.00  0.00    -0.507 OA
ATOM     25  H   UNL     1      40.440  42.370   9.062  1.00  0.00     0.293 HD
ENDBRANCH   6  24
BRANCH   8  26
ATOM     26  O   UNL     1      45.184  39.859   6.991  1.00  0.00    -0.508 OA
ATOM     27  H   UNL     1      46.183  39.787   7.144  1.00  0.00     0.293 HD
ENDBRANCH   8  26
TORSDOF 6
ENDMDL
MODEL 4
REMARK VINA RESULT:    -5.756      2.448      6.184
REMARK INTER + INTRA:          -6.713
REMARK INTER:                  -6.632
REMARK INTRA:                  -0.081
REMARK UNBOUND:                 0.221
REMARK SMILES O=c1c(O)c(-c2ccc(O)c(O)c2)oc2cc(O)cc(O)c12
REMARK SMILES IDX 5 1 3 2 2 3 1 4 22 5 20 6 19 7 17 8 16 9 15 10 14 11 6 12
REMARK SMILES IDX 7 13 8 14 9 15 13 16 11 17 10 18 12 20 4 22 21 24 18 26
REMARK H PARENT 10 19 12 21 4 23 21 25 18 27
REMARK Flexibility Score: inf
ROOT
ATOM      1  C   UNL     1      42.256  45.706   7.883  1.00  0.00     0.180 A 
ATOM      2  C   UNL     1      42.067  44.313   7.813  1.00  0.00     0.208 A 
ATOM      3  C   UNL     1      40.776  43.814   7.581  1.00  0.00     0.238 A 
ATOM      4  O   UNL     1      40.593  42.567   7.527  1.00  0.00    -0.285 OA
ATOM      5  C   UNL     1      39.702  44.711   7.404  1.00  0.00     0.111 A 
ATOM      6  C   UNL     1      38.372  44.290   7.164  1.00  0.00     0.134 A 
ATOM      7  C   UNL     1      37.361  45.247   6.989  1.00  0.00     0.093 A 
ATOM      8  C   UNL     1      37.654  46.614   7.051  1.00  0.00     0.123 A 
ATOM      9  C   UNL     1      38.964  47.033   7.288  1.00  0.00     0.094 A 
ATOM     10  C   UNL     1      39.986  46.096   7.467  1.00  0.00     0.146 A 
ATOM     11  O   UNL     1      41.222  46.524   7.697  1.00  0.00    -0.452 OA
ENDROOT
BRANCH   1  12
ATOM     12  C   UNL     1      43.583  46.309   8.143  1.00  0.00     0.025 A 
ATOM     13  C   UNL     1      44.071  47.302   7.280  1.00  0.00     0.016 A 
ATOM     14  C   UNL     1      45.312  47.899   7.518  1.00  0.00     0.051 A 
ATOM     15  C   UNL     1      46.074  47.523   8.630  1.00  0.00     0.157 A 
ATOM     16  C   UNL     1      44.343  45.948   9.271  1.00  0.00     0.062 A 
ATOM     17  C   UNL     1      45.587  46.548   9.511  1.00  0.00     0.158 A 
BRANCH  15  18
ATOM     18  O   UNL     1      47.314  48.114   8.870  1.00  0.00    -0.504 OA
ATOM     19  H   UNL     1      47.599  48.959   8.389  1.00  0.00     0.293 HD
ENDBRANCH  15  18
BRANCH  17  20
ATOM     20  O   UNL     1      46.342  46.186  10.625  1.00  0.00    -0.504 OA
ATOM     21  H   UNL     1      46.359  46.757  11.463  1.00  0.00     0.293 HD
ENDBRANCH  17  20
ENDBRANCH   1  12
BRANCH   2  22
ATOM     22  O   UNL     1      43.155  43.446   7.941  1.00  0.00    -0.502 OA
ATOM     23  H   UNL     1      43.117  42.608   8.510  1.00  0.00     0.293 HD
ENDBRANCH   2  22
BRANCH   6  24
ATOM     24  O   UNL     1      38.049  42.934   7.096  1.00  0.00    -0.507 OA
ATOM     25  H   UNL     1      37.117  42.620   6.855  1.00  0.00     0.293 HD
ENDBRANCH   6  24
BRANCH   8  26
ATOM     26  O   UNL     1      36.650  47.564   6.877  1.00  0.00    -0.508 OA
ATOM     27  H   UNL     1      36.264  47.765   5.961  1.00  0.00     0.293 HD
ENDBRANCH   8  26
TORSDOF 6
ENDMDL
MODEL 5
REMARK VINA RESULT:    -5.717      1.563      6.861
REMARK INTER + INTRA:          -6.665
REMARK INTER:                  -6.505
REMARK INTRA:                  -0.160
REMARK UNBOUND:                 0.221
REMARK SMILES O=c1c(O)c(-c2ccc(O)c(O)c2)oc2cc(O)cc(O)c12
REMARK SMILES IDX 5 1 3 2 2 3 1 4 22 5 20 6 19 7 17 8 16 9 15 10 14 11 6 12
REMARK SMILES IDX 7 13 8 14 9 15 13 16 11 17 10 18 12 20 4 22 21 24 18 26
REMARK H PARENT 10 19 12 21 4 23 21 25 18 27
REMARK Flexibility Score: inf
ROOT
ATOM      1  C   UNL     1      40.386  44.882   7.779  1.00  0.00     0.180 A 
ATOM      2  C   UNL     1      39.013  44.639   7.586  1.00  0.00     0.208 A 
ATOM      3  C   UNL     1      38.158  45.728   7.351  1.00  0.00     0.238 A 
ATOM      4  O   UNL     1      36.925  45.523   7.187  1.00  0.00    -0.285 OA
ATOM      5  C   UNL     1      38.690  47.032   7.294  1.00  0.00     0.111 A 
ATOM      6  C   UNL     1      37.898  48.182   7.059  1.00  0.00     0.134 A 
ATOM      7  C   UNL     1      38.504  49.446   7.007  1.00  0.00     0.093 A 
ATOM      8  C   UNL     1      39.886  49.582   7.185  1.00  0.00     0.123 A 
ATOM      9  C   UNL     1      40.670  48.451   7.418  1.00  0.00     0.094 A 
ATOM     10  C   UNL     1      40.085  47.182   7.475  1.00  0.00     0.146 A 
ATOM     11  O   UNL     1      40.855  46.125   7.703  1.00  0.00    -0.452 OA
ENDROOT
BRANCH   1  12
ATOM     12  C   UNL     1      41.348  43.789   8.050  1.00  0.00     0.025 A 
ATOM     13  C   UNL     1      41.607  42.834   7.054  1.00  0.00     0.016 A 
ATOM     14  C   UNL     1      42.526  41.807   7.280  1.00  0.00     0.051 A 
ATOM     15  C   UNL     1      43.211  41.729   8.500  1.00  0.00     0.157 A 
ATOM     16  C   UNL     1      42.054  43.720   9.265  1.00  0.00     0.062 A 
ATOM     17  C   UNL     1      42.978  42.689   9.492  1.00  0.00     0.158 A 
BRANCH  15  18
ATOM     18  O   UNL     1      44.128  40.704   8.731  1.00  0.00    -0.504 OA
ATOM     19  H   UNL     1      45.031  40.687   8.271  1.00  0.00     0.293 HD
ENDBRANCH  15  18
BRANCH  17  20
ATOM     20  O   UNL     1      43.672  42.617  10.698  1.00  0.00    -0.504 OA
ATOM     21  H   UNL     1      43.597  43.347  11.398  1.00  0.00     0.293 HD
ENDBRANCH  17  20
ENDBRANCH   1  12
BRANCH   2  22
ATOM     22  O   UNL     1      38.519  43.333   7.598  1.00  0.00    -0.502 OA
ATOM     23  H   UNL     1      38.530  42.740   6.775  1.00  0.00     0.293 HD
ENDBRANCH   2  22
BRANCH   6  24
ATOM     24  O   UNL     1      36.518  48.079   6.876  1.00  0.00    -0.507 OA
ATOM     25  H   UNL     1      36.032  47.195   6.974  1.00  0.00     0.293 HD
ENDBRANCH   6  24
BRANCH   8  26
ATOM     26  O   UNL     1      40.489  50.837   7.133  1.00  0.00    -0.508 OA
ATOM     27  H   UNL     1      40.111  51.627   7.643  1.00  0.00     0.293 HD
ENDBRANCH   8  26
TORSDOF 6
ENDMDL
MODEL 6
REMARK VINA RESULT:    -5.678      2.346      3.801
REMARK INTER + INTRA:          -6.619
REMARK INTER:                  -6.954
REMARK INTRA:                   0.335
REMARK UNBOUND:                 0.221
REMARK SMILES O=c1c(O)c(-c2ccc(O)c(O)c2)oc2cc(O)cc(O)c12
REMARK SMILES IDX 5 1 3 2 2 3 1 4 22 5 20 6 19 7 17 8 16 9 15 10 14 11 6 12
REMARK SMILES IDX 7 13 8 14 9 15 13 16 11 17 10 18 12 20 4 22 21 24 18 26
REMARK H PARENT 10 19 12 21 4 23 21 25 18 27
REMARK Flexibility Score: inf
ROOT
ATOM      1  C   UNL     1      41.592  44.378   7.904  1.00  0.00     0.180 A 
ATOM      2  C   UNL     1      41.278  43.017   7.731  1.00  0.00     0.208 A 
ATOM      3  C   UNL     1      42.324  42.083   7.658  1.00  0.00     0.238 A 
ATOM      4  O   UNL     1      42.055  40.862   7.493  1.00  0.00    -0.285 OA
ATOM      5  C   UNL     1      43.659  42.520   7.781  1.00  0.00     0.111 A 
ATOM      6  C   UNL     1      44.769  41.644   7.723  1.00  0.00     0.134 A 
ATOM      7  C   UNL     1      46.068  42.156   7.863  1.00  0.00     0.093 A 
ATOM      8  C   UNL     1      46.276  43.526   8.059  1.00  0.00     0.123 A 
ATOM      9  C   UNL     1      45.184  44.394   8.116  1.00  0.00     0.094 A 
ATOM     10  C   UNL     1      43.882  43.903   7.978  1.00  0.00     0.146 A 
ATOM     11  O   UNL     1      42.863  44.753   8.031  1.00  0.00    -0.452 OA
ENDROOT
BRANCH   1  12
ATOM     12  C   UNL     1      40.547  45.425   7.971  1.00  0.00     0.025 A 
ATOM     13  C   UNL     1      39.279  45.104   8.482  1.00  0.00     0.016 A 
ATOM     14  C   UNL     1      38.285  46.081   8.574  1.00  0.00     0.051 A 
ATOM     15  C   UNL     1      38.548  47.396   8.169  1.00  0.00     0.157 A 
ATOM     16  C   UNL     1      40.814  46.751   7.585  1.00  0.00     0.062 A 
ATOM     17  C   UNL     1      39.816  47.732   7.678  1.00  0.00     0.158 A 
BRANCH  15  18
ATOM     18  O   UNL     1      37.558  48.373   8.256  1.00  0.00    -0.504 OA
ATOM     19  H   UNL     1      37.771  49.356   8.126  1.00  0.00     0.293 HD
ENDBRANCH  15  18
BRANCH  17  20
ATOM     20  O   UNL     1      40.078  49.045   7.289  1.00  0.00    -0.504 OA
ATOM     21  H   UNL     1      40.910  49.534   7.602  1.00  0.00     0.293 HD
ENDBRANCH  17  20
ENDBRANCH   1  12
BRANCH   2  22
ATOM     22  O   UNL     1      39.946  42.603   7.662  1.00  0.00    -0.502 OA
ATOM     23  H   UNL     1      39.199  43.094   8.141  1.00  0.00     0.293 HD
ENDBRANCH   2  22
BRANCH   6  24
ATOM     24  O   UNL     1      44.593  40.273   7.529  1.00  0.00    -0.507 OA
ATOM     25  H   UNL     1      43.784  39.903   7.044  1.00  0.00     0.293 HD
ENDBRANCH   6  24
BRANCH   8  26
ATOM     26  O   UNL     1      47.565  44.035   8.199  1.00  0.00    -0.508 OA
ATOM     27  H   UNL     1      47.836  44.577   9.011  1.00  0.00     0.293 HD
ENDBRANCH   8  26
TORSDOF 6
ENDMDL
MODEL 7
REMARK VINA RESULT:    -5.660      3.609      6.885
REMARK INTER + INTRA:          -6.597
REMARK INTER:                  -6.357
REMARK INTRA:                  -0.240
REMARK UNBOUND:                 0.221
REMARK SMILES O=c1c(O)c(-c2ccc(O)c(O)c2)oc2cc(O)cc(O)c12
REMARK SMILES IDX 5 1 3 2 2 3 1 4 22 5 20 6 19 7 17 8 16 9 15 10 14 11 6 12
REMARK SMILES IDX 7 13 8 14 9 15 13 16 11 17 10 18 12 20 4 22 21 24 18 26
REMARK H PARENT 10 19 12 21 4 23 21 25 18 27
REMARK Flexibility Score: inf
ROOT
ATOM      1  C   UNL     1      43.606  46.494   8.249  1.00  0.00     0.180 A 
ATOM      2  C   UNL     1      44.667  45.994   9.027  1.00  0.00     0.208 A 
ATOM      3  C   UNL     1      45.805  46.794   9.216  1.00  0.00     0.238 A 
ATOM      4  O   UNL     1      46.766  46.352   9.903  1.00  0.00    -0.285 OA
ATOM      5  C   UNL     1      45.855  48.082   8.645  1.00  0.00     0.111 A 
ATOM      6  C   UNL     1      46.963  48.951   8.790  1.00  0.00     0.134 A 
ATOM      7  C   UNL     1      46.933  50.223   8.198  1.00  0.00     0.093 A 
ATOM      8  C   UNL     1      45.817  50.640   7.463  1.00  0.00     0.123 A 
ATOM      9  C   UNL     1      44.723  49.785   7.317  1.00  0.00     0.094 A 
ATOM     10  C   UNL     1      44.734  48.514   7.898  1.00  0.00     0.146 A 
ATOM     11  O   UNL     1      43.682  47.720   7.737  1.00  0.00    -0.452 OA
ENDROOT
BRANCH   1  12
ATOM     12  C   UNL     1      42.381  45.705   7.989  1.00  0.00     0.025 A 
ATOM     13  C   UNL     1      42.440  44.604   7.119  1.00  0.00     0.016 A 
ATOM     14  C   UNL     1      41.301  43.832   6.875  1.00  0.00     0.051 A 
ATOM     15  C   UNL     1      40.091  44.141   7.508  1.00  0.00     0.157 A 
ATOM     16  C   UNL     1      41.168  45.999   8.638  1.00  0.00     0.062 A 
ATOM     17  C   UNL     1      40.025  45.224   8.394  1.00  0.00     0.158 A 
BRANCH  15  18
ATOM     18  O   UNL     1      38.951  43.376   7.265  1.00  0.00    -0.504 OA
ATOM     19  H   UNL     1      38.225  43.270   7.964  1.00  0.00     0.293 HD
ENDBRANCH  15  18
BRANCH  17  20
ATOM     20  O   UNL     1      38.822  45.520   9.033  1.00  0.00    -0.504 OA
ATOM     21  H   UNL     1      38.062  44.850   9.069  1.00  0.00     0.293 HD
ENDBRANCH  17  20
ENDBRANCH   1  12
BRANCH   2  22
ATOM     22  O   UNL     1      44.572  44.735   9.624  1.00  0.00    -0.502 OA
ATOM     23  H   UNL     1      44.004  44.565  10.446  1.00  0.00     0.293 HD
ENDBRANCH   2  22
BRANCH   6  24
ATOM     24  O   UNL     1      48.090  48.564   9.517  1.00  0.00    -0.507 OA
ATOM     25  H   UNL     1      48.075  48.495  10.528  1.00  0.00     0.293 HD
ENDBRANCH   6  24
BRANCH   8  26
ATOM     26  O   UNL     1      45.786  51.902   6.875  1.00  0.00    -0.508 OA
ATOM     27  H   UNL     1      46.182  52.069   5.957  1.00  0.00     0.293 HD
ENDBRANCH   8  26
TORSDOF 6
ENDMDL
MODEL 8
REMARK VINA RESULT:    -5.575      4.760      6.468
REMARK INTER + INTRA:          -6.494
REMARK INTER:                  -6.707
REMARK INTRA:                   0.213
REMARK UNBOUND:                 0.221
REMARK SMILES O=c1c(O)c(-c2ccc(O)c(O)c2)oc2cc(O)cc(O)c12
REMARK SMILES IDX 5 1 3 2 2 3 1 4 22 5 20 6 19 7 17 8 16 9 15 10 14 11 6 12
REMARK SMILES IDX 7 13 8 14 9 15 13 16 11 17 10 18 12 20 4 22 21 24 18 26
REMARK H PARENT 10 19 12 21 4 23 21 25 18 27
REMARK Flexibility Score: inf
ROOT
ATOM      1  C   UNL     1      44.707  45.297   8.205  1.00  0.00     0.180 A 
ATOM      2  C   UNL     1      45.689  44.310   8.412  1.00  0.00     0.208 A 
ATOM      3  C   UNL     1      45.298  42.962   8.454  1.00  0.00     0.238 A 
ATOM      4  O   UNL     1      46.168  42.070   8.648  1.00  0.00    -0.285 OA
ATOM      5  C   UNL     1      43.942  42.623   8.270  1.00  0.00     0.111 A 
ATOM      6  C   UNL     1      43.467  41.290   8.295  1.00  0.00     0.134 A 
ATOM      7  C   UNL     1      42.102  41.033   8.094  1.00  0.00     0.093 A 
ATOM      8  C   UNL     1      41.205  42.084   7.869  1.00  0.00     0.123 A 
ATOM      9  C   UNL     1      41.670  43.400   7.845  1.00  0.00     0.094 A 
ATOM     10  C   UNL     1      43.025  43.677   8.044  1.00  0.00     0.146 A 
ATOM     11  O   UNL     1      43.438  44.939   8.021  1.00  0.00    -0.452 OA
ENDROOT
BRANCH   1  12
ATOM     12  C   UNL     1      45.036  46.740   8.167  1.00  0.00     0.025 A 
ATOM     13  C   UNL     1      44.261  47.605   7.379  1.00  0.00     0.016 A 
ATOM     14  C   UNL     1      44.541  48.973   7.344  1.00  0.00     0.051 A 
ATOM     15  C   UNL     1      45.590  49.498   8.109  1.00  0.00     0.157 A 
ATOM     16  C   UNL     1      46.076  47.274   8.949  1.00  0.00     0.062 A 
ATOM     17  C   UNL     1      46.357  48.648   8.915  1.00  0.00     0.158 A 
BRANCH  15  18
ATOM     18  O   UNL     1      45.875  50.862   8.075  1.00  0.00    -0.504 OA
ATOM     19  H   UNL     1      45.307  51.509   7.539  1.00  0.00     0.293 HD
ENDBRANCH  15  18
BRANCH  17  20
ATOM     20  O   UNL     1      47.391  49.176   9.686  1.00  0.00    -0.504 OA
ATOM     21  H   UNL     1      47.221  49.894  10.382  1.00  0.00     0.293 HD
ENDBRANCH  17  20
ENDBRANCH   1  12
BRANCH   2  22
ATOM     22  O   UNL     1      47.033  44.668   8.541  1.00  0.00    -0.502 OA
ATOM     23  H   UNL     1      47.324  45.540   8.967  1.00  0.00     0.293 HD
ENDBRANCH   2  22
BRANCH   6  24
ATOM     24  O   UNL     1      44.337  40.221   8.515  1.00  0.00    -0.507 OA
ATOM     25  H   UNL     1      45.134  40.050   7.915  1.00  0.00     0.293 HD
ENDBRANCH   6  24
BRANCH   8  26
ATOM     26  O   UNL     1      39.850  41.830   7.669  1.00  0.00    -0.508 OA
ATOM     27  H   UNL     1      39.535  41.119   7.020  1.00  0.00     0.293 HD
ENDBRANCH   8  26
TORSDOF 6
ENDMDL
MODEL 9
REMARK VINA RESULT:    -5.539      1.860      3.953
REMARK INTER + INTRA:          -6.451
REMARK INTER:                  -6.420
REMARK INTRA:                  -0.031
REMARK UNBOUND:                 0.221
REMARK SMILES O=c1c(O)c(-c2ccc(O)c(O)c2)oc2cc(O)cc(O)c12
REMARK SMILES IDX 5 1 3 2 2 3 1 4 22 5 20 6 19 7 17 8 16 9 15 10 14 11 6 12
REMARK SMILES IDX 7 13 8 14 9 15 13 16 11 17 10 18 12 20 4 22 21 24 18 26
REMARK H PARENT 10 19 12 21 4 23 21 25 18 27
REMARK Flexibility Score: inf
ROOT
ATOM      1  C   UNL     1      41.204  45.560   8.056  1.00  0.00     0.180 A 
ATOM      2  C   UNL     1      42.422  45.437   8.750  1.00  0.00     0.208 A 
ATOM      3  C   UNL     1      42.954  44.156   8.965  1.00  0.00     0.238 A 
ATOM      4  O   UNL     1      44.040  44.033   9.595  1.00  0.00    -0.285 OA
ATOM      5  C   UNL     1      42.273  43.025   8.468  1.00  0.00     0.111 A 
ATOM      6  C   UNL     1      42.743  41.701   8.639  1.00  0.00     0.134 A 
ATOM      7  C   UNL     1      42.012  40.629   8.105  1.00  0.00     0.093 A 
ATOM      8  C   UNL     1      40.822  40.857   7.405  1.00  0.00     0.123 A 
ATOM      9  C   UNL     1      40.355  42.161   7.235  1.00  0.00     0.094 A 
ATOM     10  C   UNL     1      41.068  43.243   7.760  1.00  0.00     0.146 A 
ATOM     11  O   UNL     1      40.596  44.472   7.588  1.00  0.00    -0.452 OA
ENDROOT
BRANCH   1  12
ATOM     12  C   UNL     1      40.570  46.875   7.806  1.00  0.00     0.025 A 
ATOM     13  C   UNL     1      41.295  47.876   7.142  1.00  0.00     0.016 A 
ATOM     14  C   UNL     1      40.709  49.117   6.877  1.00  0.00     0.051 A 
ATOM     15  C   UNL     1      39.385  49.367   7.259  1.00  0.00     0.157 A 
ATOM     16  C   UNL     1      39.233  47.123   8.169  1.00  0.00     0.062 A 
ATOM     17  C   UNL     1      38.644  48.368   7.902  1.00  0.00     0.158 A 
BRANCH  15  18
ATOM     18  O   UNL     1      38.797  50.605   6.999  1.00  0.00    -0.504 OA
ATOM     19  H   UNL     1      38.554  51.244   7.747  1.00  0.00     0.293 HD
ENDBRANCH  15  18
BRANCH  17  20
ATOM     20  O   UNL     1      37.323  48.616   8.268  1.00  0.00    -0.504 OA
ATOM     21  H   UNL     1      36.867  49.495   8.048  1.00  0.00     0.293 HD
ENDBRANCH  17  20
ENDBRANCH   1  12
BRANCH   2  22
ATOM     22  O   UNL     1      43.103  46.575   9.189  1.00  0.00    -0.502 OA
ATOM     23  H   UNL     1      43.147  46.838  10.167  1.00  0.00     0.293 HD
ENDBRANCH   2  22
BRANCH   6  24
ATOM     24  O   UNL     1      43.927  41.443   9.331  1.00  0.00    -0.507 OA
ATOM     25  H   UNL     1      44.519  40.653   9.100  1.00  0.00     0.293 HD
ENDBRANCH   6  24
BRANCH   8  26
ATOM     26  O   UNL     1      40.096  39.792   6.875  1.00  0.00    -0.508 OA
ATOM     27  H   UNL     1      39.155  39.919   6.519  1.00  0.00     0.293 HD
ENDBRANCH   8  26
TORSDOF 6
ENDMDL
