MODEL 1
REMARK VINA RESULT:    -5.695      0.000      0.000
REMARK INTER + INTRA:         -17.665
REMARK INTER:                 -15.017
REMARK INTRA:                  -2.648
REMARK UNBOUND:                -2.648
REMARK SMILES CCCCCCCCCCCCCCCCCCCCCCCCCCCCCC(=O)[O-]
REMARK SMILES IDX 16 1 17 2 18 3 19 4 20 5 21 6 22 7 23 8 24 9 25 10 26 11
REMARK SMILES IDX 27 12 28 13 29 14 30 15 31 16 32 17 15 18 14 19 13 20 12 21
REMARK SMILES IDX 11 22 10 23 9 24 8 25 7 26 6 27 5 28 4 29 3 30 2 31 1 32
REMARK H PARENT
REMARK Flexibility Score: inf
ROOT
ATOM      1  C   UNL     1     -17.521  37.887  13.302  1.00  0.00     0.000 C 
ENDROOT
BRANCH   1   2
ATOM      2  C   UNL     1     -16.293  38.190  12.429  1.00  0.00     0.000 C 
BRANCH   2   3
ATOM      3  C   UNL     1     -15.048  38.548  13.260  1.00  0.00     0.000 C 
BRANCH   3   4
ATOM      4  C   UNL     1     -14.126  37.339  13.502  1.00  0.00     0.000 C 
BRANCH   4   5
ATOM      5  C   UNL     1     -14.106  36.817  14.953  1.00  0.00     0.000 C 
BRANCH   5   6
ATOM      6  C   UNL     1     -15.160  35.739  15.274  1.00  0.00     0.000 C 
BRANCH   6   7
ATOM      7  C   UNL     1     -15.921  35.952  16.597  1.00  0.00     0.000 C 
BRANCH   7   8
ATOM      8  C   UNL     1     -16.513  37.362  16.791  1.00  0.00     0.000 C 
BRANCH   8   9
ATOM      9  C   UNL     1     -17.005  37.680  18.214  1.00  0.00     0.000 C 
BRANCH   9  10
ATOM     10  C   UNL     1     -17.095  39.189  18.495  1.00  0.00     0.000 C 
BRANCH  10  11
ATOM     11  C   UNL     1     -18.333  39.570  19.326  1.00  0.00     0.000 C 
BRANCH  11  12
ATOM     12  C   UNL     1     -18.401  41.046  19.769  1.00  0.00     0.000 C 
BRANCH  12  13
ATOM     13  C   UNL     1     -17.124  41.587  20.436  1.00  0.00     0.006 C 
BRANCH  13  14
ATOM     14  C   UNL     1     -17.414  42.670  21.486  1.00  0.00     0.053 C 
BRANCH  14  15
ATOM     15  C   UNL     1     -16.178  43.448  21.827  1.00  0.00     0.041 C 
ATOM     16  O   UNL     1     -15.096  42.843  22.052  1.00  0.00    -0.550 OA
ATOM     17  O   UNL     1     -16.201  44.838  21.833  1.00  0.00    -0.550 OA
ENDBRANCH  14  15
ENDBRANCH  13  14
ENDBRANCH  12  13
ENDBRANCH  11  12
ENDBRANCH  10  11
ENDBRANCH   9  10
ENDBRANCH   8   9
ENDBRANCH   7   8
ENDBRANCH   6   7
ENDBRANCH   5   6
ENDBRANCH   4   5
ENDBRANCH   3   4
ENDBRANCH   2   3
ENDBRANCH   1   2
BRANCH   1  18
ATOM     18  C   UNL     1     -17.912  36.399  13.269  1.00  0.00     0.000 C 
BRANCH  18  19
ATOM     19  C   UNL     1     -17.108  35.597  12.234  1.00  0.00     0.000 C 
BRANCH  19  20
ATOM     20  C   UNL     1     -17.128  34.084  12.504  1.00  0.00     0.000 C 
BRANCH  20  21
ATOM     21  C   UNL     1     -18.115  33.741  13.628  1.00  0.00     0.000 C 
BRANCH  21  22
ATOM     22  C   UNL     1     -18.319  32.224  13.805  1.00  0.00     0.000 C 
BRANCH  22  23
ATOM     23  C   UNL     1     -19.775  31.790  14.055  1.00  0.00     0.000 C 
BRANCH  23  24
ATOM     24  C   UNL     1     -20.766  32.940  14.320  1.00  0.00    -0.000 C 
BRANCH  24  25
ATOM     25  C   UNL     1     -21.813  32.623  15.410  1.00  0.00    -0.000 C 
BRANCH  25  26
ATOM     26  C   UNL     1     -22.741  31.465  15.013  1.00  0.00    -0.000 C 
BRANCH  26  27
ATOM     27  C   UNL     1     -23.435  31.746  13.677  1.00  0.00    -0.000 C 
BRANCH  27  28
ATOM     28  C   UNL     1     -24.738  32.529  13.888  1.00  0.00    -0.000 C 
BRANCH  28  29
ATOM     29  C   UNL     1     -25.278  33.075  12.561  1.00  0.00    -0.000 C 
BRANCH  29  30
ATOM     30  C   UNL     1     -26.810  33.187  12.596  1.00  0.00    -0.000 C 
BRANCH  30  31
ATOM     31  C   UNL     1     -27.433  33.249  11.194  1.00  0.00    -0.003 C 
ATOM     32  C   UNL     1     -26.421  32.964  10.083  1.00  0.00     0.004 C 
ENDBRANCH  30  31
ENDBRANCH  29  30
ENDBRANCH  28  29
ENDBRANCH  27  28
ENDBRANCH  26  27
ENDBRANCH  25  26
ENDBRANCH  24  25
ENDBRANCH  23  24
ENDBRANCH  22  23
ENDBRANCH  21  22
ENDBRANCH  20  21
ENDBRANCH  19  20
ENDBRANCH  18  19
ENDBRANCH   1  18
TORSDOF 28
ENDMDL
MODEL 2
REMARK VINA RESULT:    -5.638      1.222      2.084
REMARK INTER + INTRA:         -17.516
REMARK INTER:                 -14.737
REMARK INTRA:                  -2.779
REMARK UNBOUND:                -2.648
REMARK SMILES CCCCCCCCCCCCCCCCCCCCCCCCCCCCCC(=O)[O-]
REMARK SMILES IDX 16 1 17 2 18 3 19 4 20 5 21 6 22 7 23 8 24 9 25 10 26 11
REMARK SMILES IDX 27 12 28 13 29 14 30 15 31 16 32 17 15 18 14 19 13 20 12 21
REMARK SMILES IDX 11 22 10 23 9 24 8 25 7 26 6 27 5 28 4 29 3 30 2 31 1 32
REMARK H PARENT
REMARK Flexibility Score: inf
ROOT
ATOM      1  C   UNL     1     -17.521  37.896  13.321  1.00  0.00     0.000 C 
ENDROOT
BRANCH   1   2
ATOM      2  C   UNL     1     -16.313  38.208  12.425  1.00  0.00     0.000 C 
BRANCH   2   3
ATOM      3  C   UNL     1     -15.056  38.578  13.231  1.00  0.00     0.000 C 
BRANCH   3   4
ATOM      4  C   UNL     1     -14.118  37.378  13.457  1.00  0.00     0.000 C 
BRANCH   4   5
ATOM      5  C   UNL     1     -14.082  36.846  14.905  1.00  0.00     0.000 C 
BRANCH   5   6
ATOM      6  C   UNL     1     -15.117  35.748  15.223  1.00  0.00     0.000 C 
BRANCH   6   7
ATOM      7  C   UNL     1     -15.873  35.939  16.553  1.00  0.00     0.000 C 
BRANCH   7   8
ATOM      8  C   UNL     1     -16.479  37.340  16.766  1.00  0.00     0.000 C 
BRANCH   8   9
ATOM      9  C   UNL     1     -16.984  37.631  18.191  1.00  0.00     0.000 C 
BRANCH   9  10
ATOM     10  C   UNL     1     -17.094  39.134  18.494  1.00  0.00     0.000 C 
BRANCH  10  11
ATOM     11  C   UNL     1     -18.331  39.484  19.340  1.00  0.00     0.000 C 
BRANCH  11  12
ATOM     12  C   UNL     1     -18.426  40.956  19.790  1.00  0.00     0.000 C 
BRANCH  12  13
ATOM     13  C   UNL     1     -17.150  41.527  20.434  1.00  0.00     0.006 C 
BRANCH  13  14
ATOM     14  C   UNL     1     -17.443  42.624  21.468  1.00  0.00     0.053 C 
BRANCH  14  15
ATOM     15  C   UNL     1     -16.215  43.427  21.777  1.00  0.00     0.041 C 
ATOM     16  O   UNL     1     -15.127  42.843  22.027  1.00  0.00    -0.550 OA
ATOM     17  O   UNL     1     -16.251  44.817  21.727  1.00  0.00    -0.550 OA
ENDBRANCH  14  15
ENDBRANCH  13  14
ENDBRANCH  12  13
ENDBRANCH  11  12
ENDBRANCH  10  11
ENDBRANCH   9  10
ENDBRANCH   8   9
ENDBRANCH   7   8
ENDBRANCH   6   7
ENDBRANCH   5   6
ENDBRANCH   4   5
ENDBRANCH   3   4
ENDBRANCH   2   3
ENDBRANCH   1   2
BRANCH   1  18
ATOM     18  C   UNL     1     -17.898  36.404  13.300  1.00  0.00     0.000 C 
BRANCH  18  19
ATOM     19  C   UNL     1     -17.112  35.608  12.247  1.00  0.00     0.000 C 
BRANCH  19  20
ATOM     20  C   UNL     1     -17.139  34.092  12.500  1.00  0.00     0.000 C 
BRANCH  20  21
ATOM     21  C   UNL     1     -18.126  33.741  13.621  1.00  0.00     0.000 C 
BRANCH  21  22
ATOM     22  C   UNL     1     -18.357  32.225  13.765  1.00  0.00     0.000 C 
BRANCH  22  23
ATOM     23  C   UNL     1     -19.819  31.812  14.019  1.00  0.00     0.000 C 
BRANCH  23  24
ATOM     24  C   UNL     1     -20.776  32.970  14.369  1.00  0.00    -0.000 C 
BRANCH  24  25
ATOM     25  C   UNL     1     -21.821  32.610  15.447  1.00  0.00    -0.000 C 
BRANCH  25  26
ATOM     26  C   UNL     1     -22.812  31.538  14.970  1.00  0.00    -0.000 C 
BRANCH  26  27
ATOM     27  C   UNL     1     -23.600  32.019  13.747  1.00  0.00    -0.000 C 
BRANCH  27  28
ATOM     28  C   UNL     1     -24.892  32.730  14.171  1.00  0.00    -0.000 C 
BRANCH  28  29
ATOM     29  C   UNL     1     -25.325  32.300  15.578  1.00  0.00    -0.000 C 
BRANCH  29  30
ATOM     30  C   UNL     1     -26.085  33.431  16.288  1.00  0.00    -0.000 C 
BRANCH  30  31
ATOM     31  C   UNL     1     -26.182  33.218  17.806  1.00  0.00    -0.003 C 
ATOM     32  C   UNL     1     -25.346  32.034  18.294  1.00  0.00     0.004 C 
ENDBRANCH  30  31
ENDBRANCH  29  30
ENDBRANCH  28  29
ENDBRANCH  27  28
ENDBRANCH  26  27
ENDBRANCH  25  26
ENDBRANCH  24  25
ENDBRANCH  23  24
ENDBRANCH  22  23
ENDBRANCH  21  22
ENDBRANCH  20  21
ENDBRANCH  19  20
ENDBRANCH  18  19
ENDBRANCH   1  18
TORSDOF 28
ENDMDL
MODEL 3
REMARK VINA RESULT:    -5.343      1.604      3.212
REMARK INTER + INTRA:         -16.738
REMARK INTER:                 -14.670
REMARK INTRA:                  -2.068
REMARK UNBOUND:                -2.648
REMARK SMILES CCCCCCCCCCCCCCCCCCCCCCCCCCCCCC(=O)[O-]
REMARK SMILES IDX 16 1 17 2 18 3 19 4 20 5 21 6 22 7 23 8 24 9 25 10 26 11
REMARK SMILES IDX 27 12 28 13 29 14 30 15 31 16 32 17 15 18 14 19 13 20 12 21
REMARK SMILES IDX 11 22 10 23 9 24 8 25 7 26 6 27 5 28 4 29 3 30 2 31 1 32
REMARK H PARENT
REMARK Flexibility Score: inf
ROOT
ATOM      1  C   UNL     1     -17.293  36.971  13.784  1.00  0.00     0.000 C 
ENDROOT
BRANCH   1   2
ATOM      2  C   UNL     1     -15.775  37.212  13.776  1.00  0.00     0.000 C 
BRANCH   2   3
ATOM      3  C   UNL     1     -15.114  36.882  15.126  1.00  0.00     0.000 C 
BRANCH   3   4
ATOM      4  C   UNL     1     -15.995  35.986  16.016  1.00  0.00     0.000 C 
BRANCH   4   5
ATOM      5  C   UNL     1     -16.248  36.531  17.437  1.00  0.00     0.000 C 
BRANCH   5   6
ATOM      6  C   UNL     1     -16.977  37.889  17.496  1.00  0.00     0.000 C 
BRANCH   6   7
ATOM      7  C   UNL     1     -17.087  38.503  18.905  1.00  0.00     0.000 C 
BRANCH   7   8
ATOM      8  C   UNL     1     -17.572  39.966  18.944  1.00  0.00     0.000 C 
BRANCH   8   9
ATOM      9  C   UNL     1     -18.826  40.222  19.800  1.00  0.00     0.000 C 
BRANCH   9  10
ATOM     10  C   UNL     1     -18.555  41.142  21.001  1.00  0.00     0.000 C 
BRANCH  10  11
ATOM     11  C   UNL     1     -17.904  42.477  20.596  1.00  0.00     0.000 C 
BRANCH  11  12
ATOM     12  C   UNL     1     -16.746  42.946  21.500  1.00  0.00     0.000 C 
BRANCH  12  13
ATOM     13  C   UNL     1     -17.038  44.204  22.337  1.00  0.00     0.006 C 
BRANCH  13  14
ATOM     14  C   UNL     1     -16.440  45.480  21.724  1.00  0.00     0.053 C 
BRANCH  14  15
ATOM     15  C   UNL     1     -16.370  46.590  22.730  1.00  0.00     0.041 C 
ATOM     16  O   UNL     1     -16.186  47.776  22.345  1.00  0.00    -0.550 OA
ATOM     17  O   UNL     1     -16.571  46.330  24.081  1.00  0.00    -0.550 OA
ENDBRANCH  14  15
ENDBRANCH  13  14
ENDBRANCH  12  13
ENDBRANCH  11  12
ENDBRANCH  10  11
ENDBRANCH   9  10
ENDBRANCH   8   9
ENDBRANCH   7   8
ENDBRANCH   6   7
ENDBRANCH   5   6
ENDBRANCH   4   5
ENDBRANCH   3   4
ENDBRANCH   2   3
ENDBRANCH   1   2
BRANCH   1  18
ATOM     18  C   UNL     1     -17.723  35.900  12.766  1.00  0.00     0.000 C 
BRANCH  18  19
ATOM     19  C   UNL     1     -17.346  34.477  13.207  1.00  0.00     0.000 C 
BRANCH  19  20
ATOM     20  C   UNL     1     -18.495  33.748  13.921  1.00  0.00     0.000 C 
BRANCH  20  21
ATOM     21  C   UNL     1     -18.456  32.242  13.627  1.00  0.00     0.000 C 
BRANCH  21  22
ATOM     22  C   UNL     1     -19.729  31.508  14.088  1.00  0.00     0.000 C 
BRANCH  22  23
ATOM     23  C   UNL     1     -20.939  32.418  14.366  1.00  0.00     0.000 C 
BRANCH  23  24
ATOM     24  C   UNL     1     -22.228  31.686  14.794  1.00  0.00    -0.000 C 
BRANCH  24  25
ATOM     25  C   UNL     1     -22.946  30.960  13.635  1.00  0.00    -0.000 C 
BRANCH  25  26
ATOM     26  C   UNL     1     -24.461  30.854  13.859  1.00  0.00    -0.000 C 
BRANCH  26  27
ATOM     27  C   UNL     1     -25.231  31.714  12.850  1.00  0.00    -0.000 C 
BRANCH  27  28
ATOM     28  C   UNL     1     -25.231  33.189  13.273  1.00  0.00    -0.000 C 
BRANCH  28  29
ATOM     29  C   UNL     1     -26.095  33.407  14.521  1.00  0.00    -0.000 C 
BRANCH  29  30
ATOM     30  C   UNL     1     -25.229  33.812  15.725  1.00  0.00    -0.000 C 
BRANCH  30  31
ATOM     31  C   UNL     1     -25.596  33.047  17.004  1.00  0.00    -0.003 C 
ATOM     32  C   UNL     1     -24.378  32.446  17.707  1.00  0.00     0.004 C 
ENDBRANCH  30  31
ENDBRANCH  29  30
ENDBRANCH  28  29
ENDBRANCH  27  28
ENDBRANCH  26  27
ENDBRANCH  25  26
ENDBRANCH  24  25
ENDBRANCH  23  24
ENDBRANCH  22  23
ENDBRANCH  21  22
ENDBRANCH  20  21
ENDBRANCH  19  20
ENDBRANCH  18  19
ENDBRANCH   1  18
TORSDOF 28
ENDMDL
MODEL 4
REMARK VINA RESULT:    -5.295      5.213     11.281
REMARK INTER + INTRA:         -16.610
REMARK INTER:                 -14.560
REMARK INTRA:                  -2.050
REMARK UNBOUND:                -2.648
REMARK SMILES CCCCCCCCCCCCCCCCCCCCCCCCCCCCCC(=O)[O-]
REMARK SMILES IDX 16 1 17 2 18 3 19 4 20 5 21 6 22 7 23 8 24 9 25 10 26 11
REMARK SMILES IDX 27 12 28 13 29 14 30 15 31 16 32 17 15 18 14 19 13 20 12 21
REMARK SMILES IDX 11 22 10 23 9 24 8 25 7 26 6 27 5 28 4 29 3 30 2 31 1 32
REMARK H PARENT
REMARK Flexibility Score: inf
ROOT
ATOM      1  C   UNL     1     -17.134  36.489  14.977  1.00  0.00     0.000 C 
ENDROOT
BRANCH   1   2
ATOM      2  C   UNL     1     -17.815  35.472  14.048  1.00  0.00     0.000 C 
BRANCH   2   3
ATOM      3  C   UNL     1     -16.830  34.811  13.068  1.00  0.00     0.000 C 
BRANCH   3   4
ATOM      4  C   UNL     1     -16.686  35.594  11.750  1.00  0.00     0.000 C 
BRANCH   4   5
ATOM      5  C   UNL     1     -15.393  36.425  11.626  1.00  0.00     0.000 C 
BRANCH   5   6
ATOM      6  C   UNL     1     -15.062  37.304  12.849  1.00  0.00     0.000 C 
BRANCH   6   7
ATOM      7  C   UNL     1     -15.314  38.811  12.649  1.00  0.00     0.000 C 
BRANCH   7   8
ATOM      8  C   UNL     1     -16.793  39.207  12.464  1.00  0.00     0.000 C 
BRANCH   8   9
ATOM      9  C   UNL     1     -17.036  40.673  12.063  1.00  0.00     0.000 C 
BRANCH   9  10
ATOM     10  C   UNL     1     -15.973  41.215  11.093  1.00  0.00     0.000 C 
BRANCH  10  11
ATOM     11  C   UNL     1     -16.237  40.811   9.632  1.00  0.00     0.000 C 
BRANCH  11  12
ATOM     12  C   UNL     1     -17.256  41.691   8.879  1.00  0.00     0.000 C 
BRANCH  12  13
ATOM     13  C   UNL     1     -16.645  42.688   7.878  1.00  0.00     0.006 C 
BRANCH  13  14
ATOM     14  C   UNL     1     -16.718  44.143   8.366  1.00  0.00     0.053 C 
BRANCH  14  15
ATOM     15  C   UNL     1     -15.437  44.567   9.019  1.00  0.00     0.041 C 
ATOM     16  O   UNL     1     -15.418  44.839  10.249  1.00  0.00    -0.550 OA
ATOM     17  O   UNL     1     -14.253  44.601   8.291  1.00  0.00    -0.550 OA
ENDBRANCH  14  15
ENDBRANCH  13  14
ENDBRANCH  12  13
ENDBRANCH  11  12
ENDBRANCH  10  11
ENDBRANCH   9  10
ENDBRANCH   8   9
ENDBRANCH   7   8
ENDBRANCH   6   7
ENDBRANCH   5   6
ENDBRANCH   4   5
ENDBRANCH   3   4
ENDBRANCH   2   3
ENDBRANCH   1   2
BRANCH   1  18
ATOM     18  C   UNL     1     -16.135  35.825  15.942  1.00  0.00     0.000 C 
BRANCH  18  19
ATOM     19  C   UNL     1     -16.235  36.379  17.372  1.00  0.00     0.000 C 
BRANCH  19  20
ATOM     20  C   UNL     1     -16.974  37.725  17.441  1.00  0.00     0.000 C 
BRANCH  20  21
ATOM     21  C   UNL     1     -17.011  38.257  18.880  1.00  0.00     0.000 C 
BRANCH  21  22
ATOM     22  C   UNL     1     -18.157  39.259  19.120  1.00  0.00     0.000 C 
BRANCH  22  23
ATOM     23  C   UNL     1     -17.874  40.695  18.641  1.00  0.00     0.000 C 
BRANCH  23  24
ATOM     24  C   UNL     1     -18.086  41.794  19.702  1.00  0.00    -0.000 C 
BRANCH  24  25
ATOM     25  C   UNL     1     -18.207  41.254  21.144  1.00  0.00    -0.000 C 
BRANCH  25  26
ATOM     26  C   UNL     1     -16.909  41.427  21.946  1.00  0.00    -0.000 C 
BRANCH  26  27
ATOM     27  C   UNL     1     -15.959  42.411  21.255  1.00  0.00    -0.000 C 
BRANCH  27  28
ATOM     28  C   UNL     1     -15.758  43.672  22.107  1.00  0.00    -0.000 C 
BRANCH  28  29
ATOM     29  C   UNL     1     -17.062  44.469  22.232  1.00  0.00    -0.000 C 
BRANCH  29  30
ATOM     30  C   UNL     1     -17.042  45.363  23.481  1.00  0.00    -0.000 C 
BRANCH  30  31
ATOM     31  C   UNL     1     -15.877  46.364  23.476  1.00  0.00    -0.003 C 
ATOM     32  C   UNL     1     -15.993  47.402  22.359  1.00  0.00     0.004 C 
ENDBRANCH  30  31
ENDBRANCH  29  30
ENDBRANCH  28  29
ENDBRANCH  27  28
ENDBRANCH  26  27
ENDBRANCH  25  26
ENDBRANCH  24  25
ENDBRANCH  23  24
ENDBRANCH  22  23
ENDBRANCH  21  22
ENDBRANCH  20  21
ENDBRANCH  19  20
ENDBRANCH  18  19
ENDBRANCH   1  18
TORSDOF 28
ENDMDL
MODEL 5
REMARK VINA RESULT:    -5.277      4.710     12.518
REMARK INTER + INTRA:         -16.561
REMARK INTER:                 -15.087
REMARK INTRA:                  -1.475
REMARK UNBOUND:                -2.648
REMARK SMILES CCCCCCCCCCCCCCCCCCCCCCCCCCCCCC(=O)[O-]
REMARK SMILES IDX 16 1 17 2 18 3 19 4 20 5 21 6 22 7 23 8 24 9 25 10 26 11
REMARK SMILES IDX 27 12 28 13 29 14 30 15 31 16 32 17 15 18 14 19 13 20 12 21
REMARK SMILES IDX 11 22 10 23 9 24 8 25 7 26 6 27 5 28 4 29 3 30 2 31 1 32
REMARK H PARENT
REMARK Flexibility Score: inf
ROOT
ATOM      1  C   UNL     1     -17.004  38.086  17.516  1.00  0.00     0.000 C 
ENDROOT
BRANCH   1   2
ATOM      2  C   UNL     1     -16.285  36.740  17.338  1.00  0.00     0.000 C 
BRANCH   2   3
ATOM      3  C   UNL     1     -15.770  36.527  15.903  1.00  0.00     0.000 C 
BRANCH   3   4
ATOM      4  C   UNL     1     -16.599  37.291  14.854  1.00  0.00     0.000 C 
BRANCH   4   5
ATOM      5  C   UNL     1     -17.664  36.445  14.126  1.00  0.00     0.000 C 
BRANCH   5   6
ATOM      6  C   UNL     1     -17.239  35.905  12.747  1.00  0.00     0.000 C 
BRANCH   6   7
ATOM      7  C   UNL     1     -17.326  34.373  12.597  1.00  0.00     0.000 C 
BRANCH   7   8
ATOM      8  C   UNL     1     -18.141  33.656  13.692  1.00  0.00     0.000 C 
BRANCH   8   9
ATOM      9  C   UNL     1     -18.215  32.124  13.560  1.00  0.00     0.000 C 
BRANCH   9  10
ATOM     10  C   UNL     1     -19.547  31.542  14.061  1.00  0.00     0.000 C 
BRANCH  10  11
ATOM     11  C   UNL     1     -20.647  32.608  14.207  1.00  0.00     0.000 C 
BRANCH  11  12
ATOM     12  C   UNL     1     -21.979  32.103  14.800  1.00  0.00     0.000 C 
BRANCH  12  13
ATOM     13  C   UNL     1     -22.207  32.450  16.282  1.00  0.00     0.006 C 
BRANCH  13  14
ATOM     14  C   UNL     1     -23.380  33.419  16.494  1.00  0.00     0.053 C 
BRANCH  14  15
ATOM     15  C   UNL     1     -24.445  32.810  17.357  1.00  0.00     0.041 C 
ATOM     16  O   UNL     1     -25.533  33.420  17.538  1.00  0.00    -0.550 OA
ATOM     17  O   UNL     1     -24.268  31.546  17.907  1.00  0.00    -0.550 OA
ENDBRANCH  14  15
ENDBRANCH  13  14
ENDBRANCH  12  13
ENDBRANCH  11  12
ENDBRANCH  10  11
ENDBRANCH   9  10
ENDBRANCH   8   9
ENDBRANCH   7   8
ENDBRANCH   6   7
ENDBRANCH   5   6
ENDBRANCH   4   5
ENDBRANCH   3   4
ENDBRANCH   2   3
ENDBRANCH   1   2
BRANCH   1  18
ATOM     18  C   UNL     1     -17.095  38.512  18.992  1.00  0.00     0.000 C 
BRANCH  18  19
ATOM     19  C   UNL     1     -18.187  39.565  19.239  1.00  0.00     0.000 C 
BRANCH  19  20
ATOM     20  C   UNL     1     -17.617  40.934  19.642  1.00  0.00     0.000 C 
BRANCH  20  21
ATOM     21  C   UNL     1     -17.644  41.113  21.166  1.00  0.00     0.000 C 
BRANCH  21  22
ATOM     22  C   UNL     1     -16.626  42.155  21.666  1.00  0.00     0.000 C 
BRANCH  22  23
ATOM     23  C   UNL     1     -17.168  43.592  21.776  1.00  0.00     0.000 C 
BRANCH  23  24
ATOM     24  C   UNL     1     -16.213  44.605  22.439  1.00  0.00    -0.000 C 
BRANCH  24  25
ATOM     25  C   UNL     1     -16.934  45.704  23.250  1.00  0.00    -0.000 C 
BRANCH  25  26
ATOM     26  C   UNL     1     -16.419  47.112  22.918  1.00  0.00    -0.000 C 
BRANCH  26  27
ATOM     27  C   UNL     1     -15.870  47.177  21.488  1.00  0.00    -0.000 C 
BRANCH  27  28
ATOM     28  C   UNL     1     -16.762  48.050  20.596  1.00  0.00    -0.000 C 
BRANCH  28  29
ATOM     29  C   UNL     1     -16.974  47.403  19.222  1.00  0.00    -0.000 C 
BRANCH  29  30
ATOM     30  C   UNL     1     -17.158  48.472  18.134  1.00  0.00    -0.000 C 
BRANCH  30  31
ATOM     31  C   UNL     1     -17.592  47.878  16.786  1.00  0.00    -0.003 C 
ATOM     32  C   UNL     1     -16.777  48.417  15.610  1.00  0.00     0.004 C 
ENDBRANCH  30  31
ENDBRANCH  29  30
ENDBRANCH  28  29
ENDBRANCH  27  28
ENDBRANCH  26  27
ENDBRANCH  25  26
ENDBRANCH  24  25
ENDBRANCH  23  24
ENDBRANCH  22  23
ENDBRANCH  21  22
ENDBRANCH  20  21
ENDBRANCH  19  20
ENDBRANCH  18  19
ENDBRANCH   1  18
TORSDOF 28
ENDMDL
MODEL 6
REMARK VINA RESULT:    -5.195      5.570     11.454
REMARK INTER + INTRA:         -16.345
REMARK INTER:                 -13.112
REMARK INTRA:                  -3.233
REMARK UNBOUND:                -2.648
REMARK SMILES CCCCCCCCCCCCCCCCCCCCCCCCCCCCCC(=O)[O-]
REMARK SMILES IDX 16 1 17 2 18 3 19 4 20 5 21 6 22 7 23 8 24 9 25 10 26 11
REMARK SMILES IDX 27 12 28 13 29 14 30 15 31 16 32 17 15 18 14 19 13 20 12 21
REMARK SMILES IDX 11 22 10 23 9 24 8 25 7 26 6 27 5 28 4 29 3 30 2 31 1 32
REMARK H PARENT
REMARK Flexibility Score: inf
ROOT
ATOM      1  C   UNL     1     -16.240  38.615  12.420  1.00  0.00     0.000 C 
ENDROOT
BRANCH   1   2
ATOM      2  C   UNL     1     -14.954  38.494  13.253  1.00  0.00     0.000 C 
BRANCH   2   3
ATOM      3  C   UNL     1     -14.915  37.211  14.102  1.00  0.00     0.000 C 
BRANCH   3   4
ATOM      4  C   UNL     1     -16.232  36.959  14.860  1.00  0.00     0.000 C 
BRANCH   4   5
ATOM      5  C   UNL     1     -16.842  35.558  14.652  1.00  0.00     0.000 C 
BRANCH   5   6
ATOM      6  C   UNL     1     -17.161  35.194  13.189  1.00  0.00     0.000 C 
BRANCH   6   7
ATOM      7  C   UNL     1     -17.435  33.697  12.939  1.00  0.00     0.000 C 
BRANCH   7   8
ATOM      8  C   UNL     1     -18.440  33.047  13.911  1.00  0.00     0.000 C 
BRANCH   8   9
ATOM      9  C   UNL     1     -18.675  31.540  13.705  1.00  0.00     0.000 C 
BRANCH   9  10
ATOM     10  C   UNL     1     -19.903  31.014  14.467  1.00  0.00     0.000 C 
BRANCH  10  11
ATOM     11  C   UNL     1     -21.230  31.345  13.762  1.00  0.00     0.000 C 
BRANCH  11  12
ATOM     12  C   UNL     1     -22.225  32.182  14.592  1.00  0.00     0.000 C 
BRANCH  12  13
ATOM     13  C   UNL     1     -21.910  32.270  16.096  1.00  0.00     0.006 C 
BRANCH  13  14
ATOM     14  C   UNL     1     -22.740  33.343  16.817  1.00  0.00     0.053 C 
BRANCH  14  15
ATOM     15  C   UNL     1     -23.981  32.760  17.424  1.00  0.00     0.041 C 
ATOM     16  O   UNL     1     -24.915  32.357  16.680  1.00  0.00    -0.550 OA
ATOM     17  O   UNL     1     -24.084  32.602  18.801  1.00  0.00    -0.550 OA
ENDBRANCH  14  15
ENDBRANCH  13  14
ENDBRANCH  12  13
ENDBRANCH  11  12
ENDBRANCH  10  11
ENDBRANCH   9  10
ENDBRANCH   8   9
ENDBRANCH   7   8
ENDBRANCH   6   7
ENDBRANCH   5   6
ENDBRANCH   4   5
ENDBRANCH   3   4
ENDBRANCH   2   3
ENDBRANCH   1   2
BRANCH   1  18
ATOM     18  C   UNL     1     -16.729  40.069  12.303  1.00  0.00     0.000 C 
BRANCH  18  19
ATOM     19  C   UNL     1     -17.339  40.381  10.927  1.00  0.00     0.000 C 
BRANCH  19  20
ATOM     20  C   UNL     1     -17.547  41.886  10.693  1.00  0.00     0.000 C 
BRANCH  20  21
ATOM     21  C   UNL     1     -17.566  42.210   9.193  1.00  0.00     0.000 C 
BRANCH  21  22
ATOM     22  C   UNL     1     -16.604  41.328   8.376  1.00  0.00     0.000 C 
BRANCH  22  23
ATOM     23  C   UNL     1     -15.895  42.045   7.213  1.00  0.00     0.000 C 
BRANCH  23  24
ATOM     24  C   UNL     1     -14.501  42.615   7.545  1.00  0.00    -0.000 C 
BRANCH  24  25
ATOM     25  C   UNL     1     -14.399  44.148   7.387  1.00  0.00    -0.000 C 
BRANCH  25  26
ATOM     26  C   UNL     1     -15.593  44.882   8.015  1.00  0.00    -0.000 C 
BRANCH  26  27
ATOM     27  C   UNL     1     -15.157  45.708   9.230  1.00  0.00    -0.000 C 
BRANCH  27  28
ATOM     28  C   UNL     1     -15.224  44.872  10.515  1.00  0.00    -0.000 C 
BRANCH  28  29
ATOM     29  C   UNL     1     -13.910  44.959  11.301  1.00  0.00    -0.000 C 
BRANCH  29  30
ATOM     30  C   UNL     1     -13.029  43.728  11.035  1.00  0.00    -0.000 C 
BRANCH  30  31
ATOM     31  C   UNL     1     -13.830  42.418  11.016  1.00  0.00    -0.003 C 
ATOM     32  C   UNL     1     -13.273  41.368  11.978  1.00  0.00     0.004 C 
ENDBRANCH  30  31
ENDBRANCH  29  30
ENDBRANCH  28  29
ENDBRANCH  27  28
ENDBRANCH  26  27
ENDBRANCH  25  26
ENDBRANCH  24  25
ENDBRANCH  23  24
ENDBRANCH  22  23
ENDBRANCH  21  22
ENDBRANCH  20  21
ENDBRANCH  19  20
ENDBRANCH  18  19
ENDBRANCH   1  18
TORSDOF 28
ENDMDL
MODEL 7
REMARK VINA RESULT:    -5.177      5.880     11.363
REMARK INTER + INTRA:         -16.300
REMARK INTER:                 -14.039
REMARK INTRA:                  -2.261
REMARK UNBOUND:                -2.648
REMARK SMILES CCCCCCCCCCCCCCCCCCCCCCCCCCCCCC(=O)[O-]
REMARK SMILES IDX 16 1 17 2 18 3 19 4 20 5 21 6 22 7 23 8 24 9 25 10 26 11
REMARK SMILES IDX 27 12 28 13 29 14 30 15 31 16 32 17 15 18 14 19 13 20 12 21
REMARK SMILES IDX 11 22 10 23 9 24 8 25 7 26 6 27 5 28 4 29 3 30 2 31 1 32
REMARK H PARENT
REMARK Flexibility Score: inf
ROOT
ATOM      1  C   UNL     1     -18.133  33.486  13.684  1.00  0.00     0.000 C 
ENDROOT
BRANCH   1   2
ATOM      2  C   UNL     1     -18.242  31.953  13.665  1.00  0.00     0.000 C 
BRANCH   2   3
ATOM      3  C   UNL     1     -19.644  31.453  14.057  1.00  0.00     0.000 C 
BRANCH   3   4
ATOM      4  C   UNL     1     -20.690  32.582  14.093  1.00  0.00     0.000 C 
BRANCH   4   5
ATOM      5  C   UNL     1     -22.156  32.107  14.166  1.00  0.00     0.000 C 
BRANCH   5   6
ATOM      6  C   UNL     1     -22.628  31.660  15.564  1.00  0.00     0.000 C 
BRANCH   6   7
ATOM      7  C   UNL     1     -22.273  32.630  16.708  1.00  0.00     0.000 C 
BRANCH   7   8
ATOM      8  C   UNL     1     -23.411  32.900  17.713  1.00  0.00     0.000 C 
BRANCH   8   9
ATOM      9  C   UNL     1     -24.728  32.154  17.431  1.00  0.00     0.000 C 
BRANCH   9  10
ATOM     10  C   UNL     1     -25.974  32.986  17.778  1.00  0.00     0.000 C 
BRANCH  10  11
ATOM     11  C   UNL     1     -26.572  33.705  16.555  1.00  0.00     0.000 C 
BRANCH  11  12
ATOM     12  C   UNL     1     -25.682  33.711  15.295  1.00  0.00     0.000 C 
BRANCH  12  13
ATOM     13  C   UNL     1     -26.281  33.001  14.068  1.00  0.00     0.006 C 
BRANCH  13  14
ATOM     14  C   UNL     1     -25.490  33.268  12.780  1.00  0.00     0.053 C 
BRANCH  14  15
ATOM     15  C   UNL     1     -26.363  33.150  11.566  1.00  0.00     0.041 C 
ATOM     16  O   UNL     1     -25.849  32.905  10.442  1.00  0.00    -0.550 OA
ATOM     17  O   UNL     1     -27.745  33.246  11.681  1.00  0.00    -0.550 OA
ENDBRANCH  14  15
ENDBRANCH  13  14
ENDBRANCH  12  13
ENDBRANCH  11  12
ENDBRANCH  10  11
ENDBRANCH   9  10
ENDBRANCH   8   9
ENDBRANCH   7   8
ENDBRANCH   6   7
ENDBRANCH   5   6
ENDBRANCH   4   5
ENDBRANCH   3   4
ENDBRANCH   2   3
ENDBRANCH   1   2
BRANCH   1  18
ATOM     18  C   UNL     1     -17.240  34.025  12.552  1.00  0.00     0.000 C 
BRANCH  18  19
ATOM     19  C   UNL     1     -17.153  35.559  12.545  1.00  0.00     0.000 C 
BRANCH  19  20
ATOM     20  C   UNL     1     -18.056  36.214  13.603  1.00  0.00     0.000 C 
BRANCH  20  21
ATOM     21  C   UNL     1     -17.482  37.564  14.054  1.00  0.00     0.000 C 
BRANCH  21  22
ATOM     22  C   UNL     1     -15.945  37.556  14.164  1.00  0.00     0.000 C 
BRANCH  22  23
ATOM     23  C   UNL     1     -15.226  38.579  13.266  1.00  0.00     0.000 C 
BRANCH  23  24
ATOM     24  C   UNL     1     -16.016  39.030  12.021  1.00  0.00    -0.000 C 
BRANCH  24  25
ATOM     25  C   UNL     1     -16.116  40.563  11.868  1.00  0.00    -0.000 C 
BRANCH  25  26
ATOM     26  C   UNL     1     -17.452  41.007  11.256  1.00  0.00    -0.000 C 
BRANCH  26  27
ATOM     27  C   UNL     1     -17.325  42.378  10.584  1.00  0.00    -0.000 C 
BRANCH  27  28
ATOM     28  C   UNL     1     -17.376  42.248   9.056  1.00  0.00    -0.000 C 
BRANCH  28  29
ATOM     29  C   UNL     1     -17.107  43.596   8.376  1.00  0.00    -0.000 C 
BRANCH  29  30
ATOM     30  C   UNL     1     -16.282  43.409   7.093  1.00  0.00    -0.000 C 
BRANCH  30  31
ATOM     31  C   UNL     1     -14.782  43.652   7.311  1.00  0.00    -0.003 C 
ATOM     32  C   UNL     1     -13.986  42.355   7.460  1.00  0.00     0.004 C 
ENDBRANCH  30  31
ENDBRANCH  29  30
ENDBRANCH  28  29
ENDBRANCH  27  28
ENDBRANCH  26  27
ENDBRANCH  25  26
ENDBRANCH  24  25
ENDBRANCH  23  24
ENDBRANCH  22  23
ENDBRANCH  21  22
ENDBRANCH  20  21
ENDBRANCH  19  20
ENDBRANCH  18  19
ENDBRANCH   1  18
TORSDOF 28
ENDMDL
MODEL 8
REMARK VINA RESULT:    -5.172      4.977      7.437
REMARK INTER + INTRA:         -16.286
REMARK INTER:                 -13.042
REMARK INTRA:                  -3.243
REMARK UNBOUND:                -2.648
REMARK SMILES CCCCCCCCCCCCCCCCCCCCCCCCCCCCCC(=O)[O-]
REMARK SMILES IDX 16 1 17 2 18 3 19 4 20 5 21 6 22 7 23 8 24 9 25 10 26 11
REMARK SMILES IDX 27 12 28 13 29 14 30 15 31 16 32 17 15 18 14 19 13 20 12 21
REMARK SMILES IDX 11 22 10 23 9 24 8 25 7 26 6 27 5 28 4 29 3 30 2 31 1 32
REMARK H PARENT
REMARK Flexibility Score: inf
ROOT
ATOM      1  C   UNL     1     -22.044  32.066  14.024  1.00  0.00     0.000 C 
ENDROOT
BRANCH   1   2
ATOM      2  C   UNL     1     -20.630  32.668  14.028  1.00  0.00     0.000 C 
BRANCH   2   3
ATOM      3  C   UNL     1     -19.529  31.594  14.074  1.00  0.00     0.000 C 
BRANCH   3   4
ATOM      4  C   UNL     1     -18.125  32.170  13.811  1.00  0.00     0.000 C 
BRANCH   4   5
ATOM      5  C   UNL     1     -18.073  33.702  13.639  1.00  0.00     0.000 C 
BRANCH   5   6
ATOM      6  C   UNL     1     -17.160  34.201  12.502  1.00  0.00     0.000 C 
BRANCH   6   7
ATOM      7  C   UNL     1     -17.058  35.735  12.381  1.00  0.00     0.000 C 
BRANCH   7   8
ATOM      8  C   UNL     1     -18.018  36.527  13.291  1.00  0.00     0.000 C 
BRANCH   8   9
ATOM      9  C   UNL     1     -17.460  37.852  13.842  1.00  0.00     0.000 C 
BRANCH   9  10
ATOM     10  C   UNL     1     -17.747  39.051  12.924  1.00  0.00     0.000 C 
BRANCH  10  11
ATOM     11  C   UNL     1     -16.500  39.528  12.157  1.00  0.00     0.000 C 
BRANCH  11  12
ATOM     12  C   UNL     1     -16.463  41.035  11.833  1.00  0.00     0.000 C 
BRANCH  12  13
ATOM     13  C   UNL     1     -15.628  41.418  10.598  1.00  0.00     0.006 C 
BRANCH  13  14
ATOM     14  C   UNL     1     -16.194  40.841   9.293  1.00  0.00     0.053 C 
BRANCH  14  15
ATOM     15  C   UNL     1     -16.706  41.924   8.391  1.00  0.00     0.041 C 
ATOM     16  O   UNL     1     -16.239  42.046   7.226  1.00  0.00    -0.550 OA
ATOM     17  O   UNL     1     -17.739  42.757   8.806  1.00  0.00    -0.550 OA
ENDBRANCH  14  15
ENDBRANCH  13  14
ENDBRANCH  12  13
ENDBRANCH  11  12
ENDBRANCH  10  11
ENDBRANCH   9  10
ENDBRANCH   8   9
ENDBRANCH   7   8
ENDBRANCH   6   7
ENDBRANCH   5   6
ENDBRANCH   4   5
ENDBRANCH   3   4
ENDBRANCH   2   3
ENDBRANCH   1   2
BRANCH   1  18
ATOM     18  C   UNL     1     -22.519  31.673  15.434  1.00  0.00     0.000 C 
BRANCH  18  19
ATOM     19  C   UNL     1     -22.307  32.793  16.466  1.00  0.00     0.000 C 
BRANCH  19  20
ATOM     20  C   UNL     1     -23.583  33.128  17.254  1.00  0.00     0.000 C 
BRANCH  20  21
ATOM     21  C   UNL     1     -24.705  33.586  16.313  1.00  0.00     0.000 C 
BRANCH  21  22
ATOM     22  C   UNL     1     -26.105  33.464  16.943  1.00  0.00     0.000 C 
BRANCH  22  23
ATOM     23  C   UNL     1     -26.211  32.449  18.096  1.00  0.00     0.000 C 
BRANCH  23  24
ATOM     24  C   UNL     1     -26.931  31.131  17.746  1.00  0.00    -0.000 C 
BRANCH  24  25
ATOM     25  C   UNL     1     -25.985  30.017  17.246  1.00  0.00    -0.000 C 
BRANCH  25  26
ATOM     26  C   UNL     1     -25.744  30.088  15.732  1.00  0.00    -0.000 C 
BRANCH  26  27
ATOM     27  C   UNL     1     -27.066  30.212  14.967  1.00  0.00    -0.000 C 
BRANCH  27  28
ATOM     28  C   UNL     1     -26.998  31.343  13.932  1.00  0.00    -0.000 C 
BRANCH  28  29
ATOM     29  C   UNL     1     -25.573  31.518  13.395  1.00  0.00    -0.000 C 
BRANCH  29  30
ATOM     30  C   UNL     1     -25.390  32.907  12.765  1.00  0.00    -0.000 C 
BRANCH  30  31
ATOM     31  C   UNL     1     -26.524  33.274  11.797  1.00  0.00    -0.003 C 
ATOM     32  C   UNL     1     -26.300  32.728  10.386  1.00  0.00     0.004 C 
ENDBRANCH  30  31
ENDBRANCH  29  30
ENDBRANCH  28  29
ENDBRANCH  27  28
ENDBRANCH  26  27
ENDBRANCH  25  26
ENDBRANCH  24  25
ENDBRANCH  23  24
ENDBRANCH  22  23
ENDBRANCH  21  22
ENDBRANCH  20  21
ENDBRANCH  19  20
ENDBRANCH  18  19
ENDBRANCH   1  18
TORSDOF 28
ENDMDL
MODEL 9
REMARK VINA RESULT:    -5.152      5.107      7.196
REMARK INTER + INTRA:         -16.232
REMARK INTER:                 -13.770
REMARK INTRA:                  -2.463
REMARK UNBOUND:                -2.648
REMARK SMILES CCCCCCCCCCCCCCCCCCCCCCCCCCCCCC(=O)[O-]
REMARK SMILES IDX 16 1 17 2 18 3 19 4 20 5 21 6 22 7 23 8 24 9 25 10 26 11
REMARK SMILES IDX 27 12 28 13 29 14 30 15 31 16 32 17 15 18 14 19 13 20 12 21
REMARK SMILES IDX 11 22 10 23 9 24 8 25 7 26 6 27 5 28 4 29 3 30 2 31 1 32
REMARK H PARENT
REMARK Flexibility Score: inf
ROOT
ATOM      1  C   UNL     1     -18.294  34.001  13.623  1.00  0.00     0.000 C 
ENDROOT
BRANCH   1   2
ATOM      2  C   UNL     1     -17.239  35.080  13.331  1.00  0.00     0.000 C 
BRANCH   2   3
ATOM      3  C   UNL     1     -16.771  35.070  11.865  1.00  0.00     0.000 C 
BRANCH   3   4
ATOM      4  C   UNL     1     -15.716  36.152  11.570  1.00  0.00     0.000 C 
BRANCH   4   5
ATOM      5  C   UNL     1     -14.890  36.604  12.793  1.00  0.00     0.000 C 
BRANCH   5   6
ATOM      6  C   UNL     1     -15.178  38.037  13.282  1.00  0.00     0.000 C 
BRANCH   6   7
ATOM      7  C   UNL     1     -16.407  38.707  12.635  1.00  0.00     0.000 C 
BRANCH   7   8
ATOM      8  C   UNL     1     -16.125  40.052  11.937  1.00  0.00     0.000 C 
BRANCH   8   9
ATOM      9  C   UNL     1     -17.322  40.670  11.192  1.00  0.00     0.000 C 
BRANCH   9  10
ATOM     10  C   UNL     1     -16.910  41.433   9.922  1.00  0.00     0.000 C 
BRANCH  10  11
ATOM     11  C   UNL     1     -16.056  40.582   8.965  1.00  0.00     0.000 C 
BRANCH  11  12
ATOM     12  C   UNL     1     -15.681  41.264   7.634  1.00  0.00     0.000 C 
BRANCH  12  13
ATOM     13  C   UNL     1     -14.509  42.258   7.715  1.00  0.00     0.006 C 
BRANCH  13  14
ATOM     14  C   UNL     1     -14.855  43.637   7.135  1.00  0.00     0.053 C 
BRANCH  14  15
ATOM     15  C   UNL     1     -15.912  44.324   7.948  1.00  0.00     0.041 C 
ATOM     16  O   UNL     1     -17.088  44.412   7.504  1.00  0.00    -0.550 OA
ATOM     17  O   UNL     1     -15.619  44.808   9.218  1.00  0.00    -0.550 OA
ENDBRANCH  14  15
ENDBRANCH  13  14
ENDBRANCH  12  13
ENDBRANCH  11  12
ENDBRANCH  10  11
ENDBRANCH   9  10
ENDBRANCH   8   9
ENDBRANCH   7   8
ENDBRANCH   6   7
ENDBRANCH   5   6
ENDBRANCH   4   5
ENDBRANCH   3   4
ENDBRANCH   2   3
ENDBRANCH   1   2
BRANCH   1  18
ATOM     18  C   UNL     1     -17.764  32.578  13.371  1.00  0.00     0.000 C 
BRANCH  18  19
ATOM     19  C   UNL     1     -18.367  31.542  14.332  1.00  0.00     0.000 C 
BRANCH  19  20
ATOM     20  C   UNL     1     -19.336  30.573  13.635  1.00  0.00     0.000 C 
BRANCH  20  21
ATOM     21  C   UNL     1     -20.744  30.679  14.235  1.00  0.00     0.000 C 
BRANCH  21  22
ATOM     22  C   UNL     1     -21.403  32.048  13.982  1.00  0.00     0.000 C 
BRANCH  22  23
ATOM     23  C   UNL     1     -22.895  32.129  14.353  1.00  0.00     0.000 C 
BRANCH  23  24
ATOM     24  C   UNL     1     -23.474  30.866  15.022  1.00  0.00    -0.000 C 
BRANCH  24  25
ATOM     25  C   UNL     1     -23.928  31.085  16.481  1.00  0.00    -0.000 C 
BRANCH  25  26
ATOM     26  C   UNL     1     -23.873  32.562  16.897  1.00  0.00    -0.000 C 
BRANCH  26  27
ATOM     27  C   UNL     1     -25.199  33.011  17.522  1.00  0.00    -0.000 C 
BRANCH  27  28
ATOM     28  C   UNL     1     -26.392  32.401  16.775  1.00  0.00    -0.000 C 
BRANCH  28  29
ATOM     29  C   UNL     1     -27.027  33.420  15.821  1.00  0.00    -0.000 C 
BRANCH  29  30
ATOM     30  C   UNL     1     -27.157  32.838  14.404  1.00  0.00    -0.000 C 
BRANCH  30  31
ATOM     31  C   UNL     1     -26.653  33.800  13.319  1.00  0.00    -0.003 C 
ATOM     32  C   UNL     1     -25.584  33.175  12.422  1.00  0.00     0.004 C 
ENDBRANCH  30  31
ENDBRANCH  29  30
ENDBRANCH  28  29
ENDBRANCH  27  28
ENDBRANCH  26  27
ENDBRANCH  25  26
ENDBRANCH  24  25
ENDBRANCH  23  24
ENDBRANCH  22  23
ENDBRANCH  21  22
ENDBRANCH  20  21
ENDBRANCH  19  20
ENDBRANCH  18  19
ENDBRANCH   1  18
TORSDOF 28
ENDMDL
