MODEL 1
REMARK VINA RESULT:    -7.690      0.000      0.000
REMARK INTER + INTRA:          -8.431
REMARK INTER:                  -8.364
REMARK INTRA:                  -0.067
REMARK UNBOUND:                -0.067
REMARK SMILES CC1(C)CC[C@]2(C(=O)[O-])CC[C@]3(C)C(=CC[C@@H]4[C@]5(C)CC[C@@H](O)C(C)(C)[C@@H]5CC[C@]43C)[C@@H]2C1
REMARK SMILES IDX 6 1 5 2 10 3 32 4 4 5 11 6 14 7 33 8 2 9 12 10 15 11 1 12
REMARK SMILES IDX 3 13 13 14 30 15 16 16 17 17 29 18 31 19 18 20 28 21 27 22
REMARK SMILES IDX 20 23 19 24 24 25 21 26 22 27 25 28 26 29 7 30 8 31 9 32
REMARK SMILES IDX 23 33
REMARK H PARENT 23 34
REMARK Flexibility Score: inf
ROOT
ATOM      1  C   UNL     1      99.286  86.955  85.199  1.00  0.00     0.017 C 
ATOM      2  C   UNL     1      99.969  85.666  85.749  1.00  0.00     0.014 C 
ATOM      3  C   UNL     1      97.891  87.114  85.898  1.00  0.00     0.014 C 
ATOM      4  C   UNL     1      99.185  86.854  83.629  1.00  0.00     0.028 C 
ATOM      5  C   UNL     1     101.355  85.404  85.142  1.00  0.00     0.007 C 
ATOM      6  C   UNL     1      96.694  87.227  84.945  1.00  0.00     0.013 C 
ATOM      7  C   UNL     1      98.000  85.995  83.136  1.00  0.00    -0.064 C 
ATOM      8  C   UNL     1     100.587  86.545  83.010  1.00  0.00     0.015 C 
ATOM      9  C   UNL     1     101.323  85.308  83.598  1.00  0.00    -0.035 C 
ATOM     10  C   UNL     1      96.646  86.122  83.840  1.00  0.00    -0.006 C 
ATOM     11  C   UNL     1      98.020  85.380  81.921  1.00  0.00    -0.027 C 
ATOM     12  C   UNL     1     102.778  85.313  83.079  1.00  0.00     0.011 C 
ATOM     13  C   UNL     1     100.678  83.977  83.152  1.00  0.00     0.011 C 
ATOM     14  C   UNL     1      96.386  84.756  84.564  1.00  0.00     0.017 C 
ATOM     15  C   UNL     1      95.545  86.475  82.714  1.00  0.00    -0.020 C 
ATOM     16  C   UNL     1      96.807  84.769  81.239  1.00  0.00     0.032 C 
ATOM     17  C   UNL     1      95.405  85.228  81.773  1.00  0.00     0.006 C 
ATOM     18  C   UNL     1      94.159  86.755  83.349  1.00  0.00     0.008 C 
ATOM     19  C   UNL     1      96.008  87.740  81.895  1.00  0.00     0.012 C 
ATOM     20  C   UNL     1      94.208  85.201  80.714  1.00  0.00    -0.025 C 
ATOM     21  C   UNL     1      93.020  86.853  82.328  1.00  0.00     0.005 C 
ATOM     22  C   UNL     1      92.843  85.587  81.437  1.00  0.00     0.003 C 
ATOM     23  C   UNL     1      94.439  86.148  79.493  1.00  0.00     0.010 C 
ATOM     24  C   UNL     1      94.144  83.725  80.198  1.00  0.00     0.012 C 
ATOM     25  C   UNL     1      91.585  85.736  80.459  1.00  0.00    -0.006 C 
ATOM     26  C   UNL     1      93.248  86.223  78.526  1.00  0.00     0.033 C 
ATOM     27  C   UNL     1      91.954  86.648  79.243  1.00  0.00     0.120 C 
ATOM     28  C   UNL     1      91.064  84.341  79.988  1.00  0.00     0.014 C 
ATOM     29  C   UNL     1      90.379  86.396  81.193  1.00  0.00     0.014 C 
ENDROOT
BRANCH   1  30
ATOM     30  C   UNL     1     100.119  88.176  85.595  1.00  0.00     0.048 C 
ATOM     31  O   UNL     1     100.115  89.216  84.883  1.00  0.00    -0.550 OA
ATOM     32  O   UNL     1     100.785  88.209  86.816  1.00  0.00    -0.550 OA
ENDBRANCH   1  30
BRANCH  27  33
ATOM     33  O   UNL     1      90.887  86.758  78.331  1.00  0.00    -0.393 OA
ATOM     34  H   UNL     1      90.042  86.833  78.846  1.00  0.00     0.210 HD
ENDBRANCH  27  33
TORSDOF 2
ENDMDL
MODEL 2
REMARK VINA RESULT:    -7.030      2.113      3.165
REMARK INTER + INTRA:          -7.714
REMARK INTER:                  -7.892
REMARK INTRA:                   0.179
REMARK UNBOUND:                -0.067
REMARK SMILES CC1(C)CC[C@]2(C(=O)[O-])CC[C@]3(C)C(=CC[C@@H]4[C@]5(C)CC[C@@H](O)C(C)(C)[C@@H]5CC[C@]43C)[C@@H]2C1
REMARK SMILES IDX 6 1 5 2 10 3 32 4 4 5 11 6 14 7 33 8 2 9 12 10 15 11 1 12
REMARK SMILES IDX 3 13 13 14 30 15 16 16 17 17 29 18 31 19 18 20 28 21 27 22
REMARK SMILES IDX 20 23 19 24 24 25 21 26 22 27 25 28 26 29 7 30 8 31 9 32
REMARK SMILES IDX 23 33
REMARK H PARENT 23 34
REMARK Flexibility Score: inf
ROOT
ATOM      1  C   UNL     1      97.698  87.274  88.175  1.00  0.00     0.017 C 
ATOM      2  C   UNL     1      98.203  86.051  89.000  1.00  0.00     0.014 C 
ATOM      3  C   UNL     1      96.147  87.141  87.988  1.00  0.00     0.014 C 
ATOM      4  C   UNL     1      98.485  87.336  86.810  1.00  0.00     0.028 C 
ATOM      5  C   UNL     1      99.716  86.073  89.257  1.00  0.00     0.007 C 
ATOM      6  C   UNL     1      95.662  87.177  86.533  1.00  0.00     0.013 C 
ATOM      7  C   UNL     1      97.943  86.367  85.736  1.00  0.00    -0.064 C 
ATOM      8  C   UNL     1     100.027  87.314  87.067  1.00  0.00     0.015 C 
ATOM      9  C   UNL     1     100.545  86.146  87.953  1.00  0.00    -0.035 C 
ATOM     10  C   UNL     1      96.429  86.207  85.575  1.00  0.00    -0.006 C 
ATOM     11  C   UNL     1      98.734  85.901  84.729  1.00  0.00    -0.027 C 
ATOM     12  C   UNL     1     102.017  86.430  88.325  1.00  0.00     0.011 C 
ATOM     13  C   UNL     1     100.509  84.790  87.213  1.00  0.00     0.011 C 
ATOM     14  C   UNL     1      96.081  84.745  86.022  1.00  0.00     0.017 C 
ATOM     15  C   UNL     1      96.071  86.512  84.032  1.00  0.00    -0.020 C 
ATOM     16  C   UNL     1      98.225  85.193  83.485  1.00  0.00     0.032 C 
ATOM     17  C   UNL     1      96.701  85.371  83.159  1.00  0.00     0.006 C 
ATOM     18  C   UNL     1      94.539  86.505  83.796  1.00  0.00     0.008 C 
ATOM     19  C   UNL     1      96.655  87.916  83.617  1.00  0.00     0.012 C 
ATOM     20  C   UNL     1      96.299  85.281  81.614  1.00  0.00    -0.025 C 
ATOM     21  C   UNL     1      94.140  86.542  82.318  1.00  0.00     0.005 C 
ATOM     22  C   UNL     1      94.717  85.371  81.466  1.00  0.00     0.003 C 
ATOM     23  C   UNL     1      96.971  86.381  80.733  1.00  0.00     0.010 C 
ATOM     24  C   UNL     1      96.804  83.878  81.135  1.00  0.00     0.012 C 
ATOM     25  C   UNL     1      94.187  85.435  79.956  1.00  0.00    -0.006 C 
ATOM     26  C   UNL     1      96.506  86.382  79.270  1.00  0.00     0.033 C 
ATOM     27  C   UNL     1      94.977  86.522  79.156  1.00  0.00     0.120 C 
ATOM     28  C   UNL     1      94.279  84.039  79.264  1.00  0.00     0.014 C 
ATOM     29  C   UNL     1      92.678  85.818  79.907  1.00  0.00     0.014 C 
ENDROOT
BRANCH   1  30
ATOM     30  C   UNL     1      97.936  88.557  88.976  1.00  0.00     0.048 C 
ATOM     31  O   UNL     1      98.714  89.449  88.546  1.00  0.00    -0.550 OA
ATOM     32  O   UNL     1      97.194  88.818  90.125  1.00  0.00    -0.550 OA
ENDBRANCH   1  30
BRANCH  27  33
ATOM     33  O   UNL     1      94.576  86.570  77.807  1.00  0.00    -0.393 OA
ATOM     34  H   UNL     1      95.200  86.011  77.275  1.00  0.00     0.210 HD
ENDBRANCH  27  33
TORSDOF 2
ENDMDL
MODEL 3
REMARK VINA RESULT:    -6.982      1.692      3.323
REMARK INTER + INTRA:          -7.661
REMARK INTER:                  -7.593
REMARK INTRA:                  -0.068
REMARK UNBOUND:                -0.067
REMARK SMILES CC1(C)CC[C@]2(C(=O)[O-])CC[C@]3(C)C(=CC[C@@H]4[C@]5(C)CC[C@@H](O)C(C)(C)[C@@H]5CC[C@]43C)[C@@H]2C1
REMARK SMILES IDX 6 1 5 2 10 3 32 4 4 5 11 6 14 7 33 8 2 9 12 10 15 11 1 12
REMARK SMILES IDX 3 13 13 14 30 15 16 16 17 17 29 18 31 19 18 20 28 21 27 22
REMARK SMILES IDX 20 23 19 24 24 25 21 26 22 27 25 28 26 29 7 30 8 31 9 32
REMARK SMILES IDX 23 33
REMARK H PARENT 23 34
REMARK Flexibility Score: inf
ROOT
ATOM      1  C   UNL     1     100.006  86.148  83.384  1.00  0.00     0.017 C 
ATOM      2  C   UNL     1     100.255  87.273  84.434  1.00  0.00     0.014 C 
ATOM      3  C   UNL     1      99.850  86.813  81.972  1.00  0.00     0.014 C 
ATOM      4  C   UNL     1      98.744  85.309  83.817  1.00  0.00     0.028 C 
ATOM      5  C   UNL     1     100.433  86.743  85.864  1.00  0.00     0.007 C 
ATOM      6  C   UNL     1      98.552  86.469  81.231  1.00  0.00     0.013 C 
ATOM      7  C   UNL     1      97.399  85.973  83.449  1.00  0.00    -0.064 C 
ATOM      8  C   UNL     1      98.903  84.803  85.288  1.00  0.00     0.015 C 
ATOM      9  C   UNL     1      99.230  85.898  86.343  1.00  0.00    -0.035 C 
ATOM     10  C   UNL     1      97.255  86.654  82.086  1.00  0.00    -0.006 C 
ATOM     11  C   UNL     1      96.257  85.703  84.140  1.00  0.00    -0.027 C 
ATOM     12  C   UNL     1      99.618  85.201  87.666  1.00  0.00     0.011 C 
ATOM     13  C   UNL     1      98.014  86.806  86.639  1.00  0.00     0.011 C 
ATOM     14  C   UNL     1      97.101  88.189  82.364  1.00  0.00     0.017 C 
ATOM     15  C   UNL     1      95.977  86.000  81.349  1.00  0.00    -0.020 C 
ATOM     16  C   UNL     1      94.857  86.074  83.678  1.00  0.00     0.032 C 
ATOM     17  C   UNL     1      94.696  86.415  82.155  1.00  0.00     0.006 C 
ATOM     18  C   UNL     1      95.826  86.533  79.902  1.00  0.00     0.008 C 
ATOM     19  C   UNL     1      96.127  84.432  81.314  1.00  0.00     0.012 C 
ATOM     20  C   UNL     1      93.262  86.114  81.517  1.00  0.00    -0.025 C 
ATOM     21  C   UNL     1      94.502  86.145  79.235  1.00  0.00     0.005 C 
ATOM     22  C   UNL     1      93.231  86.614  80.006  1.00  0.00     0.003 C 
ATOM     23  C   UNL     1      92.860  84.606  81.577  1.00  0.00     0.010 C 
ATOM     24  C   UNL     1      92.244  86.937  82.376  1.00  0.00     0.012 C 
ATOM     25  C   UNL     1      91.895  86.244  79.204  1.00  0.00    -0.006 C 
ATOM     26  C   UNL     1      91.540  84.281  80.865  1.00  0.00     0.033 C 
ATOM     27  C   UNL     1      91.558  84.729  79.392  1.00  0.00     0.120 C 
ATOM     28  C   UNL     1      90.703  87.153  79.640  1.00  0.00     0.014 C 
ATOM     29  C   UNL     1      92.069  86.502  77.678  1.00  0.00     0.014 C 
ENDROOT
BRANCH   1  30
ATOM     30  C   UNL     1     101.239  85.244  83.310  1.00  0.00     0.048 C 
ATOM     31  O   UNL     1     101.133  84.038  82.959  1.00  0.00    -0.550 OA
ATOM     32  O   UNL     1     102.513  85.772  83.498  1.00  0.00    -0.550 OA
ENDBRANCH   1  30
BRANCH  27  33
ATOM     33  O   UNL     1      90.358  84.378  78.745  1.00  0.00    -0.393 OA
ATOM     34  H   UNL     1      89.601  84.767  79.256  1.00  0.00     0.210 HD
ENDBRANCH  27  33
TORSDOF 2
ENDMDL
MODEL 4
REMARK VINA RESULT:    -6.884      1.379      8.394
REMARK INTER + INTRA:          -7.555
REMARK INTER:                  -7.855
REMARK INTRA:                   0.300
REMARK UNBOUND:                -0.067
REMARK SMILES CC1(C)CC[C@]2(C(=O)[O-])CC[C@]3(C)C(=CC[C@@H]4[C@]5(C)CC[C@@H](O)C(C)(C)[C@@H]5CC[C@]43C)[C@@H]2C1
REMARK SMILES IDX 6 1 5 2 10 3 32 4 4 5 11 6 14 7 33 8 2 9 12 10 15 11 1 12
REMARK SMILES IDX 3 13 13 14 30 15 16 16 17 17 29 18 31 19 18 20 28 21 27 22
REMARK SMILES IDX 20 23 19 24 24 25 21 26 22 27 25 28 26 29 7 30 8 31 9 32
REMARK SMILES IDX 23 33
REMARK H PARENT 23 34
REMARK Flexibility Score: inf
ROOT
ATOM      1  C   UNL     1      93.126  85.482  79.623  1.00  0.00     0.017 C 
ATOM      2  C   UNL     1      92.333  84.217  80.072  1.00  0.00     0.014 C 
ATOM      3  C   UNL     1      94.499  85.020  79.023  1.00  0.00     0.014 C 
ATOM      4  C   UNL     1      93.283  86.455  80.854  1.00  0.00     0.028 C 
ATOM      5  C   UNL     1      90.958  84.541  80.674  1.00  0.00     0.007 C 
ATOM      6  C   UNL     1      95.738  85.650  79.672  1.00  0.00     0.013 C 
ATOM      7  C   UNL     1      94.424  86.061  81.817  1.00  0.00    -0.064 C 
ATOM      8  C   UNL     1      91.889  86.753  81.496  1.00  0.00     0.015 C 
ATOM      9  C   UNL     1      91.045  85.505  81.880  1.00  0.00    -0.035 C 
ATOM     10  C   UNL     1      95.754  85.574  81.234  1.00  0.00    -0.006 C 
ATOM     11  C   UNL     1      94.411  86.426  83.129  1.00  0.00    -0.027 C 
ATOM     12  C   UNL     1      89.616  85.972  82.236  1.00  0.00     0.011 C 
ATOM     13  C   UNL     1      91.614  84.774  83.117  1.00  0.00     0.011 C 
ATOM     14  C   UNL     1      95.889  84.062  81.622  1.00  0.00     0.017 C 
ATOM     15  C   UNL     1      96.921  86.505  81.847  1.00  0.00    -0.020 C 
ATOM     16  C   UNL     1      95.604  86.339  84.065  1.00  0.00     0.032 C 
ATOM     17  C   UNL     1      97.012  86.208  83.385  1.00  0.00     0.006 C 
ATOM     18  C   UNL     1      98.297  86.176  81.214  1.00  0.00     0.008 C 
ATOM     19  C   UNL     1      96.581  88.023  81.594  1.00  0.00     0.012 C 
ATOM     20  C   UNL     1      98.246  86.806  84.207  1.00  0.00    -0.025 C 
ATOM     21  C   UNL     1      99.480  86.844  81.922  1.00  0.00     0.005 C 
ATOM     22  C   UNL     1      99.604  86.496  83.436  1.00  0.00     0.003 C 
ATOM     23  C   UNL     1      98.131  88.341  84.469  1.00  0.00     0.010 C 
ATOM     24  C   UNL     1      98.228  86.060  85.583  1.00  0.00     0.012 C 
ATOM     25  C   UNL     1     100.908  87.165  84.080  1.00  0.00    -0.006 C 
ATOM     26  C   UNL     1      99.362  88.953  85.153  1.00  0.00     0.033 C 
ATOM     27  C   UNL     1     100.653  88.682  84.360  1.00  0.00     0.120 C 
ATOM     28  C   UNL     1     101.349  86.412  85.376  1.00  0.00     0.014 C 
ATOM     29  C   UNL     1     102.126  87.062  83.114  1.00  0.00     0.014 C 
ENDROOT
BRANCH   1  30
ATOM     30  C   UNL     1      92.365  86.181  78.494  1.00  0.00     0.048 C 
ATOM     31  O   UNL     1      92.939  87.029  77.760  1.00  0.00    -0.550 OA
ATOM     32  O   UNL     1      91.067  85.793  78.173  1.00  0.00    -0.550 OA
ENDBRANCH   1  30
BRANCH  27  33
ATOM     33  O   UNL     1     101.761  89.292  84.978  1.00  0.00    -0.393 OA
ATOM     34  H   UNL     1     101.973  88.789  85.806  1.00  0.00     0.210 HD
ENDBRANCH  27  33
TORSDOF 2
ENDMDL
MODEL 5
REMARK VINA RESULT:    -6.710      5.680      8.694
REMARK INTER + INTRA:          -7.366
REMARK INTER:                  -7.316
REMARK INTRA:                  -0.050
REMARK UNBOUND:                -0.067
REMARK SMILES CC1(C)CC[C@]2(C(=O)[O-])CC[C@]3(C)C(=CC[C@@H]4[C@]5(C)CC[C@@H](O)C(C)(C)[C@@H]5CC[C@]43C)[C@@H]2C1
REMARK SMILES IDX 6 1 5 2 10 3 32 4 4 5 11 6 14 7 33 8 2 9 12 10 15 11 1 12
REMARK SMILES IDX 3 13 13 14 30 15 16 16 17 17 29 18 31 19 18 20 28 21 27 22
REMARK SMILES IDX 20 23 19 24 24 25 21 26 22 27 25 28 26 29 7 30 8 31 9 32
REMARK SMILES IDX 23 33
REMARK H PARENT 23 34
REMARK Flexibility Score: inf
ROOT
ATOM      1  C   UNL     1     103.651  91.948  81.691  1.00  0.00     0.017 C 
ATOM      2  C   UNL     1     103.783  91.518  80.198  1.00  0.00     0.014 C 
ATOM      3  C   UNL     1     104.656  91.098  82.543  1.00  0.00     0.014 C 
ATOM      4  C   UNL     1     102.151  91.776  82.146  1.00  0.00     0.028 C 
ATOM      5  C   UNL     1     102.847  92.291  79.257  1.00  0.00     0.007 C 
ATOM      6  C   UNL     1     104.028  90.323  83.708  1.00  0.00     0.013 C 
ATOM      7  C   UNL     1     101.776  90.324  82.515  1.00  0.00    -0.064 C 
ATOM      8  C   UNL     1     101.192  92.526  81.165  1.00  0.00     0.015 C 
ATOM      9  C   UNL     1     101.359  92.171  79.660  1.00  0.00    -0.035 C 
ATOM     10  C   UNL     1     102.770  89.479  83.315  1.00  0.00    -0.006 C 
ATOM     11  C   UNL     1     100.492  89.877  82.438  1.00  0.00    -0.027 C 
ATOM     12  C   UNL     1     100.544  93.184  78.826  1.00  0.00     0.011 C 
ATOM     13  C   UNL     1     100.820  90.761  79.330  1.00  0.00     0.011 C 
ATOM     14  C   UNL     1     103.261  88.337  82.361  1.00  0.00     0.017 C 
ATOM     15  C   UNL     1     102.002  88.939  84.627  1.00  0.00    -0.020 C 
ATOM     16  C   UNL     1      99.989  88.578  83.047  1.00  0.00     0.032 C 
ATOM     17  C   UNL     1     100.894  87.934  84.153  1.00  0.00     0.006 C 
ATOM     18  C   UNL     1     102.966  88.179  85.573  1.00  0.00     0.008 C 
ATOM     19  C   UNL     1     101.357  90.150  85.403  1.00  0.00     0.012 C 
ATOM     20  C   UNL     1     100.138  87.056  85.255  1.00  0.00    -0.025 C 
ATOM     21  C   UNL     1     102.258  87.432  86.708  1.00  0.00     0.005 C 
ATOM     22  C   UNL     1     101.203  86.388  86.232  1.00  0.00     0.003 C 
ATOM     23  C   UNL     1      99.099  87.870  86.090  1.00  0.00     0.010 C 
ATOM     24  C   UNL     1      99.378  85.948  84.452  1.00  0.00     0.012 C 
ATOM     25  C   UNL     1     100.571  85.595  87.471  1.00  0.00    -0.006 C 
ATOM     26  C   UNL     1      98.450  87.072  87.230  1.00  0.00     0.033 C 
ATOM     27  C   UNL     1      99.500  86.481  88.187  1.00  0.00     0.120 C 
ATOM     28  C   UNL     1      99.970  84.226  87.020  1.00  0.00     0.014 C 
ATOM     29  C   UNL     1     101.663  85.235  88.522  1.00  0.00     0.014 C 
ENDROOT
BRANCH   1  30
ATOM     30  C   UNL     1     104.079  93.411  81.835  1.00  0.00     0.048 C 
ATOM     31  O   UNL     1     103.722  94.091  82.834  1.00  0.00    -0.550 OA
ATOM     32  O   UNL     1     104.981  93.973  80.936  1.00  0.00    -0.550 OA
ENDBRANCH   1  30
BRANCH  27  33
ATOM     33  O   UNL     1      98.882  85.795  89.250  1.00  0.00    -0.393 OA
ATOM     34  H   UNL     1      98.512  84.944  88.900  1.00  0.00     0.210 HD
ENDBRANCH  27  33
TORSDOF 2
ENDMDL
MODEL 6
REMARK VINA RESULT:    -6.596      3.689      8.214
REMARK INTER + INTRA:          -7.242
REMARK INTER:                  -7.196
REMARK INTRA:                  -0.046
REMARK UNBOUND:                -0.067
REMARK SMILES CC1(C)CC[C@]2(C(=O)[O-])CC[C@]3(C)C(=CC[C@@H]4[C@]5(C)CC[C@@H](O)C(C)(C)[C@@H]5CC[C@]43C)[C@@H]2C1
REMARK SMILES IDX 6 1 5 2 10 3 32 4 4 5 11 6 14 7 33 8 2 9 12 10 15 11 1 12
REMARK SMILES IDX 3 13 13 14 30 15 16 16 17 17 29 18 31 19 18 20 28 21 27 22
REMARK SMILES IDX 20 23 19 24 24 25 21 26 22 27 25 28 26 29 7 30 8 31 9 32
REMARK SMILES IDX 23 33
REMARK H PARENT 23 34
REMARK Flexibility Score: inf
ROOT
ATOM      1  C   UNL     1      95.072  86.964  83.408  1.00  0.00     0.017 C 
ATOM      2  C   UNL     1      93.961  87.158  82.332  1.00  0.00     0.014 C 
ATOM      3  C   UNL     1      95.196  88.290  84.237  1.00  0.00     0.014 C 
ATOM      4  C   UNL     1      96.416  86.552  82.693  1.00  0.00     0.028 C 
ATOM      5  C   UNL     1      93.739  85.916  81.456  1.00  0.00     0.007 C 
ATOM      6  C   UNL     1      96.602  88.903  84.279  1.00  0.00     0.013 C 
ATOM      7  C   UNL     1      97.188  87.744  82.086  1.00  0.00    -0.064 C 
ATOM      8  C   UNL     1      96.184  85.315  81.766  1.00  0.00     0.015 C 
ATOM      9  C   UNL     1      95.028  85.454  80.736  1.00  0.00    -0.035 C 
ATOM     10  C   UNL     1      97.280  89.051  82.877  1.00  0.00    -0.006 C 
ATOM     11  C   UNL     1      98.047  87.581  81.041  1.00  0.00    -0.027 C 
ATOM     12  C   UNL     1      94.765  84.067  80.106  1.00  0.00     0.011 C 
ATOM     13  C   UNL     1      95.383  86.423  79.586  1.00  0.00     0.011 C 
ATOM     14  C   UNL     1      96.458  90.120  82.077  1.00  0.00     0.017 C 
ATOM     15  C   UNL     1      98.844  89.419  83.025  1.00  0.00    -0.020 C 
ATOM     16  C   UNL     1      99.053  88.620  80.576  1.00  0.00     0.032 C 
ATOM     17  C   UNL     1      99.393  89.763  81.596  1.00  0.00     0.006 C 
ATOM     18  C   UNL     1      99.048  90.662  83.929  1.00  0.00     0.008 C 
ATOM     19  C   UNL     1      99.623  88.195  83.640  1.00  0.00     0.012 C 
ATOM     20  C   UNL     1     100.853  90.401  81.472  1.00  0.00    -0.025 C 
ATOM     21  C   UNL     1     100.478  91.211  83.912  1.00  0.00     0.005 C 
ATOM     22  C   UNL     1     100.998  91.610  82.498  1.00  0.00     0.003 C 
ATOM     23  C   UNL     1     102.003  89.372  81.711  1.00  0.00     0.010 C 
ATOM     24  C   UNL     1     100.951  90.930  80.002  1.00  0.00     0.012 C 
ATOM     25  C   UNL     1     102.464  92.250  82.578  1.00  0.00    -0.006 C 
ATOM     26  C   UNL     1     103.407  89.992  81.712  1.00  0.00     0.033 C 
ATOM     27  C   UNL     1     103.534  91.123  82.749  1.00  0.00     0.120 C 
ATOM     28  C   UNL     1     102.764  93.136  81.327  1.00  0.00     0.014 C 
ATOM     29  C   UNL     1     102.591  93.210  83.798  1.00  0.00     0.014 C 
ENDROOT
BRANCH   1  30
ATOM     30  C   UNL     1      94.642  85.871  84.388  1.00  0.00     0.048 C 
ATOM     31  O   UNL     1      95.490  85.287  85.115  1.00  0.00    -0.550 OA
ATOM     32  O   UNL     1      93.292  85.598  84.592  1.00  0.00    -0.550 OA
ENDBRANCH   1  30
BRANCH  27  33
ATOM     33  O   UNL     1     104.842  91.644  82.768  1.00  0.00    -0.393 OA
ATOM     34  H   UNL     1     105.118  91.828  81.833  1.00  0.00     0.210 HD
ENDBRANCH  27  33
TORSDOF 2
ENDMDL
MODEL 7
REMARK VINA RESULT:    -6.559      3.229      4.809
REMARK INTER + INTRA:          -7.202
REMARK INTER:                  -7.131
REMARK INTRA:                  -0.070
REMARK UNBOUND:                -0.067
REMARK SMILES CC1(C)CC[C@]2(C(=O)[O-])CC[C@]3(C)C(=CC[C@@H]4[C@]5(C)CC[C@@H](O)C(C)(C)[C@@H]5CC[C@]43C)[C@@H]2C1
REMARK SMILES IDX 6 1 5 2 10 3 32 4 4 5 11 6 14 7 33 8 2 9 12 10 15 11 1 12
REMARK SMILES IDX 3 13 13 14 30 15 16 16 17 17 29 18 31 19 18 20 28 21 27 22
REMARK SMILES IDX 20 23 19 24 24 25 21 26 22 27 25 28 26 29 7 30 8 31 9 32
REMARK SMILES IDX 23 33
REMARK H PARENT 23 34
REMARK Flexibility Score: inf
ROOT
ATOM      1  C   UNL     1      93.773  88.464  86.802  1.00  0.00     0.017 C 
ATOM      2  C   UNL     1      94.656  87.434  87.571  1.00  0.00     0.014 C 
ATOM      3  C   UNL     1      92.267  88.138  87.090  1.00  0.00     0.014 C 
ATOM      4  C   UNL     1      94.137  88.412  85.269  1.00  0.00     0.028 C 
ATOM      5  C   UNL     1      96.162  87.655  87.373  1.00  0.00     0.007 C 
ATOM      6  C   UNL     1      91.400  87.911  85.844  1.00  0.00     0.013 C 
ATOM      7  C   UNL     1      93.467  87.245  84.510  1.00  0.00    -0.064 C 
ATOM      8  C   UNL     1      95.677  88.593  85.066  1.00  0.00     0.015 C 
ATOM      9  C   UNL     1      96.581  87.628  85.884  1.00  0.00    -0.035 C 
ATOM     10  C   UNL     1      92.007  86.902  84.815  1.00  0.00    -0.006 C 
ATOM     11  C   UNL     1      94.009  86.728  83.373  1.00  0.00    -0.027 C 
ATOM     12  C   UNL     1      98.042  88.120  85.779  1.00  0.00     0.011 C 
ATOM     13  C   UNL     1      96.539  86.184  85.336  1.00  0.00     0.011 C 
ATOM     14  C   UNL     1      92.009  85.491  85.499  1.00  0.00     0.017 C 
ATOM     15  C   UNL     1      91.198  86.941  83.419  1.00  0.00    -0.020 C 
ATOM     16  C   UNL     1      93.286  85.796  82.414  1.00  0.00     0.032 C 
ATOM     17  C   UNL     1      91.722  85.760  82.529  1.00  0.00     0.006 C 
ATOM     18  C   UNL     1      89.678  86.735  83.642  1.00  0.00     0.008 C 
ATOM     19  C   UNL     1      91.437  88.325  82.703  1.00  0.00     0.012 C 
ATOM     20  C   UNL     1      90.929  85.405  81.187  1.00  0.00    -0.025 C 
ATOM     21  C   UNL     1      88.887  86.515  82.348  1.00  0.00     0.005 C 
ATOM     22  C   UNL     1      89.370  85.302  81.497  1.00  0.00     0.003 C 
ATOM     23  C   UNL     1      91.166  86.433  80.036  1.00  0.00     0.010 C 
ATOM     24  C   UNL     1      91.479  84.011  80.736  1.00  0.00     0.012 C 
ATOM     25  C   UNL     1      88.443  85.091  80.208  1.00  0.00    -0.006 C 
ATOM     26  C   UNL     1      90.322  86.173  78.780  1.00  0.00     0.033 C 
ATOM     27  C   UNL     1      88.817  86.130  79.101  1.00  0.00     0.120 C 
ATOM     28  C   UNL     1      88.541  83.627  79.674  1.00  0.00     0.014 C 
ATOM     29  C   UNL     1      86.940  85.297  80.560  1.00  0.00     0.014 C 
ENDROOT
BRANCH   1  30
ATOM     30  C   UNL     1      94.034  89.866  87.357  1.00  0.00     0.048 C 
ATOM     31  O   UNL     1      93.889  90.884  86.628  1.00  0.00    -0.550 OA
ATOM     32  O   UNL     1      94.304  90.050  88.710  1.00  0.00    -0.550 OA
ENDBRANCH   1  30
BRANCH  27  33
ATOM     33  O   UNL     1      88.058  85.939  77.930  1.00  0.00    -0.393 OA
ATOM     34  H   UNL     1      88.579  86.286  77.160  1.00  0.00     0.210 HD
ENDBRANCH  27  33
TORSDOF 2
ENDMDL
MODEL 8
REMARK VINA RESULT:    -6.534      2.054      8.118
REMARK INTER + INTRA:          -7.174
REMARK INTER:                  -7.125
REMARK INTRA:                  -0.049
REMARK UNBOUND:                -0.067
REMARK SMILES CC1(C)CC[C@]2(C(=O)[O-])CC[C@]3(C)C(=CC[C@@H]4[C@]5(C)CC[C@@H](O)C(C)(C)[C@@H]5CC[C@]43C)[C@@H]2C1
REMARK SMILES IDX 6 1 5 2 10 3 32 4 4 5 11 6 14 7 33 8 2 9 12 10 15 11 1 12
REMARK SMILES IDX 3 13 13 14 30 15 16 16 17 17 29 18 31 19 18 20 28 21 27 22
REMARK SMILES IDX 20 23 19 24 24 25 21 26 22 27 25 28 26 29 7 30 8 31 9 32
REMARK SMILES IDX 23 33
REMARK H PARENT 23 34
REMARK Flexibility Score: inf
ROOT
ATOM      1  C   UNL     1      91.779  86.517  83.199  1.00  0.00     0.017 C 
ATOM      2  C   UNL     1      91.174  87.419  82.080  1.00  0.00     0.014 C 
ATOM      3  C   UNL     1      92.331  87.442  84.339  1.00  0.00     0.014 C 
ATOM      4  C   UNL     1      92.883  85.585  82.568  1.00  0.00     0.028 C 
ATOM      5  C   UNL     1      90.591  86.623  80.904  1.00  0.00     0.007 C 
ATOM      6  C   UNL     1      93.806  87.226  84.696  1.00  0.00     0.013 C 
ATOM      7  C   UNL     1      94.247  86.282  82.370  1.00  0.00    -0.064 C 
ATOM      8  C   UNL     1      92.305  84.804  81.343  1.00  0.00     0.015 C 
ATOM      9  C   UNL     1      91.626  85.677  80.250  1.00  0.00    -0.035 C 
ATOM     10  C   UNL     1      94.771  87.215  83.465  1.00  0.00    -0.006 C 
ATOM     11  C   UNL     1      95.135  85.861  81.427  1.00  0.00    -0.027 C 
ATOM     12  C   UNL     1      90.882  84.742  79.270  1.00  0.00     0.011 C 
ATOM     13  C   UNL     1      92.653  86.485  79.426  1.00  0.00     0.011 C 
ATOM     14  C   UNL     1      94.768  88.662  82.864  1.00  0.00     0.017 C 
ATOM     15  C   UNL     1      96.240  86.693  83.884  1.00  0.00    -0.020 C 
ATOM     16  C   UNL     1      96.591  86.288  81.356  1.00  0.00     0.032 C 
ATOM     17  C   UNL     1      97.195  86.918  82.660  1.00  0.00     0.006 C 
ATOM     18  C   UNL     1      96.803  87.496  85.085  1.00  0.00     0.008 C 
ATOM     19  C   UNL     1      96.174  85.165  84.265  1.00  0.00     0.012 C 
ATOM     20  C   UNL     1      98.767  86.719  82.872  1.00  0.00    -0.025 C 
ATOM     21  C   UNL     1      98.282  87.222  85.373  1.00  0.00     0.005 C 
ATOM     22  C   UNL     1      99.236  87.506  84.174  1.00  0.00     0.003 C 
ATOM     23  C   UNL     1      99.194  85.222  82.983  1.00  0.00     0.010 C 
ATOM     24  C   UNL     1      99.438  87.339  81.600  1.00  0.00     0.012 C 
ATOM     25  C   UNL     1     100.767  87.275  84.582  1.00  0.00    -0.006 C 
ATOM     26  C   UNL     1     100.682  85.017  83.303  1.00  0.00     0.033 C 
ATOM     27  C   UNL     1     101.095  85.746  84.595  1.00  0.00     0.120 C 
ATOM     28  C   UNL     1     101.730  88.057  83.634  1.00  0.00     0.014 C 
ATOM     29  C   UNL     1     101.057  87.830  86.008  1.00  0.00     0.014 C 
ENDROOT
BRANCH   1  30
ATOM     30  C   UNL     1      90.667  85.668  83.820  1.00  0.00     0.048 C 
ATOM     31  O   UNL     1      90.887  84.480  84.176  1.00  0.00    -0.550 OA
ATOM     32  O   UNL     1      89.435  86.237  84.127  1.00  0.00    -0.550 OA
ENDBRANCH   1  30
BRANCH  27  33
ATOM     33  O   UNL     1     102.449  85.506  84.896  1.00  0.00    -0.393 OA
ATOM     34  H   UNL     1     102.535  85.389  85.878  1.00  0.00     0.210 HD
ENDBRANCH  27  33
TORSDOF 2
ENDMDL
MODEL 9
REMARK VINA RESULT:    -6.371      5.798      9.635
REMARK INTER + INTRA:          -6.997
REMARK INTER:                  -6.984
REMARK INTRA:                  -0.013
REMARK UNBOUND:                -0.067
REMARK SMILES CC1(C)CC[C@]2(C(=O)[O-])CC[C@]3(C)C(=CC[C@@H]4[C@]5(C)CC[C@@H](O)C(C)(C)[C@@H]5CC[C@]43C)[C@@H]2C1
REMARK SMILES IDX 6 1 5 2 10 3 32 4 4 5 11 6 14 7 33 8 2 9 12 10 15 11 1 12
REMARK SMILES IDX 3 13 13 14 30 15 16 16 17 17 29 18 31 19 18 20 28 21 27 22
REMARK SMILES IDX 20 23 19 24 24 25 21 26 22 27 25 28 26 29 7 30 8 31 9 32
REMARK SMILES IDX 23 33
REMARK H PARENT 23 34
REMARK Flexibility Score: inf
ROOT
ATOM      1  C   UNL     1      91.263  85.297  80.699  1.00  0.00     0.017 C 
ATOM      2  C   UNL     1      90.355  84.031  80.636  1.00  0.00     0.014 C 
ATOM      3  C   UNL     1      92.352  85.073  81.805  1.00  0.00     0.014 C 
ATOM      4  C   UNL     1      90.363  86.564  80.963  1.00  0.00     0.028 C 
ATOM      5  C   UNL     1      89.247  84.128  79.577  1.00  0.00     0.007 C 
ATOM      6  C   UNL     1      92.408  86.154  82.892  1.00  0.00     0.013 C 
ATOM      7  C   UNL     1      89.971  86.751  82.445  1.00  0.00    -0.064 C 
ATOM      8  C   UNL     1      89.208  86.643  79.912  1.00  0.00     0.015 C 
ATOM      9  C   UNL     1      88.336  85.362  79.775  1.00  0.00    -0.035 C 
ATOM     10  C   UNL     1      91.022  86.497  83.529  1.00  0.00    -0.006 C 
ATOM     11  C   UNL     1      88.848  87.430  82.807  1.00  0.00    -0.027 C 
ATOM     12  C   UNL     1      87.439  85.513  78.526  1.00  0.00     0.011 C 
ATOM     13  C   UNL     1      87.404  85.157  80.990  1.00  0.00     0.011 C 
ATOM     14  C   UNL     1      90.552  85.230  84.323  1.00  0.00     0.017 C 
ATOM     15  C   UNL     1      91.115  87.829  84.436  1.00  0.00    -0.020 C 
ATOM     16  C   UNL     1      88.540  87.909  84.216  1.00  0.00     0.032 C 
ATOM     17  C   UNL     1      89.756  87.980  85.205  1.00  0.00     0.006 C 
ATOM     18  C   UNL     1      92.250  87.719  85.485  1.00  0.00     0.008 C 
ATOM     19  C   UNL     1      91.374  89.083  83.516  1.00  0.00     0.012 C 
ATOM     20  C   UNL     1      89.653  89.075  86.365  1.00  0.00    -0.025 C 
ATOM     21  C   UNL     1      92.234  88.837  86.533  1.00  0.00     0.005 C 
ATOM     22  C   UNL     1      90.905  88.944  87.340  1.00  0.00     0.003 C 
ATOM     23  C   UNL     1      89.559  90.539  85.830  1.00  0.00     0.010 C 
ATOM     24  C   UNL     1      88.334  88.739  87.138  1.00  0.00     0.012 C 
ATOM     25  C   UNL     1      90.999  90.077  88.467  1.00  0.00    -0.006 C 
ATOM     26  C   UNL     1      89.578  91.611  86.929  1.00  0.00     0.033 C 
ATOM     27  C   UNL     1      90.825  91.491  87.824  1.00  0.00     0.120 C 
ATOM     28  C   UNL     1      89.955  89.834  89.603  1.00  0.00     0.014 C 
ATOM     29  C   UNL     1      92.387  90.049  89.175  1.00  0.00     0.014 C 
ENDROOT
BRANCH   1  30
ATOM     30  C   UNL     1      92.009  85.450  79.371  1.00  0.00     0.048 C 
ATOM     31  O   UNL     1      92.123  86.579  78.823  1.00  0.00    -0.550 OA
ATOM     32  O   UNL     1      92.691  84.370  78.817  1.00  0.00    -0.550 OA
ENDBRANCH   1  30
BRANCH  27  33
ATOM     33  O   UNL     1      90.847  92.511  88.794  1.00  0.00    -0.393 OA
ATOM     34  H   UNL     1      89.943  92.581  89.195  1.00  0.00     0.210 HD
ENDBRANCH  27  33
TORSDOF 2
ENDMDL
