MODEL 1
REMARK VINA RESULT:    -5.966      0.000      0.000
REMARK INTER + INTRA:         -12.602
REMARK INTER:                 -11.546
REMARK INTRA:                  -1.056
REMARK UNBOUND:                -1.056
REMARK SMILES CCCCCCCCCCCCCCCCCC(=O)[O-]
REMARK SMILES IDX 10 1 11 2 12 3 13 4 14 5 15 6 16 7 17 8 18 9 19 10 20 11
REMARK SMILES IDX 9 12 8 13 7 14 6 15 5 16 4 17 3 18 2 19 1 20
REMARK H PARENT
REMARK Flexibility Score: inf
ROOT
ATOM      1  C   UNL     1      89.123 325.626 199.207  1.00  0.00     0.000 C 
ENDROOT
BRANCH   1   2
ATOM      2  C   UNL     1      89.067 326.123 200.660  1.00  0.00     0.000 C 
BRANCH   2   3
ATOM      3  C   UNL     1      90.480 326.347 201.217  1.00  0.00     0.000 C 
BRANCH   3   4
ATOM      4  C   UNL     1      90.480 326.811 202.684  1.00  0.00     0.000 C 
BRANCH   4   5
ATOM      5  C   UNL     1      89.182 326.513 203.464  1.00  0.00     0.000 C 
BRANCH   5   6
ATOM      6  C   UNL     1      89.077 327.196 204.839  1.00  0.00     0.000 C 
BRANCH   6   7
ATOM      7  C   UNL     1      89.408 326.250 206.002  1.00  0.00     0.006 C 
BRANCH   7   8
ATOM      8  C   UNL     1      88.226 326.135 206.968  1.00  0.00     0.053 C 
BRANCH   8   9
ATOM      9  C   UNL     1      87.432 324.899 206.682  1.00  0.00     0.041 C 
ATOM     10  O   UNL     1      86.327 324.980 206.086  1.00  0.00    -0.550 OA
ATOM     11  O   UNL     1      87.891 323.663 207.120  1.00  0.00    -0.550 OA
ENDBRANCH   8   9
ENDBRANCH   7   8
ENDBRANCH   6   7
ENDBRANCH   5   6
ENDBRANCH   4   5
ENDBRANCH   3   4
ENDBRANCH   2   3
ENDBRANCH   1   2
BRANCH   1  12
ATOM     12  C   UNL     1      88.573 326.653 198.205  1.00  0.00     0.000 C 
BRANCH  12  13
ATOM     13  C   UNL     1      88.183 326.015 196.860  1.00  0.00    -0.000 C 
BRANCH  13  14
ATOM     14  C   UNL     1      89.052 326.510 195.689  1.00  0.00    -0.000 C 
BRANCH  14  15
ATOM     15  C   UNL     1      88.288 326.813 194.384  1.00  0.00    -0.000 C 
BRANCH  15  16
ATOM     16  C   UNL     1      86.807 326.391 194.381  1.00  0.00    -0.000 C 
BRANCH  16  17
ATOM     17  C   UNL     1      86.524 325.216 193.435  1.00  0.00    -0.000 C 
BRANCH  17  18
ATOM     18  C   UNL     1      87.757 324.893 192.577  1.00  0.00    -0.000 C 
BRANCH  18  19
ATOM     19  C   UNL     1      88.288 323.472 192.818  1.00  0.00    -0.003 C 
ATOM     20  C   UNL     1      88.165 323.033 194.276  1.00  0.00     0.004 C 
ENDBRANCH  18  19
ENDBRANCH  17  18
ENDBRANCH  16  17
ENDBRANCH  15  16
ENDBRANCH  14  15
ENDBRANCH  13  14
ENDBRANCH  12  13
ENDBRANCH   1  12
TORSDOF 16
ENDMDL
MODEL 2
REMARK VINA RESULT:    -5.940     19.944     20.956
REMARK INTER + INTRA:         -12.551
REMARK INTER:                 -11.692
REMARK INTRA:                  -0.859
REMARK UNBOUND:                -1.056
REMARK SMILES CCCCCCCCCCCCCCCCCC(=O)[O-]
REMARK SMILES IDX 10 1 11 2 12 3 13 4 14 5 15 6 16 7 17 8 18 9 19 10 20 11
REMARK SMILES IDX 9 12 8 13 7 14 6 15 5 16 4 17 3 18 2 19 1 20
REMARK H PARENT
REMARK Flexibility Score: inf
ROOT
ATOM      1  C   UNL     1     104.300 312.201 196.050  1.00  0.00     0.000 C 
ENDROOT
BRANCH   1   2
ATOM      2  C   UNL     1     103.874 311.515 197.357  1.00  0.00     0.000 C 
BRANCH   2   3
ATOM      3  C   UNL     1     103.799 312.527 198.508  1.00  0.00     0.000 C 
BRANCH   3   4
ATOM      4  C   UNL     1     103.845 311.863 199.895  1.00  0.00     0.000 C 
BRANCH   4   5
ATOM      5  C   UNL     1     102.500 311.827 200.649  1.00  0.00     0.000 C 
BRANCH   5   6
ATOM      6  C   UNL     1     102.536 311.119 202.015  1.00  0.00     0.000 C 
BRANCH   6   7
ATOM      7  C   UNL     1     103.937 311.106 202.644  1.00  0.00     0.006 C 
BRANCH   7   8
ATOM      8  C   UNL     1     103.873 310.681 204.113  1.00  0.00     0.053 C 
BRANCH   8   9
ATOM      9  C   UNL     1     104.573 311.680 204.980  1.00  0.00     0.041 C 
ATOM     10  O   UNL     1     105.445 312.445 204.488  1.00  0.00    -0.550 OA
ATOM     11  O   UNL     1     104.300 311.733 206.341  1.00  0.00    -0.550 OA
ENDBRANCH   8   9
ENDBRANCH   7   8
ENDBRANCH   6   7
ENDBRANCH   5   6
ENDBRANCH   4   5
ENDBRANCH   3   4
ENDBRANCH   2   3
ENDBRANCH   1   2
BRANCH   1  12
ATOM     12  C   UNL     1     103.487 311.727 194.835  1.00  0.00     0.000 C 
BRANCH  12  13
ATOM     13  C   UNL     1     104.379 311.242 193.680  1.00  0.00    -0.000 C 
BRANCH  13  14
ATOM     14  C   UNL     1     105.785 311.871 193.707  1.00  0.00    -0.000 C 
BRANCH  14  15
ATOM     15  C   UNL     1     106.122 312.783 192.510  1.00  0.00    -0.000 C 
BRANCH  15  16
ATOM     16  C   UNL     1     105.523 314.200 192.581  1.00  0.00    -0.000 C 
BRANCH  16  17
ATOM     17  C   UNL     1     104.079 314.265 192.066  1.00  0.00    -0.000 C 
BRANCH  17  18
ATOM     18  C   UNL     1     103.996 313.793 190.606  1.00  0.00    -0.000 C 
BRANCH  18  19
ATOM     19  C   UNL     1     103.848 314.958 189.616  1.00  0.00    -0.003 C 
ATOM     20  C   UNL     1     102.893 314.640 188.466  1.00  0.00     0.004 C 
ENDBRANCH  18  19
ENDBRANCH  17  18
ENDBRANCH  16  17
ENDBRANCH  15  16
ENDBRANCH  14  15
ENDBRANCH  13  14
ENDBRANCH  12  13
ENDBRANCH   1  12
TORSDOF 16
ENDMDL
MODEL 3
REMARK VINA RESULT:    -5.904      1.958      2.663
REMARK INTER + INTRA:         -12.482
REMARK INTER:                 -11.853
REMARK INTRA:                  -0.629
REMARK UNBOUND:                -1.056
REMARK SMILES CCCCCCCCCCCCCCCCCC(=O)[O-]
REMARK SMILES IDX 10 1 11 2 12 3 13 4 14 5 15 6 16 7 17 8 18 9 19 10 20 11
REMARK SMILES IDX 9 12 8 13 7 14 6 15 5 16 4 17 3 18 2 19 1 20
REMARK H PARENT
REMARK Flexibility Score: inf
ROOT
ATOM      1  C   UNL     1      88.725 326.745 197.913  1.00  0.00     0.000 C 
ENDROOT
BRANCH   1   2
ATOM      2  C   UNL     1      88.887 325.765 199.085  1.00  0.00     0.000 C 
BRANCH   2   3
ATOM      3  C   UNL     1      89.635 326.425 200.251  1.00  0.00     0.000 C 
BRANCH   3   4
ATOM      4  C   UNL     1      88.915 326.251 201.600  1.00  0.00     0.000 C 
BRANCH   4   5
ATOM      5  C   UNL     1      89.833 326.285 202.840  1.00  0.00     0.000 C 
BRANCH   5   6
ATOM      6  C   UNL     1      89.312 327.133 204.014  1.00  0.00     0.000 C 
BRANCH   6   7
ATOM      7  C   UNL     1      88.657 326.289 205.117  1.00  0.00     0.006 C 
BRANCH   7   8
ATOM      8  C   UNL     1      89.237 326.638 206.490  1.00  0.00     0.053 C 
BRANCH   8   9
ATOM      9  C   UNL     1      90.729 326.521 206.476  1.00  0.00     0.041 C 
ATOM     10  O   UNL     1      91.274 325.388 206.399  1.00  0.00    -0.550 OA
ATOM     11  O   UNL     1      91.516 327.658 206.598  1.00  0.00    -0.550 OA
ENDBRANCH   8   9
ENDBRANCH   7   8
ENDBRANCH   6   7
ENDBRANCH   5   6
ENDBRANCH   4   5
ENDBRANCH   3   4
ENDBRANCH   2   3
ENDBRANCH   1   2
BRANCH   1  12
ATOM     12  C   UNL     1      88.096 326.090 196.672  1.00  0.00     0.000 C 
BRANCH  12  13
ATOM     13  C   UNL     1      88.905 326.355 195.391  1.00  0.00    -0.000 C 
BRANCH  13  14
ATOM     14  C   UNL     1      88.022 326.782 194.204  1.00  0.00    -0.000 C 
BRANCH  14  15
ATOM     15  C   UNL     1      86.648 326.086 194.121  1.00  0.00    -0.000 C 
BRANCH  15  16
ATOM     16  C   UNL     1      86.583 324.882 193.163  1.00  0.00    -0.000 C 
BRANCH  16  17
ATOM     17  C   UNL     1      87.852 324.728 192.312  1.00  0.00    -0.000 C 
BRANCH  17  18
ATOM     18  C   UNL     1      87.787 323.452 191.458  1.00  0.00    -0.000 C 
BRANCH  18  19
ATOM     19  C   UNL     1      88.480 323.616 190.097  1.00  0.00    -0.003 C 
ATOM     20  C   UNL     1      87.788 322.832 188.983  1.00  0.00     0.004 C 
ENDBRANCH  18  19
ENDBRANCH  17  18
ENDBRANCH  16  17
ENDBRANCH  15  16
ENDBRANCH  14  15
ENDBRANCH  13  14
ENDBRANCH  12  13
ENDBRANCH   1  12
TORSDOF 16
ENDMDL
MODEL 4
REMARK VINA RESULT:    -5.810      1.162      2.840
REMARK INTER + INTRA:         -12.300
REMARK INTER:                 -10.790
REMARK INTRA:                  -1.509
REMARK UNBOUND:                -1.056
REMARK SMILES CCCCCCCCCCCCCCCCCC(=O)[O-]
REMARK SMILES IDX 10 1 11 2 12 3 13 4 14 5 15 6 16 7 17 8 18 9 19 10 20 11
REMARK SMILES IDX 9 12 8 13 7 14 6 15 5 16 4 17 3 18 2 19 1 20
REMARK H PARENT
REMARK Flexibility Score: inf
ROOT
ATOM      1  C   UNL     1      87.980 326.126 196.630  1.00  0.00     0.000 C 
ENDROOT
BRANCH   1   2
ATOM      2  C   UNL     1      88.663 326.539 197.943  1.00  0.00     0.000 C 
BRANCH   2   3
ATOM      3  C   UNL     1      88.874 325.323 198.856  1.00  0.00     0.000 C 
BRANCH   3   4
ATOM      4  C   UNL     1      88.990 325.702 200.343  1.00  0.00     0.000 C 
BRANCH   4   5
ATOM      5  C   UNL     1      90.304 326.407 200.738  1.00  0.00     0.000 C 
BRANCH   5   6
ATOM      6  C   UNL     1      90.469 326.683 202.243  1.00  0.00     0.000 C 
BRANCH   6   7
ATOM      7  C   UNL     1      89.168 326.482 203.033  1.00  0.00     0.006 C 
BRANCH   7   8
ATOM      8  C   UNL     1      89.231 327.202 204.383  1.00  0.00     0.053 C 
BRANCH   8   9
ATOM      9  C   UNL     1      88.999 326.236 205.503  1.00  0.00     0.041 C 
ATOM     10  O   UNL     1      89.047 324.996 205.290  1.00  0.00    -0.550 OA
ATOM     11  O   UNL     1      88.681 326.706 206.771  1.00  0.00    -0.550 OA
ENDBRANCH   8   9
ENDBRANCH   7   8
ENDBRANCH   6   7
ENDBRANCH   5   6
ENDBRANCH   4   5
ENDBRANCH   3   4
ENDBRANCH   2   3
ENDBRANCH   1   2
BRANCH   1  12
ATOM     12  C   UNL     1      88.861 326.379 195.396  1.00  0.00     0.000 C 
BRANCH  12  13
ATOM     13  C   UNL     1      88.053 326.882 194.187  1.00  0.00    -0.000 C 
BRANCH  13  14
ATOM     14  C   UNL     1      86.628 326.302 194.139  1.00  0.00    -0.000 C 
BRANCH  14  15
ATOM     15  C   UNL     1      86.465 325.023 193.291  1.00  0.00    -0.000 C 
BRANCH  15  16
ATOM     16  C   UNL     1      87.711 324.612 192.486  1.00  0.00    -0.000 C 
BRANCH  16  17
ATOM     17  C   UNL     1      88.328 323.293 192.973  1.00  0.00    -0.000 C 
BRANCH  17  18
ATOM     18  C   UNL     1      87.852 322.958 194.395  1.00  0.00    -0.000 C 
BRANCH  18  19
ATOM     19  C   UNL     1      89.015 322.823 195.390  1.00  0.00    -0.003 C 
ATOM     20  C   UNL     1      88.623 322.066 196.658  1.00  0.00     0.004 C 
ENDBRANCH  18  19
ENDBRANCH  17  18
ENDBRANCH  16  17
ENDBRANCH  15  16
ENDBRANCH  14  15
ENDBRANCH  13  14
ENDBRANCH  12  13
ENDBRANCH   1  12
TORSDOF 16
ENDMDL
MODEL 5
REMARK VINA RESULT:    -5.752      1.535      3.044
REMARK INTER + INTRA:         -12.187
REMARK INTER:                 -11.107
REMARK INTRA:                  -1.080
REMARK UNBOUND:                -1.056
REMARK SMILES CCCCCCCCCCCCCCCCCC(=O)[O-]
REMARK SMILES IDX 10 1 11 2 12 3 13 4 14 5 15 6 16 7 17 8 18 9 19 10 20 11
REMARK SMILES IDX 9 12 8 13 7 14 6 15 5 16 4 17 3 18 2 19 1 20
REMARK H PARENT
REMARK Flexibility Score: inf
ROOT
ATOM      1  C   UNL     1      87.889 326.063 196.514  1.00  0.00     0.000 C 
ENDROOT
BRANCH   1   2
ATOM      2  C   UNL     1      88.516 326.227 197.907  1.00  0.00     0.000 C 
BRANCH   2   3
ATOM      3  C   UNL     1      88.904 324.864 198.497  1.00  0.00     0.000 C 
BRANCH   3   4
ATOM      4  C   UNL     1      89.298 324.943 199.982  1.00  0.00     0.000 C 
BRANCH   4   5
ATOM      5  C   UNL     1      89.628 326.360 200.497  1.00  0.00     0.000 C 
BRANCH   5   6
ATOM      6  C   UNL     1      90.377 326.407 201.840  1.00  0.00     0.000 C 
BRANCH   6   7
ATOM      7  C   UNL     1      89.468 326.788 203.018  1.00  0.00     0.006 C 
BRANCH   7   8
ATOM      8  C   UNL     1      88.915 325.539 203.710  1.00  0.00     0.053 C 
BRANCH   8   9
ATOM      9  C   UNL     1      89.144 325.612 205.187  1.00  0.00     0.041 C 
ATOM     10  O   UNL     1      88.165 325.623 205.979  1.00  0.00    -0.550 OA
ATOM     11  O   UNL     1      90.436 325.719 205.686  1.00  0.00    -0.550 OA
ENDBRANCH   8   9
ENDBRANCH   7   8
ENDBRANCH   6   7
ENDBRANCH   5   6
ENDBRANCH   4   5
ENDBRANCH   3   4
ENDBRANCH   2   3
ENDBRANCH   1   2
BRANCH   1  12
ATOM     12  C   UNL     1      88.831 326.501 195.382  1.00  0.00     0.000 C 
BRANCH  12  13
ATOM     13  C   UNL     1      88.082 326.791 194.070  1.00  0.00    -0.000 C 
BRANCH  13  14
ATOM     14  C   UNL     1      86.596 326.391 194.129  1.00  0.00    -0.000 C 
BRANCH  14  15
ATOM     15  C   UNL     1      86.206 325.175 193.264  1.00  0.00    -0.000 C 
BRANCH  15  16
ATOM     16  C   UNL     1      86.801 323.831 193.721  1.00  0.00    -0.000 C 
BRANCH  16  17
ATOM     17  C   UNL     1      87.991 323.382 192.862  1.00  0.00    -0.000 C 
BRANCH  17  18
ATOM     18  C   UNL     1      88.030 324.152 191.534  1.00  0.00    -0.000 C 
BRANCH  18  19
ATOM     19  C   UNL     1      87.859 323.235 190.313  1.00  0.00    -0.003 C 
ATOM     20  C   UNL     1      88.830 323.570 189.181  1.00  0.00     0.004 C 
ENDBRANCH  18  19
ENDBRANCH  17  18
ENDBRANCH  16  17
ENDBRANCH  15  16
ENDBRANCH  14  15
ENDBRANCH  13  14
ENDBRANCH  12  13
ENDBRANCH   1  12
TORSDOF 16
ENDMDL
MODEL 6
REMARK VINA RESULT:    -5.749      4.336     10.619
REMARK INTER + INTRA:         -12.183
REMARK INTER:                 -11.185
REMARK INTRA:                  -0.998
REMARK UNBOUND:                -1.056
REMARK SMILES CCCCCCCCCCCCCCCCCC(=O)[O-]
REMARK SMILES IDX 10 1 11 2 12 3 13 4 14 5 15 6 16 7 17 8 18 9 19 10 20 11
REMARK SMILES IDX 9 12 8 13 7 14 6 15 5 16 4 17 3 18 2 19 1 20
REMARK H PARENT
REMARK Flexibility Score: inf
ROOT
ATOM      1  C   UNL     1      88.886 324.877 198.709  1.00  0.00     0.000 C 
ENDROOT
BRANCH   1   2
ATOM      2  C   UNL     1      88.540 326.222 198.052  1.00  0.00     0.000 C 
BRANCH   2   3
ATOM      3  C   UNL     1      87.951 326.012 196.650  1.00  0.00     0.000 C 
BRANCH   3   4
ATOM      4  C   UNL     1      88.896 326.475 195.527  1.00  0.00     0.000 C 
BRANCH   4   5
ATOM      5  C   UNL     1      88.213 326.758 194.173  1.00  0.00     0.000 C 
BRANCH   5   6
ATOM      6  C   UNL     1      86.726 326.369 194.098  1.00  0.00     0.000 C 
BRANCH   6   7
ATOM      7  C   UNL     1      86.494 325.034 193.376  1.00  0.00     0.006 C 
BRANCH   7   8
ATOM      8  C   UNL     1      87.673 324.693 192.462  1.00  0.00     0.053 C 
BRANCH   8   9
ATOM      9  C   UNL     1      88.246 323.357 192.819  1.00  0.00     0.041 C 
ATOM     10  O   UNL     1      88.493 323.076 194.021  1.00  0.00    -0.550 OA
ATOM     11  O   UNL     1      88.553 322.442 191.820  1.00  0.00    -0.550 OA
ENDBRANCH   8   9
ENDBRANCH   7   8
ENDBRANCH   6   7
ENDBRANCH   5   6
ENDBRANCH   4   5
ENDBRANCH   3   4
ENDBRANCH   2   3
ENDBRANCH   1   2
BRANCH   1  12
ATOM     12  C   UNL     1      89.558 325.040 200.082  1.00  0.00     0.000 C 
BRANCH  12  13
ATOM     13  C   UNL     1      88.912 326.151 200.927  1.00  0.00    -0.000 C 
BRANCH  13  14
ATOM     14  C   UNL     1      88.873 325.813 202.429  1.00  0.00    -0.000 C 
BRANCH  14  15
ATOM     15  C   UNL     1      89.807 326.659 203.319  1.00  0.00    -0.000 C 
BRANCH  15  16
ATOM     16  C   UNL     1      89.144 327.267 204.568  1.00  0.00    -0.000 C 
BRANCH  16  17
ATOM     17  C   UNL     1      90.001 327.117 205.832  1.00  0.00    -0.000 C 
BRANCH  17  18
ATOM     18  C   UNL     1      89.330 326.171 206.840  1.00  0.00    -0.000 C 
BRANCH  18  19
ATOM     19  C   UNL     1      87.808 326.091 206.652  1.00  0.00    -0.003 C 
ATOM     20  C   UNL     1      87.307 324.658 206.482  1.00  0.00     0.004 C 
ENDBRANCH  18  19
ENDBRANCH  17  18
ENDBRANCH  16  17
ENDBRANCH  15  16
ENDBRANCH  14  15
ENDBRANCH  13  14
ENDBRANCH  12  13
ENDBRANCH   1  12
TORSDOF 16
ENDMDL
MODEL 7
REMARK VINA RESULT:    -5.692     19.119     20.574
REMARK INTER + INTRA:         -12.071
REMARK INTER:                 -10.216
REMARK INTRA:                  -1.855
REMARK UNBOUND:                -1.056
REMARK SMILES CCCCCCCCCCCCCCCCCC(=O)[O-]
REMARK SMILES IDX 10 1 11 2 12 3 13 4 14 5 15 6 16 7 17 8 18 9 19 10 20 11
REMARK SMILES IDX 9 12 8 13 7 14 6 15 5 16 4 17 3 18 2 19 1 20
REMARK H PARENT
REMARK Flexibility Score: inf
ROOT
ATOM      1  C   UNL     1     103.383 311.770 194.839  1.00  0.00     0.000 C 
ENDROOT
BRANCH   1   2
ATOM      2  C   UNL     1     104.465 311.861 195.925  1.00  0.00     0.000 C 
BRANCH   2   3
ATOM      3  C   UNL     1     103.900 311.468 197.296  1.00  0.00     0.000 C 
BRANCH   3   4
ATOM      4  C   UNL     1     104.163 312.528 198.380  1.00  0.00     0.000 C 
BRANCH   4   5
ATOM      5  C   UNL     1     103.959 312.046 199.831  1.00  0.00     0.000 C 
BRANCH   5   6
ATOM      6  C   UNL     1     104.406 313.039 200.918  1.00  0.00     0.000 C 
BRANCH   6   7
ATOM      7  C   UNL     1     103.890 312.667 202.315  1.00  0.00     0.006 C 
BRANCH   7   8
ATOM      8  C   UNL     1     103.813 311.148 202.485  1.00  0.00     0.053 C 
BRANCH   8   9
ATOM      9  C   UNL     1     102.479 310.748 203.032  1.00  0.00     0.041 C 
ATOM     10  O   UNL     1     102.368 310.397 204.236  1.00  0.00    -0.550 OA
ATOM     11  O   UNL     1     101.368 310.714 202.199  1.00  0.00    -0.550 OA
ENDBRANCH   8   9
ENDBRANCH   7   8
ENDBRANCH   6   7
ENDBRANCH   5   6
ENDBRANCH   4   5
ENDBRANCH   3   4
ENDBRANCH   2   3
ENDBRANCH   1   2
BRANCH   1  12
ATOM     12  C   UNL     1     103.955 311.429 193.454  1.00  0.00     0.000 C 
BRANCH  12  13
ATOM     13  C   UNL     1     105.395 311.939 193.268  1.00  0.00    -0.000 C 
BRANCH  13  14
ATOM     14  C   UNL     1     105.528 312.944 192.109  1.00  0.00    -0.000 C 
BRANCH  14  15
ATOM     15  C   UNL     1     104.210 313.302 191.393  1.00  0.00    -0.000 C 
BRANCH  15  16
ATOM     16  C   UNL     1     103.844 314.797 191.410  1.00  0.00    -0.000 C 
BRANCH  16  17
ATOM     17  C   UNL     1     104.338 315.519 192.671  1.00  0.00    -0.000 C 
BRANCH  17  18
ATOM     18  C   UNL     1     103.299 315.423 193.800  1.00  0.00    -0.000 C 
BRANCH  18  19
ATOM     19  C   UNL     1     103.940 315.422 195.195  1.00  0.00    -0.003 C 
ATOM     20  C   UNL     1     102.916 315.259 196.317  1.00  0.00     0.004 C 
ENDBRANCH  18  19
ENDBRANCH  17  18
ENDBRANCH  16  17
ENDBRANCH  15  16
ENDBRANCH  14  15
ENDBRANCH  13  14
ENDBRANCH  12  13
ENDBRANCH   1  12
TORSDOF 16
ENDMDL
MODEL 8
REMARK VINA RESULT:    -5.664      2.638      4.858
REMARK INTER + INTRA:         -12.017
REMARK INTER:                  -9.934
REMARK INTRA:                  -2.083
REMARK UNBOUND:                -1.056
REMARK SMILES CCCCCCCCCCCCCCCCCC(=O)[O-]
REMARK SMILES IDX 10 1 11 2 12 3 13 4 14 5 15 6 16 7 17 8 18 9 19 10 20 11
REMARK SMILES IDX 9 12 8 13 7 14 6 15 5 16 4 17 3 18 2 19 1 20
REMARK H PARENT
REMARK Flexibility Score: inf
ROOT
ATOM      1  C   UNL     1      88.091 326.586 194.042  1.00  0.00     0.000 C 
ENDROOT
BRANCH   1   2
ATOM      2  C   UNL     1      88.887 326.199 195.298  1.00  0.00     0.000 C 
BRANCH   2   3
ATOM      3  C   UNL     1      87.945 325.829 196.451  1.00  0.00     0.000 C 
BRANCH   3   4
ATOM      4  C   UNL     1      88.279 326.566 197.760  1.00  0.00     0.000 C 
BRANCH   4   5
ATOM      5  C   UNL     1      88.965 325.704 198.840  1.00  0.00     0.000 C 
BRANCH   5   6
ATOM      6  C   UNL     1      89.415 326.469 200.096  1.00  0.00     0.000 C 
BRANCH   6   7
ATOM      7  C   UNL     1      88.802 325.910 201.388  1.00  0.00     0.006 C 
BRANCH   7   8
ATOM      8  C   UNL     1      89.399 326.597 202.620  1.00  0.00     0.053 C 
BRANCH   8   9
ATOM      9  C   UNL     1      90.873 326.350 202.696  1.00  0.00     0.041 C 
ATOM     10  O   UNL     1      91.672 327.319 202.785  1.00  0.00    -0.550 OA
ATOM     11  O   UNL     1      91.366 325.054 202.619  1.00  0.00    -0.550 OA
ENDBRANCH   8   9
ENDBRANCH   7   8
ENDBRANCH   6   7
ENDBRANCH   5   6
ENDBRANCH   4   5
ENDBRANCH   3   4
ENDBRANCH   2   3
ENDBRANCH   1   2
BRANCH   1  12
ATOM     12  C   UNL     1      86.619 326.149 194.112  1.00  0.00     0.000 C 
BRANCH  12  13
ATOM     13  C   UNL     1      86.337 324.890 193.276  1.00  0.00    -0.000 C 
BRANCH  13  14
ATOM     14  C   UNL     1      87.440 324.600 192.241  1.00  0.00    -0.000 C 
BRANCH  14  15
ATOM     15  C   UNL     1      88.291 323.343 192.520  1.00  0.00    -0.000 C 
BRANCH  15  16
ATOM     16  C   UNL     1      87.794 322.463 193.681  1.00  0.00    -0.000 C 
BRANCH  16  17
ATOM     17  C   UNL     1      88.807 322.365 194.831  1.00  0.00    -0.000 C 
BRANCH  17  18
ATOM     18  C   UNL     1      88.091 322.191 196.179  1.00  0.00    -0.000 C 
BRANCH  18  19
ATOM     19  C   UNL     1      89.038 322.356 197.377  1.00  0.00    -0.003 C 
ATOM     20  C   UNL     1      90.406 322.908 196.978  1.00  0.00     0.004 C 
ENDBRANCH  18  19
ENDBRANCH  17  18
ENDBRANCH  16  17
ENDBRANCH  15  16
ENDBRANCH  14  15
ENDBRANCH  13  14
ENDBRANCH  12  13
ENDBRANCH   1  12
TORSDOF 16
ENDMDL
MODEL 9
REMARK VINA RESULT:    -5.637     19.596     22.216
REMARK INTER + INTRA:         -11.965
REMARK INTER:                  -9.469
REMARK INTRA:                  -2.496
REMARK UNBOUND:                -1.056
REMARK SMILES CCCCCCCCCCCCCCCCCC(=O)[O-]
REMARK SMILES IDX 10 1 11 2 12 3 13 4 14 5 15 6 16 7 17 8 18 9 19 10 20 11
REMARK SMILES IDX 9 12 8 13 7 14 6 15 5 16 4 17 3 18 2 19 1 20
REMARK H PARENT
REMARK Flexibility Score: inf
ROOT
ATOM      1  C   UNL     1     104.472 312.134 195.825  1.00  0.00     0.000 C 
ENDROOT
BRANCH   1   2
ATOM      2  C   UNL     1     103.492 311.788 194.694  1.00  0.00     0.000 C 
BRANCH   2   3
ATOM      3  C   UNL     1     104.244 311.325 193.439  1.00  0.00     0.000 C 
BRANCH   3   4
ATOM      4  C   UNL     1     105.582 312.058 193.237  1.00  0.00     0.000 C 
BRANCH   4   5
ATOM      5  C   UNL     1     105.578 313.133 192.131  1.00  0.00     0.000 C 
BRANCH   5   6
ATOM      6  C   UNL     1     104.251 313.277 191.366  1.00  0.00     0.000 C 
BRANCH   6   7
ATOM      7  C   UNL     1     104.261 314.443 190.366  1.00  0.00     0.006 C 
BRANCH   7   8
ATOM      8  C   UNL     1     105.673 315.010 190.200  1.00  0.00     0.053 C 
BRANCH   8   9
ATOM      9  C   UNL     1     105.647 316.240 189.348  1.00  0.00     0.041 C 
ATOM     10  O   UNL     1     106.125 317.321 189.782  1.00  0.00    -0.550 OA
ATOM     11  O   UNL     1     105.050 316.205 188.094  1.00  0.00    -0.550 OA
ENDBRANCH   8   9
ENDBRANCH   7   8
ENDBRANCH   6   7
ENDBRANCH   5   6
ENDBRANCH   4   5
ENDBRANCH   3   4
ENDBRANCH   2   3
ENDBRANCH   1   2
BRANCH   1  12
ATOM     12  C   UNL     1     104.012 311.607 197.194  1.00  0.00     0.000 C 
BRANCH  12  13
ATOM     13  C   UNL     1     103.582 312.736 198.146  1.00  0.00    -0.000 C 
BRANCH  13  14
ATOM     14  C   UNL     1     104.243 314.086 197.810  1.00  0.00    -0.000 C 
BRANCH  14  15
ATOM     15  C   UNL     1     103.271 315.272 197.642  1.00  0.00    -0.000 C 
BRANCH  15  16
ATOM     16  C   UNL     1     102.203 315.090 196.548  1.00  0.00    -0.000 C 
BRANCH  16  17
ATOM     17  C   UNL     1     102.443 315.986 195.325  1.00  0.00    -0.000 C 
BRANCH  17  18
ATOM     18  C   UNL     1     103.444 315.336 194.357  1.00  0.00    -0.000 C 
BRANCH  18  19
ATOM     19  C   UNL     1     104.258 316.371 193.566  1.00  0.00    -0.003 C 
ATOM     20  C   UNL     1     105.740 316.368 193.939  1.00  0.00     0.004 C 
ENDBRANCH  18  19
ENDBRANCH  17  18
ENDBRANCH  16  17
ENDBRANCH  15  16
ENDBRANCH  14  15
ENDBRANCH  13  14
ENDBRANCH  12  13
ENDBRANCH   1  12
TORSDOF 16
ENDMDL
