MODEL 1
REMARK VINA RESULT:    -6.022      0.000      0.000
REMARK INTER + INTRA:          -7.213
REMARK INTER:                  -7.078
REMARK INTRA:                  -0.134
REMARK UNBOUND:                -0.134
REMARK SMILES O=C([O-])C=Cc1ccc(O)c(O)c1
REMARK SMILES IDX 6 1 13 2 7 3 11 4 8 5 9 6 5 7 4 8 2 9 1 10 3 11 12 12 10 14
REMARK H PARENT 12 13 10 15
REMARK Flexibility Score: inf
ROOT
ATOM      1  C   UNL     1      46.963  43.626  77.972  1.00  0.00    -0.022 A 
ATOM      2  C   UNL     1      45.711  44.158  78.322  1.00  0.00     0.058 A 
ATOM      3  C   UNL     1      47.901  43.374  78.990  1.00  0.00     0.012 A 
ATOM      4  C   UNL     1      45.399  44.460  79.652  1.00  0.00     0.157 A 
ATOM      5  C   UNL     1      47.597  43.673  80.320  1.00  0.00     0.051 A 
ATOM      6  C   UNL     1      46.356  44.217  80.665  1.00  0.00     0.157 A 
ENDROOT
BRANCH   1   7
ATOM      7  C   UNL     1      47.230  43.317  76.545  1.00  0.00     0.010 C 
ATOM      8  C   UNL     1      47.489  42.084  76.086  1.00  0.00     0.025 C 
BRANCH   8   9
ATOM      9  C   UNL     1      47.759  41.825  74.664  1.00  0.00     0.064 C 
ATOM     10  O   UNL     1      48.599  42.535  74.052  1.00  0.00    -0.545 OA
ATOM     11  O   UNL     1      47.104  40.806  73.983  1.00  0.00    -0.545 OA
ENDBRANCH   8   9
ENDBRANCH   1   7
BRANCH   4  12
ATOM     12  O   UNL     1      44.137  44.994  79.921  1.00  0.00    -0.504 OA
ATOM     13  H   UNL     1      43.346  44.916  79.299  1.00  0.00     0.293 HD
ENDBRANCH   4  12
BRANCH   6  14
ATOM     14  O   UNL     1      46.119  44.496  82.013  1.00  0.00    -0.504 OA
ATOM     15  H   UNL     1      45.536  43.928  82.612  1.00  0.00     0.293 HD
ENDBRANCH   6  14
TORSDOF 4
ENDMDL
MODEL 2
REMARK VINA RESULT:    -5.689      0.906      1.912
REMARK INTER + INTRA:          -6.821
REMARK INTER:                  -6.689
REMARK INTRA:                  -0.132
REMARK UNBOUND:                -0.134
REMARK SMILES O=C([O-])C=Cc1ccc(O)c(O)c1
REMARK SMILES IDX 6 1 13 2 7 3 11 4 8 5 9 6 5 7 4 8 2 9 1 10 3 11 12 12 10 14
REMARK H PARENT 12 13 10 15
REMARK Flexibility Score: inf
ROOT
ATOM      1  C   UNL     1      46.658  43.666  77.961  1.00  0.00    -0.022 A 
ATOM      2  C   UNL     1      47.414  43.061  78.977  1.00  0.00     0.058 A 
ATOM      3  C   UNL     1      45.548  44.454  78.319  1.00  0.00     0.012 A 
ATOM      4  C   UNL     1      47.066  43.209  80.325  1.00  0.00     0.157 A 
ATOM      5  C   UNL     1      45.195  44.607  79.661  1.00  0.00     0.051 A 
ATOM      6  C   UNL     1      45.939  43.990  80.672  1.00  0.00     0.157 A 
ENDROOT
BRANCH   1   7
ATOM      7  C   UNL     1      47.084  43.481  76.552  1.00  0.00     0.010 C 
ATOM      8  C   UNL     1      47.738  42.398  76.108  1.00  0.00     0.025 C 
BRANCH   8   9
ATOM      9  C   UNL     1      48.153  42.261  74.703  1.00  0.00     0.064 C 
ATOM     10  O   UNL     1      48.855  43.161  74.172  1.00  0.00    -0.545 OA
ATOM     11  O   UNL     1      47.783  41.153  73.950  1.00  0.00    -0.545 OA
ENDBRANCH   8   9
ENDBRANCH   1   7
BRANCH   4  12
ATOM     12  O   UNL     1      47.862  42.570  81.279  1.00  0.00    -0.504 OA
ATOM     13  H   UNL     1      47.496  42.054  82.066  1.00  0.00     0.293 HD
ENDBRANCH   4  12
BRANCH   6  14
ATOM     14  O   UNL     1      45.528  44.181  81.993  1.00  0.00    -0.504 OA
ATOM     15  H   UNL     1      44.579  44.396  82.263  1.00  0.00     0.293 HD
ENDBRANCH   6  14
TORSDOF 4
ENDMDL
MODEL 3
REMARK VINA RESULT:    -5.677     13.281     14.524
REMARK INTER + INTRA:          -6.807
REMARK INTER:                  -6.680
REMARK INTRA:                  -0.127
REMARK UNBOUND:                -0.134
REMARK SMILES O=C([O-])C=Cc1ccc(O)c(O)c1
REMARK SMILES IDX 6 1 13 2 7 3 11 4 8 5 9 6 5 7 4 8 2 9 1 10 3 11 12 12 10 14
REMARK H PARENT 12 13 10 15
REMARK Flexibility Score: inf
ROOT
ATOM      1  C   UNL     1      36.383  36.476  71.413  1.00  0.00    -0.022 A 
ATOM      2  C   UNL     1      36.583  36.108  72.754  1.00  0.00     0.058 A 
ATOM      3  C   UNL     1      36.311  37.843  71.088  1.00  0.00     0.012 A 
ATOM      4  C   UNL     1      36.684  37.074  73.762  1.00  0.00     0.157 A 
ATOM      5  C   UNL     1      36.411  38.812  72.089  1.00  0.00     0.051 A 
ATOM      6  C   UNL     1      36.593  38.444  73.426  1.00  0.00     0.157 A 
ENDROOT
BRANCH   1   7
ATOM      7  C   UNL     1      36.295  35.406  70.389  1.00  0.00     0.010 C 
ATOM      8  C   UNL     1      35.139  34.918  69.918  1.00  0.00     0.025 C 
BRANCH   8   9
ATOM      9  C   UNL     1      35.099  33.848  68.910  1.00  0.00     0.064 C 
ATOM     10  O   UNL     1      35.134  34.144  67.687  1.00  0.00    -0.545 OA
ATOM     11  O   UNL     1      35.024  32.511  69.285  1.00  0.00    -0.545 OA
ENDBRANCH   8   9
ENDBRANCH   1   7
BRANCH   4  12
ATOM     12  O   UNL     1      36.873  36.631  75.073  1.00  0.00    -0.504 OA
ATOM     13  H   UNL     1      37.686  36.118  75.385  1.00  0.00     0.293 HD
ENDBRANCH   4  12
BRANCH   6  14
ATOM     14  O   UNL     1      36.682  39.464  74.376  1.00  0.00    -0.504 OA
ATOM     15  H   UNL     1      36.004  40.207  74.471  1.00  0.00     0.293 HD
ENDBRANCH   6  14
TORSDOF 4
ENDMDL
MODEL 4
REMARK VINA RESULT:    -5.614      2.130      2.834
REMARK INTER + INTRA:          -6.733
REMARK INTER:                  -6.591
REMARK INTRA:                  -0.142
REMARK UNBOUND:                -0.134
REMARK SMILES O=C([O-])C=Cc1ccc(O)c(O)c1
REMARK SMILES IDX 6 1 13 2 7 3 11 4 8 5 9 6 5 7 4 8 2 9 1 10 3 11 12 12 10 14
REMARK H PARENT 12 13 10 15
REMARK Flexibility Score: inf
ROOT
ATOM      1  C   UNL     1      47.895  42.631  77.175  1.00  0.00    -0.022 A 
ATOM      2  C   UNL     1      47.244  43.156  78.304  1.00  0.00     0.058 A 
ATOM      3  C   UNL     1      49.144  43.161  76.806  1.00  0.00     0.012 A 
ATOM      4  C   UNL     1      47.805  44.205  79.041  1.00  0.00     0.157 A 
ATOM      5  C   UNL     1      49.711  44.209  77.535  1.00  0.00     0.051 A 
ATOM      6  C   UNL     1      49.054  44.742  78.649  1.00  0.00     0.157 A 
ENDROOT
BRANCH   1   7
ATOM      7  C   UNL     1      47.254  41.511  76.443  1.00  0.00     0.010 C 
ATOM      8  C   UNL     1      47.913  40.690  75.612  1.00  0.00     0.025 C 
BRANCH   8   9
ATOM      9  C   UNL     1      47.235  39.599  74.897  1.00  0.00     0.064 C 
ATOM     10  O   UNL     1      46.230  39.854  74.184  1.00  0.00    -0.545 OA
ATOM     11  O   UNL     1      47.686  38.288  74.994  1.00  0.00    -0.545 OA
ENDBRANCH   8   9
ENDBRANCH   1   7
BRANCH   4  12
ATOM     12  O   UNL     1      47.095  44.680  80.145  1.00  0.00    -0.504 OA
ATOM     13  H   UNL     1      46.757  45.628  80.235  1.00  0.00     0.293 HD
ENDBRANCH   4  12
BRANCH   6  14
ATOM     14  O   UNL     1      49.674  45.791  79.332  1.00  0.00    -0.504 OA
ATOM     15  H   UNL     1      50.674  45.929  79.364  1.00  0.00     0.293 HD
ENDBRANCH   6  14
TORSDOF 4
ENDMDL
MODEL 5
REMARK VINA RESULT:    -5.555      2.175      3.123
REMARK INTER + INTRA:          -6.664
REMARK INTER:                  -6.537
REMARK INTRA:                  -0.127
REMARK UNBOUND:                -0.134
REMARK SMILES O=C([O-])C=Cc1ccc(O)c(O)c1
REMARK SMILES IDX 6 1 13 2 7 3 11 4 8 5 9 6 5 7 4 8 2 9 1 10 3 11 12 12 10 14
REMARK H PARENT 12 13 10 15
REMARK Flexibility Score: inf
ROOT
ATOM      1  C   UNL     1      47.185  43.805  79.006  1.00  0.00    -0.022 A 
ATOM      2  C   UNL     1      47.362  43.494  80.364  1.00  0.00     0.058 A 
ATOM      3  C   UNL     1      45.949  44.331  78.586  1.00  0.00     0.012 A 
ATOM      4  C   UNL     1      46.327  43.675  81.289  1.00  0.00     0.157 A 
ATOM      5  C   UNL     1      44.912  44.514  79.503  1.00  0.00     0.051 A 
ATOM      6  C   UNL     1      45.084  44.189  80.853  1.00  0.00     0.157 A 
ENDROOT
BRANCH   1   7
ATOM      7  C   UNL     1      48.323  43.602  78.076  1.00  0.00     0.010 C 
ATOM      8  C   UNL     1      49.312  44.491  77.903  1.00  0.00     0.025 C 
BRANCH   8   9
ATOM      9  C   UNL     1      50.416  44.253  76.961  1.00  0.00     0.064 C 
ATOM     10  O   UNL     1      51.582  44.612  77.268  1.00  0.00    -0.545 OA
ATOM     11  O   UNL     1      50.193  43.636  75.736  1.00  0.00    -0.545 OA
ENDBRANCH   8   9
ENDBRANCH   1   7
BRANCH   4  12
ATOM     12  O   UNL     1      46.575  43.335  82.620  1.00  0.00    -0.504 OA
ATOM     13  H   UNL     1      46.031  43.673  83.401  1.00  0.00     0.293 HD
ENDBRANCH   4  12
BRANCH   6  14
ATOM     14  O   UNL     1      44.004  44.393  81.715  1.00  0.00    -0.504 OA
ATOM     15  H   UNL     1      43.109  44.758  81.422  1.00  0.00     0.293 HD
ENDBRANCH   6  14
TORSDOF 4
ENDMDL
MODEL 6
REMARK VINA RESULT:    -5.527     15.858     18.320
REMARK INTER + INTRA:          -6.631
REMARK INTER:                  -6.506
REMARK INTRA:                  -0.125
REMARK UNBOUND:                -0.134
REMARK SMILES O=C([O-])C=Cc1ccc(O)c(O)c1
REMARK SMILES IDX 6 1 13 2 7 3 11 4 8 5 9 6 5 7 4 8 2 9 1 10 3 11 12 12 10 14
REMARK H PARENT 12 13 10 15
REMARK Flexibility Score: inf
ROOT
ATOM      1  C   UNL     1      34.929  33.861  68.941  1.00  0.00    -0.022 A 
ATOM      2  C   UNL     1      34.629  32.549  69.344  1.00  0.00     0.058 A 
ATOM      3  C   UNL     1      35.023  34.143  67.566  1.00  0.00     0.012 A 
ATOM      4  C   UNL     1      34.451  31.526  68.406  1.00  0.00     0.157 A 
ATOM      5  C   UNL     1      34.847  33.127  66.624  1.00  0.00     0.051 A 
ATOM      6  C   UNL     1      34.564  31.818  67.026  1.00  0.00     0.157 A 
ENDROOT
BRANCH   1   7
ATOM      7  C   UNL     1      35.096  34.904  69.984  1.00  0.00     0.010 C 
ATOM      8  C   UNL     1      36.284  35.393  70.365  1.00  0.00     0.025 C 
BRANCH   8   9
ATOM      9  C   UNL     1      36.404  36.419  71.412  1.00  0.00     0.064 C 
ATOM     10  O   UNL     1      36.444  37.634  71.089  1.00  0.00    -0.545 OA
ATOM     11  O   UNL     1      36.472  36.068  72.756  1.00  0.00    -0.545 OA
ENDBRANCH   8   9
ENDBRANCH   1   7
BRANCH   4  12
ATOM     12  O   UNL     1      34.164  30.246  68.883  1.00  0.00    -0.504 OA
ATOM     13  H   UNL     1      33.243  29.940  69.164  1.00  0.00     0.293 HD
ENDBRANCH   4  12
BRANCH   6  14
ATOM     14  O   UNL     1      34.403  30.850  66.032  1.00  0.00    -0.504 OA
ATOM     15  H   UNL     1      33.925  31.015  65.158  1.00  0.00     0.293 HD
ENDBRANCH   6  14
TORSDOF 4
ENDMDL
MODEL 7
REMARK VINA RESULT:    -5.517     15.217     17.782
REMARK INTER + INTRA:          -6.619
REMARK INTER:                  -6.492
REMARK INTRA:                  -0.126
REMARK UNBOUND:                -0.134
REMARK SMILES O=C([O-])C=Cc1ccc(O)c(O)c1
REMARK SMILES IDX 6 1 13 2 7 3 11 4 8 5 9 6 5 7 4 8 2 9 1 10 3 11 12 12 10 14
REMARK H PARENT 12 13 10 15
REMARK Flexibility Score: inf
ROOT
ATOM      1  C   UNL     1      35.372  33.940  69.172  1.00  0.00    -0.022 A 
ATOM      2  C   UNL     1      36.292  33.741  68.130  1.00  0.00     0.058 A 
ATOM      3  C   UNL     1      34.480  32.902  69.497  1.00  0.00     0.012 A 
ATOM      4  C   UNL     1      36.315  32.545  67.403  1.00  0.00     0.157 A 
ATOM      5  C   UNL     1      34.496  31.706  68.776  1.00  0.00     0.051 A 
ATOM      6  C   UNL     1      35.402  31.514  67.728  1.00  0.00     0.157 A 
ENDROOT
BRANCH   1   7
ATOM      7  C   UNL     1      35.405  35.226  69.913  1.00  0.00     0.010 C 
ATOM      8  C   UNL     1      36.408  35.594  70.722  1.00  0.00     0.025 C 
BRANCH   8   9
ATOM      9  C   UNL     1      36.394  36.873  71.447  1.00  0.00     0.064 C 
ATOM     10  O   UNL     1      36.606  36.887  72.687  1.00  0.00    -0.545 OA
ATOM     11  O   UNL     1      36.151  38.071  70.784  1.00  0.00    -0.545 OA
ENDBRANCH   8   9
ENDBRANCH   1   7
BRANCH   4  12
ATOM     12  O   UNL     1      37.252  32.424  66.375  1.00  0.00    -0.504 OA
ATOM     13  H   UNL     1      38.156  31.985  66.483  1.00  0.00     0.293 HD
ENDBRANCH   4  12
BRANCH   6  14
ATOM     14  O   UNL     1      35.363  30.296  67.046  1.00  0.00    -0.504 OA
ATOM     15  H   UNL     1      35.577  30.192  66.064  1.00  0.00     0.293 HD
ENDBRANCH   6  14
TORSDOF 4
ENDMDL
MODEL 8
REMARK VINA RESULT:    -5.468      2.711      3.770
REMARK INTER + INTRA:          -6.561
REMARK INTER:                  -6.434
REMARK INTRA:                  -0.127
REMARK UNBOUND:                -0.134
REMARK SMILES O=C([O-])C=Cc1ccc(O)c(O)c1
REMARK SMILES IDX 6 1 13 2 7 3 11 4 8 5 9 6 5 7 4 8 2 9 1 10 3 11 12 12 10 14
REMARK H PARENT 12 13 10 15
REMARK Flexibility Score: inf
ROOT
ATOM      1  C   UNL     1      48.293  42.760  76.740  1.00  0.00    -0.022 A 
ATOM      2  C   UNL     1      49.655  43.099  76.757  1.00  0.00     0.058 A 
ATOM      3  C   UNL     1      47.414  43.438  77.605  1.00  0.00     0.012 A 
ATOM      4  C   UNL     1      50.148  44.074  77.632  1.00  0.00     0.157 A 
ATOM      5  C   UNL     1      47.898  44.412  78.481  1.00  0.00     0.051 A 
ATOM      6  C   UNL     1      49.258  44.738  78.509  1.00  0.00     0.157 A 
ENDROOT
BRANCH   1   7
ATOM      7  C   UNL     1      47.830  41.726  75.782  1.00  0.00     0.010 C 
ATOM      8  C   UNL     1      47.628  40.442  76.111  1.00  0.00     0.025 C 
BRANCH   8   9
ATOM      9  C   UNL     1      47.179  39.448  75.124  1.00  0.00     0.064 C 
ATOM     10  O   UNL     1      47.727  38.315  75.091  1.00  0.00    -0.545 OA
ATOM     11  O   UNL     1      46.159  39.737  74.226  1.00  0.00    -0.545 OA
ENDBRANCH   8   9
ENDBRANCH   1   7
BRANCH   4  12
ATOM     12  O   UNL     1      51.516  44.351  77.597  1.00  0.00    -0.504 OA
ATOM     13  H   UNL     1      51.905  45.254  77.365  1.00  0.00     0.293 HD
ENDBRANCH   4  12
BRANCH   6  14
ATOM     14  O   UNL     1      49.676  45.718  79.412  1.00  0.00    -0.504 OA
ATOM     15  H   UNL     1      49.770  46.696  79.178  1.00  0.00     0.293 HD
ENDBRANCH   6  14
TORSDOF 4
ENDMDL
MODEL 9
REMARK VINA RESULT:    -5.451     13.539     14.885
REMARK INTER + INTRA:          -6.541
REMARK INTER:                  -6.413
REMARK INTRA:                  -0.128
REMARK UNBOUND:                -0.134
REMARK SMILES O=C([O-])C=Cc1ccc(O)c(O)c1
REMARK SMILES IDX 6 1 13 2 7 3 11 4 8 5 9 6 5 7 4 8 2 9 1 10 3 11 12 12 10 14
REMARK H PARENT 12 13 10 15
REMARK Flexibility Score: inf
ROOT
ATOM      1  C   UNL     1      36.318  36.058  71.268  1.00  0.00    -0.022 A 
ATOM      2  C   UNL     1      36.130  37.353  70.758  1.00  0.00     0.058 A 
ATOM      3  C   UNL     1      36.685  35.908  72.618  1.00  0.00     0.012 A 
ATOM      4  C   UNL     1      36.327  38.484  71.560  1.00  0.00     0.157 A 
ATOM      5  C   UNL     1      36.884  37.031  73.424  1.00  0.00     0.051 A 
ATOM      6  C   UNL     1      36.713  38.320  72.911  1.00  0.00     0.157 A 
ENDROOT
BRANCH   1   7
ATOM      7  C   UNL     1      36.082  34.901  70.371  1.00  0.00     0.010 C 
ATOM      8  C   UNL     1      34.973  34.742  69.634  1.00  0.00     0.025 C 
BRANCH   8   9
ATOM      9  C   UNL     1      34.776  33.572  68.766  1.00  0.00     0.064 C 
ATOM     10  O   UNL     1      34.446  33.738  67.563  1.00  0.00    -0.545 OA
ATOM     11  O   UNL     1      34.950  32.281  69.252  1.00  0.00    -0.545 OA
ENDBRANCH   8   9
ENDBRANCH   1   7
BRANCH   4  12
ATOM     12  O   UNL     1      36.129  39.738  70.980  1.00  0.00    -0.504 OA
ATOM     13  H   UNL     1      35.432  39.932  70.275  1.00  0.00     0.293 HD
ENDBRANCH   4  12
BRANCH   6  14
ATOM     14  O   UNL     1      36.931  39.399  73.772  1.00  0.00    -0.504 OA
ATOM     15  H   UNL     1      36.565  40.327  73.615  1.00  0.00     0.293 HD
ENDBRANCH   6  14
TORSDOF 4
ENDMDL
