MODEL 1
REMARK VINA RESULT:    -2.629      0.000      0.000
REMARK INTER + INTRA:          -5.609
REMARK INTER:                  -5.088
REMARK INTRA:                  -0.521
REMARK UNBOUND:                -0.521
REMARK SMILES CCCCCCCCCCCCCCCCCC(=O)[O-]
REMARK SMILES IDX 10 1 11 2 12 3 13 4 14 5 15 6 16 7 17 8 18 9 19 10 20 11
REMARK SMILES IDX 9 12 8 13 7 14 6 15 5 16 4 17 3 18 2 19 1 20
REMARK H PARENT
REMARK Flexibility Score: inf
ROOT
ATOM      1  C   UNL     1       9.341  78.883   3.967  1.00  0.00     0.000 C 
ENDROOT
BRANCH   1   2
ATOM      2  C   UNL     1       7.922  79.421   4.243  1.00  0.00     0.000 C 
BRANCH   2   3
ATOM      3  C   UNL     1       7.508  79.436   5.726  1.00  0.00     0.000 C 
BRANCH   3   4
ATOM      4  C   UNL     1       6.675  78.205   6.127  1.00  0.00     0.000 C 
BRANCH   4   5
ATOM      5  C   UNL     1       5.559  78.554   7.125  1.00  0.00     0.000 C 
BRANCH   5   6
ATOM      6  C   UNL     1       4.503  77.439   7.236  1.00  0.00     0.000 C 
BRANCH   6   7
ATOM      7  C   UNL     1       3.497  77.683   8.379  1.00  0.00     0.006 C 
BRANCH   7   8
ATOM      8  C   UNL     1       3.852  78.866   9.297  1.00  0.00     0.053 C 
BRANCH   8   9
ATOM      9  C   UNL     1       3.868  78.470  10.742  1.00  0.00     0.041 C 
ATOM     10  O   UNL     1       4.804  77.758  11.197  1.00  0.00    -0.550 OA
ATOM     11  O   UNL     1       2.864  78.912  11.595  1.00  0.00    -0.550 OA
ENDBRANCH   8   9
ENDBRANCH   7   8
ENDBRANCH   6   7
ENDBRANCH   5   6
ENDBRANCH   4   5
ENDBRANCH   3   4
ENDBRANCH   2   3
ENDBRANCH   1   2
BRANCH   1  12
ATOM     12  C   UNL     1      10.116  79.616   2.852  1.00  0.00     0.000 C 
BRANCH  12  13
ATOM     13  C   UNL     1      11.566  79.993   3.205  1.00  0.00    -0.000 C 
BRANCH  13  14
ATOM     14  C   UNL     1      12.550  79.723   2.053  1.00  0.00    -0.000 C 
BRANCH  14  15
ATOM     15  C   UNL     1      13.990  80.124   2.407  1.00  0.00    -0.000 C 
BRANCH  15  16
ATOM     16  C   UNL     1      14.966  79.920   1.233  1.00  0.00    -0.000 C 
BRANCH  16  17
ATOM     17  C   UNL     1      14.250  79.491  -0.062  1.00  0.00    -0.000 C 
BRANCH  17  18
ATOM     18  C   UNL     1      15.122  79.589  -1.331  1.00  0.00    -0.000 C 
BRANCH  18  19
ATOM     19  C   UNL     1      14.592  78.778  -2.527  1.00  0.00    -0.003 C 
ATOM     20  C   UNL     1      14.514  79.600  -3.815  1.00  0.00     0.004 C 
ENDBRANCH  18  19
ENDBRANCH  17  18
ENDBRANCH  16  17
ENDBRANCH  15  16
ENDBRANCH  14  15
ENDBRANCH  13  14
ENDBRANCH  12  13
ENDBRANCH   1  12
TORSDOF 16
ENDMDL
MODEL 2
REMARK VINA RESULT:    -2.332      1.286      1.691
REMARK INTER + INTRA:          -5.033
REMARK INTER:                  -4.347
REMARK INTRA:                  -0.687
REMARK UNBOUND:                -0.521
REMARK SMILES CCCCCCCCCCCCCCCCCC(=O)[O-]
REMARK SMILES IDX 10 1 11 2 12 3 13 4 14 5 15 6 16 7 17 8 18 9 19 10 20 11
REMARK SMILES IDX 9 12 8 13 7 14 6 15 5 16 4 17 3 18 2 19 1 20
REMARK H PARENT
REMARK Flexibility Score: inf
ROOT
ATOM      1  C   UNL     1       8.764  79.755   4.172  1.00  0.00     0.000 C 
ENDROOT
BRANCH   1   2
ATOM      2  C   UNL     1       8.088  78.565   4.885  1.00  0.00     0.000 C 
BRANCH   2   3
ATOM      3  C   UNL     1       7.246  78.937   6.119  1.00  0.00     0.000 C 
BRANCH   3   4
ATOM      4  C   UNL     1       6.067  77.974   6.350  1.00  0.00     0.000 C 
BRANCH   4   5
ATOM      5  C   UNL     1       5.151  78.435   7.496  1.00  0.00     0.000 C 
BRANCH   5   6
ATOM      6  C   UNL     1       3.932  77.513   7.677  1.00  0.00     0.000 C 
BRANCH   6   7
ATOM      7  C   UNL     1       3.313  77.615   9.087  1.00  0.00     0.006 C 
BRANCH   7   8
ATOM      8  C   UNL     1       3.859  78.774   9.939  1.00  0.00     0.053 C 
BRANCH   8   9
ATOM      9  C   UNL     1       4.377  78.301  11.264  1.00  0.00     0.041 C 
ATOM     10  O   UNL     1       5.429  78.796  11.750  1.00  0.00    -0.550 OA
ATOM     11  O   UNL     1       3.681  77.332  11.976  1.00  0.00    -0.550 OA
ENDBRANCH   8   9
ENDBRANCH   7   8
ENDBRANCH   6   7
ENDBRANCH   5   6
ENDBRANCH   4   5
ENDBRANCH   3   4
ENDBRANCH   2   3
ENDBRANCH   1   2
BRANCH   1  12
ATOM     12  C   UNL     1       9.739  79.375   3.040  1.00  0.00     0.000 C 
BRANCH  12  13
ATOM     13  C   UNL     1      11.123  80.047   3.118  1.00  0.00    -0.000 C 
BRANCH  13  14
ATOM     14  C   UNL     1      12.101  79.522   2.053  1.00  0.00    -0.000 C 
BRANCH  14  15
ATOM     15  C   UNL     1      13.560  79.888   2.367  1.00  0.00    -0.000 C 
BRANCH  15  16
ATOM     16  C   UNL     1      14.397  80.125   1.096  1.00  0.00    -0.000 C 
BRANCH  16  17
ATOM     17  C   UNL     1      14.900  78.812   0.466  1.00  0.00    -0.000 C 
BRANCH  17  18
ATOM     18  C   UNL     1      14.038  78.299  -0.705  1.00  0.00    -0.000 C 
BRANCH  18  19
ATOM     19  C   UNL     1      13.241  77.019  -0.392  1.00  0.00    -0.003 C 
ATOM     20  C   UNL     1      14.031  76.020   0.455  1.00  0.00     0.004 C 
ENDBRANCH  18  19
ENDBRANCH  17  18
ENDBRANCH  16  17
ENDBRANCH  15  16
ENDBRANCH  14  15
ENDBRANCH  13  14
ENDBRANCH  12  13
ENDBRANCH   1  12
TORSDOF 16
ENDMDL
MODEL 3
REMARK VINA RESULT:    -1.996      1.175      2.544
REMARK INTER + INTRA:          -4.384
REMARK INTER:                  -3.858
REMARK INTRA:                  -0.526
REMARK UNBOUND:                -0.521
REMARK SMILES CCCCCCCCCCCCCCCCCC(=O)[O-]
REMARK SMILES IDX 10 1 11 2 12 3 13 4 14 5 15 6 16 7 17 8 18 9 19 10 20 11
REMARK SMILES IDX 9 12 8 13 7 14 6 15 5 16 4 17 3 18 2 19 1 20
REMARK H PARENT
REMARK Flexibility Score: inf
ROOT
ATOM      1  C   UNL     1       7.871  78.733   5.782  1.00  0.00     0.000 C 
ENDROOT
BRANCH   1   2
ATOM      2  C   UNL     1       6.466  78.102   5.874  1.00  0.00     0.000 C 
BRANCH   2   3
ATOM      3  C   UNL     1       5.939  77.890   7.305  1.00  0.00     0.000 C 
BRANCH   3   4
ATOM      4  C   UNL     1       5.017  79.030   7.776  1.00  0.00     0.000 C 
BRANCH   4   5
ATOM      5  C   UNL     1       3.849  78.519   8.636  1.00  0.00     0.000 C 
BRANCH   5   6
ATOM      6  C   UNL     1       3.135  79.657   9.388  1.00  0.00     0.000 C 
BRANCH   6   7
ATOM      7  C   UNL     1       3.186  79.483  10.919  1.00  0.00     0.006 C 
BRANCH   7   8
ATOM      8  C   UNL     1       4.601  79.292  11.491  1.00  0.00     0.053 C 
BRANCH   8   9
ATOM      9  C   UNL     1       4.841  77.880  11.937  1.00  0.00     0.041 C 
ATOM     10  O   UNL     1       3.871  77.096  12.118  1.00  0.00    -0.550 OA
ATOM     11  O   UNL     1       6.139  77.423  12.125  1.00  0.00    -0.550 OA
ENDBRANCH   8   9
ENDBRANCH   7   8
ENDBRANCH   6   7
ENDBRANCH   5   6
ENDBRANCH   4   5
ENDBRANCH   3   4
ENDBRANCH   2   3
ENDBRANCH   1   2
BRANCH   1  12
ATOM     12  C   UNL     1       8.227  79.348   4.413  1.00  0.00     0.000 C 
BRANCH  12  13
ATOM     13  C   UNL     1       9.456  78.730   3.721  1.00  0.00    -0.000 C 
BRANCH  13  14
ATOM     14  C   UNL     1      10.233  79.748   2.867  1.00  0.00    -0.000 C 
BRANCH  14  15
ATOM     15  C   UNL     1      11.730  79.780   3.213  1.00  0.00    -0.000 C 
BRANCH  15  16
ATOM     16  C   UNL     1      12.610  80.125   1.998  1.00  0.00    -0.000 C 
BRANCH  16  17
ATOM     17  C   UNL     1      13.949  79.361   2.003  1.00  0.00    -0.000 C 
BRANCH  17  18
ATOM     18  C   UNL     1      14.098  78.336   0.859  1.00  0.00    -0.000 C 
BRANCH  18  19
ATOM     19  C   UNL     1      14.385  78.962  -0.518  1.00  0.00    -0.003 C 
ATOM     20  C   UNL     1      14.357  77.937  -1.654  1.00  0.00     0.004 C 
ENDBRANCH  18  19
ENDBRANCH  17  18
ENDBRANCH  16  17
ENDBRANCH  15  16
ENDBRANCH  14  15
ENDBRANCH  13  14
ENDBRANCH  12  13
ENDBRANCH   1  12
TORSDOF 16
ENDMDL
MODEL 4
REMARK VINA RESULT:    -1.203      7.321     12.021
REMARK INTER + INTRA:          -2.850
REMARK INTER:                  -4.147
REMARK INTRA:                   1.297
REMARK UNBOUND:                -0.521
REMARK SMILES CCCCCCCCCCCCCCCCCC(=O)[O-]
REMARK SMILES IDX 10 1 11 2 12 3 13 4 14 5 15 6 16 7 17 8 18 9 19 10 20 11
REMARK SMILES IDX 9 12 8 13 7 14 6 15 5 16 4 17 3 18 2 19 1 20
REMARK H PARENT
REMARK Flexibility Score: inf
ROOT
ATOM      1  C   UNL     1      13.069  75.955  -0.251  1.00  0.00     0.000 C 
ENDROOT
BRANCH   1   2
ATOM      2  C   UNL     1      13.111  77.418  -0.740  1.00  0.00     0.000 C 
BRANCH   2   3
ATOM      3  C   UNL     1      14.086  77.689  -1.901  1.00  0.00     0.000 C 
BRANCH   3   4
ATOM      4  C   UNL     1      15.077  78.827  -1.595  1.00  0.00     0.000 C 
BRANCH   4   5
ATOM      5  C   UNL     1      14.726  80.125  -2.341  1.00  0.00     0.000 C 
BRANCH   5   6
ATOM      6  C   UNL     1      15.125  80.072  -3.827  1.00  0.00     0.000 C 
BRANCH   6   7
ATOM      7  C   UNL     1      13.909  79.929  -4.765  1.00  0.00     0.006 C 
BRANCH   7   8
ATOM      8  C   UNL     1      14.254  79.449  -6.185  1.00  0.00     0.053 C 
BRANCH   8   9
ATOM      9  C   UNL     1      14.002  77.981  -6.358  1.00  0.00     0.041 C 
ATOM     10  O   UNL     1      13.887  77.232  -5.350  1.00  0.00    -0.550 OA
ATOM     11  O   UNL     1      13.866  77.445  -7.632  1.00  0.00    -0.550 OA
ENDBRANCH   8   9
ENDBRANCH   7   8
ENDBRANCH   6   7
ENDBRANCH   5   6
ENDBRANCH   4   5
ENDBRANCH   3   4
ENDBRANCH   2   3
ENDBRANCH   1   2
BRANCH   1  12
ATOM     12  C   UNL     1      14.348  75.462   0.455  1.00  0.00     0.000 C 
BRANCH  12  13
ATOM     13  C   UNL     1      14.962  76.454   1.459  1.00  0.00    -0.000 C 
BRANCH  13  14
ATOM     14  C   UNL     1      15.108  77.873   0.882  1.00  0.00    -0.000 C 
BRANCH  14  15
ATOM     15  C   UNL     1      15.020  78.957   1.967  1.00  0.00    -0.000 C 
BRANCH  15  16
ATOM     16  C   UNL     1      13.759  79.831   1.828  1.00  0.00    -0.000 C 
BRANCH  16  17
ATOM     17  C   UNL     1      12.736  79.574   2.951  1.00  0.00    -0.000 C 
BRANCH  17  18
ATOM     18  C   UNL     1      11.320  80.108   2.652  1.00  0.00    -0.000 C 
BRANCH  18  19
ATOM     19  C   UNL     1      10.182  79.197   3.149  1.00  0.00    -0.003 C 
ATOM     20  C   UNL     1       8.880  79.958   3.406  1.00  0.00     0.004 C 
ENDBRANCH  18  19
ENDBRANCH  17  18
ENDBRANCH  16  17
ENDBRANCH  15  16
ENDBRANCH  14  15
ENDBRANCH  13  14
ENDBRANCH  12  13
ENDBRANCH   1  12
TORSDOF 16
ENDMDL
MODEL 5
REMARK VINA RESULT:    -0.345      3.174      5.354
REMARK INTER + INTRA:          -1.189
REMARK INTER:                  -0.208
REMARK INTRA:                  -0.980
REMARK UNBOUND:                -0.521
REMARK SMILES CCCCCCCCCCCCCCCCCC(=O)[O-]
REMARK SMILES IDX 10 1 11 2 12 3 13 4 14 5 15 6 16 7 17 8 18 9 19 10 20 11
REMARK SMILES IDX 9 12 8 13 7 14 6 15 5 16 4 17 3 18 2 19 1 20
REMARK H PARENT
REMARK Flexibility Score: inf
ROOT
ATOM      1  C   UNL     1      12.973  76.983  -0.016  1.00  0.00     0.000 C 
ENDROOT
BRANCH   1   2
ATOM      2  C   UNL     1      12.003  76.499   1.083  1.00  0.00     0.000 C 
BRANCH   2   3
ATOM      3  C   UNL     1      11.664  77.547   2.159  1.00  0.00     0.000 C 
BRANCH   3   4
ATOM      4  C   UNL     1      11.464  78.958   1.578  1.00  0.00     0.000 C 
BRANCH   4   5
ATOM      5  C   UNL     1      11.154  80.000   2.665  1.00  0.00     0.000 C 
BRANCH   5   6
ATOM      6  C   UNL     1      10.377  79.398   3.849  1.00  0.00     0.000 C 
BRANCH   6   7
ATOM      7  C   UNL     1       8.862  79.297   3.578  1.00  0.00     0.006 C 
BRANCH   7   8
ATOM      8  C   UNL     1       7.975  79.670   4.778  1.00  0.00     0.053 C 
BRANCH   8   9
ATOM      9  C   UNL     1       7.605  78.471   5.598  1.00  0.00     0.041 C 
ATOM     10  O   UNL     1       8.501  77.700   6.038  1.00  0.00    -0.550 OA
ATOM     11  O   UNL     1       6.273  78.220   5.900  1.00  0.00    -0.550 OA
ENDBRANCH   8   9
ENDBRANCH   7   8
ENDBRANCH   6   7
ENDBRANCH   5   6
ENDBRANCH   4   5
ENDBRANCH   3   4
ENDBRANCH   2   3
ENDBRANCH   1   2
BRANCH   1  12
ATOM     12  C   UNL     1      14.470  76.792   0.300  1.00  0.00     0.000 C 
BRANCH  12  13
ATOM     13  C   UNL     1      15.124  77.947   1.081  1.00  0.00    -0.000 C 
BRANCH  13  14
ATOM     14  C   UNL     1      14.448  79.304   0.815  1.00  0.00    -0.000 C 
BRANCH  14  15
ATOM     15  C   UNL     1      15.125  80.081  -0.325  1.00  0.00    -0.000 C 
BRANCH  15  16
ATOM     16  C   UNL     1      14.266  80.124  -1.602  1.00  0.00    -0.000 C 
BRANCH  16  17
ATOM     17  C   UNL     1      14.657  79.029  -2.614  1.00  0.00    -0.000 C 
BRANCH  17  18
ATOM     18  C   UNL     1      14.824  79.533  -4.062  1.00  0.00    -0.000 C 
BRANCH  18  19
ATOM     19  C   UNL     1      13.944  78.802  -5.092  1.00  0.00    -0.003 C 
ATOM     20  C   UNL     1      14.747  78.241  -6.267  1.00  0.00     0.004 C 
ENDBRANCH  18  19
ENDBRANCH  17  18
ENDBRANCH  16  17
ENDBRANCH  15  16
ENDBRANCH  14  15
ENDBRANCH  13  14
ENDBRANCH  12  13
ENDBRANCH   1  12
TORSDOF 16
ENDMDL
MODEL 6
REMARK VINA RESULT:    -0.277      2.687      5.277
REMARK INTER + INTRA:          -1.057
REMARK INTER:                  -0.370
REMARK INTRA:                  -0.686
REMARK UNBOUND:                -0.521
REMARK SMILES CCCCCCCCCCCCCCCCCC(=O)[O-]
REMARK SMILES IDX 10 1 11 2 12 3 13 4 14 5 15 6 16 7 17 8 18 9 19 10 20 11
REMARK SMILES IDX 9 12 8 13 7 14 6 15 5 16 4 17 3 18 2 19 1 20
REMARK H PARENT
REMARK Flexibility Score: inf
ROOT
ATOM      1  C   UNL     1      14.016  79.544   1.662  1.00  0.00     0.000 C 
ENDROOT
BRANCH   1   2
ATOM      2  C   UNL     1      12.676  80.124   2.160  1.00  0.00     0.000 C 
BRANCH   2   3
ATOM      3  C   UNL     1      12.064  79.399   3.373  1.00  0.00     0.000 C 
BRANCH   3   4
ATOM      4  C   UNL     1      10.693  79.970   3.780  1.00  0.00     0.000 C 
BRANCH   4   5
ATOM      5  C   UNL     1       9.673  79.918   2.631  1.00  0.00     0.000 C 
BRANCH   5   6
ATOM      6  C   UNL     1       8.226  80.105   3.123  1.00  0.00     0.000 C 
BRANCH   6   7
ATOM      7  C   UNL     1       8.025  79.627   4.576  1.00  0.00     0.006 C 
BRANCH   7   8
ATOM      8  C   UNL     1       7.157  78.364   4.715  1.00  0.00     0.053 C 
BRANCH   8   9
ATOM      9  C   UNL     1       6.981  77.958   6.147  1.00  0.00     0.041 C 
ATOM     10  O   UNL     1       7.954  77.494   6.802  1.00  0.00    -0.550 OA
ATOM     11  O   UNL     1       5.749  78.118   6.768  1.00  0.00    -0.550 OA
ENDBRANCH   8   9
ENDBRANCH   7   8
ENDBRANCH   6   7
ENDBRANCH   5   6
ENDBRANCH   4   5
ENDBRANCH   3   4
ENDBRANCH   2   3
ENDBRANCH   1   2
BRANCH   1  12
ATOM     12  C   UNL     1      13.900  78.500   0.532  1.00  0.00     0.000 C 
BRANCH  12  13
ATOM     13  C   UNL     1      15.040  78.529  -0.502  1.00  0.00    -0.000 C 
BRANCH  13  14
ATOM     14  C   UNL     1      14.534  78.727  -1.942  1.00  0.00    -0.000 C 
BRANCH  14  15
ATOM     15  C   UNL     1      14.887  80.113  -2.501  1.00  0.00    -0.000 C 
BRANCH  15  16
ATOM     16  C   UNL     1      15.110  80.097  -4.025  1.00  0.00    -0.000 C 
BRANCH  16  17
ATOM     17  C   UNL     1      15.032  78.676  -4.618  1.00  0.00    -0.000 C 
BRANCH  17  18
ATOM     18  C   UNL     1      14.032  78.530  -5.784  1.00  0.00    -0.000 C 
BRANCH  18  19
ATOM     19  C   UNL     1      14.458  77.514  -6.859  1.00  0.00    -0.003 C 
ATOM     20  C   UNL     1      13.568  77.557  -8.103  1.00  0.00     0.004 C 
ENDBRANCH  18  19
ENDBRANCH  17  18
ENDBRANCH  16  17
ENDBRANCH  15  16
ENDBRANCH  14  15
ENDBRANCH  13  14
ENDBRANCH  12  13
ENDBRANCH   1  12
TORSDOF 16
ENDMDL
