MODEL 1
REMARK VINA RESULT:    -2.350      0.000      0.000
REMARK INTER + INTRA:          -3.029
REMARK INTER:                  -2.763
REMARK INTRA:                  -0.266
REMARK UNBOUND:                -0.266
REMARK SMILES O=c1c(O)c(-c2ccc(O)cc2)oc2cc(O)cc(O)c12
REMARK SMILES IDX 5 1 3 2 2 3 1 4 21 5 19 6 18 7 16 8 15 9 14 10 13 11 6 12
REMARK SMILES IDX 7 13 8 14 9 15 12 16 11 17 10 18 4 20 20 22 17 24
REMARK H PARENT 10 19 4 21 20 23 17 25
REMARK Flexibility Score: inf
ROOT
ATOM      1  C   UNL     1       7.368 176.376  45.908  1.00  0.00     0.180 A 
ATOM      2  C   UNL     1       6.906 177.058  44.766  1.00  0.00     0.208 A 
ATOM      3  C   UNL     1       5.688 176.668  44.190  1.00  0.00     0.238 A 
ATOM      4  O   UNL     1       5.269 177.264  43.161  1.00  0.00    -0.285 OA
ATOM      5  C   UNL     1       4.945 175.620  44.772  1.00  0.00     0.111 A 
ATOM      6  C   UNL     1       3.707 175.168  44.255  1.00  0.00     0.134 A 
ATOM      7  C   UNL     1       3.023 174.125  44.899  1.00  0.00     0.093 A 
ATOM      8  C   UNL     1       3.554 173.527  46.047  1.00  0.00     0.123 A 
ATOM      9  C   UNL     1       4.774 173.969  46.560  1.00  0.00     0.094 A 
ATOM     10  C   UNL     1       5.472 175.006  45.933  1.00  0.00     0.146 A 
ATOM     11  O   UNL     1       6.633 175.403  46.440  1.00  0.00    -0.452 OA
ENDROOT
BRANCH   1  12
ATOM     12  C   UNL     1       8.652 176.716  46.563  1.00  0.00     0.021 A 
ATOM     13  C   UNL     1       9.804 175.976  46.252  1.00  0.00     0.016 A 
ATOM     14  C   UNL     1      11.031 176.295  46.843  1.00  0.00     0.047 A 
ATOM     15  C   UNL     1      11.126 177.364  47.737  1.00  0.00     0.115 A 
ATOM     16  C   UNL     1       8.757 177.805  47.449  1.00  0.00     0.016 A 
ATOM     17  C   UNL     1       9.985 178.121  48.037  1.00  0.00     0.047 A 
BRANCH  15  18
ATOM     18  O   UNL     1      12.354 177.670  48.317  1.00  0.00    -0.508 OA
ATOM     19  H   UNL     1      12.426 178.309  49.102  1.00  0.00     0.293 HD
ENDBRANCH  15  18
ENDBRANCH   1  12
BRANCH   2  20
ATOM     20  O   UNL     1       7.637 178.125  44.238  1.00  0.00    -0.502 OA
ATOM     21  H   UNL     1       7.228 179.038  44.082  1.00  0.00     0.293 HD
ENDBRANCH   2  20
BRANCH   6  22
ATOM     22  O   UNL     1       3.152 175.745  43.113  1.00  0.00    -0.507 OA
ATOM     23  H   UNL     1       2.970 175.203  42.276  1.00  0.00     0.293 HD
ENDBRANCH   6  22
BRANCH   8  24
ATOM     24  O   UNL     1       2.875 172.493  46.686  1.00  0.00    -0.508 OA
ATOM     25  H   UNL     1       1.952 172.629  47.084  1.00  0.00     0.293 HD
ENDBRANCH   8  24
TORSDOF 5
ENDMDL
MODEL 2
REMARK VINA RESULT:    -2.350      0.066      1.059
REMARK INTER + INTRA:          -3.029
REMARK INTER:                  -2.762
REMARK INTRA:                  -0.267
REMARK UNBOUND:                -0.266
REMARK SMILES O=c1c(O)c(-c2ccc(O)cc2)oc2cc(O)cc(O)c12
REMARK SMILES IDX 5 1 3 2 2 3 1 4 21 5 19 6 18 7 16 8 15 9 14 10 13 11 6 12
REMARK SMILES IDX 7 13 8 14 9 15 12 16 11 17 10 18 4 20 20 22 17 24
REMARK H PARENT 10 19 4 21 20 23 17 25
REMARK Flexibility Score: inf
ROOT
ATOM      1  C   UNL     1       7.349 176.372  45.858  1.00  0.00     0.180 A 
ATOM      2  C   UNL     1       6.875 177.055  44.720  1.00  0.00     0.208 A 
ATOM      3  C   UNL     1       5.652 176.661  44.154  1.00  0.00     0.238 A 
ATOM      4  O   UNL     1       5.223 177.258  43.130  1.00  0.00    -0.285 OA
ATOM      5  C   UNL     1       4.918 175.610  44.742  1.00  0.00     0.111 A 
ATOM      6  C   UNL     1       3.677 175.155  44.235  1.00  0.00     0.134 A 
ATOM      7  C   UNL     1       3.002 174.110  44.883  1.00  0.00     0.093 A 
ATOM      8  C   UNL     1       3.545 173.512  46.026  1.00  0.00     0.123 A 
ATOM      9  C   UNL     1       4.769 173.957  46.529  1.00  0.00     0.094 A 
ATOM     10  C   UNL     1       5.457 174.996  45.897  1.00  0.00     0.146 A 
ATOM     11  O   UNL     1       6.621 175.396  46.394  1.00  0.00    -0.452 OA
ENDROOT
BRANCH   1  12
ATOM     12  C   UNL     1       8.637 176.716  46.501  1.00  0.00     0.021 A 
ATOM     13  C   UNL     1       8.692 177.785  47.411  1.00  0.00     0.016 A 
ATOM     14  C   UNL     1       9.894 178.113  48.047  1.00  0.00     0.047 A 
ATOM     15  C   UNL     1      11.049 177.369  47.795  1.00  0.00     0.115 A 
ATOM     16  C   UNL     1       9.799 175.958  46.268  1.00  0.00     0.016 A 
ATOM     17  C   UNL     1      10.998 176.287  46.906  1.00  0.00     0.047 A 
BRANCH  15  18
ATOM     18  O   UNL     1      12.239 177.706  48.436  1.00  0.00    -0.508 OA
ATOM     19  H   UNL     1      12.730 177.043  49.025  1.00  0.00     0.293 HD
ENDBRANCH  15  18
ENDBRANCH   1  12
BRANCH   2  20
ATOM     20  O   UNL     1       7.597 178.125  44.187  1.00  0.00    -0.502 OA
ATOM     21  H   UNL     1       7.346 178.565  43.310  1.00  0.00     0.293 HD
ENDBRANCH   2  20
BRANCH   6  22
ATOM     22  O   UNL     1       3.110 175.732  43.098  1.00  0.00    -0.507 OA
ATOM     23  H   UNL     1       2.341 175.294  42.604  1.00  0.00     0.293 HD
ENDBRANCH   6  22
BRANCH   8  24
ATOM     24  O   UNL     1       2.875 172.474  46.670  1.00  0.00    -0.508 OA
ATOM     25  H   UNL     1       2.353 171.777  46.151  1.00  0.00     0.293 HD
ENDBRANCH   8  24
TORSDOF 5
ENDMDL
MODEL 3
REMARK VINA RESULT:    -1.802      1.786      2.956
REMARK INTER + INTRA:          -2.384
REMARK INTER:                  -2.452
REMARK INTRA:                   0.068
REMARK UNBOUND:                -0.266
REMARK SMILES O=c1c(O)c(-c2ccc(O)cc2)oc2cc(O)cc(O)c12
REMARK SMILES IDX 5 1 3 2 2 3 1 4 21 5 19 6 18 7 16 8 15 9 14 10 13 11 6 12
REMARK SMILES IDX 7 13 8 14 9 15 12 16 11 17 10 18 4 20 20 22 17 24
REMARK H PARENT 10 19 4 21 20 23 17 25
REMARK Flexibility Score: inf
ROOT
ATOM      1  C   UNL     1       8.449 176.078  46.213  1.00  0.00     0.180 A 
ATOM      2  C   UNL     1       8.215 174.691  46.129  1.00  0.00     0.208 A 
ATOM      3  C   UNL     1       6.907 174.237  45.902  1.00  0.00     0.238 A 
ATOM      4  O   UNL     1       6.683 172.998  45.836  1.00  0.00    -0.285 OA
ATOM      5  C   UNL     1       5.862 175.171  45.743  1.00  0.00     0.111 A 
ATOM      6  C   UNL     1       4.517 174.796  45.508  1.00  0.00     0.134 A 
ATOM      7  C   UNL     1       3.536 175.786  45.351  1.00  0.00     0.093 A 
ATOM      8  C   UNL     1       3.874 177.142  45.425  1.00  0.00     0.123 A 
ATOM      9  C   UNL     1       5.198 177.516  45.657  1.00  0.00     0.094 A 
ATOM     10  C   UNL     1       6.190 176.545  45.818  1.00  0.00     0.146 A 
ATOM     11  O   UNL     1       7.441 176.930  46.042  1.00  0.00    -0.452 OA
ENDROOT
BRANCH   1  12
ATOM     12  C   UNL     1       9.796 176.635  46.469  1.00  0.00     0.021 A 
ATOM     13  C   UNL     1      10.569 176.120  47.522  1.00  0.00     0.016 A 
ATOM     14  C   UNL     1      11.853 176.617  47.768  1.00  0.00     0.047 A 
ATOM     15  C   UNL     1      12.387 177.620  46.956  1.00  0.00     0.115 A 
ATOM     16  C   UNL     1      10.347 177.632  45.641  1.00  0.00     0.016 A 
ATOM     17  C   UNL     1      11.631 178.125  45.889  1.00  0.00     0.047 A 
BRANCH  15  18
ATOM     18  O   UNL     1      13.667 178.105  47.211  1.00  0.00    -0.508 OA
ATOM     19  H   UNL     1      13.986 178.989  46.829  1.00  0.00     0.293 HD
ENDBRANCH  15  18
ENDBRANCH   1  12
BRANCH   2  20
ATOM     20  O   UNL     1       9.276 173.789  46.241  1.00  0.00    -0.502 OA
ATOM     21  H   UNL     1       9.531 173.359  47.122  1.00  0.00     0.293 HD
ENDBRANCH   2  20
BRANCH   6  22
ATOM     22  O   UNL     1       4.150 173.452  45.428  1.00  0.00    -0.507 OA
ATOM     23  H   UNL     1       4.717 172.773  44.933  1.00  0.00     0.293 HD
ENDBRANCH   6  22
BRANCH   8  24
ATOM     24  O   UNL     1       2.900 178.125  45.269  1.00  0.00    -0.508 OA
ATOM     25  H   UNL     1       1.915 177.923  45.401  1.00  0.00     0.293 HD
ENDBRANCH   8  24
TORSDOF 5
ENDMDL
MODEL 4
REMARK VINA RESULT:    -0.153      5.137     10.779
REMARK INTER + INTRA:          -0.447
REMARK INTER:                  -1.020
REMARK INTRA:                   0.573
REMARK UNBOUND:                -0.266
REMARK SMILES O=c1c(O)c(-c2ccc(O)cc2)oc2cc(O)cc(O)c12
REMARK SMILES IDX 5 1 3 2 2 3 1 4 21 5 19 6 18 7 16 8 15 9 14 10 13 11 6 12
REMARK SMILES IDX 7 13 8 14 9 15 12 16 11 17 10 18 4 20 20 22 17 24
REMARK H PARENT 10 19 4 21 20 23 17 25
REMARK Flexibility Score: inf
ROOT
ATOM      1  C   UNL     1      14.118 178.109  48.574  1.00  0.00     0.180 A 
ATOM      2  C   UNL     1      15.312 178.110  47.827  1.00  0.00     0.208 A 
ATOM      3  C   UNL     1      16.539 178.113  48.509  1.00  0.00     0.238 A 
ATOM      4  O   UNL     1      17.614 178.125  47.852  1.00  0.00    -0.285 OA
ATOM      5  C   UNL     1      16.552 178.095  49.920  1.00  0.00     0.111 A 
ATOM      6  C   UNL     1      17.744 178.093  50.683  1.00  0.00     0.134 A 
ATOM      7  C   UNL     1      17.674 178.064  52.084  1.00  0.00     0.093 A 
ATOM      8  C   UNL     1      16.435 178.037  52.735  1.00  0.00     0.123 A 
ATOM      9  C   UNL     1      15.257 178.039  51.986  1.00  0.00     0.094 A 
ATOM     10  C   UNL     1      15.306 178.069  50.589  1.00  0.00     0.146 A 
ATOM     11  O   UNL     1      14.170 178.076  49.903  1.00  0.00    -0.452 OA
ENDROOT
BRANCH   1  12
ATOM     12  C   UNL     1      12.786 178.125  47.928  1.00  0.00     0.021 A 
ATOM     13  C   UNL     1      12.697 178.105  46.527  1.00  0.00     0.016 A 
ATOM     14  C   UNL     1      11.448 178.098  45.896  1.00  0.00     0.047 A 
ATOM     15  C   UNL     1      10.276 178.093  46.656  1.00  0.00     0.115 A 
ATOM     16  C   UNL     1      11.602 178.099  48.688  1.00  0.00     0.016 A 
ATOM     17  C   UNL     1      10.356 178.091  48.055  1.00  0.00     0.047 A 
BRANCH  15  18
ATOM     18  O   UNL     1       9.040 178.085  46.015  1.00  0.00    -0.508 OA
ATOM     19  H   UNL     1       8.861 177.488  45.216  1.00  0.00     0.293 HD
ENDBRANCH  15  18
ENDBRANCH   1  12
BRANCH   2  20
ATOM     20  O   UNL     1      15.272 178.079  46.431  1.00  0.00    -0.502 OA
ATOM     21  H   UNL     1      14.808 178.796  45.886  1.00  0.00     0.293 HD
ENDBRANCH   2  20
BRANCH   6  22
ATOM     22  O   UNL     1      18.994 178.118  50.063  1.00  0.00    -0.507 OA
ATOM     23  H   UNL     1      19.389 177.293  49.625  1.00  0.00     0.293 HD
ENDBRANCH   6  22
BRANCH   8  24
ATOM     24  O   UNL     1      16.364 178.008  54.125  1.00  0.00    -0.508 OA
ATOM     25  H   UNL     1      17.178 177.802  54.693  1.00  0.00     0.293 HD
ENDBRANCH   8  24
TORSDOF 5
ENDMDL
