MODEL 1
REMARK VINA RESULT:    -4.616      0.000      0.000
REMARK INTER + INTRA:          -5.984
REMARK INTER:                  -5.695
REMARK INTRA:                  -0.289
REMARK UNBOUND:                -0.289
REMARK SMILES C=CC(=C)CCC=C(C)C
REMARK SMILES IDX 5 1 6 2 7 3 9 4 8 5 10 6 3 7 4 8 2 9 1 10
REMARK H PARENT
REMARK Flexibility Score: inf
ROOT
ATOM      1  C   UNL     1      15.568   9.499  11.045  1.00  0.00     0.039 C 
ENDROOT
BRANCH   1   2
ATOM      2  C   UNL     1      15.354   7.992  11.215  1.00  0.00     0.032 C 
BRANCH   2   3
ATOM      3  C   UNL     1      14.036   7.712  11.894  1.00  0.00    -0.028 C 
ATOM      4  C   UNL     1      14.401   5.234  11.938  1.00  0.00     0.039 C 
ATOM      5  C   UNL     1      13.605   6.481  12.248  1.00  0.00    -0.080 C 
ATOM      6  C   UNL     1      12.281   6.360  12.957  1.00  0.00     0.039 C 
ENDBRANCH   2   3
ENDBRANCH   1   2
BRANCH   1   7
ATOM      7  C   UNL     1      15.645   9.870   9.580  1.00  0.00    -0.055 C 
ATOM      8  C   UNL     1      14.511  10.018   8.887  1.00  0.00     0.012 C 
BRANCH   7   9
ATOM      9  C   UNL     1      16.939  10.125   8.894  1.00  0.00    -0.005 C 
ATOM     10  C   UNL     1      17.983   9.297   8.938  1.00  0.00     0.009 C 
ENDBRANCH   7   9
ENDBRANCH   1   7
TORSDOF 4
ENDMDL
MODEL 2
REMARK VINA RESULT:    -4.289     13.408     16.340
REMARK INTER + INTRA:          -5.581
REMARK INTER:                  -5.019
REMARK INTRA:                  -0.562
REMARK UNBOUND:                -0.289
REMARK SMILES C=CC(=C)CCC=C(C)C
REMARK SMILES IDX 5 1 6 2 7 3 9 4 8 5 10 6 3 7 4 8 2 9 1 10
REMARK H PARENT
REMARK Flexibility Score: inf
ROOT
ATOM      1  C   UNL     1       4.550  -1.926  18.482  1.00  0.00     0.039 C 
ENDROOT
BRANCH   1   2
ATOM      2  C   UNL     1       5.518  -3.045  18.085  1.00  0.00     0.032 C 
BRANCH   2   3
ATOM      3  C   UNL     1       6.931  -2.524  17.997  1.00  0.00    -0.028 C 
ATOM      4  C   UNL     1       6.850  -2.262  15.507  1.00  0.00     0.039 C 
ATOM      5  C   UNL     1       7.535  -2.144  16.849  1.00  0.00    -0.080 C 
ATOM      6  C   UNL     1       8.940  -1.605  16.921  1.00  0.00     0.039 C 
ENDBRANCH   2   3
ENDBRANCH   1   2
BRANCH   1   7
ATOM      7  C   UNL     1       3.222  -2.088  17.777  1.00  0.00    -0.055 C 
ATOM      8  C   UNL     1       2.191  -2.613  18.446  1.00  0.00     0.012 C 
BRANCH   7   9
ATOM      9  C   UNL     1       3.007  -1.636  16.377  1.00  0.00    -0.005 C 
ATOM     10  C   UNL     1       3.085  -2.437  15.314  1.00  0.00     0.009 C 
ENDBRANCH   7   9
ENDBRANCH   1   7
TORSDOF 4
ENDMDL
MODEL 3
REMARK VINA RESULT:    -4.208     14.980     16.651
REMARK INTER + INTRA:          -5.481
REMARK INTER:                  -5.198
REMARK INTRA:                  -0.283
REMARK UNBOUND:                -0.289
REMARK SMILES C=CC(=C)CCC=C(C)C
REMARK SMILES IDX 5 1 6 2 7 3 9 4 8 5 10 6 3 7 4 8 2 9 1 10
REMARK H PARENT
REMARK Flexibility Score: inf
ROOT
ATOM      1  C   UNL     1       8.735   1.550  24.584  1.00  0.00     0.039 C 
ENDROOT
BRANCH   1   2
ATOM      2  C   UNL     1      10.183   1.079  24.413  1.00  0.00     0.032 C 
BRANCH   2   3
ATOM      3  C   UNL     1      10.689   0.435  25.679  1.00  0.00    -0.028 C 
ATOM      4  C   UNL     1      12.410  -0.939  24.485  1.00  0.00     0.039 C 
ATOM      5  C   UNL     1      11.706  -0.454  25.732  1.00  0.00    -0.080 C 
ATOM      6  C   UNL     1      12.129  -0.984  27.077  1.00  0.00     0.039 C 
ENDBRANCH   2   3
ENDBRANCH   1   2
BRANCH   1   7
ATOM      7  C   UNL     1       8.021   1.593  23.251  1.00  0.00    -0.055 C 
ATOM      8  C   UNL     1       6.780   2.088  23.194  1.00  0.00     0.012 C 
BRANCH   7   9
ATOM      9  C   UNL     1       8.671   1.151  21.990  1.00  0.00    -0.005 C 
ATOM     10  C   UNL     1       8.176   0.209  21.186  1.00  0.00     0.009 C 
ENDBRANCH   7   9
ENDBRANCH   1   7
TORSDOF 4
ENDMDL
MODEL 4
REMARK VINA RESULT:    -4.147     15.168     16.750
REMARK INTER + INTRA:          -5.406
REMARK INTER:                  -4.795
REMARK INTRA:                  -0.611
REMARK UNBOUND:                -0.289
REMARK SMILES C=CC(=C)CCC=C(C)C
REMARK SMILES IDX 5 1 6 2 7 3 9 4 8 5 10 6 3 7 4 8 2 9 1 10
REMARK H PARENT
REMARK Flexibility Score: inf
ROOT
ATOM      1  C   UNL     1       9.802   0.731  22.862  1.00  0.00     0.039 C 
ENDROOT
BRANCH   1   2
ATOM      2  C   UNL     1      10.011   1.606  24.103  1.00  0.00     0.032 C 
BRANCH   2   3
ATOM      3  C   UNL     1      10.191   0.753  25.334  1.00  0.00    -0.028 C 
ATOM      4  C   UNL     1       8.012   1.467  26.344  1.00  0.00     0.039 C 
ATOM      5  C   UNL     1       9.290   0.660  26.338  1.00  0.00    -0.080 C 
ATOM      6  C   UNL     1       9.589  -0.266  27.488  1.00  0.00     0.039 C 
ENDBRANCH   2   3
ENDBRANCH   1   2
BRANCH   1   7
ATOM      7  C   UNL     1       8.485   1.056  22.192  1.00  0.00    -0.055 C 
ATOM      8  C   UNL     1       8.032   0.250  21.225  1.00  0.00     0.012 C 
BRANCH   7   9
ATOM      9  C   UNL     1       7.649   2.213  22.604  1.00  0.00    -0.005 C 
ATOM     10  C   UNL     1       6.419   2.104  23.107  1.00  0.00     0.009 C 
ENDBRANCH   7   9
ENDBRANCH   1   7
TORSDOF 4
ENDMDL
MODEL 5
REMARK VINA RESULT:    -4.141     14.421     16.223
REMARK INTER + INTRA:          -5.398
REMARK INTER:                  -4.723
REMARK INTRA:                  -0.675
REMARK UNBOUND:                -0.289
REMARK SMILES C=CC(=C)CCC=C(C)C
REMARK SMILES IDX 5 1 6 2 7 3 9 4 8 5 10 6 3 7 4 8 2 9 1 10
REMARK H PARENT
REMARK Flexibility Score: inf
ROOT
ATOM      1  C   UNL     1       4.491  -2.578  19.003  1.00  0.00     0.039 C 
ENDROOT
BRANCH   1   2
ATOM      2  C   UNL     1       3.945  -3.060  17.655  1.00  0.00     0.032 C 
BRANCH   2   3
ATOM      3  C   UNL     1       3.131  -1.978  16.990  1.00  0.00    -0.028 C 
ATOM      4  C   UNL     1       4.577  -1.924  14.945  1.00  0.00     0.039 C 
ATOM      5  C   UNL     1       3.387  -1.475  15.762  1.00  0.00    -0.080 C 
ATOM      6  C   UNL     1       2.461  -0.423  15.209  1.00  0.00     0.039 C 
ENDBRANCH   2   3
ENDBRANCH   1   2
BRANCH   1   7
ATOM      7  C   UNL     1       5.932  -2.137  18.873  1.00  0.00    -0.055 C 
ATOM      8  C   UNL     1       6.402  -1.198  19.701  1.00  0.00     0.012 C 
BRANCH   7   9
ATOM      9  C   UNL     1       6.863  -2.750  17.889  1.00  0.00    -0.005 C 
ATOM     10  C   UNL     1       7.712  -2.054  17.132  1.00  0.00     0.009 C 
ENDBRANCH   7   9
ENDBRANCH   1   7
TORSDOF 4
ENDMDL
MODEL 6
REMARK VINA RESULT:    -4.058     18.248     20.362
REMARK INTER + INTRA:          -5.295
REMARK INTER:                  -4.518
REMARK INTRA:                  -0.777
REMARK UNBOUND:                -0.289
REMARK SMILES C=CC(=C)CCC=C(C)C
REMARK SMILES IDX 5 1 6 2 7 3 9 4 8 5 10 6 3 7 4 8 2 9 1 10
REMARK H PARENT
REMARK Flexibility Score: inf
ROOT
ATOM      1  C   UNL     1      -1.533  -2.973  12.313  1.00  0.00     0.039 C 
ENDROOT
BRANCH   1   2
ATOM      2  C   UNL     1      -1.929  -4.417  12.637  1.00  0.00     0.032 C 
BRANCH   2   3
ATOM      3  C   UNL     1      -2.125  -5.215  11.372  1.00  0.00    -0.028 C 
ATOM      4  C   UNL     1      -0.215  -6.761  11.859  1.00  0.00     0.039 C 
ATOM      5  C   UNL     1      -1.379  -6.286  11.021  1.00  0.00    -0.080 C 
ATOM      6  C   UNL     1      -1.718  -7.009   9.743  1.00  0.00     0.039 C 
ENDBRANCH   2   3
ENDBRANCH   1   2
BRANCH   1   7
ATOM      7  C   UNL     1      -0.073  -2.732  12.626  1.00  0.00    -0.055 C 
ATOM      8  C   UNL     1       0.263  -2.249  13.827  1.00  0.00     0.012 C 
BRANCH   7   9
ATOM      9  C   UNL     1       1.010  -3.061  11.662  1.00  0.00    -0.005 C 
ATOM     10  C   UNL     1       0.819  -3.220  10.351  1.00  0.00     0.009 C 
ENDBRANCH   7   9
ENDBRANCH   1   7
TORSDOF 4
ENDMDL
MODEL 7
REMARK VINA RESULT:    -4.031     14.808     17.199
REMARK INTER + INTRA:          -5.263
REMARK INTER:                  -5.016
REMARK INTRA:                  -0.247
REMARK UNBOUND:                -0.289
REMARK SMILES C=CC(=C)CCC=C(C)C
REMARK SMILES IDX 5 1 6 2 7 3 9 4 8 5 10 6 3 7 4 8 2 9 1 10
REMARK H PARENT
REMARK Flexibility Score: inf
ROOT
ATOM      1  C   UNL     1       9.986   0.639  26.166  1.00  0.00     0.039 C 
ENDROOT
BRANCH   1   2
ATOM      2  C   UNL     1       9.814   1.142  24.729  1.00  0.00     0.032 C 
BRANCH   2   3
ATOM      3  C   UNL     1       8.396   1.596  24.488  1.00  0.00    -0.028 C 
ATOM      4  C   UNL     1       8.640   1.567  21.995  1.00  0.00     0.039 C 
ATOM      5  C   UNL     1       7.846   1.767  23.265  1.00  0.00    -0.080 C 
ATOM      6  C   UNL     1       6.402   2.188  23.180  1.00  0.00     0.039 C 
ENDBRANCH   2   3
ENDBRANCH   1   2
BRANCH   1   7
ATOM      7  C   UNL     1      11.214  -0.237  26.286  1.00  0.00    -0.055 C 
ATOM      8  C   UNL     1      11.263  -1.159  27.253  1.00  0.00     0.012 C 
BRANCH   7   9
ATOM      9  C   UNL     1      12.351  -0.142  25.334  1.00  0.00    -0.005 C 
ATOM     10  C   UNL     1      12.761  -1.146  24.558  1.00  0.00     0.009 C 
ENDBRANCH   7   9
ENDBRANCH   1   7
TORSDOF 4
ENDMDL
MODEL 8
REMARK VINA RESULT:    -3.994     15.999     17.973
REMARK INTER + INTRA:          -5.217
REMARK INTER:                  -4.304
REMARK INTRA:                  -0.914
REMARK UNBOUND:                -0.289
REMARK SMILES C=CC(=C)CCC=C(C)C
REMARK SMILES IDX 5 1 6 2 7 3 9 4 8 5 10 6 3 7 4 8 2 9 1 10
REMARK H PARENT
REMARK Flexibility Score: inf
ROOT
ATOM      1  C   UNL     1       4.084  -2.252  16.269  1.00  0.00     0.039 C 
ENDROOT
BRANCH   1   2
ATOM      2  C   UNL     1       3.605  -2.160  17.721  1.00  0.00     0.032 C 
BRANCH   2   3
ATOM      3  C   UNL     1       2.842  -3.401  18.112  1.00  0.00    -0.028 C 
ATOM      4  C   UNL     1       0.644  -2.205  18.240  1.00  0.00     0.039 C 
ATOM      5  C   UNL     1       1.508  -3.443  18.324  1.00  0.00    -0.080 C 
ATOM      6  C   UNL     1       0.876  -4.766  18.671  1.00  0.00     0.039 C 
ENDBRANCH   2   3
ENDBRANCH   1   2
BRANCH   1   7
ATOM      7  C   UNL     1       2.988  -1.835  15.313  1.00  0.00    -0.055 C 
ATOM      8  C   UNL     1       2.712  -0.534  15.168  1.00  0.00     0.012 C 
BRANCH   7   9
ATOM      9  C   UNL     1       2.239  -2.819  14.488  1.00  0.00    -0.005 C 
ATOM     10  C   UNL     1       0.924  -3.020  14.579  1.00  0.00     0.009 C 
ENDBRANCH   7   9
ENDBRANCH   1   7
TORSDOF 4
ENDMDL
MODEL 9
REMARK VINA RESULT:    -3.967     18.275     20.709
REMARK INTER + INTRA:          -5.183
REMARK INTER:                  -4.604
REMARK INTRA:                  -0.580
REMARK UNBOUND:                -0.289
REMARK SMILES C=CC(=C)CCC=C(C)C
REMARK SMILES IDX 5 1 6 2 7 3 9 4 8 5 10 6 3 7 4 8 2 9 1 10
REMARK H PARENT
REMARK Flexibility Score: inf
ROOT
ATOM      1  C   UNL     1      -1.744  -5.796  11.646  1.00  0.00     0.039 C 
ENDROOT
BRANCH   1   2
ATOM      2  C   UNL     1      -0.537  -5.552  12.558  1.00  0.00     0.032 C 
BRANCH   2   3
ATOM      3  C   UNL     1      -0.682  -4.246  13.298  1.00  0.00    -0.028 C 
ATOM      4  C   UNL     1       0.986  -3.058  11.855  1.00  0.00     0.039 C 
ATOM      5  C   UNL     1      -0.023  -3.110  12.979  1.00  0.00    -0.080 C 
ATOM      6  C   UNL     1      -0.299  -1.868  13.787  1.00  0.00     0.039 C 
ENDBRANCH   2   3
ENDBRANCH   1   2
BRANCH   1   7
ATOM      7  C   UNL     1      -1.308  -6.368  10.316  1.00  0.00    -0.055 C 
ATOM      8  C   UNL     1      -1.974  -7.409   9.806  1.00  0.00     0.012 C 
BRANCH   7   9
ATOM      9  C   UNL     1      -0.192  -5.781   9.528  1.00  0.00    -0.005 C 
ATOM     10  C   UNL     1      -0.268  -4.620   8.877  1.00  0.00     0.009 C 
ENDBRANCH   7   9
ENDBRANCH   1   7
TORSDOF 4
ENDMDL
