MODEL 1
REMARK VINA RESULT:    -3.265      0.000      0.000
REMARK INTER + INTRA:          -7.503
REMARK INTER:                  -5.937
REMARK INTRA:                  -1.566
REMARK UNBOUND:                -1.566
REMARK SMILES CCCCCCCCCCCCCCCC(=O)[O-]
REMARK SMILES IDX 9 1 10 2 11 3 12 4 13 5 14 6 15 7 16 8 17 9 18 10 8 11 7 12
REMARK SMILES IDX 6 13 5 14 4 15 3 16 2 17 1 18
REMARK H PARENT
REMARK Flexibility Score: inf
ROOT
ATOM      1  C   UNL     1      -3.609  10.341  -3.906  1.00  0.00     0.000 C 
ENDROOT
BRANCH   1   2
ATOM      2  C   UNL     1      -4.282   9.187  -4.664  1.00  0.00     0.000 C 
BRANCH   2   3
ATOM      3  C   UNL     1      -3.314   8.563  -5.680  1.00  0.00     0.000 C 
BRANCH   3   4
ATOM      4  C   UNL     1      -2.698   9.602  -6.633  1.00  0.00     0.000 C 
BRANCH   4   5
ATOM      5  C   UNL     1      -1.274   9.271  -7.117  1.00  0.00     0.000 C 
BRANCH   5   6
ATOM      6  C   UNL     1      -0.296  10.463  -7.039  1.00  0.00     0.006 C 
BRANCH   6   7
ATOM      7  C   UNL     1       0.105  10.794  -5.595  1.00  0.00     0.053 C 
BRANCH   7   8
ATOM      8  C   UNL     1       1.554  10.497  -5.373  1.00  0.00     0.041 C 
ATOM      9  O   UNL     1       2.220  11.174  -4.546  1.00  0.00    -0.550 OA
ATOM     10  O   UNL     1       2.182   9.505  -6.115  1.00  0.00    -0.550 OA
ENDBRANCH   7   8
ENDBRANCH   6   7
ENDBRANCH   5   6
ENDBRANCH   4   5
ENDBRANCH   3   4
ENDBRANCH   2   3
ENDBRANCH   1   2
BRANCH   1  11
ATOM     11  C   UNL     1      -4.446  11.629  -3.922  1.00  0.00     0.000 C 
BRANCH  11  12
ATOM     12  C   UNL     1      -3.594  12.889  -4.151  1.00  0.00    -0.000 C 
BRANCH  12  13
ATOM     13  C   UNL     1      -2.412  12.983  -3.162  1.00  0.00    -0.000 C 
BRANCH  13  14
ATOM     14  C   UNL     1      -2.685  13.906  -1.958  1.00  0.00    -0.000 C 
BRANCH  14  15
ATOM     15  C   UNL     1      -2.808  13.184  -0.605  1.00  0.00    -0.000 C 
BRANCH  15  16
ATOM     16  C   UNL     1      -4.152  12.467  -0.372  1.00  0.00    -0.000 C 
BRANCH  16  17
ATOM     17  C   UNL     1      -5.300  13.416   0.034  1.00  0.00    -0.003 C 
ATOM     18  C   UNL     1      -6.202  13.779  -1.145  1.00  0.00     0.004 C 
ENDBRANCH  16  17
ENDBRANCH  15  16
ENDBRANCH  14  15
ENDBRANCH  13  14
ENDBRANCH  12  13
ENDBRANCH  11  12
ENDBRANCH   1  11
TORSDOF 14
ENDMDL
MODEL 2
REMARK VINA RESULT:    -3.250      9.944     12.691
REMARK INTER + INTRA:          -7.476
REMARK INTER:                  -5.900
REMARK INTRA:                  -1.576
REMARK UNBOUND:                -1.566
REMARK SMILES CCCCCCCCCCCCCCCC(=O)[O-]
REMARK SMILES IDX 9 1 10 2 11 3 12 4 13 5 14 6 15 7 16 8 17 9 18 10 8 11 7 12
REMARK SMILES IDX 6 13 5 14 4 15 3 16 2 17 1 18
REMARK H PARENT
REMARK Flexibility Score: inf
ROOT
ATOM      1  C   UNL     1       7.077   9.677   2.266  1.00  0.00     0.000 C 
ENDROOT
BRANCH   1   2
ATOM      2  C   UNL     1       6.802   8.364   1.519  1.00  0.00     0.000 C 
BRANCH   2   3
ATOM      3  C   UNL     1       7.981   7.392   1.670  1.00  0.00     0.000 C 
BRANCH   3   4
ATOM      4  C   UNL     1       9.045   7.569   0.573  1.00  0.00     0.000 C 
BRANCH   4   5
ATOM      5  C   UNL     1       9.521   6.259  -0.084  1.00  0.00     0.000 C 
BRANCH   5   6
ATOM      6  C   UNL     1       9.868   5.145   0.927  1.00  0.00     0.006 C 
BRANCH   6   7
ATOM      7  C   UNL     1      10.544   3.941   0.258  1.00  0.00     0.053 C 
BRANCH   7   8
ATOM      8  C   UNL     1       9.645   2.746   0.303  1.00  0.00     0.041 C 
ATOM      9  O   UNL     1       9.498   2.026  -0.720  1.00  0.00    -0.550 OA
ATOM     10  O   UNL     1       8.933   2.454   1.459  1.00  0.00    -0.550 OA
ENDBRANCH   7   8
ENDBRANCH   6   7
ENDBRANCH   5   6
ENDBRANCH   4   5
ENDBRANCH   3   4
ENDBRANCH   2   3
ENDBRANCH   1   2
BRANCH   1  11
ATOM     11  C   UNL     1       6.837  10.919   1.393  1.00  0.00     0.000 C 
BRANCH  11  12
ATOM     12  C   UNL     1       8.117  11.414   0.700  1.00  0.00    -0.000 C 
BRANCH  12  13
ATOM     13  C   UNL     1       8.263  10.851  -0.730  1.00  0.00    -0.000 C 
BRANCH  13  14
ATOM     14  C   UNL     1       6.952  10.871  -1.540  1.00  0.00    -0.000 C 
BRANCH  14  15
ATOM     15  C   UNL     1       6.454   9.488  -1.996  1.00  0.00    -0.000 C 
BRANCH  15  16
ATOM     16  C   UNL     1       7.532   8.587  -2.629  1.00  0.00    -0.000 C 
BRANCH  16  17
ATOM     17  C   UNL     1       7.147   8.039  -4.019  1.00  0.00    -0.003 C 
ATOM     18  C   UNL     1       5.660   8.220  -4.326  1.00  0.00     0.004 C 
ENDBRANCH  16  17
ENDBRANCH  15  16
ENDBRANCH  14  15
ENDBRANCH  13  14
ENDBRANCH  12  13
ENDBRANCH  11  12
ENDBRANCH   1  11
TORSDOF 14
ENDMDL
MODEL 3
REMARK VINA RESULT:    -3.207      1.332      2.144
REMARK INTER + INTRA:          -7.397
REMARK INTER:                  -5.826
REMARK INTRA:                  -1.572
REMARK UNBOUND:                -1.566
REMARK SMILES CCCCCCCCCCCCCCCC(=O)[O-]
REMARK SMILES IDX 9 1 10 2 11 3 12 4 13 5 14 6 15 7 16 8 17 9 18 10 8 11 7 12
REMARK SMILES IDX 6 13 5 14 4 15 3 16 2 17 1 18
REMARK H PARENT
REMARK Flexibility Score: inf
ROOT
ATOM      1  C   UNL     1      -4.789   9.311  -6.140  1.00  0.00     0.000 C 
ENDROOT
BRANCH   1   2
ATOM      2  C   UNL     1      -4.261   7.961  -5.630  1.00  0.00     0.000 C 
BRANCH   2   3
ATOM      3  C   UNL     1      -3.042   7.509  -6.446  1.00  0.00     0.000 C 
BRANCH   3   4
ATOM      4  C   UNL     1      -2.715   8.462  -7.608  1.00  0.00     0.000 C 
BRANCH   4   5
ATOM      5  C   UNL     1      -1.248   8.929  -7.668  1.00  0.00     0.000 C 
BRANCH   5   6
ATOM      6  C   UNL     1      -1.023  10.350  -7.107  1.00  0.00     0.006 C 
BRANCH   6   7
ATOM      7  C   UNL     1      -0.638  10.335  -5.622  1.00  0.00     0.053 C 
BRANCH   7   8
ATOM      8  C   UNL     1       0.059  11.605  -5.250  1.00  0.00     0.041 C 
ATOM      9  O   UNL     1       1.239  11.574  -4.809  1.00  0.00    -0.550 OA
ATOM     10  O   UNL     1      -0.609  12.819  -5.344  1.00  0.00    -0.550 OA
ENDBRANCH   7   8
ENDBRANCH   6   7
ENDBRANCH   5   6
ENDBRANCH   4   5
ENDBRANCH   3   4
ENDBRANCH   2   3
ENDBRANCH   1   2
BRANCH   1  11
ATOM     11  C   UNL     1      -5.072  10.305  -5.003  1.00  0.00     0.000 C 
BRANCH  11  12
ATOM     12  C   UNL     1      -3.912  10.403  -3.997  1.00  0.00    -0.000 C 
BRANCH  12  13
ATOM     13  C   UNL     1      -3.648  11.857  -3.549  1.00  0.00    -0.000 C 
BRANCH  13  14
ATOM     14  C   UNL     1      -4.925  12.714  -3.444  1.00  0.00    -0.000 C 
BRANCH  14  15
ATOM     15  C   UNL     1      -4.875  13.820  -2.376  1.00  0.00    -0.000 C 
BRANCH  15  16
ATOM     16  C   UNL     1      -5.660  13.512  -1.085  1.00  0.00    -0.000 C 
BRANCH  16  17
ATOM     17  C   UNL     1      -4.786  12.945   0.053  1.00  0.00    -0.003 C 
ATOM     18  C   UNL     1      -3.303  13.267  -0.134  1.00  0.00     0.004 C 
ENDBRANCH  16  17
ENDBRANCH  15  16
ENDBRANCH  14  15
ENDBRANCH  13  14
ENDBRANCH  12  13
ENDBRANCH  11  12
ENDBRANCH   1  11
TORSDOF 14
ENDMDL
MODEL 4
REMARK VINA RESULT:    -3.194      3.113      6.485
REMARK INTER + INTRA:          -7.374
REMARK INTER:                  -6.037
REMARK INTRA:                  -1.337
REMARK UNBOUND:                -1.566
REMARK SMILES CCCCCCCCCCCCCCCC(=O)[O-]
REMARK SMILES IDX 9 1 10 2 11 3 12 4 13 5 14 6 15 7 16 8 17 9 18 10 8 11 7 12
REMARK SMILES IDX 6 13 5 14 4 15 3 16 2 17 1 18
REMARK H PARENT
REMARK Flexibility Score: inf
ROOT
ATOM      1  C   UNL     1      -1.137  11.845  -5.033  1.00  0.00     0.000 C 
ENDROOT
BRANCH   1   2
ATOM      2  C   UNL     1      -2.188  12.383  -4.051  1.00  0.00     0.000 C 
BRANCH   2   3
ATOM      3  C   UNL     1      -3.216  11.297  -3.703  1.00  0.00     0.000 C 
BRANCH   3   4
ATOM      4  C   UNL     1      -4.663  11.819  -3.712  1.00  0.00     0.000 C 
BRANCH   4   5
ATOM      5  C   UNL     1      -4.849  13.221  -3.100  1.00  0.00     0.000 C 
BRANCH   5   6
ATOM      6  C   UNL     1      -5.104  13.206  -1.577  1.00  0.00     0.006 C 
BRANCH   6   7
ATOM      7  C   UNL     1      -4.473  14.412  -0.869  1.00  0.00     0.053 C 
BRANCH   7   8
ATOM      8  C   UNL     1      -3.574  13.958   0.237  1.00  0.00     0.041 C 
ATOM      9  O   UNL     1      -3.661  14.480   1.379  1.00  0.00    -0.550 OA
ATOM     10  O   UNL     1      -2.606  12.992  -0.007  1.00  0.00    -0.550 OA
ENDBRANCH   7   8
ENDBRANCH   6   7
ENDBRANCH   5   6
ENDBRANCH   4   5
ENDBRANCH   3   4
ENDBRANCH   2   3
ENDBRANCH   1   2
BRANCH   1  11
ATOM     11  C   UNL     1      -1.317  10.349  -5.335  1.00  0.00     0.000 C 
BRANCH  11  12
ATOM     12  C   UNL     1      -1.718  10.083  -6.796  1.00  0.00    -0.000 C 
BRANCH  12  13
ATOM     13  C   UNL     1      -2.246   8.647  -7.004  1.00  0.00    -0.000 C 
BRANCH  13  14
ATOM     14  C   UNL     1      -3.199   8.170  -5.891  1.00  0.00    -0.000 C 
BRANCH  14  15
ATOM     15  C   UNL     1      -4.675   8.554  -6.096  1.00  0.00    -0.000 C 
BRANCH  15  16
ATOM     16  C   UNL     1      -5.530   8.552  -4.813  1.00  0.00    -0.000 C 
BRANCH  16  17
ATOM     17  C   UNL     1      -6.976   8.061  -5.031  1.00  0.00    -0.003 C 
ATOM     18  C   UNL     1      -7.373   6.958  -4.050  1.00  0.00     0.004 C 
ENDBRANCH  16  17
ENDBRANCH  15  16
ENDBRANCH  14  15
ENDBRANCH  13  14
ENDBRANCH  12  13
ENDBRANCH  11  12
ENDBRANCH   1  11
TORSDOF 14
ENDMDL
MODEL 5
REMARK VINA RESULT:    -3.150      2.831      6.472
REMARK INTER + INTRA:          -7.295
REMARK INTER:                  -5.157
REMARK INTRA:                  -2.138
REMARK UNBOUND:                -1.566
REMARK SMILES CCCCCCCCCCCCCCCC(=O)[O-]
REMARK SMILES IDX 9 1 10 2 11 3 12 4 13 5 14 6 15 7 16 8 17 9 18 10 8 11 7 12
REMARK SMILES IDX 6 13 5 14 4 15 3 16 2 17 1 18
REMARK H PARENT
REMARK Flexibility Score: inf
ROOT
ATOM      1  C   UNL     1      -4.550  10.897  -4.381  1.00  0.00     0.000 C 
ENDROOT
BRANCH   1   2
ATOM      2  C   UNL     1      -4.187  12.039  -5.342  1.00  0.00     0.000 C 
BRANCH   2   3
ATOM      3  C   UNL     1      -5.013  13.296  -5.034  1.00  0.00     0.000 C 
BRANCH   3   4
ATOM      4  C   UNL     1      -6.020  13.082  -3.891  1.00  0.00     0.000 C 
BRANCH   4   5
ATOM      5  C   UNL     1      -6.242  14.309  -2.986  1.00  0.00     0.000 C 
BRANCH   5   6
ATOM      6  C   UNL     1      -5.383  14.299  -1.703  1.00  0.00     0.006 C 
BRANCH   6   7
ATOM      7  C   UNL     1      -4.808  12.910  -1.396  1.00  0.00     0.053 C 
BRANCH   7   8
ATOM      8  C   UNL     1      -3.317  12.972  -1.295  1.00  0.00     0.041 C 
ATOM      9  O   UNL     1      -2.619  13.116  -2.333  1.00  0.00    -0.550 OA
ATOM     10  O   UNL     1      -2.697  12.821  -0.062  1.00  0.00    -0.550 OA
ENDBRANCH   7   8
ENDBRANCH   6   7
ENDBRANCH   5   6
ENDBRANCH   4   5
ENDBRANCH   3   4
ENDBRANCH   2   3
ENDBRANCH   1   2
BRANCH   1  11
ATOM     11  C   UNL     1      -3.397   9.901  -4.180  1.00  0.00     0.000 C 
BRANCH  11  12
ATOM     12  C   UNL     1      -2.720   9.502  -5.503  1.00  0.00    -0.000 C 
BRANCH  12  13
ATOM     13  C   UNL     1      -3.294   8.191  -6.082  1.00  0.00    -0.000 C 
BRANCH  13  14
ATOM     14  C   UNL     1      -4.153   8.397  -7.345  1.00  0.00    -0.000 C 
BRANCH  14  15
ATOM     15  C   UNL     1      -5.619   7.951  -7.208  1.00  0.00    -0.000 C 
BRANCH  15  16
ATOM     16  C   UNL     1      -6.611   9.079  -6.857  1.00  0.00    -0.000 C 
BRANCH  16  17
ATOM     17  C   UNL     1      -7.318   8.883  -5.500  1.00  0.00    -0.003 C 
ATOM     18  C   UNL     1      -6.714   7.738  -4.686  1.00  0.00     0.004 C 
ENDBRANCH  16  17
ENDBRANCH  15  16
ENDBRANCH  14  15
ENDBRANCH  13  14
ENDBRANCH  12  13
ENDBRANCH  11  12
ENDBRANCH   1  11
TORSDOF 14
ENDMDL
MODEL 6
REMARK VINA RESULT:    -3.118      2.946      6.666
REMARK INTER + INTRA:          -7.237
REMARK INTER:                  -5.636
REMARK INTRA:                  -1.601
REMARK UNBOUND:                -1.566
REMARK SMILES CCCCCCCCCCCCCCCC(=O)[O-]
REMARK SMILES IDX 9 1 10 2 11 3 12 4 13 5 14 6 15 7 16 8 17 9 18 10 8 11 7 12
REMARK SMILES IDX 6 13 5 14 4 15 3 16 2 17 1 18
REMARK H PARENT
REMARK Flexibility Score: inf
ROOT
ATOM      1  C   UNL     1      -5.538  12.032  -5.042  1.00  0.00     0.000 C 
ENDROOT
BRANCH   1   2
ATOM      2  C   UNL     1      -6.186  13.194  -4.274  1.00  0.00     0.000 C 
BRANCH   2   3
ATOM      3  C   UNL     1      -5.123  14.019  -3.534  1.00  0.00     0.000 C 
BRANCH   3   4
ATOM      4  C   UNL     1      -5.666  14.682  -2.257  1.00  0.00     0.000 C 
BRANCH   4   5
ATOM      5  C   UNL     1      -6.195  13.702  -1.193  1.00  0.00     0.000 C 
BRANCH   5   6
ATOM      6  C   UNL     1      -5.311  13.616   0.070  1.00  0.00     0.006 C 
BRANCH   6   7
ATOM      7  C   UNL     1      -4.028  12.809  -0.170  1.00  0.00     0.053 C 
BRANCH   7   8
ATOM      8  C   UNL     1      -2.827  13.697  -0.080  1.00  0.00     0.041 C 
ATOM      9  O   UNL     1      -2.336  13.986   1.043  1.00  0.00    -0.550 OA
ATOM     10  O   UNL     1      -2.280  14.246  -1.233  1.00  0.00    -0.550 OA
ENDBRANCH   7   8
ENDBRANCH   6   7
ENDBRANCH   5   6
ENDBRANCH   4   5
ENDBRANCH   3   4
ENDBRANCH   2   3
ENDBRANCH   1   2
BRANCH   1  11
ATOM     11  C   UNL     1      -4.221  11.562  -4.407  1.00  0.00     0.000 C 
BRANCH  11  12
ATOM     12  C   UNL     1      -3.085  11.413  -5.434  1.00  0.00    -0.000 C 
BRANCH  12  13
ATOM     13  C   UNL     1      -2.196  10.184  -5.148  1.00  0.00    -0.000 C 
BRANCH  13  14
ATOM     14  C   UNL     1      -2.341   9.059  -6.192  1.00  0.00    -0.000 C 
BRANCH  14  15
ATOM     15  C   UNL     1      -3.433   8.022  -5.876  1.00  0.00    -0.000 C 
BRANCH  15  16
ATOM     16  C   UNL     1      -4.632   8.026  -6.845  1.00  0.00    -0.000 C 
BRANCH  16  17
ATOM     17  C   UNL     1      -5.910   8.652  -6.248  1.00  0.00    -0.003 C 
ATOM     18  C   UNL     1      -6.188   8.167  -4.826  1.00  0.00     0.004 C 
ENDBRANCH  16  17
ENDBRANCH  15  16
ENDBRANCH  14  15
ENDBRANCH  13  14
ENDBRANCH  12  13
ENDBRANCH  11  12
ENDBRANCH   1  11
TORSDOF 14
ENDMDL
MODEL 7
REMARK VINA RESULT:    -3.107      7.884     11.295
REMARK INTER + INTRA:          -7.217
REMARK INTER:                  -5.335
REMARK INTRA:                  -1.882
REMARK UNBOUND:                -1.566
REMARK SMILES CCCCCCCCCCCCCCCC(=O)[O-]
REMARK SMILES IDX 9 1 10 2 11 3 12 4 13 5 14 6 15 7 16 8 17 9 18 10 8 11 7 12
REMARK SMILES IDX 6 13 5 14 4 15 3 16 2 17 1 18
REMARK H PARENT
REMARK Flexibility Score: inf
ROOT
ATOM      1  C   UNL     1       6.601   9.334  -0.714  1.00  0.00     0.000 C 
ENDROOT
BRANCH   1   2
ATOM      2  C   UNL     1       7.212  10.449  -1.577  1.00  0.00     0.000 C 
BRANCH   2   3
ATOM      3  C   UNL     1       7.812   9.873  -2.867  1.00  0.00     0.000 C 
BRANCH   3   4
ATOM      4  C   UNL     1       7.598   8.355  -2.999  1.00  0.00     0.000 C 
BRANCH   4   5
ATOM      5  C   UNL     1       7.023   7.898  -4.353  1.00  0.00     0.000 C 
BRANCH   5   6
ATOM      6  C   UNL     1       5.511   8.168  -4.511  1.00  0.00     0.006 C 
BRANCH   6   7
ATOM      7  C   UNL     1       5.103   8.353  -5.979  1.00  0.00     0.053 C 
BRANCH   7   8
ATOM      8  C   UNL     1       3.618   8.251  -6.125  1.00  0.00     0.041 C 
ATOM      9  O   UNL     1       3.119   7.556  -7.050  1.00  0.00    -0.550 OA
ATOM     10  O   UNL     1       2.784   8.961  -5.271  1.00  0.00    -0.550 OA
ENDBRANCH   7   8
ENDBRANCH   6   7
ENDBRANCH   5   6
ENDBRANCH   4   5
ENDBRANCH   3   4
ENDBRANCH   2   3
ENDBRANCH   1   2
BRANCH   1  11
ATOM     11  C   UNL     1       6.291   9.796   0.719  1.00  0.00     0.000 C 
BRANCH  11  12
ATOM     12  C   UNL     1       6.345   8.645   1.739  1.00  0.00    -0.000 C 
BRANCH  12  13
ATOM     13  C   UNL     1       7.506   8.808   2.743  1.00  0.00    -0.000 C 
BRANCH  13  14
ATOM     14  C   UNL     1       8.769   8.011   2.363  1.00  0.00    -0.000 C 
BRANCH  14  15
ATOM     15  C   UNL     1       8.537   6.877   1.350  1.00  0.00    -0.000 C 
BRANCH  15  16
ATOM     16  C   UNL     1       9.318   7.017   0.029  1.00  0.00    -0.000 C 
BRANCH  16  17
ATOM     17  C   UNL     1      10.116   8.333  -0.084  1.00  0.00    -0.003 C 
ATOM     18  C   UNL     1      10.950   8.402  -1.363  1.00  0.00     0.004 C 
ENDBRANCH  16  17
ENDBRANCH  15  16
ENDBRANCH  14  15
ENDBRANCH  13  14
ENDBRANCH  12  13
ENDBRANCH  11  12
ENDBRANCH   1  11
TORSDOF 14
ENDMDL
MODEL 8
REMARK VINA RESULT:    -3.097      1.303      2.522
REMARK INTER + INTRA:          -7.198
REMARK INTER:                  -5.562
REMARK INTRA:                  -1.637
REMARK UNBOUND:                -1.566
REMARK SMILES CCCCCCCCCCCCCCCC(=O)[O-]
REMARK SMILES IDX 9 1 10 2 11 3 12 4 13 5 14 6 15 7 16 8 17 9 18 10 8 11 7 12
REMARK SMILES IDX 6 13 5 14 4 15 3 16 2 17 1 18
REMARK H PARENT
REMARK Flexibility Score: inf
ROOT
ATOM      1  C   UNL     1      -3.509   7.617  -5.581  1.00  0.00     0.000 C 
ENDROOT
BRANCH   1   2
ATOM      2  C   UNL     1      -3.042   7.395  -7.027  1.00  0.00     0.000 C 
BRANCH   2   3
ATOM      3  C   UNL     1      -2.494   8.697  -7.630  1.00  0.00     0.000 C 
BRANCH   3   4
ATOM      4  C   UNL     1      -1.238   9.208  -6.904  1.00  0.00     0.000 C 
BRANCH   4   5
ATOM      5  C   UNL     1      -1.242  10.716  -6.586  1.00  0.00     0.000 C 
BRANCH   5   6
ATOM      6  C   UNL     1      -0.523  11.077  -5.269  1.00  0.00     0.006 C 
BRANCH   6   7
ATOM      7  C   UNL     1       0.117  12.471  -5.318  1.00  0.00     0.053 C 
BRANCH   7   8
ATOM      8  C   UNL     1       1.564  12.395  -4.945  1.00  0.00     0.041 C 
ATOM      9  O   UNL     1       2.257  13.444  -4.885  1.00  0.00    -0.550 OA
ATOM     10  O   UNL     1       2.158  11.162  -4.712  1.00  0.00    -0.550 OA
ENDBRANCH   7   8
ENDBRANCH   6   7
ENDBRANCH   5   6
ENDBRANCH   4   5
ENDBRANCH   3   4
ENDBRANCH   2   3
ENDBRANCH   1   2
BRANCH   1  11
ATOM     11  C   UNL     1      -4.740   8.532  -5.488  1.00  0.00     0.000 C 
BRANCH  11  12
ATOM     12  C   UNL     1      -4.517   9.736  -4.557  1.00  0.00    -0.000 C 
BRANCH  12  13
ATOM     13  C   UNL     1      -4.667  11.083  -5.296  1.00  0.00    -0.000 C 
BRANCH  13  14
ATOM     14  C   UNL     1      -4.006  12.267  -4.565  1.00  0.00    -0.000 C 
BRANCH  14  15
ATOM     15  C   UNL     1      -3.724  12.028  -3.071  1.00  0.00    -0.000 C 
BRANCH  15  16
ATOM     16  C   UNL     1      -4.685  12.750  -2.106  1.00  0.00    -0.000 C 
BRANCH  16  17
ATOM     17  C   UNL     1      -4.245  12.685  -0.628  1.00  0.00    -0.003 C 
ATOM     18  C   UNL     1      -5.249  13.355   0.310  1.00  0.00     0.004 C 
ENDBRANCH  16  17
ENDBRANCH  15  16
ENDBRANCH  14  15
ENDBRANCH  13  14
ENDBRANCH  12  13
ENDBRANCH  11  12
ENDBRANCH   1  11
TORSDOF 14
ENDMDL
MODEL 9
REMARK VINA RESULT:    -3.027      3.000      6.126
REMARK INTER + INTRA:          -7.070
REMARK INTER:                  -5.002
REMARK INTRA:                  -2.068
REMARK UNBOUND:                -1.566
REMARK SMILES CCCCCCCCCCCCCCCC(=O)[O-]
REMARK SMILES IDX 9 1 10 2 11 3 12 4 13 5 14 6 15 7 16 8 17 9 18 10 8 11 7 12
REMARK SMILES IDX 6 13 5 14 4 15 3 16 2 17 1 18
REMARK H PARENT
REMARK Flexibility Score: inf
ROOT
ATOM      1  C   UNL     1      -5.811   9.074  -5.008  1.00  0.00     0.000 C 
ENDROOT
BRANCH   1   2
ATOM      2  C   UNL     1      -6.249  10.355  -5.734  1.00  0.00     0.000 C 
BRANCH   2   3
ATOM      3  C   UNL     1      -5.143  11.418  -5.682  1.00  0.00     0.000 C 
BRANCH   3   4
ATOM      4  C   UNL     1      -5.661  12.797  -5.237  1.00  0.00     0.000 C 
BRANCH   4   5
ATOM      5  C   UNL     1      -5.614  13.047  -3.718  1.00  0.00     0.000 C 
BRANCH   5   6
ATOM      6  C   UNL     1      -4.185  13.206  -3.157  1.00  0.00     0.006 C 
BRANCH   6   7
ATOM      7  C   UNL     1      -3.842  12.128  -2.120  1.00  0.00     0.053 C 
BRANCH   7   8
ATOM      8  C   UNL     1      -3.837  12.710  -0.742  1.00  0.00     0.041 C 
ATOM      9  O   UNL     1      -2.750  12.875  -0.129  1.00  0.00    -0.550 OA
ATOM     10  O   UNL     1      -5.036  13.024  -0.116  1.00  0.00    -0.550 OA
ENDBRANCH   7   8
ENDBRANCH   6   7
ENDBRANCH   5   6
ENDBRANCH   4   5
ENDBRANCH   3   4
ENDBRANCH   2   3
ENDBRANCH   1   2
BRANCH   1  11
ATOM     11  C   UNL     1      -4.315   9.075  -4.654  1.00  0.00     0.000 C 
BRANCH  11  12
ATOM     12  C   UNL     1      -3.532   7.967  -5.377  1.00  0.00    -0.000 C 
BRANCH  12  13
ATOM     13  C   UNL     1      -3.416   8.228  -6.895  1.00  0.00    -0.000 C 
BRANCH  13  14
ATOM     14  C   UNL     1      -1.993   8.603  -7.351  1.00  0.00    -0.000 C 
BRANCH  14  15
ATOM     15  C   UNL     1      -1.590  10.062  -7.077  1.00  0.00    -0.000 C 
BRANCH  15  16
ATOM     16  C   UNL     1      -0.833  10.288  -5.753  1.00  0.00    -0.000 C 
BRANCH  16  17
ATOM     17  C   UNL     1      -1.433  11.409  -4.878  1.00  0.00    -0.003 C 
ATOM     18  C   UNL     1      -1.060  12.804  -5.380  1.00  0.00     0.004 C 
ENDBRANCH  16  17
ENDBRANCH  15  16
ENDBRANCH  14  15
ENDBRANCH  13  14
ENDBRANCH  12  13
ENDBRANCH  11  12
ENDBRANCH   1  11
TORSDOF 14
ENDMDL
