MODEL 1
REMARK VINA RESULT:    -3.471      0.000      0.000
REMARK INTER + INTRA:          -8.325
REMARK INTER:                  -6.717
REMARK INTRA:                  -1.607
REMARK UNBOUND:                -1.607
REMARK SMILES CCCCCCCCCCCCCCCCCC(=O)[O-]
REMARK SMILES IDX 10 1 11 2 12 3 13 4 14 5 15 6 16 7 17 8 18 9 19 10 20 11
REMARK SMILES IDX 9 12 8 13 7 14 6 15 5 16 4 17 3 18 2 19 1 20
REMARK H PARENT
REMARK Flexibility Score: inf
ROOT
ATOM      1  C   UNL     1      65.101  31.722  60.928  1.00  0.00     0.000 C 
ENDROOT
BRANCH   1   2
ATOM      2  C   UNL     1      64.453  30.543  60.183  1.00  0.00     0.000 C 
BRANCH   2   3
ATOM      3  C   UNL     1      64.379  29.272  61.044  1.00  0.00     0.000 C 
BRANCH   3   4
ATOM      4  C   UNL     1      62.981  29.048  61.641  1.00  0.00     0.000 C 
BRANCH   4   5
ATOM      5  C   UNL     1      62.109  28.204  60.703  1.00  0.00     0.000 C 
BRANCH   5   6
ATOM      6  C   UNL     1      60.675  28.749  60.651  1.00  0.00     0.000 C 
BRANCH   6   7
ATOM      7  C   UNL     1      59.631  27.649  60.395  1.00  0.00     0.006 C 
BRANCH   7   8
ATOM      8  C   UNL     1      58.980  27.139  61.686  1.00  0.00     0.053 C 
BRANCH   8   9
ATOM      9  C   UNL     1      57.490  27.245  61.596  1.00  0.00     0.041 C 
ATOM     10  O   UNL     1      56.899  26.977  60.517  1.00  0.00    -0.550 OA
ATOM     11  O   UNL     1      56.758  27.690  62.690  1.00  0.00    -0.550 OA
ENDBRANCH   8   9
ENDBRANCH   7   8
ENDBRANCH   6   7
ENDBRANCH   5   6
ENDBRANCH   4   5
ENDBRANCH   3   4
ENDBRANCH   2   3
ENDBRANCH   1   2
BRANCH   1  12
ATOM     12  C   UNL     1      64.789  33.081  60.279  1.00  0.00     0.000 C 
BRANCH  12  13
ATOM     13  C   UNL     1      65.023  34.280  61.221  1.00  0.00    -0.000 C 
BRANCH  13  14
ATOM     14  C   UNL     1      64.446  35.588  60.653  1.00  0.00    -0.000 C 
BRANCH  14  15
ATOM     15  C   UNL     1      62.967  35.798  61.024  1.00  0.00    -0.000 C 
BRANCH  15  16
ATOM     16  C   UNL     1      61.967  35.589  59.867  1.00  0.00    -0.000 C 
BRANCH  16  17
ATOM     17  C   UNL     1      62.598  35.496  58.466  1.00  0.00    -0.000 C 
BRANCH  17  18
ATOM     18  C   UNL     1      62.241  34.190  57.737  1.00  0.00    -0.000 C 
BRANCH  18  19
ATOM     19  C   UNL     1      61.213  33.346  58.508  1.00  0.00    -0.003 C 
ATOM     20  C   UNL     1      61.534  31.853  58.485  1.00  0.00     0.004 C 
ENDBRANCH  18  19
ENDBRANCH  17  18
ENDBRANCH  16  17
ENDBRANCH  15  16
ENDBRANCH  14  15
ENDBRANCH  13  14
ENDBRANCH  12  13
ENDBRANCH   1  12
TORSDOF 16
ENDMDL
MODEL 2
REMARK VINA RESULT:    -3.466     10.043     12.016
REMARK INTER + INTRA:          -8.315
REMARK INTER:                  -5.293
REMARK INTRA:                  -3.022
REMARK UNBOUND:                -1.607
REMARK SMILES CCCCCCCCCCCCCCCCCC(=O)[O-]
REMARK SMILES IDX 10 1 11 2 12 3 13 4 14 5 15 6 16 7 17 8 18 9 19 10 20 11
REMARK SMILES IDX 9 12 8 13 7 14 6 15 5 16 4 17 3 18 2 19 1 20
REMARK H PARENT
REMARK Flexibility Score: inf
ROOT
ATOM      1  C   UNL     1      59.224  27.169  52.904  1.00  0.00     0.000 C 
ENDROOT
BRANCH   1   2
ATOM      2  C   UNL     1      57.985  27.496  52.056  1.00  0.00     0.000 C 
BRANCH   2   3
ATOM      3  C   UNL     1      57.175  26.242  51.689  1.00  0.00     0.000 C 
BRANCH   3   4
ATOM      4  C   UNL     1      58.054  25.123  51.111  1.00  0.00     0.000 C 
BRANCH   4   5
ATOM      5  C   UNL     1      58.605  25.510  49.733  1.00  0.00     0.000 C 
BRANCH   5   6
ATOM      6  C   UNL     1      60.129  25.335  49.683  1.00  0.00     0.000 C 
BRANCH   6   7
ATOM      7  C   UNL     1      60.637  24.276  50.674  1.00  0.00     0.006 C 
BRANCH   7   8
ATOM      8  C   UNL     1      61.700  23.355  50.063  1.00  0.00     0.053 C 
BRANCH   8   9
ATOM      9  C   UNL     1      61.110  22.018  49.742  1.00  0.00     0.041 C 
ATOM     10  O   UNL     1      61.145  21.575  48.563  1.00  0.00    -0.550 OA
ATOM     11  O   UNL     1      60.474  21.283  50.735  1.00  0.00    -0.550 OA
ENDBRANCH   8   9
ENDBRANCH   7   8
ENDBRANCH   6   7
ENDBRANCH   5   6
ENDBRANCH   4   5
ENDBRANCH   3   4
ENDBRANCH   2   3
ENDBRANCH   1   2
BRANCH   1  12
ATOM     12  C   UNL     1      60.497  27.867  52.393  1.00  0.00     0.000 C 
BRANCH  12  13
ATOM     13  C   UNL     1      60.212  29.015  51.402  1.00  0.00    -0.000 C 
BRANCH  13  14
ATOM     14  C   UNL     1      60.942  28.821  50.063  1.00  0.00    -0.000 C 
BRANCH  14  15
ATOM     15  C   UNL     1      62.395  28.343  50.238  1.00  0.00    -0.000 C 
BRANCH  15  16
ATOM     16  C   UNL     1      62.941  27.474  49.086  1.00  0.00    -0.000 C 
BRANCH  16  17
ATOM     17  C   UNL     1      63.892  26.343  49.514  1.00  0.00    -0.000 C 
BRANCH  17  18
ATOM     18  C   UNL     1      64.472  26.552  50.922  1.00  0.00    -0.000 C 
BRANCH  18  19
ATOM     19  C   UNL     1      64.279  25.326  51.828  1.00  0.00    -0.003 C 
ATOM     20  C   UNL     1      63.296  25.581  52.970  1.00  0.00     0.004 C 
ENDBRANCH  18  19
ENDBRANCH  17  18
ENDBRANCH  16  17
ENDBRANCH  15  16
ENDBRANCH  14  15
ENDBRANCH  13  14
ENDBRANCH  12  13
ENDBRANCH   1  12
TORSDOF 16
ENDMDL
MODEL 3
REMARK VINA RESULT:    -3.448      4.020      5.383
REMARK INTER + INTRA:          -8.281
REMARK INTER:                  -6.108
REMARK INTRA:                  -2.173
REMARK UNBOUND:                -1.607
REMARK SMILES CCCCCCCCCCCCCCCCCC(=O)[O-]
REMARK SMILES IDX 10 1 11 2 12 3 13 4 14 5 15 6 16 7 17 8 18 9 19 10 20 11
REMARK SMILES IDX 9 12 8 13 7 14 6 15 5 16 4 17 3 18 2 19 1 20
REMARK H PARENT
REMARK Flexibility Score: inf
ROOT
ATOM      1  C   UNL     1      62.349  31.523  58.333  1.00  0.00     0.000 C 
ENDROOT
BRANCH   1   2
ATOM      2  C   UNL     1      61.255  30.731  59.067  1.00  0.00     0.000 C 
BRANCH   2   3
ATOM      3  C   UNL     1      61.680  29.287  59.377  1.00  0.00     0.000 C 
BRANCH   3   4
ATOM      4  C   UNL     1      61.485  28.922  60.857  1.00  0.00     0.000 C 
BRANCH   4   5
ATOM      5  C   UNL     1      62.788  29.101  61.646  1.00  0.00     0.000 C 
BRANCH   5   6
ATOM      6  C   UNL     1      63.880  28.160  61.119  1.00  0.00     0.000 C 
BRANCH   6   7
ATOM      7  C   UNL     1      65.228  28.870  60.914  1.00  0.00     0.006 C 
BRANCH   7   8
ATOM      8  C   UNL     1      66.389  27.889  60.708  1.00  0.00     0.053 C 
BRANCH   8   9
ATOM      9  C   UNL     1      67.700  28.595  60.847  1.00  0.00     0.041 C 
ATOM     10  O   UNL     1      68.143  29.304  59.904  1.00  0.00    -0.550 OA
ATOM     11  O   UNL     1      68.459  28.429  61.998  1.00  0.00    -0.550 OA
ENDBRANCH   8   9
ENDBRANCH   7   8
ENDBRANCH   6   7
ENDBRANCH   5   6
ENDBRANCH   4   5
ENDBRANCH   3   4
ENDBRANCH   2   3
ENDBRANCH   1   2
BRANCH   1  12
ATOM     12  C   UNL     1      63.581  31.795  59.213  1.00  0.00     0.000 C 
BRANCH  12  13
ATOM     13  C   UNL     1      64.739  32.478  58.456  1.00  0.00    -0.000 C 
BRANCH  13  14
ATOM     14  C   UNL     1      65.512  33.467  59.344  1.00  0.00    -0.000 C 
BRANCH  14  15
ATOM     15  C   UNL     1      64.875  33.642  60.735  1.00  0.00    -0.000 C 
BRANCH  15  16
ATOM     16  C   UNL     1      64.303  35.047  61.020  1.00  0.00    -0.000 C 
BRANCH  16  17
ATOM     17  C   UNL     1      62.899  35.310  60.447  1.00  0.00    -0.000 C 
BRANCH  17  18
ATOM     18  C   UNL     1      62.936  35.976  59.062  1.00  0.00    -0.000 C 
BRANCH  18  19
ATOM     19  C   UNL     1      61.978  35.308  58.062  1.00  0.00    -0.003 C 
ATOM     20  C   UNL     1      60.705  34.781  58.722  1.00  0.00     0.004 C 
ENDBRANCH  18  19
ENDBRANCH  17  18
ENDBRANCH  16  17
ENDBRANCH  15  16
ENDBRANCH  14  15
ENDBRANCH  13  14
ENDBRANCH  12  13
ENDBRANCH   1  12
TORSDOF 16
ENDMDL
MODEL 4
REMARK VINA RESULT:    -3.385     10.527     12.793
REMARK INTER + INTRA:          -8.159
REMARK INTER:                  -5.456
REMARK INTRA:                  -2.703
REMARK UNBOUND:                -1.607
REMARK SMILES CCCCCCCCCCCCCCCCCC(=O)[O-]
REMARK SMILES IDX 10 1 11 2 12 3 13 4 14 5 15 6 16 7 17 8 18 9 19 10 20 11
REMARK SMILES IDX 9 12 8 13 7 14 6 15 5 16 4 17 3 18 2 19 1 20
REMARK H PARENT
REMARK Flexibility Score: inf
ROOT
ATOM      1  C   UNL     1      62.953  28.401  52.196  1.00  0.00     0.000 C 
ENDROOT
BRANCH   1   2
ATOM      2  C   UNL     1      64.127  27.543  51.699  1.00  0.00     0.000 C 
BRANCH   2   3
ATOM      3  C   UNL     1      63.690  26.132  51.278  1.00  0.00     0.000 C 
BRANCH   3   4
ATOM      4  C   UNL     1      64.074  25.806  49.827  1.00  0.00     0.000 C 
BRANCH   4   5
ATOM      5  C   UNL     1      64.998  26.883  49.246  1.00  0.00     0.000 C 
BRANCH   5   6
ATOM      6  C   UNL     1      64.368  27.537  48.008  1.00  0.00     0.000 C 
BRANCH   6   7
ATOM      7  C   UNL     1      64.779  29.009  47.840  1.00  0.00     0.006 C 
BRANCH   7   8
ATOM      8  C   UNL     1      65.858  29.440  48.841  1.00  0.00     0.053 C 
BRANCH   8   9
ATOM      9  C   UNL     1      65.621  30.849  49.288  1.00  0.00     0.041 C 
ATOM     10  O   UNL     1      64.616  31.485  48.875  1.00  0.00    -0.550 OA
ATOM     11  O   UNL     1      66.539  31.476  50.120  1.00  0.00    -0.550 OA
ENDBRANCH   8   9
ENDBRANCH   7   8
ENDBRANCH   6   7
ENDBRANCH   5   6
ENDBRANCH   4   5
ENDBRANCH   3   4
ENDBRANCH   2   3
ENDBRANCH   1   2
BRANCH   1  12
ATOM     12  C   UNL     1      62.777  29.698  51.387  1.00  0.00     0.000 C 
BRANCH  12  13
ATOM     13  C   UNL     1      61.915  29.519  50.119  1.00  0.00    -0.000 C 
BRANCH  13  14
ATOM     14  C   UNL     1      60.831  28.443  50.301  1.00  0.00    -0.000 C 
BRANCH  14  15
ATOM     15  C   UNL     1      60.910  27.331  49.239  1.00  0.00    -0.000 C 
BRANCH  15  16
ATOM     16  C   UNL     1      60.153  26.034  49.593  1.00  0.00    -0.000 C 
BRANCH  16  17
ATOM     17  C   UNL     1      59.402  26.061  50.936  1.00  0.00    -0.000 C 
BRANCH  17  18
ATOM     18  C   UNL     1      58.116  25.218  50.917  1.00  0.00    -0.000 C 
BRANCH  18  19
ATOM     19  C   UNL     1      56.845  26.081  50.971  1.00  0.00    -0.003 C 
ATOM     20  C   UNL     1      55.788  25.644  49.958  1.00  0.00     0.004 C 
ENDBRANCH  18  19
ENDBRANCH  17  18
ENDBRANCH  16  17
ENDBRANCH  15  16
ENDBRANCH  14  15
ENDBRANCH  13  14
ENDBRANCH  12  13
ENDBRANCH   1  12
TORSDOF 16
ENDMDL
MODEL 5
REMARK VINA RESULT:    -3.381     10.189     12.547
REMARK INTER + INTRA:          -8.152
REMARK INTER:                  -5.165
REMARK INTRA:                  -2.986
REMARK UNBOUND:                -1.607
REMARK SMILES CCCCCCCCCCCCCCCCCC(=O)[O-]
REMARK SMILES IDX 10 1 11 2 12 3 13 4 14 5 15 6 16 7 17 8 18 9 19 10 20 11
REMARK SMILES IDX 9 12 8 13 7 14 6 15 5 16 4 17 3 18 2 19 1 20
REMARK H PARENT
REMARK Flexibility Score: inf
ROOT
ATOM      1  C   UNL     1      64.265  26.767  51.161  1.00  0.00     0.000 C 
ENDROOT
BRANCH   1   2
ATOM      2  C   UNL     1      64.077  26.071  49.804  1.00  0.00     0.000 C 
BRANCH   2   3
ATOM      3  C   UNL     1      64.843  26.773  48.671  1.00  0.00     0.000 C 
BRANCH   3   4
ATOM      4  C   UNL     1      65.386  28.147  49.092  1.00  0.00     0.000 C 
BRANCH   4   5
ATOM      5  C   UNL     1      64.530  29.280  48.511  1.00  0.00     0.000 C 
BRANCH   5   6
ATOM      6  C   UNL     1      64.459  30.466  49.483  1.00  0.00     0.000 C 
BRANCH   6   7
ATOM      7  C   UNL     1      63.203  31.328  49.277  1.00  0.00     0.006 C 
BRANCH   7   8
ATOM      8  C   UNL     1      63.251  32.642  50.067  1.00  0.00     0.053 C 
BRANCH   8   9
ATOM      9  C   UNL     1      62.895  33.796  49.184  1.00  0.00     0.041 C 
ATOM     10  O   UNL     1      62.236  34.766  49.644  1.00  0.00    -0.550 OA
ATOM     11  O   UNL     1      63.245  33.775  47.840  1.00  0.00    -0.550 OA
ENDBRANCH   8   9
ENDBRANCH   7   8
ENDBRANCH   6   7
ENDBRANCH   5   6
ENDBRANCH   4   5
ENDBRANCH   3   4
ENDBRANCH   2   3
ENDBRANCH   1   2
BRANCH   1  12
ATOM     12  C   UNL     1      63.178  26.387  52.182  1.00  0.00     0.000 C 
BRANCH  12  13
ATOM     13  C   UNL     1      62.531  27.606  52.872  1.00  0.00    -0.000 C 
BRANCH  13  14
ATOM     14  C   UNL     1      62.315  28.778  51.900  1.00  0.00    -0.000 C 
BRANCH  14  15
ATOM     15  C   UNL     1      60.964  28.702  51.165  1.00  0.00    -0.000 C 
BRANCH  15  16
ATOM     16  C   UNL     1      61.045  28.239  49.696  1.00  0.00    -0.000 C 
BRANCH  16  17
ATOM     17  C   UNL     1      60.606  26.786  49.444  1.00  0.00    -0.000 C 
BRANCH  17  18
ATOM     18  C   UNL     1      59.601  26.277  50.491  1.00  0.00    -0.000 C 
BRANCH  18  19
ATOM     19  C   UNL     1      59.991  24.904  51.062  1.00  0.00    -0.003 C 
ATOM     20  C   UNL     1      60.915  24.116  50.135  1.00  0.00     0.004 C 
ENDBRANCH  18  19
ENDBRANCH  17  18
ENDBRANCH  16  17
ENDBRANCH  15  16
ENDBRANCH  14  15
ENDBRANCH  13  14
ENDBRANCH  12  13
ENDBRANCH   1  12
TORSDOF 16
ENDMDL
MODEL 6
REMARK VINA RESULT:    -3.367      4.242      7.413
REMARK INTER + INTRA:          -8.124
REMARK INTER:                  -5.369
REMARK INTRA:                  -2.755
REMARK UNBOUND:                -1.607
REMARK SMILES CCCCCCCCCCCCCCCCCC(=O)[O-]
REMARK SMILES IDX 10 1 11 2 12 3 13 4 14 5 15 6 16 7 17 8 18 9 19 10 20 11
REMARK SMILES IDX 9 12 8 13 7 14 6 15 5 16 4 17 3 18 2 19 1 20
REMARK H PARENT
REMARK Flexibility Score: inf
ROOT
ATOM      1  C   UNL     1      61.295  28.508  60.875  1.00  0.00     0.000 C 
ENDROOT
BRANCH   1   2
ATOM      2  C   UNL     1      61.133  28.862  59.388  1.00  0.00     0.000 C 
BRANCH   2   3
ATOM      3  C   UNL     1      60.869  30.360  59.164  1.00  0.00     0.000 C 
BRANCH   3   4
ATOM      4  C   UNL     1      61.623  30.913  57.945  1.00  0.00     0.000 C 
BRANCH   4   5
ATOM      5  C   UNL     1      63.111  30.545  58.003  1.00  0.00     0.000 C 
BRANCH   5   6
ATOM      6  C   UNL     1      63.978  31.799  58.180  1.00  0.00     0.000 C 
BRANCH   6   7
ATOM      7  C   UNL     1      63.710  32.524  59.509  1.00  0.00     0.006 C 
BRANCH   7   8
ATOM      8  C   UNL     1      64.986  32.746  60.330  1.00  0.00     0.053 C 
BRANCH   8   9
ATOM      9  C   UNL     1      65.173  34.202  60.619  1.00  0.00     0.041 C 
ATOM     10  O   UNL     1      65.335  35.021  59.676  1.00  0.00    -0.550 OA
ATOM     11  O   UNL     1      65.221  34.648  61.934  1.00  0.00    -0.550 OA
ENDBRANCH   8   9
ENDBRANCH   7   8
ENDBRANCH   6   7
ENDBRANCH   5   6
ENDBRANCH   4   5
ENDBRANCH   3   4
ENDBRANCH   2   3
ENDBRANCH   1   2
BRANCH   1  12
ATOM     12  C   UNL     1      62.743  28.146  61.247  1.00  0.00     0.000 C 
BRANCH  12  13
ATOM     13  C   UNL     1      63.641  29.377  61.490  1.00  0.00    -0.000 C 
BRANCH  13  14
ATOM     14  C   UNL     1      65.104  29.116  61.092  1.00  0.00    -0.000 C 
BRANCH  14  15
ATOM     15  C   UNL     1      65.233  28.188  59.870  1.00  0.00    -0.000 C 
BRANCH  15  16
ATOM     16  C   UNL     1      66.233  28.661  58.794  1.00  0.00    -0.000 C 
BRANCH  16  17
ATOM     17  C   UNL     1      67.109  29.860  59.197  1.00  0.00    -0.000 C 
BRANCH  17  18
ATOM     18  C   UNL     1      68.602  29.502  59.292  1.00  0.00    -0.000 C 
BRANCH  18  19
ATOM     19  C   UNL     1      68.857  28.268  60.170  1.00  0.00    -0.003 C 
ATOM     20  C   UNL     1      68.785  28.577  61.665  1.00  0.00     0.004 C 
ENDBRANCH  18  19
ENDBRANCH  17  18
ENDBRANCH  16  17
ENDBRANCH  15  16
ENDBRANCH  14  15
ENDBRANCH  13  14
ENDBRANCH  12  13
ENDBRANCH   1  12
TORSDOF 16
ENDMDL
MODEL 7
REMARK VINA RESULT:    -3.313      4.263      7.046
REMARK INTER + INTRA:          -8.019
REMARK INTER:                  -4.669
REMARK INTRA:                  -3.350
REMARK UNBOUND:                -1.607
REMARK SMILES CCCCCCCCCCCCCCCCCC(=O)[O-]
REMARK SMILES IDX 10 1 11 2 12 3 13 4 14 5 15 6 16 7 17 8 18 9 19 10 20 11
REMARK SMILES IDX 9 12 8 13 7 14 6 15 5 16 4 17 3 18 2 19 1 20
REMARK H PARENT
REMARK Flexibility Score: inf
ROOT
ATOM      1  C   UNL     1      63.542  28.155  60.439  1.00  0.00     0.000 C 
ENDROOT
BRANCH   1   2
ATOM      2  C   UNL     1      62.521  28.311  59.301  1.00  0.00     0.000 C 
BRANCH   2   3
ATOM      3  C   UNL     1      62.112  29.775  59.073  1.00  0.00     0.000 C 
BRANCH   3   4
ATOM      4  C   UNL     1      62.497  30.281  57.675  1.00  0.00     0.000 C 
BRANCH   4   5
ATOM      5  C   UNL     1      63.317  31.575  57.763  1.00  0.00     0.000 C 
BRANCH   5   6
ATOM      6  C   UNL     1      63.104  32.267  59.117  1.00  0.00     0.000 C 
BRANCH   6   7
ATOM      7  C   UNL     1      63.879  33.589  59.236  1.00  0.00     0.006 C 
BRANCH   7   8
ATOM      8  C   UNL     1      64.872  33.588  60.405  1.00  0.00     0.053 C 
BRANCH   8   9
ATOM      9  C   UNL     1      64.648  34.780  61.281  1.00  0.00     0.041 C 
ATOM     10  O   UNL     1      63.557  35.408  61.231  1.00  0.00    -0.550 OA
ATOM     11  O   UNL     1      65.663  35.230  62.115  1.00  0.00    -0.550 OA
ENDBRANCH   8   9
ENDBRANCH   7   8
ENDBRANCH   6   7
ENDBRANCH   5   6
ENDBRANCH   4   5
ENDBRANCH   3   4
ENDBRANCH   2   3
ENDBRANCH   1   2
BRANCH   1  12
ATOM     12  C   UNL     1      63.559  29.361  61.394  1.00  0.00     0.000 C 
BRANCH  12  13
ATOM     13  C   UNL     1      64.927  30.073  61.458  1.00  0.00    -0.000 C 
BRANCH  13  14
ATOM     14  C   UNL     1      65.972  29.409  60.546  1.00  0.00    -0.000 C 
BRANCH  14  15
ATOM     15  C   UNL     1      66.504  30.359  59.458  1.00  0.00    -0.000 C 
BRANCH  15  16
ATOM     16  C   UNL     1      66.367  29.840  58.012  1.00  0.00    -0.000 C 
BRANCH  16  17
ATOM     17  C   UNL     1      66.279  28.310  57.873  1.00  0.00    -0.000 C 
BRANCH  17  18
ATOM     18  C   UNL     1      65.245  27.865  56.825  1.00  0.00    -0.000 C 
BRANCH  18  19
ATOM     19  C   UNL     1      64.853  26.386  56.975  1.00  0.00    -0.003 C 
ATOM     20  C   UNL     1      65.320  25.780  58.298  1.00  0.00     0.004 C 
ENDBRANCH  18  19
ENDBRANCH  17  18
ENDBRANCH  16  17
ENDBRANCH  15  16
ENDBRANCH  14  15
ENDBRANCH  13  14
ENDBRANCH  12  13
ENDBRANCH   1  12
TORSDOF 16
ENDMDL
MODEL 8
REMARK VINA RESULT:    -3.305      1.830      3.629
REMARK INTER + INTRA:          -8.005
REMARK INTER:                  -5.340
REMARK INTRA:                  -2.665
REMARK UNBOUND:                -1.607
REMARK SMILES CCCCCCCCCCCCCCCCCC(=O)[O-]
REMARK SMILES IDX 10 1 11 2 12 3 13 4 14 5 15 6 16 7 17 8 18 9 19 10 20 11
REMARK SMILES IDX 9 12 8 13 7 14 6 15 5 16 4 17 3 18 2 19 1 20
REMARK H PARENT
REMARK Flexibility Score: inf
ROOT
ATOM      1  C   UNL     1      65.506  30.457  58.948  1.00  0.00     0.000 C 
ENDROOT
BRANCH   1   2
ATOM      2  C   UNL     1      66.283  29.566  59.930  1.00  0.00     0.000 C 
BRANCH   2   3
ATOM      3  C   UNL     1      65.378  28.945  61.005  1.00  0.00     0.000 C 
BRANCH   3   4
ATOM      4  C   UNL     1      64.193  29.852  61.372  1.00  0.00     0.000 C 
BRANCH   4   5
ATOM      5  C   UNL     1      62.928  29.027  61.637  1.00  0.00     0.000 C 
BRANCH   5   6
ATOM      6  C   UNL     1      63.088  27.594  61.111  1.00  0.00     0.000 C 
BRANCH   6   7
ATOM      7  C   UNL     1      61.823  27.075  60.408  1.00  0.00     0.006 C 
BRANCH   7   8
ATOM      8  C   UNL     1      60.586  27.929  60.709  1.00  0.00     0.053 C 
BRANCH   8   9
ATOM      9  C   UNL     1      59.535  27.106  61.384  1.00  0.00     0.041 C 
ATOM     10  O   UNL     1      59.863  26.142  62.125  1.00  0.00    -0.550 OA
ATOM     11  O   UNL     1      58.191  27.370  61.154  1.00  0.00    -0.550 OA
ENDBRANCH   8   9
ENDBRANCH   7   8
ENDBRANCH   6   7
ENDBRANCH   5   6
ENDBRANCH   4   5
ENDBRANCH   3   4
ENDBRANCH   2   3
ENDBRANCH   1   2
BRANCH   1  12
ATOM     12  C   UNL     1      65.595  29.961  57.494  1.00  0.00     0.000 C 
BRANCH  12  13
ATOM     13  C   UNL     1      64.217  29.764  56.827  1.00  0.00    -0.000 C 
BRANCH  13  14
ATOM     14  C   UNL     1      63.143  29.316  57.832  1.00  0.00    -0.000 C 
BRANCH  14  15
ATOM     15  C   UNL     1      61.905  30.232  57.831  1.00  0.00    -0.000 C 
BRANCH  15  16
ATOM     16  C   UNL     1      61.941  31.380  58.861  1.00  0.00    -0.000 C 
BRANCH  16  17
ATOM     17  C   UNL     1      62.506  32.712  58.336  1.00  0.00    -0.000 C 
BRANCH  17  18
ATOM     18  C   UNL     1      63.444  33.400  59.342  1.00  0.00    -0.000 C 
BRANCH  18  19
ATOM     19  C   UNL     1      62.950  34.797  59.749  1.00  0.00    -0.003 C 
ATOM     20  C   UNL     1      63.626  35.320  61.015  1.00  0.00     0.004 C 
ENDBRANCH  18  19
ENDBRANCH  17  18
ENDBRANCH  16  17
ENDBRANCH  15  16
ENDBRANCH  14  15
ENDBRANCH  13  14
ENDBRANCH  12  13
ENDBRANCH   1  12
TORSDOF 16
ENDMDL
MODEL 9
REMARK VINA RESULT:    -3.283      3.072      5.413
REMARK INTER + INTRA:          -7.961
REMARK INTER:                  -4.916
REMARK INTRA:                  -3.045
REMARK UNBOUND:                -1.607
REMARK SMILES CCCCCCCCCCCCCCCCCC(=O)[O-]
REMARK SMILES IDX 10 1 11 2 12 3 13 4 14 5 15 6 16 7 17 8 18 9 19 10 20 11
REMARK SMILES IDX 9 12 8 13 7 14 6 15 5 16 4 17 3 18 2 19 1 20
REMARK H PARENT
REMARK Flexibility Score: inf
ROOT
ATOM      1  C   UNL     1      64.269  31.320  58.283  1.00  0.00     0.000 C 
ENDROOT
BRANCH   1   2
ATOM      2  C   UNL     1      63.034  32.089  58.779  1.00  0.00     0.000 C 
BRANCH   2   3
ATOM      3  C   UNL     1      61.768  31.218  58.802  1.00  0.00     0.000 C 
BRANCH   3   4
ATOM      4  C   UNL     1      62.087  29.721  58.936  1.00  0.00     0.000 C 
BRANCH   4   5
ATOM      5  C   UNL     1      61.778  29.216  60.351  1.00  0.00     0.000 C 
BRANCH   5   6
ATOM      6  C   UNL     1      61.949  27.693  60.438  1.00  0.00     0.000 C 
BRANCH   6   7
ATOM      7  C   UNL     1      62.463  27.230  61.810  1.00  0.00     0.006 C 
BRANCH   7   8
ATOM      8  C   UNL     1      62.921  25.767  61.809  1.00  0.00     0.053 C 
BRANCH   8   9
ATOM      9  C   UNL     1      62.361  25.044  62.993  1.00  0.00     0.041 C 
ATOM     10  O   UNL     1      62.969  24.051  63.475  1.00  0.00    -0.550 OA
ATOM     11  O   UNL     1      61.142  25.434  63.532  1.00  0.00    -0.550 OA
ENDBRANCH   8   9
ENDBRANCH   7   8
ENDBRANCH   6   7
ENDBRANCH   5   6
ENDBRANCH   4   5
ENDBRANCH   3   4
ENDBRANCH   2   3
ENDBRANCH   1   2
BRANCH   1  12
ATOM     12  C   UNL     1      65.473  31.450  59.231  1.00  0.00     0.000 C 
BRANCH  12  13
ATOM     13  C   UNL     1      65.084  31.438  60.724  1.00  0.00    -0.000 C 
BRANCH  13  14
ATOM     14  C   UNL     1      65.138  30.024  61.328  1.00  0.00    -0.000 C 
BRANCH  14  15
ATOM     15  C   UNL     1      66.231  29.146  60.692  1.00  0.00    -0.000 C 
BRANCH  15  16
ATOM     16  C   UNL     1      65.935  27.631  60.692  1.00  0.00    -0.000 C 
BRANCH  16  17
ATOM     17  C   UNL     1      65.947  26.963  59.307  1.00  0.00    -0.000 C 
BRANCH  17  18
ATOM     18  C   UNL     1      64.976  27.626  58.316  1.00  0.00    -0.000 C 
BRANCH  18  19
ATOM     19  C   UNL     1      65.615  27.874  56.940  1.00  0.00    -0.003 C 
ATOM     20  C   UNL     1      66.837  28.789  57.010  1.00  0.00     0.004 C 
ENDBRANCH  18  19
ENDBRANCH  17  18
ENDBRANCH  16  17
ENDBRANCH  15  16
ENDBRANCH  14  15
ENDBRANCH  13  14
ENDBRANCH  12  13
ENDBRANCH   1  12
TORSDOF 16
ENDMDL
