MODEL 1
REMARK VINA RESULT:    -3.259      0.000      0.000
REMARK INTER + INTRA:         -13.823
REMARK INTER:                  -8.213
REMARK INTRA:                  -5.610
REMARK UNBOUND:                -5.610
REMARK SMILES CCCCCCCCCCCCCCCCCCCCCCCCCCCC(=O)[O-]
REMARK SMILES IDX 15 1 16 2 17 3 18 4 19 5 20 6 21 7 22 8 23 9 24 10 25 11
REMARK SMILES IDX 26 12 27 13 28 14 29 15 30 16 14 17 13 18 12 19 11 20 10 21
REMARK SMILES IDX 9 22 8 23 7 24 6 25 5 26 4 27 3 28 2 29 1 30
REMARK H PARENT
REMARK Flexibility Score: inf
ROOT
ATOM      1  C   UNL     1     -20.437  27.557  43.821  1.00  0.00     0.000 C 
ENDROOT
BRANCH   1   2
ATOM      2  C   UNL     1     -20.369  26.854  42.456  1.00  0.00     0.000 C 
BRANCH   2   3
ATOM      3  C   UNL     1     -19.029  26.130  42.218  1.00  0.00     0.000 C 
BRANCH   3   4
ATOM      4  C   UNL     1     -19.117  24.593  42.120  1.00  0.00     0.000 C 
BRANCH   4   5
ATOM      5  C   UNL     1     -17.880  23.833  42.638  1.00  0.00     0.000 C 
BRANCH   5   6
ATOM      6  C   UNL     1     -16.609  24.693  42.789  1.00  0.00     0.000 C 
BRANCH   6   7
ATOM      7  C   UNL     1     -16.203  24.999  44.242  1.00  0.00     0.000 C 
BRANCH   7   8
ATOM      8  C   UNL     1     -15.616  26.410  44.412  1.00  0.00     0.000 C 
BRANCH   8   9
ATOM      9  C   UNL     1     -15.480  27.119  43.059  1.00  0.00     0.000 C 
BRANCH   9  10
ATOM     10  C   UNL     1     -16.096  28.524  43.111  1.00  0.00     0.000 C 
BRANCH  10  11
ATOM     11  C   UNL     1     -16.856  28.888  41.826  1.00  0.00     0.000 C 
BRANCH  11  12
ATOM     12  C   UNL     1     -17.826  30.062  42.025  1.00  0.00     0.006 C 
BRANCH  12  13
ATOM     13  C   UNL     1     -19.010  29.960  41.059  1.00  0.00     0.053 C 
BRANCH  13  14
ATOM     14  C   UNL     1     -19.189  31.244  40.312  1.00  0.00     0.041 C 
ATOM     15  O   UNL     1     -20.317  31.802  40.271  1.00  0.00    -0.550 OA
ATOM     16  O   UNL     1     -18.098  31.851  39.701  1.00  0.00    -0.550 OA
ENDBRANCH  13  14
ENDBRANCH  12  13
ENDBRANCH  11  12
ENDBRANCH  10  11
ENDBRANCH   9  10
ENDBRANCH   8   9
ENDBRANCH   7   8
ENDBRANCH   6   7
ENDBRANCH   5   6
ENDBRANCH   4   5
ENDBRANCH   3   4
ENDBRANCH   2   3
ENDBRANCH   1   2
BRANCH   1  17
ATOM     17  C   UNL     1     -19.263  27.184  44.743  1.00  0.00     0.000 C 
BRANCH  17  18
ATOM     18  C   UNL     1     -19.679  26.375  45.990  1.00  0.00     0.000 C 
BRANCH  18  19
ATOM     19  C   UNL     1     -19.383  24.871  45.835  1.00  0.00     0.000 C 
BRANCH  19  20
ATOM     20  C   UNL     1     -20.622  24.065  45.413  1.00  0.00     0.000 C 
BRANCH  20  21
ATOM     21  C   UNL     1     -20.463  22.555  45.663  1.00  0.00     0.000 C 
BRANCH  21  22
ATOM     22  C   UNL     1     -18.989  22.121  45.699  1.00  0.00    -0.000 C 
BRANCH  22  23
ATOM     23  C   UNL     1     -18.796  20.644  45.311  1.00  0.00    -0.000 C 
BRANCH  23  24
ATOM     24  C   UNL     1     -17.682  20.451  44.269  1.00  0.00    -0.000 C 
BRANCH  24  25
ATOM     25  C   UNL     1     -16.315  20.949  44.773  1.00  0.00    -0.000 C 
BRANCH  25  26
ATOM     26  C   UNL     1     -15.401  21.427  43.633  1.00  0.00    -0.000 C 
BRANCH  26  27
ATOM     27  C   UNL     1     -14.028  21.899  44.135  1.00  0.00    -0.000 C 
BRANCH  27  28
ATOM     28  C   UNL     1     -13.204  22.506  42.988  1.00  0.00    -0.000 C 
BRANCH  28  29
ATOM     29  C   UNL     1     -12.696  23.919  43.311  1.00  0.00    -0.003 C 
ATOM     30  C   UNL     1     -12.590  24.182  44.813  1.00  0.00     0.004 C 
ENDBRANCH  28  29
ENDBRANCH  27  28
ENDBRANCH  26  27
ENDBRANCH  25  26
ENDBRANCH  24  25
ENDBRANCH  23  24
ENDBRANCH  22  23
ENDBRANCH  21  22
ENDBRANCH  20  21
ENDBRANCH  19  20
ENDBRANCH  18  19
ENDBRANCH  17  18
ENDBRANCH   1  17
TORSDOF 26
ENDMDL
MODEL 2
REMARK VINA RESULT:    -3.213      3.412      7.335
REMARK INTER + INTRA:         -13.707
REMARK INTER:                  -8.579
REMARK INTRA:                  -5.128
REMARK UNBOUND:                -5.610
REMARK SMILES CCCCCCCCCCCCCCCCCCCCCCCCCCCC(=O)[O-]
REMARK SMILES IDX 15 1 16 2 17 3 18 4 19 5 20 6 21 7 22 8 23 9 24 10 25 11
REMARK SMILES IDX 26 12 27 13 28 14 29 15 30 16 14 17 13 18 12 19 11 20 10 21
REMARK SMILES IDX 9 22 8 23 7 24 6 25 5 26 4 27 3 28 2 29 1 30
REMARK H PARENT
REMARK Flexibility Score: inf
ROOT
ATOM      1  C   UNL     1     -17.368  20.568  45.824  1.00  0.00     0.000 C 
ENDROOT
BRANCH   1   2
ATOM      2  C   UNL     1     -18.600  20.698  46.734  1.00  0.00     0.000 C 
BRANCH   2   3
ATOM      3  C   UNL     1     -19.895  21.003  45.955  1.00  0.00     0.000 C 
BRANCH   3   4
ATOM      4  C   UNL     1     -20.380  22.466  46.027  1.00  0.00     0.000 C 
BRANCH   4   5
ATOM      5  C   UNL     1     -20.313  23.110  47.426  1.00  0.00     0.000 C 
BRANCH   5   6
ATOM      6  C   UNL     1     -19.714  24.531  47.457  1.00  0.00     0.000 C 
BRANCH   6   7
ATOM      7  C   UNL     1     -18.555  24.766  46.472  1.00  0.00     0.000 C 
BRANCH   7   8
ATOM      8  C   UNL     1     -17.235  24.135  46.945  1.00  0.00     0.000 C 
BRANCH   8   9
ATOM      9  C   UNL     1     -16.146  24.260  45.873  1.00  0.00     0.000 C 
BRANCH   9  10
ATOM     10  C   UNL     1     -15.795  25.732  45.616  1.00  0.00     0.000 C 
BRANCH  10  11
ATOM     11  C   UNL     1     -15.659  26.058  44.121  1.00  0.00     0.000 C 
BRANCH  11  12
ATOM     12  C   UNL     1     -15.127  24.872  43.303  1.00  0.00     0.006 C 
BRANCH  12  13
ATOM     13  C   UNL     1     -14.194  25.353  42.188  1.00  0.00     0.053 C 
BRANCH  13  14
ATOM     14  C   UNL     1     -13.420  24.204  41.621  1.00  0.00     0.041 C 
ATOM     15  O   UNL     1     -13.251  24.106  40.377  1.00  0.00    -0.550 OA
ATOM     16  O   UNL     1     -12.843  23.267  42.470  1.00  0.00    -0.550 OA
ENDBRANCH  13  14
ENDBRANCH  12  13
ENDBRANCH  11  12
ENDBRANCH  10  11
ENDBRANCH   9  10
ENDBRANCH   8   9
ENDBRANCH   7   8
ENDBRANCH   6   7
ENDBRANCH   5   6
ENDBRANCH   4   5
ENDBRANCH   3   4
ENDBRANCH   2   3
ENDBRANCH   1   2
BRANCH   1  17
ATOM     17  C   UNL     1     -17.730  20.566  44.328  1.00  0.00     0.000 C 
BRANCH  17  18
ATOM     18  C   UNL     1     -17.039  21.684  43.517  1.00  0.00     0.000 C 
BRANCH  18  19
ATOM     19  C   UNL     1     -17.998  22.357  42.518  1.00  0.00     0.000 C 
BRANCH  19  20
ATOM     20  C   UNL     1     -18.656  23.622  43.091  1.00  0.00     0.000 C 
BRANCH  20  21
ATOM     21  C   UNL     1     -18.538  24.833  42.148  1.00  0.00     0.000 C 
BRANCH  21  22
ATOM     22  C   UNL     1     -19.622  25.890  42.414  1.00  0.00    -0.000 C 
BRANCH  22  23
ATOM     23  C   UNL     1     -20.289  25.723  43.790  1.00  0.00    -0.000 C 
BRANCH  23  24
ATOM     24  C   UNL     1     -21.817  25.879  43.726  1.00  0.00    -0.000 C 
BRANCH  24  25
ATOM     25  C   UNL     1     -22.531  25.147  44.877  1.00  0.00    -0.000 C 
BRANCH  25  26
ATOM     26  C   UNL     1     -23.476  24.041  44.381  1.00  0.00    -0.000 C 
BRANCH  26  27
ATOM     27  C   UNL     1     -24.795  23.994  45.167  1.00  0.00    -0.000 C 
BRANCH  27  28
ATOM     28  C   UNL     1     -25.027  22.599  45.766  1.00  0.00    -0.000 C 
BRANCH  28  29
ATOM     29  C   UNL     1     -24.106  22.308  46.961  1.00  0.00    -0.003 C 
ATOM     30  C   UNL     1     -23.604  20.865  46.984  1.00  0.00     0.004 C 
ENDBRANCH  28  29
ENDBRANCH  27  28
ENDBRANCH  26  27
ENDBRANCH  25  26
ENDBRANCH  24  25
ENDBRANCH  23  24
ENDBRANCH  22  23
ENDBRANCH  21  22
ENDBRANCH  20  21
ENDBRANCH  19  20
ENDBRANCH  18  19
ENDBRANCH  17  18
ENDBRANCH   1  17
TORSDOF 26
ENDMDL
MODEL 3
REMARK VINA RESULT:    -3.183      3.049      6.384
REMARK INTER + INTRA:         -13.630
REMARK INTER:                  -8.603
REMARK INTRA:                  -5.027
REMARK UNBOUND:                -5.610
REMARK SMILES CCCCCCCCCCCCCCCCCCCCCCCCCCCC(=O)[O-]
REMARK SMILES IDX 15 1 16 2 17 3 18 4 19 5 20 6 21 7 22 8 23 9 24 10 25 11
REMARK SMILES IDX 26 12 27 13 28 14 29 15 30 16 14 17 13 18 12 19 11 20 10 21
REMARK SMILES IDX 9 22 8 23 7 24 6 25 5 26 4 27 3 28 2 29 1 30
REMARK H PARENT
REMARK Flexibility Score: inf
ROOT
ATOM      1  C   UNL     1     -17.763  25.026  42.850  1.00  0.00     0.000 C 
ENDROOT
BRANCH   1   2
ATOM      2  C   UNL     1     -17.077  23.715  42.434  1.00  0.00     0.000 C 
BRANCH   2   3
ATOM      3  C   UNL     1     -18.028  22.502  42.466  1.00  0.00     0.000 C 
BRANCH   3   4
ATOM      4  C   UNL     1     -17.527  21.290  43.280  1.00  0.00     0.000 C 
BRANCH   4   5
ATOM      5  C   UNL     1     -16.180  21.497  44.000  1.00  0.00     0.000 C 
BRANCH   5   6
ATOM      6  C   UNL     1     -16.251  21.427  45.539  1.00  0.00     0.000 C 
BRANCH   6   7
ATOM      7  C   UNL     1     -16.340  22.792  46.245  1.00  0.00     0.000 C 
BRANCH   7   8
ATOM      8  C   UNL     1     -17.785  23.301  46.378  1.00  0.00     0.000 C 
BRANCH   8   9
ATOM      9  C   UNL     1     -18.758  22.143  46.634  1.00  0.00     0.000 C 
BRANCH   9  10
ATOM     10  C   UNL     1     -20.029  22.298  45.786  1.00  0.00     0.000 C 
BRANCH  10  11
ATOM     11  C   UNL     1     -20.204  23.721  45.234  1.00  0.00     0.000 C 
BRANCH  11  12
ATOM     12  C   UNL     1     -21.598  24.299  45.522  1.00  0.00     0.006 C 
BRANCH  12  13
ATOM     13  C   UNL     1     -22.612  23.180  45.776  1.00  0.00     0.053 C 
BRANCH  13  14
ATOM     14  C   UNL     1     -23.861  23.416  44.987  1.00  0.00     0.041 C 
ATOM     15  O   UNL     1     -23.881  24.283  44.075  1.00  0.00    -0.550 OA
ATOM     16  O   UNL     1     -24.992  22.644  45.227  1.00  0.00    -0.550 OA
ENDBRANCH  13  14
ENDBRANCH  12  13
ENDBRANCH  11  12
ENDBRANCH  10  11
ENDBRANCH   9  10
ENDBRANCH   8   9
ENDBRANCH   7   8
ENDBRANCH   6   7
ENDBRANCH   5   6
ENDBRANCH   4   5
ENDBRANCH   3   4
ENDBRANCH   2   3
ENDBRANCH   1   2
BRANCH   1  17
ATOM     17  C   UNL     1     -19.101  25.254  42.126  1.00  0.00     0.000 C 
BRANCH  17  18
ATOM     18  C   UNL     1     -19.732  26.636  42.399  1.00  0.00     0.000 C 
BRANCH  18  19
ATOM     19  C   UNL     1     -19.005  27.397  43.522  1.00  0.00     0.000 C 
BRANCH  19  20
ATOM     20  C   UNL     1     -18.352  28.699  43.029  1.00  0.00     0.000 C 
BRANCH  20  21
ATOM     21  C   UNL     1     -17.528  28.500  41.745  1.00  0.00     0.000 C 
BRANCH  21  22
ATOM     22  C   UNL     1     -16.090  29.027  41.886  1.00  0.00    -0.000 C 
BRANCH  22  23
ATOM     23  C   UNL     1     -15.089  27.923  42.272  1.00  0.00    -0.000 C 
BRANCH  23  24
ATOM     24  C   UNL     1     -14.118  28.372  43.376  1.00  0.00    -0.000 C 
BRANCH  24  25
ATOM     25  C   UNL     1     -13.827  27.251  44.391  1.00  0.00    -0.000 C 
BRANCH  25  26
ATOM     26  C   UNL     1     -14.713  26.014  44.179  1.00  0.00    -0.000 C 
BRANCH  26  27
ATOM     27  C   UNL     1     -13.918  24.701  44.227  1.00  0.00    -0.000 C 
BRANCH  27  28
ATOM     28  C   UNL     1     -12.920  24.620  43.062  1.00  0.00    -0.000 C 
BRANCH  28  29
ATOM     29  C   UNL     1     -13.381  23.657  41.957  1.00  0.00    -0.003 C 
ATOM     30  C   UNL     1     -13.405  24.310  40.575  1.00  0.00     0.004 C 
ENDBRANCH  28  29
ENDBRANCH  27  28
ENDBRANCH  26  27
ENDBRANCH  25  26
ENDBRANCH  24  25
ENDBRANCH  23  24
ENDBRANCH  22  23
ENDBRANCH  21  22
ENDBRANCH  20  21
ENDBRANCH  19  20
ENDBRANCH  18  19
ENDBRANCH  17  18
ENDBRANCH   1  17
TORSDOF 26
ENDMDL
MODEL 4
REMARK VINA RESULT:    -3.175      1.433      3.101
REMARK INTER + INTRA:         -13.609
REMARK INTER:                  -8.243
REMARK INTRA:                  -5.367
REMARK UNBOUND:                -5.610
REMARK SMILES CCCCCCCCCCCCCCCCCCCCCCCCCCCC(=O)[O-]
REMARK SMILES IDX 15 1 16 2 17 3 18 4 19 5 20 6 21 7 22 8 23 9 24 10 25 11
REMARK SMILES IDX 26 12 27 13 28 14 29 15 30 16 14 17 13 18 12 19 11 20 10 21
REMARK SMILES IDX 9 22 8 23 7 24 6 25 5 26 4 27 3 28 2 29 1 30
REMARK H PARENT
REMARK Flexibility Score: inf
ROOT
ATOM      1  C   UNL     1     -20.253  24.760  46.198  1.00  0.00     0.000 C 
ENDROOT
BRANCH   1   2
ATOM      2  C   UNL     1     -20.469  26.067  45.420  1.00  0.00     0.000 C 
BRANCH   2   3
ATOM      3  C   UNL     1     -20.952  25.835  43.975  1.00  0.00     0.000 C 
BRANCH   3   4
ATOM      4  C   UNL     1     -20.130  26.547  42.880  1.00  0.00     0.000 C 
BRANCH   4   5
ATOM      5  C   UNL     1     -19.399  25.611  41.897  1.00  0.00     0.000 C 
BRANCH   5   6
ATOM      6  C   UNL     1     -18.579  24.487  42.562  1.00  0.00     0.000 C 
BRANCH   6   7
ATOM      7  C   UNL     1     -17.148  24.882  42.968  1.00  0.00     0.000 C 
BRANCH   7   8
ATOM      8  C   UNL     1     -17.019  25.196  44.467  1.00  0.00     0.000 C 
BRANCH   8   9
ATOM      9  C   UNL     1     -16.797  26.695  44.703  1.00  0.00     0.000 C 
BRANCH   9  10
ATOM     10  C   UNL     1     -16.412  27.404  43.396  1.00  0.00     0.000 C 
BRANCH  10  11
ATOM     11  C   UNL     1     -17.159  28.732  43.200  1.00  0.00     0.000 C 
BRANCH  11  12
ATOM     12  C   UNL     1     -17.302  29.117  41.719  1.00  0.00     0.006 C 
BRANCH  12  13
ATOM     13  C   UNL     1     -18.749  29.495  41.391  1.00  0.00     0.053 C 
BRANCH  13  14
ATOM     14  C   UNL     1     -19.269  30.488  42.382  1.00  0.00     0.041 C 
ATOM     15  O   UNL     1     -20.162  30.155  43.205  1.00  0.00    -0.550 OA
ATOM     16  O   UNL     1     -18.734  31.770  42.429  1.00  0.00    -0.550 OA
ENDBRANCH  13  14
ENDBRANCH  12  13
ENDBRANCH  11  12
ENDBRANCH  10  11
ENDBRANCH   9  10
ENDBRANCH   8   9
ENDBRANCH   7   8
ENDBRANCH   6   7
ENDBRANCH   5   6
ENDBRANCH   4   5
ENDBRANCH   3   4
ENDBRANCH   2   3
ENDBRANCH   1   2
BRANCH   1  17
ATOM     17  C   UNL     1     -20.929  23.550  45.530  1.00  0.00     0.000 C 
BRANCH  17  18
ATOM     18  C   UNL     1     -20.247  22.201  45.843  1.00  0.00     0.000 C 
BRANCH  18  19
ATOM     19  C   UNL     1     -18.771  22.178  45.405  1.00  0.00     0.000 C 
BRANCH  19  20
ATOM     20  C   UNL     1     -18.369  20.847  44.750  1.00  0.00     0.000 C 
BRANCH  20  21
ATOM     21  C   UNL     1     -17.300  21.021  43.657  1.00  0.00     0.000 C 
BRANCH  21  22
ATOM     22  C   UNL     1     -15.905  21.297  44.241  1.00  0.00    -0.000 C 
BRANCH  22  23
ATOM     23  C   UNL     1     -15.024  22.139  43.301  1.00  0.00    -0.000 C 
BRANCH  23  24
ATOM     24  C   UNL     1     -13.529  21.805  43.442  1.00  0.00    -0.000 C 
BRANCH  24  25
ATOM     25  C   UNL     1     -12.800  22.771  44.394  1.00  0.00    -0.000 C 
BRANCH  25  26
ATOM     26  C   UNL     1     -13.520  24.122  44.534  1.00  0.00    -0.000 C 
BRANCH  26  27
ATOM     27  C   UNL     1     -12.844  25.239  43.724  1.00  0.00    -0.000 C 
BRANCH  27  28
ATOM     28  C   UNL     1     -13.572  25.469  42.392  1.00  0.00    -0.000 C 
BRANCH  28  29
ATOM     29  C   UNL     1     -12.729  25.048  41.178  1.00  0.00    -0.003 C 
ATOM     30  C   UNL     1     -13.449  24.045  40.277  1.00  0.00     0.004 C 
ENDBRANCH  28  29
ENDBRANCH  27  28
ENDBRANCH  26  27
ENDBRANCH  25  26
ENDBRANCH  24  25
ENDBRANCH  23  24
ENDBRANCH  22  23
ENDBRANCH  21  22
ENDBRANCH  20  21
ENDBRANCH  19  20
ENDBRANCH  18  19
ENDBRANCH  17  18
ENDBRANCH   1  17
TORSDOF 26
ENDMDL
MODEL 5
REMARK VINA RESULT:    -3.174      3.770      6.361
REMARK INTER + INTRA:         -13.608
REMARK INTER:                  -8.513
REMARK INTRA:                  -5.095
REMARK UNBOUND:                -5.610
REMARK SMILES CCCCCCCCCCCCCCCCCCCCCCCCCCCC(=O)[O-]
REMARK SMILES IDX 15 1 16 2 17 3 18 4 19 5 20 6 21 7 22 8 23 9 24 10 25 11
REMARK SMILES IDX 26 12 27 13 28 14 29 15 30 16 14 17 13 18 12 19 11 20 10 21
REMARK SMILES IDX 9 22 8 23 7 24 6 25 5 26 4 27 3 28 2 29 1 30
REMARK H PARENT
REMARK Flexibility Score: inf
ROOT
ATOM      1  C   UNL     1     -18.090  21.329  45.262  1.00  0.00     0.000 C 
ENDROOT
BRANCH   1   2
ATOM      2  C   UNL     1     -17.834  21.242  43.749  1.00  0.00     0.000 C 
BRANCH   2   3
ATOM      3  C   UNL     1     -16.856  22.319  43.240  1.00  0.00     0.000 C 
BRANCH   3   4
ATOM      4  C   UNL     1     -17.438  23.305  42.206  1.00  0.00     0.000 C 
BRANCH   4   5
ATOM      5  C   UNL     1     -18.702  24.060  42.662  1.00  0.00     0.000 C 
BRANCH   5   6
ATOM      6  C   UNL     1     -18.663  25.585  42.433  1.00  0.00     0.000 C 
BRANCH   6   7
ATOM      7  C   UNL     1     -20.031  26.287  42.511  1.00  0.00     0.000 C 
BRANCH   7   8
ATOM      8  C   UNL     1     -20.134  27.258  43.699  1.00  0.00     0.000 C 
BRANCH   8   9
ATOM      9  C   UNL     1     -21.420  27.018  44.499  1.00  0.00     0.000 C 
BRANCH   9  10
ATOM     10  C   UNL     1     -22.155  25.767  43.996  1.00  0.00     0.000 C 
BRANCH  10  11
ATOM     11  C   UNL     1     -23.162  25.219  45.019  1.00  0.00     0.000 C 
BRANCH  11  12
ATOM     12  C   UNL     1     -23.949  24.013  44.485  1.00  0.00     0.006 C 
BRANCH  12  13
ATOM     13  C   UNL     1     -23.900  22.847  45.476  1.00  0.00     0.053 C 
BRANCH  13  14
ATOM     14  C   UNL     1     -25.183  22.755  46.242  1.00  0.00     0.041 C 
ATOM     15  O   UNL     1     -25.655  23.774  46.811  1.00  0.00    -0.550 OA
ATOM     16  O   UNL     1     -25.883  21.555  46.286  1.00  0.00    -0.550 OA
ENDBRANCH  13  14
ENDBRANCH  12  13
ENDBRANCH  11  12
ENDBRANCH  10  11
ENDBRANCH   9  10
ENDBRANCH   8   9
ENDBRANCH   7   8
ENDBRANCH   6   7
ENDBRANCH   5   6
ENDBRANCH   4   5
ENDBRANCH   3   4
ENDBRANCH   2   3
ENDBRANCH   1   2
BRANCH   1  17
ATOM     17  C   UNL     1     -19.461  20.760  45.668  1.00  0.00     0.000 C 
BRANCH  17  18
ATOM     18  C   UNL     1     -20.395  21.794  46.332  1.00  0.00     0.000 C 
BRANCH  18  19
ATOM     19  C   UNL     1     -20.161  23.220  45.798  1.00  0.00     0.000 C 
BRANCH  19  20
ATOM     20  C   UNL     1     -20.237  24.285  46.903  1.00  0.00     0.000 C 
BRANCH  20  21
ATOM     21  C   UNL     1     -19.103  25.321  46.811  1.00  0.00     0.000 C 
BRANCH  21  22
ATOM     22  C   UNL     1     -17.825  24.736  46.189  1.00  0.00    -0.000 C 
BRANCH  22  23
ATOM     23  C   UNL     1     -16.916  25.815  45.575  1.00  0.00    -0.000 C 
BRANCH  23  24
ATOM     24  C   UNL     1     -15.637  25.225  44.960  1.00  0.00    -0.000 C 
BRANCH  24  25
ATOM     25  C   UNL     1     -14.784  26.289  44.246  1.00  0.00    -0.000 C 
BRANCH  25  26
ATOM     26  C   UNL     1     -14.822  26.151  42.715  1.00  0.00    -0.000 C 
BRANCH  26  27
ATOM     27  C   UNL     1     -13.488  26.529  42.054  1.00  0.00    -0.000 C 
BRANCH  27  28
ATOM     28  C   UNL     1     -12.697  25.274  41.658  1.00  0.00    -0.000 C 
BRANCH  28  29
ATOM     29  C   UNL     1     -13.581  24.020  41.578  1.00  0.00    -0.003 C 
ATOM     30  C   UNL     1     -13.180  22.948  42.591  1.00  0.00     0.004 C 
ENDBRANCH  28  29
ENDBRANCH  27  28
ENDBRANCH  26  27
ENDBRANCH  25  26
ENDBRANCH  24  25
ENDBRANCH  23  24
ENDBRANCH  22  23
ENDBRANCH  21  22
ENDBRANCH  20  21
ENDBRANCH  19  20
ENDBRANCH  18  19
ENDBRANCH  17  18
ENDBRANCH   1  17
TORSDOF 26
ENDMDL
MODEL 6
REMARK VINA RESULT:    -3.153      2.807      5.851
REMARK INTER + INTRA:         -13.556
REMARK INTER:                  -8.271
REMARK INTRA:                  -5.284
REMARK UNBOUND:                -5.610
REMARK SMILES CCCCCCCCCCCCCCCCCCCCCCCCCCCC(=O)[O-]
REMARK SMILES IDX 15 1 16 2 17 3 18 4 19 5 20 6 21 7 22 8 23 9 24 10 25 11
REMARK SMILES IDX 26 12 27 13 28 14 29 15 30 16 14 17 13 18 12 19 11 20 10 21
REMARK SMILES IDX 9 22 8 23 7 24 6 25 5 26 4 27 3 28 2 29 1 30
REMARK H PARENT
REMARK Flexibility Score: inf
ROOT
ATOM      1  C   UNL     1     -23.147  23.716  45.550  1.00  0.00     0.000 C 
ENDROOT
BRANCH   1   2
ATOM      2  C   UNL     1     -22.239  24.597  44.678  1.00  0.00     0.000 C 
BRANCH   2   3
ATOM      3  C   UNL     1     -22.424  26.103  44.946  1.00  0.00     0.000 C 
BRANCH   3   4
ATOM      4  C   UNL     1     -21.423  26.726  45.942  1.00  0.00     0.000 C 
BRANCH   4   5
ATOM      5  C   UNL     1     -20.013  26.102  45.929  1.00  0.00     0.000 C 
BRANCH   5   6
ATOM      6  C   UNL     1     -19.426  25.801  47.322  1.00  0.00     0.000 C 
BRANCH   6   7
ATOM      7  C   UNL     1     -18.020  25.173  47.311  1.00  0.00     0.000 C 
BRANCH   7   8
ATOM      8  C   UNL     1     -17.649  24.571  45.945  1.00  0.00     0.000 C 
BRANCH   8   9
ATOM      9  C   UNL     1     -16.217  24.023  45.954  1.00  0.00     0.000 C 
BRANCH   9  10
ATOM     10  C   UNL     1     -15.407  24.585  44.776  1.00  0.00     0.000 C 
BRANCH  10  11
ATOM     11  C   UNL     1     -14.232  23.679  44.377  1.00  0.00     0.000 C 
BRANCH  11  12
ATOM     12  C   UNL     1     -14.394  23.087  42.969  1.00  0.00     0.006 C 
BRANCH  12  13
ATOM     13  C   UNL     1     -13.133  23.318  42.132  1.00  0.00     0.053 C 
BRANCH  13  14
ATOM     14  C   UNL     1     -13.370  24.386  41.112  1.00  0.00     0.041 C 
ATOM     15  O   UNL     1     -13.426  25.595  41.460  1.00  0.00    -0.550 OA
ATOM     16  O   UNL     1     -13.480  24.052  39.767  1.00  0.00    -0.550 OA
ENDBRANCH  13  14
ENDBRANCH  12  13
ENDBRANCH  11  12
ENDBRANCH  10  11
ENDBRANCH   9  10
ENDBRANCH   8   9
ENDBRANCH   7   8
ENDBRANCH   6   7
ENDBRANCH   5   6
ENDBRANCH   4   5
ENDBRANCH   3   4
ENDBRANCH   2   3
ENDBRANCH   1   2
BRANCH   1  17
ATOM     17  C   UNL     1     -22.356  22.820  46.519  1.00  0.00     0.000 C 
BRANCH  17  18
ATOM     18  C   UNL     1     -20.911  22.528  46.061  1.00  0.00     0.000 C 
BRANCH  18  19
ATOM     19  C   UNL     1     -20.033  21.991  47.207  1.00  0.00     0.000 C 
BRANCH  19  20
ATOM     20  C   UNL     1     -18.822  21.191  46.699  1.00  0.00     0.000 C 
BRANCH  20  21
ATOM     21  C   UNL     1     -18.927  20.837  45.205  1.00  0.00     0.000 C 
BRANCH  21  22
ATOM     22  C   UNL     1     -17.549  20.685  44.541  1.00  0.00    -0.000 C 
BRANCH  22  23
ATOM     23  C   UNL     1     -17.388  21.576  43.297  1.00  0.00    -0.000 C 
BRANCH  23  24
ATOM     24  C   UNL     1     -18.401  22.732  43.267  1.00  0.00    -0.000 C 
BRANCH  24  25
ATOM     25  C   UNL     1     -18.054  23.789  42.203  1.00  0.00    -0.000 C 
BRANCH  25  26
ATOM     26  C   UNL     1     -18.929  25.048  42.310  1.00  0.00    -0.000 C 
BRANCH  26  27
ATOM     27  C   UNL     1     -18.154  26.263  42.843  1.00  0.00    -0.000 C 
BRANCH  27  28
ATOM     28  C   UNL     1     -18.724  27.570  42.272  1.00  0.00    -0.000 C 
BRANCH  28  29
ATOM     29  C   UNL     1     -20.231  27.720  42.530  1.00  0.00    -0.003 C 
ATOM     30  C   UNL     1     -20.658  29.175  42.714  1.00  0.00     0.004 C 
ENDBRANCH  28  29
ENDBRANCH  27  28
ENDBRANCH  26  27
ENDBRANCH  25  26
ENDBRANCH  24  25
ENDBRANCH  23  24
ENDBRANCH  22  23
ENDBRANCH  21  22
ENDBRANCH  20  21
ENDBRANCH  19  20
ENDBRANCH  18  19
ENDBRANCH  17  18
ENDBRANCH   1  17
TORSDOF 26
ENDMDL
MODEL 7
REMARK VINA RESULT:    -3.110      2.943      7.237
REMARK INTER + INTRA:         -13.447
REMARK INTER:                  -7.874
REMARK INTRA:                  -5.573
REMARK UNBOUND:                -5.610
REMARK SMILES CCCCCCCCCCCCCCCCCCCCCCCCCCCC(=O)[O-]
REMARK SMILES IDX 15 1 16 2 17 3 18 4 19 5 20 6 21 7 22 8 23 9 24 10 25 11
REMARK SMILES IDX 26 12 27 13 28 14 29 15 30 16 14 17 13 18 12 19 11 20 10 21
REMARK SMILES IDX 9 22 8 23 7 24 6 25 5 26 4 27 3 28 2 29 1 30
REMARK H PARENT
REMARK Flexibility Score: inf
ROOT
ATOM      1  C   UNL     1     -21.008  26.392  43.482  1.00  0.00     0.000 C 
ENDROOT
BRANCH   1   2
ATOM      2  C   UNL     1     -20.179  25.099  43.546  1.00  0.00     0.000 C 
BRANCH   2   3
ATOM      3  C   UNL     1     -20.266  24.396  44.915  1.00  0.00     0.000 C 
BRANCH   3   4
ATOM      4  C   UNL     1     -18.990  24.474  45.780  1.00  0.00     0.000 C 
BRANCH   4   5
ATOM      5  C   UNL     1     -18.538  23.138  46.401  1.00  0.00     0.000 C 
BRANCH   5   6
ATOM      6  C   UNL     1     -19.433  21.930  46.059  1.00  0.00     0.000 C 
BRANCH   6   7
ATOM      7  C   UNL     1     -18.828  20.940  45.048  1.00  0.00     0.000 C 
BRANCH   7   8
ATOM      8  C   UNL     1     -17.290  20.942  45.061  1.00  0.00     0.000 C 
BRANCH   8   9
ATOM      9  C   UNL     1     -16.725  21.323  43.687  1.00  0.00     0.000 C 
BRANCH   9  10
ATOM     10  C   UNL     1     -17.729  22.176  42.898  1.00  0.00     0.000 C 
BRANCH  10  11
ATOM     11  C   UNL     1     -17.162  23.548  42.506  1.00  0.00     0.000 C 
BRANCH  11  12
ATOM     12  C   UNL     1     -15.999  23.988  43.408  1.00  0.00     0.006 C 
BRANCH  12  13
ATOM     13  C   UNL     1     -15.017  24.876  42.638  1.00  0.00     0.053 C 
BRANCH  13  14
ATOM     14  C   UNL     1     -13.998  24.040  41.931  1.00  0.00     0.041 C 
ATOM     15  O   UNL     1     -13.711  22.891  42.360  1.00  0.00    -0.550 OA
ATOM     16  O   UNL     1     -13.397  24.510  40.769  1.00  0.00    -0.550 OA
ENDBRANCH  13  14
ENDBRANCH  12  13
ENDBRANCH  11  12
ENDBRANCH  10  11
ENDBRANCH   9  10
ENDBRANCH   8   9
ENDBRANCH   7   8
ENDBRANCH   6   7
ENDBRANCH   5   6
ENDBRANCH   4   5
ENDBRANCH   3   4
ENDBRANCH   2   3
ENDBRANCH   1   2
BRANCH   1  17
ATOM     17  C   UNL     1     -21.871  26.610  44.737  1.00  0.00     0.000 C 
BRANCH  17  18
ATOM     18  C   UNL     1     -21.484  27.863  45.551  1.00  0.00     0.000 C 
BRANCH  18  19
ATOM     19  C   UNL     1     -20.181  28.509  45.045  1.00  0.00     0.000 C 
BRANCH  19  20
ATOM     20  C   UNL     1     -18.992  28.259  45.986  1.00  0.00     0.000 C 
BRANCH  20  21
ATOM     21  C   UNL     1     -17.633  28.421  45.283  1.00  0.00     0.000 C 
BRANCH  21  22
ATOM     22  C   UNL     1     -17.412  27.365  44.187  1.00  0.00    -0.000 C 
BRANCH  22  23
ATOM     23  C   UNL     1     -17.048  27.988  42.828  1.00  0.00    -0.000 C 
BRANCH  23  24
ATOM     24  C   UNL     1     -18.254  28.069  41.877  1.00  0.00    -0.000 C 
BRANCH  24  25
ATOM     25  C   UNL     1     -18.452  29.483  41.302  1.00  0.00    -0.000 C 
BRANCH  25  26
ATOM     26  C   UNL     1     -18.459  30.570  42.388  1.00  0.00    -0.000 C 
BRANCH  26  27
ATOM     27  C   UNL     1     -19.823  31.265  42.521  1.00  0.00    -0.000 C 
BRANCH  27  28
ATOM     28  C   UNL     1     -20.616  31.172  41.208  1.00  0.00    -0.000 C 
BRANCH  28  29
ATOM     29  C   UNL     1     -22.099  30.842  41.437  1.00  0.00    -0.003 C 
ATOM     30  C   UNL     1     -22.318  29.412  41.929  1.00  0.00     0.004 C 
ENDBRANCH  28  29
ENDBRANCH  27  28
ENDBRANCH  26  27
ENDBRANCH  25  26
ENDBRANCH  24  25
ENDBRANCH  23  24
ENDBRANCH  22  23
ENDBRANCH  21  22
ENDBRANCH  20  21
ENDBRANCH  19  20
ENDBRANCH  18  19
ENDBRANCH  17  18
ENDBRANCH   1  17
TORSDOF 26
ENDMDL
MODEL 8
REMARK VINA RESULT:    -3.108      2.886      6.829
REMARK INTER + INTRA:         -13.442
REMARK INTER:                  -7.916
REMARK INTRA:                  -5.526
REMARK UNBOUND:                -5.610
REMARK SMILES CCCCCCCCCCCCCCCCCCCCCCCCCCCC(=O)[O-]
REMARK SMILES IDX 15 1 16 2 17 3 18 4 19 5 20 6 21 7 22 8 23 9 24 10 25 11
REMARK SMILES IDX 26 12 27 13 28 14 29 15 30 16 14 17 13 18 12 19 11 20 10 21
REMARK SMILES IDX 9 22 8 23 7 24 6 25 5 26 4 27 3 28 2 29 1 30
REMARK H PARENT
REMARK Flexibility Score: inf
ROOT
ATOM      1  C   UNL     1     -19.183  23.273  46.426  1.00  0.00     0.000 C 
ENDROOT
BRANCH   1   2
ATOM      2  C   UNL     1     -19.413  22.456  45.144  1.00  0.00     0.000 C 
BRANCH   2   3
ATOM      3  C   UNL     1     -18.746  21.067  45.187  1.00  0.00     0.000 C 
BRANCH   3   4
ATOM      4  C   UNL     1     -17.759  20.772  44.038  1.00  0.00     0.000 C 
BRANCH   4   5
ATOM      5  C   UNL     1     -17.380  21.990  43.172  1.00  0.00     0.000 C 
BRANCH   5   6
ATOM      6  C   UNL     1     -15.922  22.468  43.330  1.00  0.00     0.000 C 
BRANCH   6   7
ATOM      7  C   UNL     1     -14.912  21.361  43.681  1.00  0.00     0.000 C 
BRANCH   7   8
ATOM      8  C   UNL     1     -14.167  21.630  44.998  1.00  0.00     0.000 C 
BRANCH   8   9
ATOM      9  C   UNL     1     -14.823  22.775  45.781  1.00  0.00     0.000 C 
BRANCH   9  10
ATOM     10  C   UNL     1     -13.797  23.867  46.118  1.00  0.00     0.000 C 
BRANCH  10  11
ATOM     11  C   UNL     1     -12.621  23.902  45.131  1.00  0.00     0.000 C 
BRANCH  11  12
ATOM     12  C   UNL     1     -12.874  24.841  43.942  1.00  0.00     0.006 C 
BRANCH  12  13
ATOM     13  C   UNL     1     -12.679  24.105  42.614  1.00  0.00     0.053 C 
BRANCH  13  14
ATOM     14  C   UNL     1     -13.164  24.944  41.474  1.00  0.00     0.041 C 
ATOM     15  O   UNL     1     -13.210  26.197  41.583  1.00  0.00    -0.550 OA
ATOM     16  O   UNL     1     -13.520  24.345  40.271  1.00  0.00    -0.550 OA
ENDBRANCH  13  14
ENDBRANCH  12  13
ENDBRANCH  11  12
ENDBRANCH  10  11
ENDBRANCH   9  10
ENDBRANCH   8   9
ENDBRANCH   7   8
ENDBRANCH   6   7
ENDBRANCH   5   6
ENDBRANCH   4   5
ENDBRANCH   3   4
ENDBRANCH   2   3
ENDBRANCH   1   2
BRANCH   1  17
ATOM     17  C   UNL     1     -18.057  24.311  46.276  1.00  0.00     0.000 C 
BRANCH  17  18
ATOM     18  C   UNL     1     -18.540  25.774  46.373  1.00  0.00     0.000 C 
BRANCH  18  19
ATOM     19  C   UNL     1     -17.647  26.737  45.569  1.00  0.00     0.000 C 
BRANCH  19  20
ATOM     20  C   UNL     1     -16.410  26.043  44.977  1.00  0.00     0.000 C 
BRANCH  20  21
ATOM     21  C   UNL     1     -16.352  26.137  43.443  1.00  0.00     0.000 C 
BRANCH  21  22
ATOM     22  C   UNL     1     -17.699  26.553  42.830  1.00  0.00    -0.000 C 
BRANCH  22  23
ATOM     23  C   UNL     1     -18.484  25.360  42.255  1.00  0.00    -0.000 C 
BRANCH  23  24
ATOM     24  C   UNL     1     -19.886  25.228  42.871  1.00  0.00    -0.000 C 
BRANCH  24  25
ATOM     25  C   UNL     1     -20.550  26.595  43.118  1.00  0.00    -0.000 C 
BRANCH  25  26
ATOM     26  C   UNL     1     -21.776  26.501  44.040  1.00  0.00    -0.000 C 
BRANCH  26  27
ATOM     27  C   UNL     1     -21.818  25.188  44.836  1.00  0.00    -0.000 C 
BRANCH  27  28
ATOM     28  C   UNL     1     -23.245  24.885  45.318  1.00  0.00    -0.000 C 
BRANCH  28  29
ATOM     29  C   UNL     1     -23.648  23.420  45.084  1.00  0.00    -0.003 C 
ATOM     30  C   UNL     1     -25.143  23.179  45.284  1.00  0.00     0.004 C 
ENDBRANCH  28  29
ENDBRANCH  27  28
ENDBRANCH  26  27
ENDBRANCH  25  26
ENDBRANCH  24  25
ENDBRANCH  23  24
ENDBRANCH  22  23
ENDBRANCH  21  22
ENDBRANCH  20  21
ENDBRANCH  19  20
ENDBRANCH  18  19
ENDBRANCH  17  18
ENDBRANCH   1  17
TORSDOF 26
ENDMDL
MODEL 9
REMARK VINA RESULT:    -3.093      1.642      4.519
REMARK INTER + INTRA:         -13.405
REMARK INTER:                  -8.322
REMARK INTRA:                  -5.083
REMARK UNBOUND:                -5.610
REMARK SMILES CCCCCCCCCCCCCCCCCCCCCCCCCCCC(=O)[O-]
REMARK SMILES IDX 15 1 16 2 17 3 18 4 19 5 20 6 21 7 22 8 23 9 24 10 25 11
REMARK SMILES IDX 26 12 27 13 28 14 29 15 30 16 14 17 13 18 12 19 11 20 10 21
REMARK SMILES IDX 9 22 8 23 7 24 6 25 5 26 4 27 3 28 2 29 1 30
REMARK H PARENT
REMARK Flexibility Score: inf
ROOT
ATOM      1  C   UNL     1     -18.047  23.821  42.488  1.00  0.00     0.000 C 
ENDROOT
BRANCH   1   2
ATOM      2  C   UNL     1     -19.050  24.376  43.512  1.00  0.00     0.000 C 
BRANCH   2   3
ATOM      3  C   UNL     1     -18.438  24.562  44.915  1.00  0.00     0.000 C 
BRANCH   3   4
ATOM      4  C   UNL     1     -19.147  23.797  46.052  1.00  0.00     0.000 C 
BRANCH   4   5
ATOM      5  C   UNL     1     -20.108  22.683  45.591  1.00  0.00     0.000 C 
BRANCH   5   6
ATOM      6  C   UNL     1     -21.596  22.943  45.903  1.00  0.00     0.000 C 
BRANCH   6   7
ATOM      7  C   UNL     1     -22.010  24.426  45.897  1.00  0.00     0.000 C 
BRANCH   7   8
ATOM      8  C   UNL     1     -22.678  24.852  44.579  1.00  0.00     0.000 C 
BRANCH   8   9
ATOM      9  C   UNL     1     -22.075  26.158  44.050  1.00  0.00     0.000 C 
BRANCH   9  10
ATOM     10  C   UNL     1     -21.302  26.893  45.154  1.00  0.00     0.000 C 
BRANCH  10  11
ATOM     11  C   UNL     1     -20.682  28.212  44.668  1.00  0.00     0.000 C 
BRANCH  11  12
ATOM     12  C   UNL     1     -19.300  28.016  44.027  1.00  0.00     0.006 C 
BRANCH  12  13
ATOM     13  C   UNL     1     -19.374  28.188  42.507  1.00  0.00     0.053 C 
BRANCH  13  14
ATOM     14  C   UNL     1     -19.761  29.590  42.157  1.00  0.00     0.041 C 
ATOM     15  O   UNL     1     -18.951  30.537  42.339  1.00  0.00    -0.550 OA
ATOM     16  O   UNL     1     -21.001  29.847  41.583  1.00  0.00    -0.550 OA
ENDBRANCH  13  14
ENDBRANCH  12  13
ENDBRANCH  11  12
ENDBRANCH  10  11
ENDBRANCH   9  10
ENDBRANCH   8   9
ENDBRANCH   7   8
ENDBRANCH   6   7
ENDBRANCH   5   6
ENDBRANCH   4   5
ENDBRANCH   3   4
ENDBRANCH   2   3
ENDBRANCH   1   2
BRANCH   1  17
ATOM     17  C   UNL     1     -18.004  22.283  42.470  1.00  0.00     0.000 C 
BRANCH  17  18
ATOM     18  C   UNL     1     -16.893  21.679  43.356  1.00  0.00     0.000 C 
BRANCH  18  19
ATOM     19  C   UNL     1     -17.433  20.601  44.314  1.00  0.00     0.000 C 
BRANCH  19  20
ATOM     20  C   UNL     1     -16.680  20.571  45.654  1.00  0.00     0.000 C 
BRANCH  20  21
ATOM     21  C   UNL     1     -15.911  21.874  45.933  1.00  0.00     0.000 C 
BRANCH  21  22
ATOM     22  C   UNL     1     -14.435  21.619  46.283  1.00  0.00    -0.000 C 
BRANCH  22  23
ATOM     23  C   UNL     1     -13.819  20.474  45.460  1.00  0.00    -0.000 C 
BRANCH  23  24
ATOM     24  C   UNL     1     -13.350  20.936  44.071  1.00  0.00    -0.000 C 
BRANCH  24  25
ATOM     25  C   UNL     1     -12.313  22.072  44.149  1.00  0.00    -0.000 C 
BRANCH  25  26
ATOM     26  C   UNL     1     -12.840  23.396  43.576  1.00  0.00    -0.000 C 
BRANCH  26  27
ATOM     27  C   UNL     1     -13.438  23.236  42.170  1.00  0.00    -0.000 C 
BRANCH  27  28
ATOM     28  C   UNL     1     -14.426  24.371  41.861  1.00  0.00    -0.000 C 
BRANCH  28  29
ATOM     29  C   UNL     1     -14.143  25.639  42.682  1.00  0.00    -0.003 C 
ATOM     30  C   UNL     1     -15.394  26.194  43.362  1.00  0.00     0.004 C 
ENDBRANCH  28  29
ENDBRANCH  27  28
ENDBRANCH  26  27
ENDBRANCH  25  26
ENDBRANCH  24  25
ENDBRANCH  23  24
ENDBRANCH  22  23
ENDBRANCH  21  22
ENDBRANCH  20  21
ENDBRANCH  19  20
ENDBRANCH  18  19
ENDBRANCH  17  18
ENDBRANCH   1  17
TORSDOF 26
ENDMDL
