MODEL 1
REMARK VINA RESULT:    -7.176      0.000      0.000
REMARK INTER + INTRA:          -8.931
REMARK INTER:                  -8.644
REMARK INTRA:                  -0.287
REMARK UNBOUND:                -0.287
REMARK SMILES O=c1c(O)c(-c2ccc(O)c(O)c2)oc2cc(O)cc(O)c12
REMARK SMILES IDX 5 1 3 2 2 3 1 4 22 5 20 6 19 7 17 8 16 9 15 10 14 11 6 12
REMARK SMILES IDX 7 13 8 14 9 15 13 16 11 17 10 18 12 20 4 22 21 24 18 26
REMARK H PARENT 10 19 12 21 4 23 21 25 18 27
REMARK Flexibility Score: inf
ROOT
ATOM      1  C   UNL     1     -36.792  -9.375  21.736  1.00  0.00     0.180 A 
ATOM      2  C   UNL     1     -36.454 -10.717  21.497  1.00  0.00     0.208 A 
ATOM      3  C   UNL     1     -35.137 -11.142  21.739  1.00  0.00     0.238 A 
ATOM      4  O   UNL     1     -34.826 -12.332  21.472  1.00  0.00    -0.285 OA
ATOM      5  C   UNL     1     -34.180 -10.222  22.233  1.00  0.00     0.111 A 
ATOM      6  C   UNL     1     -32.828 -10.551  22.551  1.00  0.00     0.134 A 
ATOM      7  C   UNL     1     -31.935  -9.534  22.907  1.00  0.00     0.093 A 
ATOM      8  C   UNL     1     -32.361  -8.207  23.020  1.00  0.00     0.123 A 
ATOM      9  C   UNL     1     -33.693  -7.886  22.769  1.00  0.00     0.094 A 
ATOM     10  C   UNL     1     -34.599  -8.873  22.376  1.00  0.00     0.146 A 
ATOM     11  O   UNL     1     -35.857  -8.522  22.136  1.00  0.00    -0.452 OA
ENDROOT
BRANCH   1  12
ATOM     12  C   UNL     1     -38.165  -8.859  21.529  1.00  0.00     0.025 A 
ATOM     13  C   UNL     1     -39.025  -8.723  22.629  1.00  0.00     0.016 A 
ATOM     14  C   UNL     1     -40.331  -8.258  22.453  1.00  0.00     0.051 A 
ATOM     15  C   UNL     1     -40.800  -7.938  21.173  1.00  0.00     0.157 A 
ATOM     16  C   UNL     1     -38.646  -8.556  20.242  1.00  0.00     0.062 A 
ATOM     17  C   UNL     1     -39.958  -8.091  20.064  1.00  0.00     0.158 A 
BRANCH  15  18
ATOM     18  O   UNL     1     -42.101  -7.472  20.994  1.00  0.00    -0.504 OA
ATOM     19  H   UNL     1     -42.902  -8.084  21.096  1.00  0.00     0.293 HD
ENDBRANCH  15  18
BRANCH  17  20
ATOM     20  O   UNL     1     -40.432  -7.785  18.790  1.00  0.00    -0.504 OA
ATOM     21  H   UNL     1     -40.043  -8.220  17.961  1.00  0.00     0.293 HD
ENDBRANCH  17  20
ENDBRANCH   1  12
BRANCH   2  22
ATOM     22  O   UNL     1     -37.408 -11.604  20.990  1.00  0.00    -0.502 OA
ATOM     23  H   UNL     1     -38.042 -12.121  21.587  1.00  0.00     0.293 HD
ENDBRANCH   2  22
BRANCH   6  24
ATOM     24  O   UNL     1     -32.324 -11.855  22.559  1.00  0.00    -0.507 OA
ATOM     25  H   UNL     1     -31.353 -12.095  22.691  1.00  0.00     0.293 HD
ENDBRANCH   6  24
BRANCH   8  26
ATOM     26  O   UNL     1     -31.469  -7.204  23.390  1.00  0.00    -0.508 OA
ATOM     27  H   UNL     1     -30.576  -7.419  23.816  1.00  0.00     0.293 HD
ENDBRANCH   8  26
TORSDOF 6
ENDMDL
MODEL 2
REMARK VINA RESULT:    -6.937      1.485      6.977
REMARK INTER + INTRA:          -8.644
REMARK INTER:                  -8.309
REMARK INTRA:                  -0.335
REMARK UNBOUND:                -0.287
REMARK SMILES O=c1c(O)c(-c2ccc(O)c(O)c2)oc2cc(O)cc(O)c12
REMARK SMILES IDX 5 1 3 2 2 3 1 4 22 5 20 6 19 7 17 8 16 9 15 10 14 11 6 12
REMARK SMILES IDX 7 13 8 14 9 15 13 16 11 17 10 18 12 20 4 22 21 24 18 26
REMARK H PARENT 10 19 12 21 4 23 21 25 18 27
REMARK Flexibility Score: inf
ROOT
ATOM      1  C   UNL     1     -36.391  -8.684  22.002  1.00  0.00     0.180 A 
ATOM      2  C   UNL     1     -37.433  -8.807  22.935  1.00  0.00     0.208 A 
ATOM      3  C   UNL     1     -38.747  -8.521  22.530  1.00  0.00     0.238 A 
ATOM      4  O   UNL     1     -39.670  -8.580  23.384  1.00  0.00    -0.285 OA
ATOM      5  C   UNL     1     -39.003  -8.134  21.192  1.00  0.00     0.111 A 
ATOM      6  C   UNL     1     -40.300  -7.859  20.662  1.00  0.00     0.134 A 
ATOM      7  C   UNL     1     -40.421  -7.357  19.361  1.00  0.00     0.093 A 
ATOM      8  C   UNL     1     -39.298  -7.181  18.548  1.00  0.00     0.123 A 
ATOM      9  C   UNL     1     -38.034  -7.503  19.037  1.00  0.00     0.094 A 
ATOM     10  C   UNL     1     -37.877  -7.971  20.344  1.00  0.00     0.146 A 
ATOM     11  O   UNL     1     -36.654  -8.256  20.774  1.00  0.00    -0.452 OA
ENDROOT
BRANCH   1  12
ATOM     12  C   UNL     1     -34.983  -8.992  22.348  1.00  0.00     0.025 A 
ATOM     13  C   UNL     1     -34.134  -7.958  22.773  1.00  0.00     0.016 A 
ATOM     14  C   UNL     1     -32.798  -8.223  23.084  1.00  0.00     0.051 A 
ATOM     15  C   UNL     1     -32.288  -9.521  22.959  1.00  0.00     0.157 A 
ATOM     16  C   UNL     1     -34.462 -10.291  22.205  1.00  0.00     0.062 A 
ATOM     17  C   UNL     1     -33.119 -10.556  22.515  1.00  0.00     0.158 A 
BRANCH  15  18
ATOM     18  O   UNL     1     -30.957  -9.789  23.271  1.00  0.00    -0.504 OA
ATOM     19  H   UNL     1     -30.611 -10.739  23.348  1.00  0.00     0.293 HD
ENDBRANCH  15  18
BRANCH  17  20
ATOM     20  O   UNL     1     -32.605 -11.845  22.378  1.00  0.00    -0.504 OA
ATOM     21  H   UNL     1     -33.067 -12.646  22.792  1.00  0.00     0.293 HD
ENDBRANCH  17  20
ENDBRANCH   1  12
BRANCH   2  22
ATOM     22  O   UNL     1     -37.156  -9.171  24.256  1.00  0.00    -0.502 OA
ATOM     23  H   UNL     1     -36.211  -9.240  24.615  1.00  0.00     0.293 HD
ENDBRANCH   2  22
BRANCH   6  24
ATOM     24  O   UNL     1     -41.491  -8.087  21.357  1.00  0.00    -0.507 OA
ATOM     25  H   UNL     1     -42.367  -8.345  20.927  1.00  0.00     0.293 HD
ENDBRANCH   6  24
BRANCH   8  26
ATOM     26  O   UNL     1     -39.430  -6.696  17.249  1.00  0.00    -0.508 OA
ATOM     27  H   UNL     1     -40.022  -5.901  17.038  1.00  0.00     0.293 HD
ENDBRANCH   8  26
TORSDOF 6
ENDMDL
MODEL 3
REMARK VINA RESULT:    -6.843      1.829      7.041
REMARK INTER + INTRA:          -8.529
REMARK INTER:                  -8.672
REMARK INTRA:                   0.142
REMARK UNBOUND:                -0.287
REMARK SMILES O=c1c(O)c(-c2ccc(O)c(O)c2)oc2cc(O)cc(O)c12
REMARK SMILES IDX 5 1 3 2 2 3 1 4 22 5 20 6 19 7 17 8 16 9 15 10 14 11 6 12
REMARK SMILES IDX 7 13 8 14 9 15 13 16 11 17 10 18 12 20 4 22 21 24 18 26
REMARK H PARENT 10 19 12 21 4 23 21 25 18 27
REMARK Flexibility Score: inf
ROOT
ATOM      1  C   UNL     1     -34.211  -9.611  22.766  1.00  0.00     0.180 A 
ATOM      2  C   UNL     1     -34.660 -10.741  22.062  1.00  0.00     0.208 A 
ATOM      3  C   UNL     1     -36.023 -10.848  21.744  1.00  0.00     0.238 A 
ATOM      4  O   UNL     1     -36.429 -11.887  21.161  1.00  0.00    -0.285 OA
ATOM      5  C   UNL     1     -36.917  -9.815  22.118  1.00  0.00     0.111 A 
ATOM      6  C   UNL     1     -38.311  -9.800  21.813  1.00  0.00     0.134 A 
ATOM      7  C   UNL     1     -39.124  -8.793  22.346  1.00  0.00     0.093 A 
ATOM      8  C   UNL     1     -38.582  -7.763  23.120  1.00  0.00     0.123 A 
ATOM      9  C   UNL     1     -37.213  -7.738  23.374  1.00  0.00     0.094 A 
ATOM     10  C   UNL     1     -36.381  -8.749  22.886  1.00  0.00     0.146 A 
ATOM     11  O   UNL     1     -35.084  -8.692  23.160  1.00  0.00    -0.452 OA
ENDROOT
BRANCH   1  12
ATOM     12  C   UNL     1     -32.785  -9.415  23.116  1.00  0.00     0.025 A 
ATOM     13  C   UNL     1     -32.195  -8.155  22.932  1.00  0.00     0.016 A 
ATOM     14  C   UNL     1     -30.846  -7.953  23.236  1.00  0.00     0.051 A 
ATOM     15  C   UNL     1     -30.065  -9.013  23.713  1.00  0.00     0.157 A 
ATOM     16  C   UNL     1     -31.991 -10.482  23.575  1.00  0.00     0.062 A 
ATOM     17  C   UNL     1     -30.636 -10.281  23.879  1.00  0.00     0.158 A 
BRANCH  15  18
ATOM     18  O   UNL     1     -28.720  -8.816  24.019  1.00  0.00    -0.504 OA
ATOM     19  H   UNL     1     -28.376  -7.920  24.347  1.00  0.00     0.293 HD
ENDBRANCH  15  18
BRANCH  17  20
ATOM     20  O   UNL     1     -29.852 -11.337  24.340  1.00  0.00    -0.504 OA
ATOM     21  H   UNL     1     -29.105 -11.728  23.777  1.00  0.00     0.293 HD
ENDBRANCH  17  20
ENDBRANCH   1  12
BRANCH   2  22
ATOM     22  O   UNL     1     -33.764 -11.758  21.720  1.00  0.00    -0.502 OA
ATOM     23  H   UNL     1     -32.973 -11.603  21.107  1.00  0.00     0.293 HD
ENDBRANCH   2  22
BRANCH   6  24
ATOM     24  O   UNL     1     -38.937 -10.728  20.974  1.00  0.00    -0.507 OA
ATOM     25  H   UNL     1     -38.939 -11.726  21.123  1.00  0.00     0.293 HD
ENDBRANCH   6  24
BRANCH   8  26
ATOM     26  O   UNL     1     -39.395  -6.757  23.634  1.00  0.00    -0.508 OA
ATOM     27  H   UNL     1     -39.659  -5.952  23.077  1.00  0.00     0.293 HD
ENDBRANCH   8  26
TORSDOF 6
ENDMDL
MODEL 4
REMARK VINA RESULT:    -6.676      1.700      6.948
REMARK INTER + INTRA:          -8.329
REMARK INTER:                  -8.037
REMARK INTRA:                  -0.293
REMARK UNBOUND:                -0.287
REMARK SMILES O=c1c(O)c(-c2ccc(O)c(O)c2)oc2cc(O)cc(O)c12
REMARK SMILES IDX 5 1 3 2 2 3 1 4 22 5 20 6 19 7 17 8 16 9 15 10 14 11 6 12
REMARK SMILES IDX 7 13 8 14 9 15 13 16 11 17 10 18 12 20 4 22 21 24 18 26
REMARK H PARENT 10 19 12 21 4 23 21 25 18 27
REMARK Flexibility Score: inf
ROOT
ATOM      1  C   UNL     1     -35.341  -8.870  22.286  1.00  0.00     0.180 A 
ATOM      2  C   UNL     1     -35.815  -9.112  20.987  1.00  0.00     0.208 A 
ATOM      3  C   UNL     1     -37.189  -8.983  20.728  1.00  0.00     0.238 A 
ATOM      4  O   UNL     1     -37.615  -9.254  19.574  1.00  0.00    -0.285 OA
ATOM      5  C   UNL     1     -38.069  -8.598  21.768  1.00  0.00     0.111 A 
ATOM      6  C   UNL     1     -39.473  -8.399  21.610  1.00  0.00     0.134 A 
ATOM      7  C   UNL     1     -40.266  -8.146  22.736  1.00  0.00     0.093 A 
ATOM      8  C   UNL     1     -39.696  -8.021  24.006  1.00  0.00     0.123 A 
ATOM      9  C   UNL     1     -38.318  -8.155  24.161  1.00  0.00     0.094 A 
ATOM     10  C   UNL     1     -37.505  -8.444  23.062  1.00  0.00     0.146 A 
ATOM     11  O   UNL     1     -36.198  -8.574  23.255  1.00  0.00    -0.452 OA
ENDROOT
BRANCH   1  12
ATOM     12  C   UNL     1     -33.903  -8.960  22.631  1.00  0.00     0.025 A 
ATOM     13  C   UNL     1     -33.126  -7.792  22.667  1.00  0.00     0.016 A 
ATOM     14  C   UNL     1     -31.763  -7.857  22.969  1.00  0.00     0.051 A 
ATOM     15  C   UNL     1     -31.155  -9.093  23.223  1.00  0.00     0.157 A 
ATOM     16  C   UNL     1     -33.283 -10.201  22.867  1.00  0.00     0.062 A 
ATOM     17  C   UNL     1     -31.914 -10.268  23.168  1.00  0.00     0.158 A 
BRANCH  15  18
ATOM     18  O   UNL     1     -29.797  -9.161  23.527  1.00  0.00    -0.504 OA
ATOM     19  H   UNL     1     -29.105  -8.664  22.978  1.00  0.00     0.293 HD
ENDBRANCH  15  18
BRANCH  17  20
ATOM     20  O   UNL     1     -31.303 -11.497  23.407  1.00  0.00    -0.504 OA
ATOM     21  H   UNL     1     -31.575 -12.081  24.190  1.00  0.00     0.293 HD
ENDBRANCH  17  20
ENDBRANCH   1  12
BRANCH   2  22
ATOM     22  O   UNL     1     -34.932  -9.511  19.979  1.00  0.00    -0.502 OA
ATOM     23  H   UNL     1     -34.947  -9.105  19.051  1.00  0.00     0.293 HD
ENDBRANCH   2  22
BRANCH   6  24
ATOM     24  O   UNL     1     -40.129  -8.411  20.375  1.00  0.00    -0.507 OA
ATOM     25  H   UNL     1     -40.251  -7.604  19.781  1.00  0.00     0.293 HD
ENDBRANCH   6  24
BRANCH   8  26
ATOM     26  O   UNL     1     -40.490  -7.755  25.119  1.00  0.00    -0.508 OA
ATOM     27  H   UNL     1     -41.285  -7.129  25.064  1.00  0.00     0.293 HD
ENDBRANCH   8  26
TORSDOF 6
ENDMDL
MODEL 5
REMARK VINA RESULT:    -6.674      1.219      2.971
REMARK INTER + INTRA:          -8.326
REMARK INTER:                  -7.996
REMARK INTRA:                  -0.331
REMARK UNBOUND:                -0.287
REMARK SMILES O=c1c(O)c(-c2ccc(O)c(O)c2)oc2cc(O)cc(O)c12
REMARK SMILES IDX 5 1 3 2 2 3 1 4 22 5 20 6 19 7 17 8 16 9 15 10 14 11 6 12
REMARK SMILES IDX 7 13 8 14 9 15 13 16 11 17 10 18 12 20 4 22 21 24 18 26
REMARK H PARENT 10 19 12 21 4 23 21 25 18 27
REMARK Flexibility Score: inf
ROOT
ATOM      1  C   UNL     1     -36.425  -8.029  22.046  1.00  0.00     0.180 A 
ATOM      2  C   UNL     1     -35.708  -6.867  22.372  1.00  0.00     0.208 A 
ATOM      3  C   UNL     1     -34.338  -6.970  22.663  1.00  0.00     0.238 A 
ATOM      4  O   UNL     1     -33.713  -5.933  23.008  1.00  0.00    -0.285 OA
ATOM      5  C   UNL     1     -33.700  -8.233  22.607  1.00  0.00     0.111 A 
ATOM      6  C   UNL     1     -32.309  -8.449  22.844  1.00  0.00     0.134 A 
ATOM      7  C   UNL     1     -31.812  -9.757  22.890  1.00  0.00     0.093 A 
ATOM      8  C   UNL     1     -32.643 -10.854  22.645  1.00  0.00     0.123 A 
ATOM      9  C   UNL     1     -33.990 -10.648  22.354  1.00  0.00     0.094 A 
ATOM     10  C   UNL     1     -34.523  -9.357  22.337  1.00  0.00     0.146 A 
ATOM     11  O   UNL     1     -35.814  -9.207  22.066  1.00  0.00    -0.452 OA
ENDROOT
BRANCH   1  12
ATOM     12  C   UNL     1     -37.866  -7.996  21.703  1.00  0.00     0.025 A 
ATOM     13  C   UNL     1     -38.822  -8.185  22.714  1.00  0.00     0.016 A 
ATOM     14  C   UNL     1     -40.185  -8.178  22.409  1.00  0.00     0.051 A 
ATOM     15  C   UNL     1     -40.612  -7.999  21.087  1.00  0.00     0.157 A 
ATOM     16  C   UNL     1     -38.299  -7.837  20.374  1.00  0.00     0.062 A 
ATOM     17  C   UNL     1     -39.668  -7.833  20.066  1.00  0.00     0.158 A 
BRANCH  15  18
ATOM     18  O   UNL     1     -41.971  -7.989  20.779  1.00  0.00    -0.504 OA
ATOM     19  H   UNL     1     -42.301  -8.115  19.829  1.00  0.00     0.293 HD
ENDBRANCH  15  18
BRANCH  17  20
ATOM     20  O   UNL     1     -40.095  -7.669  18.750  1.00  0.00    -0.504 OA
ATOM     21  H   UNL     1     -41.068  -7.492  18.526  1.00  0.00     0.293 HD
ENDBRANCH  17  20
ENDBRANCH   1  12
BRANCH   2  22
ATOM     22  O   UNL     1     -36.362  -5.633  22.442  1.00  0.00    -0.502 OA
ATOM     23  H   UNL     1     -36.177  -4.960  23.176  1.00  0.00     0.293 HD
ENDBRANCH   2  22
BRANCH   6  24
ATOM     24  O   UNL     1     -31.377  -7.421  23.010  1.00  0.00    -0.507 OA
ATOM     25  H   UNL     1     -30.889  -7.221  23.870  1.00  0.00     0.293 HD
ENDBRANCH   6  24
BRANCH   8  26
ATOM     26  O   UNL     1     -32.137 -12.150  22.678  1.00  0.00    -0.508 OA
ATOM     27  H   UNL     1     -32.050 -12.663  23.548  1.00  0.00     0.293 HD
ENDBRANCH   8  26
TORSDOF 6
ENDMDL
MODEL 6
REMARK VINA RESULT:    -6.545      2.392      7.759
REMARK INTER + INTRA:          -8.171
REMARK INTER:                  -7.848
REMARK INTRA:                  -0.323
REMARK UNBOUND:                -0.287
REMARK SMILES O=c1c(O)c(-c2ccc(O)c(O)c2)oc2cc(O)cc(O)c12
REMARK SMILES IDX 5 1 3 2 2 3 1 4 22 5 20 6 19 7 17 8 16 9 15 10 14 11 6 12
REMARK SMILES IDX 7 13 8 14 9 15 13 16 11 17 10 18 12 20 4 22 21 24 18 26
REMARK H PARENT 10 19 12 21 4 23 21 25 18 27
REMARK Flexibility Score: inf
ROOT
ATOM      1  C   UNL     1     -32.861  -9.041  22.137  1.00  0.00     0.180 A 
ATOM      2  C   UNL     1     -33.204  -7.889  21.410  1.00  0.00     0.208 A 
ATOM      3  C   UNL     1     -34.481  -7.802  20.834  1.00  0.00     0.238 A 
ATOM      4  O   UNL     1     -34.764  -6.791  20.138  1.00  0.00    -0.285 OA
ATOM      5  C   UNL     1     -35.406  -8.861  21.006  1.00  0.00     0.111 A 
ATOM      6  C   UNL     1     -36.740  -8.863  20.501  1.00  0.00     0.134 A 
ATOM      7  C   UNL     1     -37.522 -10.018  20.619  1.00  0.00     0.093 A 
ATOM      8  C   UNL     1     -37.040 -11.150  21.282  1.00  0.00     0.123 A 
ATOM      9  C   UNL     1     -35.760 -11.136  21.831  1.00  0.00     0.094 A 
ATOM     10  C   UNL     1     -34.942 -10.011  21.697  1.00  0.00     0.146 A 
ATOM     11  O   UNL     1     -33.726 -10.044  22.226  1.00  0.00    -0.452 OA
ENDROOT
BRANCH   1  12
ATOM     12  C   UNL     1     -31.543  -9.195  22.795  1.00  0.00     0.025 A 
ATOM     13  C   UNL     1     -31.363  -8.718  24.103  1.00  0.00     0.016 A 
ATOM     14  C   UNL     1     -30.122  -8.834  24.735  1.00  0.00     0.051 A 
ATOM     15  C   UNL     1     -29.039  -9.414  24.061  1.00  0.00     0.157 A 
ATOM     16  C   UNL     1     -30.447  -9.758  22.115  1.00  0.00     0.062 A 
ATOM     17  C   UNL     1     -29.200  -9.873  22.748  1.00  0.00     0.158 A 
BRANCH  15  18
ATOM     18  O   UNL     1     -27.801  -9.534  24.689  1.00  0.00    -0.504 OA
ATOM     19  H   UNL     1     -27.722  -9.616  25.696  1.00  0.00     0.293 HD
ENDBRANCH  15  18
BRANCH  17  20
ATOM     20  O   UNL     1     -28.117 -10.436  22.076  1.00  0.00    -0.504 OA
ATOM     21  H   UNL     1     -27.247 -10.645  22.553  1.00  0.00     0.293 HD
ENDBRANCH  17  20
ENDBRANCH   1  12
BRANCH   2  22
ATOM     22  O   UNL     1     -32.270  -6.864  21.234  1.00  0.00    -0.502 OA
ATOM     23  H   UNL     1     -32.066  -6.464  20.327  1.00  0.00     0.293 HD
ENDBRANCH   2  22
BRANCH   6  24
ATOM     24  O   UNL     1     -37.350  -7.755  19.904  1.00  0.00    -0.507 OA
ATOM     25  H   UNL     1     -38.280  -7.426  20.116  1.00  0.00     0.293 HD
ENDBRANCH   6  24
BRANCH   8  26
ATOM     26  O   UNL     1     -37.830 -12.289  21.409  1.00  0.00    -0.508 OA
ATOM     27  H   UNL     1     -37.858 -12.822  22.271  1.00  0.00     0.293 HD
ENDBRANCH   8  26
TORSDOF 6
ENDMDL
MODEL 7
REMARK VINA RESULT:    -6.310      2.231      4.572
REMARK INTER + INTRA:          -7.887
REMARK INTER:                  -8.390
REMARK INTRA:                   0.503
REMARK UNBOUND:                -0.287
REMARK SMILES O=c1c(O)c(-c2ccc(O)c(O)c2)oc2cc(O)cc(O)c12
REMARK SMILES IDX 5 1 3 2 2 3 1 4 22 5 20 6 19 7 17 8 16 9 15 10 14 11 6 12
REMARK SMILES IDX 7 13 8 14 9 15 13 16 11 17 10 18 12 20 4 22 21 24 18 26
REMARK H PARENT 10 19 12 21 4 23 21 25 18 27
REMARK Flexibility Score: inf
ROOT
ATOM      1  C   UNL     1     -33.687  -9.402  22.521  1.00  0.00     0.180 A 
ATOM      2  C   UNL     1     -33.376  -8.035  22.612  1.00  0.00     0.208 A 
ATOM      3  C   UNL     1     -32.077  -7.655  22.984  1.00  0.00     0.238 A 
ATOM      4  O   UNL     1     -31.819  -6.430  23.116  1.00  0.00    -0.285 OA
ATOM      5  C   UNL     1     -31.100  -8.647  23.244  1.00  0.00     0.111 A 
ATOM      6  C   UNL     1     -29.742  -8.377  23.590  1.00  0.00     0.134 A 
ATOM      7  C   UNL     1     -28.898  -9.433  23.953  1.00  0.00     0.093 A 
ATOM      8  C   UNL     1     -29.345 -10.757  23.921  1.00  0.00     0.123 A 
ATOM      9  C   UNL     1     -30.653 -11.035  23.527  1.00  0.00     0.094 A 
ATOM     10  C   UNL     1     -31.529  -9.999  23.194  1.00  0.00     0.146 A 
ATOM     11  O   UNL     1     -32.769 -10.308  22.835  1.00  0.00    -0.452 OA
ENDROOT
BRANCH   1  12
ATOM     12  C   UNL     1     -35.028  -9.880  22.111  1.00  0.00     0.025 A 
ATOM     13  C   UNL     1     -36.105  -8.980  22.087  1.00  0.00     0.016 A 
ATOM     14  C   UNL     1     -37.382  -9.414  21.723  1.00  0.00     0.051 A 
ATOM     15  C   UNL     1     -37.603 -10.758  21.392  1.00  0.00     0.157 A 
ATOM     16  C   UNL     1     -35.258 -11.232  21.798  1.00  0.00     0.062 A 
ATOM     17  C   UNL     1     -36.541 -11.669  21.434  1.00  0.00     0.158 A 
BRANCH  15  18
ATOM     18  O   UNL     1     -38.875 -11.194  21.027  1.00  0.00    -0.504 OA
ATOM     19  H   UNL     1     -39.664 -10.558  20.990  1.00  0.00     0.293 HD
ENDBRANCH  15  18
BRANCH  17  20
ATOM     20  O   UNL     1     -36.768 -13.008  21.118  1.00  0.00    -0.504 OA
ATOM     21  H   UNL     1     -36.669 -13.740  21.812  1.00  0.00     0.293 HD
ENDBRANCH  17  20
ENDBRANCH   1  12
BRANCH   2  22
ATOM     22  O   UNL     1     -34.360  -7.073  22.371  1.00  0.00    -0.502 OA
ATOM     23  H   UNL     1     -34.180  -6.079  22.448  1.00  0.00     0.293 HD
ENDBRANCH   2  22
BRANCH   6  24
ATOM     24  O   UNL     1     -29.170  -7.101  23.565  1.00  0.00    -0.507 OA
ATOM     25  H   UNL     1     -29.384  -6.388  22.884  1.00  0.00     0.293 HD
ENDBRANCH   6  24
BRANCH   8  26
ATOM     26  O   UNL     1     -28.495 -11.803  24.269  1.00  0.00    -0.508 OA
ATOM     27  H   UNL     1     -27.920 -12.271  23.578  1.00  0.00     0.293 HD
ENDBRANCH   8  26
TORSDOF 6
ENDMDL
MODEL 8
REMARK VINA RESULT:    -6.229      1.995      7.401
REMARK INTER + INTRA:          -7.790
REMARK INTER:                  -7.654
REMARK INTRA:                  -0.136
REMARK UNBOUND:                -0.287
REMARK SMILES O=c1c(O)c(-c2ccc(O)c(O)c2)oc2cc(O)cc(O)c12
REMARK SMILES IDX 5 1 3 2 2 3 1 4 22 5 20 6 19 7 17 8 16 9 15 10 14 11 6 12
REMARK SMILES IDX 7 13 8 14 9 15 13 16 11 17 10 18 12 20 4 22 21 24 18 26
REMARK H PARENT 10 19 12 21 4 23 21 25 18 27
REMARK Flexibility Score: inf
ROOT
ATOM      1  C   UNL     1     -34.161  -8.741  22.065  1.00  0.00     0.180 A 
ATOM      2  C   UNL     1     -34.078  -7.649  21.185  1.00  0.00     0.208 A 
ATOM      3  C   UNL     1     -35.252  -7.167  20.585  1.00  0.00     0.238 A 
ATOM      4  O   UNL     1     -35.165  -6.223  19.757  1.00  0.00    -0.285 OA
ATOM      5  C   UNL     1     -36.497  -7.773  20.885  1.00  0.00     0.111 A 
ATOM      6  C   UNL     1     -37.754  -7.343  20.366  1.00  0.00     0.134 A 
ATOM      7  C   UNL     1     -38.904  -8.097  20.628  1.00  0.00     0.093 A 
ATOM      8  C   UNL     1     -38.853  -9.231  21.443  1.00  0.00     0.123 A 
ATOM      9  C   UNL     1     -37.639  -9.625  22.002  1.00  0.00     0.094 A 
ATOM     10  C   UNL     1     -36.468  -8.913  21.730  1.00  0.00     0.146 A 
ATOM     11  O   UNL     1     -35.332  -9.329  22.275  1.00  0.00    -0.452 OA
ENDROOT
BRANCH   1  12
ATOM     12  C   UNL     1     -32.970  -9.289  22.755  1.00  0.00     0.025 A 
ATOM     13  C   UNL     1     -32.641 -10.644  22.596  1.00  0.00     0.016 A 
ATOM     14  C   UNL     1     -31.535 -11.186  23.254  1.00  0.00     0.051 A 
ATOM     15  C   UNL     1     -30.750 -10.385  24.094  1.00  0.00     0.157 A 
ATOM     16  C   UNL     1     -32.191  -8.493  23.615  1.00  0.00     0.062 A 
ATOM     17  C   UNL     1     -31.081  -9.037  24.278  1.00  0.00     0.158 A 
BRANCH  15  18
ATOM     18  O   UNL     1     -29.644 -10.921  24.750  1.00  0.00    -0.504 OA
ATOM     19  H   UNL     1     -29.153 -11.731  24.387  1.00  0.00     0.293 HD
ENDBRANCH  15  18
BRANCH  17  20
ATOM     20  O   UNL     1     -30.307  -8.246  25.125  1.00  0.00    -0.504 OA
ATOM     21  H   UNL     1     -29.490  -8.616  25.597  1.00  0.00     0.293 HD
ENDBRANCH  17  20
ENDBRANCH   1  12
BRANCH   2  22
ATOM     22  O   UNL     1     -32.837  -7.079  20.887  1.00  0.00    -0.502 OA
ATOM     23  H   UNL     1     -32.726  -6.092  20.686  1.00  0.00     0.293 HD
ENDBRANCH   2  22
BRANCH   6  24
ATOM     24  O   UNL     1     -37.931  -6.175  19.618  1.00  0.00    -0.507 OA
ATOM     25  H   UNL     1     -37.444  -5.963  18.759  1.00  0.00     0.293 HD
ENDBRANCH   6  24
BRANCH   8  26
ATOM     26  O   UNL     1     -40.004  -9.967  21.710  1.00  0.00    -0.508 OA
ATOM     27  H   UNL     1     -40.802  -9.552  22.179  1.00  0.00     0.293 HD
ENDBRANCH   8  26
TORSDOF 6
ENDMDL
MODEL 9
REMARK VINA RESULT:    -6.089      1.522      2.362
REMARK INTER + INTRA:          -7.621
REMARK INTER:                  -7.299
REMARK INTRA:                  -0.323
REMARK UNBOUND:                -0.287
REMARK SMILES O=c1c(O)c(-c2ccc(O)c(O)c2)oc2cc(O)cc(O)c12
REMARK SMILES IDX 5 1 3 2 2 3 1 4 22 5 20 6 19 7 17 8 16 9 15 10 14 11 6 12
REMARK SMILES IDX 7 13 8 14 9 15 13 16 11 17 10 18 12 20 4 22 21 24 18 26
REMARK H PARENT 10 19 12 21 4 23 21 25 18 27
REMARK Flexibility Score: inf
ROOT
ATOM      1  C   UNL     1     -34.612  -9.195  22.330  1.00  0.00     0.180 A 
ATOM      2  C   UNL     1     -34.085 -10.490  22.191  1.00  0.00     0.208 A 
ATOM      3  C   UNL     1     -32.776 -10.743  22.631  1.00  0.00     0.238 A 
ATOM      4  O   UNL     1     -32.290 -11.891  22.455  1.00  0.00    -0.285 OA
ATOM      5  C   UNL     1     -32.017  -9.702  23.220  1.00  0.00     0.111 A 
ATOM      6  C   UNL     1     -30.696  -9.855  23.737  1.00  0.00     0.134 A 
ATOM      7  C   UNL     1     -29.992  -8.729  24.178  1.00  0.00     0.093 A 
ATOM      8  C   UNL     1     -30.585  -7.463  24.180  1.00  0.00     0.123 A 
ATOM      9  C   UNL     1     -31.896  -7.314  23.732  1.00  0.00     0.094 A 
ATOM     10  C   UNL     1     -32.611  -8.414  23.252  1.00  0.00     0.146 A 
ATOM     11  O   UNL     1     -33.854  -8.225  22.826  1.00  0.00    -0.452 OA
ENDROOT
BRANCH   1  12
ATOM     12  C   UNL     1     -35.993  -8.857  21.912  1.00  0.00     0.025 A 
ATOM     13  C   UNL     1     -37.050  -9.020  22.822  1.00  0.00     0.016 A 
ATOM     14  C   UNL     1     -38.362  -8.728  22.443  1.00  0.00     0.051 A 
ATOM     15  C   UNL     1     -38.639  -8.283  21.143  1.00  0.00     0.157 A 
ATOM     16  C   UNL     1     -36.278  -8.430  20.603  1.00  0.00     0.062 A 
ATOM     17  C   UNL     1     -37.596  -8.138  20.220  1.00  0.00     0.158 A 
BRANCH  15  18
ATOM     18  O   UNL     1     -39.946  -7.987  20.762  1.00  0.00    -0.504 OA
ATOM     19  H   UNL     1     -40.443  -7.191  21.144  1.00  0.00     0.293 HD
ENDBRANCH  15  18
BRANCH  17  20
ATOM     20  O   UNL     1     -37.876  -7.709  18.924  1.00  0.00    -0.504 OA
ATOM     21  H   UNL     1     -37.940  -6.724  18.694  1.00  0.00     0.293 HD
ENDBRANCH  17  20
ENDBRANCH   1  12
BRANCH   2  22
ATOM     22  O   UNL     1     -34.844 -11.497  21.588  1.00  0.00    -0.502 OA
ATOM     23  H   UNL     1     -35.853 -11.538  21.664  1.00  0.00     0.293 HD
ENDBRANCH   2  22
BRANCH   6  24
ATOM     24  O   UNL     1     -30.046 -11.087  23.864  1.00  0.00    -0.507 OA
ATOM     25  H   UNL     1     -29.219 -11.245  24.420  1.00  0.00     0.293 HD
ENDBRANCH   6  24
BRANCH   8  26
ATOM     26  O   UNL     1     -29.883  -6.350  24.635  1.00  0.00    -0.508 OA
ATOM     27  H   UNL     1     -29.409  -6.351  25.531  1.00  0.00     0.293 HD
ENDBRANCH   8  26
TORSDOF 6
ENDMDL
