MODEL 1
REMARK VINA RESULT:    -6.813      0.000      0.000
REMARK INTER + INTRA:          -8.530
REMARK INTER:                  -8.207
REMARK INTRA:                  -0.323
REMARK UNBOUND:                -0.323
REMARK SMILES O=c1c(O)c(-c2ccc(O)c(O)c2)oc2cc(O)cc(O)c12
REMARK SMILES IDX 5 1 3 2 2 3 1 4 22 5 20 6 19 7 17 8 16 9 15 10 14 11 6 12
REMARK SMILES IDX 7 13 8 14 9 15 13 16 11 17 10 18 12 20 4 22 21 24 18 26
REMARK H PARENT 10 19 12 21 4 23 21 25 18 27
REMARK Flexibility Score: inf
ROOT
ATOM      1  C   UNL     1      -0.039 -24.747  -9.370  1.00  0.00     0.180 A 
ATOM      2  C   UNL     1      -0.985 -24.844  -8.334  1.00  0.00     0.208 A 
ATOM      3  C   UNL     1      -1.235 -26.098  -7.756  1.00  0.00     0.238 A 
ATOM      4  O   UNL     1      -2.121 -26.187  -6.867  1.00  0.00    -0.285 OA
ATOM      5  C   UNL     1      -0.526 -27.237  -8.209  1.00  0.00     0.111 A 
ATOM      6  C   UNL     1      -0.671 -28.550  -7.669  1.00  0.00     0.134 A 
ATOM      7  C   UNL     1      -0.016 -29.626  -8.281  1.00  0.00     0.093 A 
ATOM      8  C   UNL     1       0.830 -29.425  -9.375  1.00  0.00     0.123 A 
ATOM      9  C   UNL     1       1.024 -28.139  -9.872  1.00  0.00     0.094 A 
ATOM     10  C   UNL     1       0.356 -27.051  -9.306  1.00  0.00     0.146 A 
ATOM     11  O   UNL     1       0.561 -25.844  -9.817  1.00  0.00    -0.452 OA
ENDROOT
BRANCH   1  12
ATOM     12  C   UNL     1       0.298 -23.455 -10.011  1.00  0.00     0.025 A 
ATOM     13  C   UNL     1      -0.402 -22.994 -11.140  1.00  0.00     0.016 A 
ATOM     14  C   UNL     1      -0.082 -21.760 -11.714  1.00  0.00     0.051 A 
ATOM     15  C   UNL     1       0.929 -20.964 -11.161  1.00  0.00     0.157 A 
ATOM     16  C   UNL     1       1.297 -22.644  -9.449  1.00  0.00     0.062 A 
ATOM     17  C   UNL     1       1.620 -21.408 -10.021  1.00  0.00     0.158 A 
BRANCH  15  18
ATOM     18  O   UNL     1       1.247 -19.735 -11.737  1.00  0.00    -0.504 OA
ATOM     19  H   UNL     1       2.166 -19.320 -11.627  1.00  0.00     0.293 HD
ENDBRANCH  15  18
BRANCH  17  20
ATOM     20  O   UNL     1       2.627 -20.636  -9.443  1.00  0.00    -0.504 OA
ATOM     21  H   UNL     1       3.369 -20.220  -9.993  1.00  0.00     0.293 HD
ENDBRANCH  17  20
ENDBRANCH   1  12
BRANCH   2  22
ATOM     22  O   UNL     1      -1.689 -23.711  -7.917  1.00  0.00    -0.502 OA
ATOM     23  H   UNL     1      -1.288 -23.020  -7.294  1.00  0.00     0.293 HD
ENDBRANCH   2  22
BRANCH   6  24
ATOM     24  O   UNL     1      -1.418 -28.845  -6.524  1.00  0.00    -0.507 OA
ATOM     25  H   UNL     1      -1.776 -28.157  -5.879  1.00  0.00     0.293 HD
ENDBRANCH   6  24
BRANCH   8  26
ATOM     26  O   UNL     1       1.490 -30.498  -9.969  1.00  0.00    -0.508 OA
ATOM     27  H   UNL     1       1.340 -30.741 -10.942  1.00  0.00     0.293 HD
ENDBRANCH   8  26
TORSDOF 6
ENDMDL
MODEL 2
REMARK VINA RESULT:    -6.680      1.444      6.542
REMARK INTER + INTRA:          -8.369
REMARK INTER:                  -8.041
REMARK INTRA:                  -0.328
REMARK UNBOUND:                -0.323
REMARK SMILES O=c1c(O)c(-c2ccc(O)c(O)c2)oc2cc(O)cc(O)c12
REMARK SMILES IDX 5 1 3 2 2 3 1 4 22 5 20 6 19 7 17 8 16 9 15 10 14 11 6 12
REMARK SMILES IDX 7 13 8 14 9 15 13 16 11 17 10 18 12 20 4 22 21 24 18 26
REMARK H PARENT 10 19 12 21 4 23 21 25 18 27
REMARK Flexibility Score: inf
ROOT
ATOM      1  C   UNL     1      -0.150 -25.351  -9.228  1.00  0.00     0.180 A 
ATOM      2  C   UNL     1      -1.156 -24.836  -8.391  1.00  0.00     0.208 A 
ATOM      3  C   UNL     1      -1.257 -23.446  -8.225  1.00  0.00     0.238 A 
ATOM      4  O   UNL     1      -2.125 -22.994  -7.433  1.00  0.00    -0.285 OA
ATOM      5  C   UNL     1      -0.363 -22.587  -8.909  1.00  0.00     0.111 A 
ATOM      6  C   UNL     1      -0.399 -21.162  -8.846  1.00  0.00     0.134 A 
ATOM      7  C   UNL     1       0.615 -20.417  -9.459  1.00  0.00     0.093 A 
ATOM      8  C   UNL     1       1.629 -21.044 -10.188  1.00  0.00     0.123 A 
ATOM      9  C   UNL     1       1.639 -22.431 -10.305  1.00  0.00     0.094 A 
ATOM     10  C   UNL     1       0.662 -23.203  -9.674  1.00  0.00     0.146 A 
ATOM     11  O   UNL     1       0.714 -24.523  -9.803  1.00  0.00    -0.452 OA
ENDROOT
BRANCH   1  12
ATOM     12  C   UNL     1       0.004 -26.804  -9.473  1.00  0.00     0.025 A 
ATOM     13  C   UNL     1      -0.630 -27.434 -10.558  1.00  0.00     0.016 A 
ATOM     14  C   UNL     1      -0.451 -28.802 -10.783  1.00  0.00     0.051 A 
ATOM     15  C   UNL     1       0.373 -29.555  -9.938  1.00  0.00     0.157 A 
ATOM     16  C   UNL     1       0.845 -27.560  -8.640  1.00  0.00     0.062 A 
ATOM     17  C   UNL     1       1.027 -28.930  -8.863  1.00  0.00     0.158 A 
BRANCH  15  18
ATOM     18  O   UNL     1       0.548 -30.920 -10.163  1.00  0.00    -0.504 OA
ATOM     19  H   UNL     1       1.396 -31.284 -10.585  1.00  0.00     0.293 HD
ENDBRANCH  15  18
BRANCH  17  20
ATOM     20  O   UNL     1       1.859 -29.650  -8.007  1.00  0.00    -0.504 OA
ATOM     21  H   UNL     1       2.684 -29.239  -7.586  1.00  0.00     0.293 HD
ENDBRANCH  17  20
ENDBRANCH   1  12
BRANCH   2  22
ATOM     22  O   UNL     1      -2.015 -25.702  -7.709  1.00  0.00    -0.502 OA
ATOM     23  H   UNL     1      -1.703 -26.282  -6.940  1.00  0.00     0.293 HD
ENDBRANCH   2  22
BRANCH   6  24
ATOM     24  O   UNL     1      -1.417 -20.434  -8.221  1.00  0.00    -0.507 OA
ATOM     25  H   UNL     1      -1.325 -19.961  -7.335  1.00  0.00     0.293 HD
ENDBRANCH   6  24
BRANCH   8  26
ATOM     26  O   UNL     1       2.626 -20.294 -10.808  1.00  0.00    -0.508 OA
ATOM     27  H   UNL     1       3.314 -20.725 -11.414  1.00  0.00     0.293 HD
ENDBRANCH   8  26
TORSDOF 6
ENDMDL
MODEL 3
REMARK VINA RESULT:    -6.422      1.262      1.451
REMARK INTER + INTRA:          -8.059
REMARK INTER:                  -7.739
REMARK INTRA:                  -0.320
REMARK UNBOUND:                -0.323
REMARK SMILES O=c1c(O)c(-c2ccc(O)c(O)c2)oc2cc(O)cc(O)c12
REMARK SMILES IDX 5 1 3 2 2 3 1 4 22 5 20 6 19 7 17 8 16 9 15 10 14 11 6 12
REMARK SMILES IDX 7 13 8 14 9 15 13 16 11 17 10 18 12 20 4 22 21 24 18 26
REMARK H PARENT 10 19 12 21 4 23 21 25 18 27
REMARK Flexibility Score: inf
ROOT
ATOM      1  C   UNL     1      -0.416 -26.006  -9.475  1.00  0.00     0.180 A 
ATOM      2  C   UNL     1      -1.100 -26.132  -8.253  1.00  0.00     0.208 A 
ATOM      3  C   UNL     1      -1.350 -27.415  -7.742  1.00  0.00     0.238 A 
ATOM      4  O   UNL     1      -2.010 -27.523  -6.676  1.00  0.00    -0.285 OA
ATOM      5  C   UNL     1      -0.898 -28.556  -8.450  1.00  0.00     0.111 A 
ATOM      6  C   UNL     1      -1.060 -29.902  -8.005  1.00  0.00     0.134 A 
ATOM      7  C   UNL     1      -0.691 -30.958  -8.848  1.00  0.00     0.093 A 
ATOM      8  C   UNL     1      -0.105 -30.713 -10.093  1.00  0.00     0.123 A 
ATOM      9  C   UNL     1       0.112 -29.403 -10.510  1.00  0.00     0.094 A 
ATOM     10  C   UNL     1      -0.280 -28.329  -9.707  1.00  0.00     0.146 A 
ATOM     11  O   UNL     1      -0.064 -27.096 -10.147  1.00  0.00    -0.452 OA
ENDROOT
BRANCH   1  12
ATOM     12  C   UNL     1      -0.094 -24.686 -10.066  1.00  0.00     0.025 A 
ATOM     13  C   UNL     1      -1.014 -24.006 -10.882  1.00  0.00     0.016 A 
ATOM     14  C   UNL     1      -0.697 -22.751 -11.409  1.00  0.00     0.051 A 
ATOM     15  C   UNL     1       0.535 -22.151 -11.116  1.00  0.00     0.157 A 
ATOM     16  C   UNL     1       1.131 -24.072  -9.758  1.00  0.00     0.062 A 
ATOM     17  C   UNL     1       1.452 -22.815 -10.284  1.00  0.00     0.158 A 
BRANCH  15  18
ATOM     18  O   UNL     1       0.849 -20.900 -11.644  1.00  0.00    -0.504 OA
ATOM     19  H   UNL     1       1.795 -20.665 -11.925  1.00  0.00     0.293 HD
ENDBRANCH  15  18
BRANCH  17  20
ATOM     20  O   UNL     1       2.683 -22.243  -9.968  1.00  0.00    -0.504 OA
ATOM     21  H   UNL     1       2.782 -21.255  -9.765  1.00  0.00     0.293 HD
ENDBRANCH  17  20
ENDBRANCH   1  12
BRANCH   2  22
ATOM     22  O   UNL     1      -1.556 -24.994  -7.583  1.00  0.00    -0.502 OA
ATOM     23  H   UNL     1      -2.524 -24.875  -7.311  1.00  0.00     0.293 HD
ENDBRANCH   2  22
BRANCH   6  24
ATOM     24  O   UNL     1      -1.550 -30.254  -6.744  1.00  0.00    -0.507 OA
ATOM     25  H   UNL     1      -1.123 -29.992  -5.868  1.00  0.00     0.293 HD
ENDBRANCH   6  24
BRANCH   8  26
ATOM     26  O   UNL     1       0.274 -31.769 -10.919  1.00  0.00    -0.508 OA
ATOM     27  H   UNL     1      -0.384 -32.488 -11.197  1.00  0.00     0.293 HD
ENDBRANCH   8  26
TORSDOF 6
ENDMDL
MODEL 4
REMARK VINA RESULT:    -6.221      1.582      7.012
REMARK INTER + INTRA:          -7.817
REMARK INTER:                  -7.513
REMARK INTRA:                  -0.304
REMARK UNBOUND:                -0.323
REMARK SMILES O=c1c(O)c(-c2ccc(O)c(O)c2)oc2cc(O)cc(O)c12
REMARK SMILES IDX 5 1 3 2 2 3 1 4 22 5 20 6 19 7 17 8 16 9 15 10 14 11 6 12
REMARK SMILES IDX 7 13 8 14 9 15 13 16 11 17 10 18 12 20 4 22 21 24 18 26
REMARK H PARENT 10 19 12 21 4 23 21 25 18 27
REMARK Flexibility Score: inf
ROOT
ATOM      1  C   UNL     1      -0.063 -24.827  -9.866  1.00  0.00     0.180 A 
ATOM      2  C   UNL     1      -1.083 -24.412 -10.742  1.00  0.00     0.208 A 
ATOM      3  C   UNL     1      -1.056 -23.103 -11.246  1.00  0.00     0.238 A 
ATOM      4  O   UNL     1      -2.001 -22.722 -11.986  1.00  0.00    -0.285 OA
ATOM      5  C   UNL     1      -0.003 -22.229 -10.884  1.00  0.00     0.111 A 
ATOM      6  C   UNL     1       0.146 -20.894 -11.367  1.00  0.00     0.134 A 
ATOM      7  C   UNL     1       1.153 -20.077 -10.840  1.00  0.00     0.093 A 
ATOM      8  C   UNL     1       2.057 -20.567  -9.895  1.00  0.00     0.123 A 
ATOM      9  C   UNL     1       1.957 -21.886  -9.461  1.00  0.00     0.094 A 
ATOM     10  C   UNL     1       0.940 -22.715  -9.941  1.00  0.00     0.146 A 
ATOM     11  O   UNL     1       0.874 -23.963  -9.494  1.00  0.00    -0.452 OA
ENDROOT
BRANCH   1  12
ATOM     12  C   UNL     1      -0.009 -26.199  -9.313  1.00  0.00     0.025 A 
ATOM     13  C   UNL     1      -0.774 -26.567  -8.193  1.00  0.00     0.016 A 
ATOM     14  C   UNL     1      -0.724 -27.875  -7.702  1.00  0.00     0.051 A 
ATOM     15  C   UNL     1       0.077 -28.836  -8.332  1.00  0.00     0.157 A 
ATOM     16  C   UNL     1       0.777 -27.172  -9.953  1.00  0.00     0.062 A 
ATOM     17  C   UNL     1       0.829 -28.483  -9.464  1.00  0.00     0.158 A 
BRANCH  15  18
ATOM     18  O   UNL     1       0.126 -30.140  -7.839  1.00  0.00    -0.504 OA
ATOM     19  H   UNL     1       0.782 -30.821  -8.205  1.00  0.00     0.293 HD
ENDBRANCH  15  18
BRANCH  17  20
ATOM     20  O   UNL     1       1.631 -29.418 -10.118  1.00  0.00    -0.504 OA
ATOM     21  H   UNL     1       2.499 -29.158 -10.571  1.00  0.00     0.293 HD
ENDBRANCH  17  20
ENDBRANCH   1  12
BRANCH   2  22
ATOM     22  O   UNL     1      -2.125 -25.284 -11.069  1.00  0.00    -0.502 OA
ATOM     23  H   UNL     1      -3.033 -25.237 -10.624  1.00  0.00     0.293 HD
ENDBRANCH   2  22
BRANCH   6  24
ATOM     24  O   UNL     1      -0.646 -20.337 -12.376  1.00  0.00    -0.507 OA
ATOM     25  H   UNL     1      -1.048 -19.412 -12.346  1.00  0.00     0.293 HD
ENDBRANCH   6  24
BRANCH   8  26
ATOM     26  O   UNL     1       3.066 -19.752  -9.387  1.00  0.00    -0.508 OA
ATOM     27  H   UNL     1       3.989 -19.727  -9.805  1.00  0.00     0.293 HD
ENDBRANCH   8  26
TORSDOF 6
ENDMDL
MODEL 5
REMARK VINA RESULT:    -6.015      1.760      6.597
REMARK INTER + INTRA:          -7.569
REMARK INTER:                  -7.244
REMARK INTRA:                  -0.325
REMARK UNBOUND:                -0.323
REMARK SMILES O=c1c(O)c(-c2ccc(O)c(O)c2)oc2cc(O)cc(O)c12
REMARK SMILES IDX 5 1 3 2 2 3 1 4 22 5 20 6 19 7 17 8 16 9 15 10 14 11 6 12
REMARK SMILES IDX 7 13 8 14 9 15 13 16 11 17 10 18 12 20 4 22 21 24 18 26
REMARK H PARENT 10 19 12 21 4 23 21 25 18 27
REMARK Flexibility Score: inf
ROOT
ATOM      1  C   UNL     1      -0.637 -24.777  -9.393  1.00  0.00     0.180 A 
ATOM      2  C   UNL     1      -1.346 -24.344  -8.257  1.00  0.00     0.208 A 
ATOM      3  C   UNL     1      -1.528 -22.967  -8.053  1.00  0.00     0.238 A 
ATOM      4  O   UNL     1      -2.115 -22.585  -7.008  1.00  0.00    -0.285 OA
ATOM      5  C   UNL     1      -1.016 -22.041  -8.994  1.00  0.00     0.111 A 
ATOM      6  C   UNL     1      -1.177 -20.626  -8.908  1.00  0.00     0.134 A 
ATOM      7  C   UNL     1      -0.517 -19.798  -9.824  1.00  0.00     0.093 A 
ATOM      8  C   UNL     1       0.246 -20.338 -10.862  1.00  0.00     0.123 A 
ATOM      9  C   UNL     1       0.361 -21.720 -10.989  1.00  0.00     0.094 A 
ATOM     10  C   UNL     1      -0.256 -22.570 -10.069  1.00  0.00     0.146 A 
ATOM     11  O   UNL     1      -0.113 -23.881 -10.221  1.00  0.00    -0.452 OA
ENDROOT
BRANCH   1  12
ATOM     12  C   UNL     1      -0.426 -26.212  -9.689  1.00  0.00     0.025 A 
ATOM     13  C   UNL     1      -1.305 -26.924 -10.523  1.00  0.00     0.016 A 
ATOM     14  C   UNL     1      -1.072 -28.273 -10.808  1.00  0.00     0.051 A 
ATOM     15  C   UNL     1       0.049 -28.924 -10.278  1.00  0.00     0.157 A 
ATOM     16  C   UNL     1       0.708 -26.864  -9.176  1.00  0.00     0.062 A 
ATOM     17  C   UNL     1       0.944 -28.214  -9.459  1.00  0.00     0.158 A 
BRANCH  15  18
ATOM     18  O   UNL     1       0.278 -30.269 -10.562  1.00  0.00    -0.504 OA
ATOM     19  H   UNL     1       1.218 -30.645 -10.629  1.00  0.00     0.293 HD
ENDBRANCH  15  18
BRANCH  17  20
ATOM     20  O   UNL     1       2.073 -28.831  -8.921  1.00  0.00    -0.504 OA
ATOM     21  H   UNL     1       2.966 -28.832  -9.400  1.00  0.00     0.293 HD
ENDBRANCH  17  20
ENDBRANCH   1  12
BRANCH   2  22
ATOM     22  O   UNL     1      -1.824 -25.274  -7.330  1.00  0.00    -0.502 OA
ATOM     23  H   UNL     1      -2.448 -25.018  -6.575  1.00  0.00     0.293 HD
ENDBRANCH   2  22
BRANCH   6  24
ATOM     24  O   UNL     1      -1.991 -19.988  -7.966  1.00  0.00    -0.507 OA
ATOM     25  H   UNL     1      -2.862 -20.358  -7.615  1.00  0.00     0.293 HD
ENDBRANCH   6  24
BRANCH   8  26
ATOM     26  O   UNL     1       0.888 -19.508 -11.779  1.00  0.00    -0.508 OA
ATOM     27  H   UNL     1       0.375 -19.032 -12.512  1.00  0.00     0.293 HD
ENDBRANCH   8  26
TORSDOF 6
ENDMDL
MODEL 6
REMARK VINA RESULT:    -5.662      1.681      6.599
REMARK INTER + INTRA:          -7.144
REMARK INTER:                  -6.844
REMARK INTRA:                  -0.300
REMARK UNBOUND:                -0.323
REMARK SMILES O=c1c(O)c(-c2ccc(O)c(O)c2)oc2cc(O)cc(O)c12
REMARK SMILES IDX 5 1 3 2 2 3 1 4 22 5 20 6 19 7 17 8 16 9 15 10 14 11 6 12
REMARK SMILES IDX 7 13 8 14 9 15 13 16 11 17 10 18 12 20 4 22 21 24 18 26
REMARK H PARENT 10 19 12 21 4 23 21 25 18 27
REMARK Flexibility Score: inf
ROOT
ATOM      1  C   UNL     1      -0.933 -26.764  -9.358  1.00  0.00     0.180 A 
ATOM      2  C   UNL     1      -1.505 -26.499  -8.101  1.00  0.00     0.208 A 
ATOM      3  C   UNL     1      -1.650 -25.166  -7.686  1.00  0.00     0.238 A 
ATOM      4  O   UNL     1      -2.113 -24.938  -6.538  1.00  0.00    -0.285 OA
ATOM      5  C   UNL     1      -1.237 -24.114  -8.538  1.00  0.00     0.111 A 
ATOM      6  C   UNL     1      -1.373 -22.726  -8.237  1.00  0.00     0.134 A 
ATOM      7  C   UNL     1      -0.810 -21.773  -9.096  1.00  0.00     0.093 A 
ATOM      8  C   UNL     1      -0.173 -22.158 -10.278  1.00  0.00     0.123 A 
ATOM      9  C   UNL     1      -0.088 -23.507 -10.611  1.00  0.00     0.094 A 
ATOM     10  C   UNL     1      -0.607 -24.482  -9.756  1.00  0.00     0.146 A 
ATOM     11  O   UNL     1      -0.495 -25.758 -10.105  1.00  0.00    -0.452 OA
ENDROOT
BRANCH   1  12
ATOM     12  C   UNL     1      -0.770 -28.142  -9.875  1.00  0.00     0.025 A 
ATOM     13  C   UNL     1      -1.671 -28.684 -10.808  1.00  0.00     0.016 A 
ATOM     14  C   UNL     1      -1.484 -29.979 -11.300  1.00  0.00     0.051 A 
ATOM     15  C   UNL     1      -0.388 -30.744 -10.880  1.00  0.00     0.157 A 
ATOM     16  C   UNL     1       0.338 -28.905  -9.472  1.00  0.00     0.062 A 
ATOM     17  C   UNL     1       0.529 -30.202  -9.963  1.00  0.00     0.158 A 
BRANCH  15  18
ATOM     18  O   UNL     1      -0.205 -32.036 -11.370  1.00  0.00    -0.504 OA
ATOM     19  H   UNL     1       0.292 -32.741 -10.837  1.00  0.00     0.293 HD
ENDBRANCH  15  18
BRANCH  17  20
ATOM     20  O   UNL     1       1.633 -30.935  -9.530  1.00  0.00    -0.504 OA
ATOM     21  H   UNL     1       1.600 -31.941  -9.415  1.00  0.00     0.293 HD
ENDBRANCH  17  20
ENDBRANCH   1  12
BRANCH   2  22
ATOM     22  O   UNL     1      -1.887 -27.554  -7.266  1.00  0.00    -0.502 OA
ATOM     23  H   UNL     1      -2.153 -28.462  -7.625  1.00  0.00     0.293 HD
ENDBRANCH   2  22
BRANCH   6  24
ATOM     24  O   UNL     1      -2.070 -22.232  -7.130  1.00  0.00    -0.507 OA
ATOM     25  H   UNL     1      -3.065 -22.071  -7.102  1.00  0.00     0.293 HD
ENDBRANCH   6  24
BRANCH   8  26
ATOM     26  O   UNL     1       0.370 -21.204 -11.135  1.00  0.00    -0.508 OA
ATOM     27  H   UNL     1       0.522 -21.398 -12.118  1.00  0.00     0.293 HD
ENDBRANCH   8  26
TORSDOF 6
ENDMDL
MODEL 7
REMARK VINA RESULT:    -5.651      2.162      2.994
REMARK INTER + INTRA:          -7.131
REMARK INTER:                  -6.889
REMARK INTRA:                  -0.242
REMARK UNBOUND:                -0.323
REMARK SMILES O=c1c(O)c(-c2ccc(O)c(O)c2)oc2cc(O)cc(O)c12
REMARK SMILES IDX 5 1 3 2 2 3 1 4 22 5 20 6 19 7 17 8 16 9 15 10 14 11 6 12
REMARK SMILES IDX 7 13 8 14 9 15 13 16 11 17 10 18 12 20 4 22 21 24 18 26
REMARK H PARENT 10 19 12 21 4 23 21 25 18 27
REMARK Flexibility Score: inf
ROOT
ATOM      1  C   UNL     1      -0.574 -27.391  -9.611  1.00  0.00     0.180 A 
ATOM      2  C   UNL     1      -0.858 -27.767  -8.286  1.00  0.00     0.208 A 
ATOM      3  C   UNL     1      -1.025 -29.127  -7.984  1.00  0.00     0.238 A 
ATOM      4  O   UNL     1      -1.333 -29.452  -6.808  1.00  0.00    -0.285 OA
ATOM      5  C   UNL     1      -0.890 -30.098  -9.007  1.00  0.00     0.111 A 
ATOM      6  C   UNL     1      -0.998 -31.506  -8.807  1.00  0.00     0.134 A 
ATOM      7  C   UNL     1      -0.977 -32.365  -9.913  1.00  0.00     0.093 A 
ATOM      8  C   UNL     1      -0.785 -31.869 -11.205  1.00  0.00     0.123 A 
ATOM      9  C   UNL     1      -0.619 -30.502 -11.404  1.00  0.00     0.094 A 
ATOM     10  C   UNL     1      -0.672 -29.617 -10.325  1.00  0.00     0.146 A 
ATOM     11  O   UNL     1      -0.519 -28.319 -10.559  1.00  0.00    -0.452 OA
ENDROOT
BRANCH   1  12
ATOM     12  C   UNL     1      -0.361 -25.979 -10.001  1.00  0.00     0.025 A 
ATOM     13  C   UNL     1      -1.339 -25.259 -10.708  1.00  0.00     0.016 A 
ATOM     14  C   UNL     1      -1.124 -23.920 -11.046  1.00  0.00     0.051 A 
ATOM     15  C   UNL     1       0.062 -23.277 -10.669  1.00  0.00     0.157 A 
ATOM     16  C   UNL     1       0.819 -25.324  -9.608  1.00  0.00     0.062 A 
ATOM     17  C   UNL     1       1.037 -23.983  -9.944  1.00  0.00     0.158 A 
BRANCH  15  18
ATOM     18  O   UNL     1       0.274 -21.942 -11.008  1.00  0.00    -0.504 OA
ATOM     19  H   UNL     1      -0.202 -21.189 -10.523  1.00  0.00     0.293 HD
ENDBRANCH  15  18
BRANCH  17  20
ATOM     20  O   UNL     1       2.225 -23.370  -9.548  1.00  0.00    -0.504 OA
ATOM     21  H   UNL     1       2.364 -23.024  -8.606  1.00  0.00     0.293 HD
ENDBRANCH  17  20
ENDBRANCH   1  12
BRANCH   2  22
ATOM     22  O   UNL     1      -1.009 -26.791  -7.296  1.00  0.00    -0.502 OA
ATOM     23  H   UNL     1      -0.235 -26.231  -6.963  1.00  0.00     0.293 HD
ENDBRANCH   2  22
BRANCH   6  24
ATOM     24  O   UNL     1      -1.101 -32.111  -7.550  1.00  0.00    -0.507 OA
ATOM     25  H   UNL     1      -1.729 -31.814  -6.819  1.00  0.00     0.293 HD
ENDBRANCH   6  24
BRANCH   8  26
ATOM     26  O   UNL     1      -0.749 -32.732 -12.299  1.00  0.00    -0.508 OA
ATOM     27  H   UNL     1       0.032 -32.739 -12.944  1.00  0.00     0.293 HD
ENDBRANCH   8  26
TORSDOF 6
ENDMDL
MODEL 8
REMARK VINA RESULT:    -5.476      3.216      8.415
REMARK INTER + INTRA:          -6.920
REMARK INTER:                  -6.602
REMARK INTRA:                  -0.318
REMARK UNBOUND:                -0.323
REMARK SMILES O=c1c(O)c(-c2ccc(O)c(O)c2)oc2cc(O)cc(O)c12
REMARK SMILES IDX 5 1 3 2 2 3 1 4 22 5 20 6 19 7 17 8 16 9 15 10 14 11 6 12
REMARK SMILES IDX 7 13 8 14 9 15 13 16 11 17 10 18 12 20 4 22 21 24 18 26
REMARK H PARENT 10 19 12 21 4 23 21 25 18 27
REMARK Flexibility Score: inf
ROOT
ATOM      1  C   UNL     1       0.200 -31.294  -9.525  1.00  0.00     0.180 A 
ATOM      2  C   UNL     1      -0.822 -31.254  -8.560  1.00  0.00     0.208 A 
ATOM      3  C   UNL     1      -1.217 -30.012  -8.038  1.00  0.00     0.238 A 
ATOM      4  O   UNL     1      -2.094 -29.988  -7.136  1.00  0.00    -0.285 OA
ATOM      5  C   UNL     1      -0.597 -28.825  -8.497  1.00  0.00     0.111 A 
ATOM      6  C   UNL     1      -0.945 -27.510  -8.067  1.00  0.00     0.134 A 
ATOM      7  C   UNL     1      -0.177 -26.418  -8.490  1.00  0.00     0.093 A 
ATOM      8  C   UNL     1       0.887 -26.588  -9.380  1.00  0.00     0.123 A 
ATOM      9  C   UNL     1       1.196 -27.860  -9.852  1.00  0.00     0.094 A 
ATOM     10  C   UNL     1       0.472 -28.973  -9.420  1.00  0.00     0.146 A 
ATOM     11  O   UNL     1       0.807 -30.170  -9.887  1.00  0.00    -0.452 OA
ENDROOT
BRANCH   1  12
ATOM     12  C   UNL     1       0.653 -32.562 -10.140  1.00  0.00     0.025 A 
ATOM     13  C   UNL     1      -0.048 -33.148 -11.209  1.00  0.00     0.016 A 
ATOM     14  C   UNL     1       0.412 -34.334 -11.789  1.00  0.00     0.051 A 
ATOM     15  C   UNL     1       1.584 -34.941 -11.322  1.00  0.00     0.157 A 
ATOM     16  C   UNL     1       1.839 -33.165  -9.689  1.00  0.00     0.062 A 
ATOM     17  C   UNL     1       2.302 -34.352 -10.268  1.00  0.00     0.158 A 
BRANCH  15  18
ATOM     18  O   UNL     1       2.040 -36.125 -11.902  1.00  0.00    -0.504 OA
ATOM     19  H   UNL     1       2.323 -36.164 -12.875  1.00  0.00     0.293 HD
ENDBRANCH  15  18
BRANCH  17  20
ATOM     20  O   UNL     1       3.476 -34.928  -9.785  1.00  0.00    -0.504 OA
ATOM     21  H   UNL     1       4.077 -34.451  -9.123  1.00  0.00     0.293 HD
ENDBRANCH  17  20
ENDBRANCH   1  12
BRANCH   2  22
ATOM     22  O   UNL     1      -1.406 -32.439  -8.105  1.00  0.00    -0.502 OA
ATOM     23  H   UNL     1      -0.880 -33.147  -7.606  1.00  0.00     0.293 HD
ENDBRANCH   2  22
BRANCH   6  24
ATOM     24  O   UNL     1      -2.044 -27.220  -7.252  1.00  0.00    -0.507 OA
ATOM     25  H   UNL     1      -2.903 -27.748  -7.238  1.00  0.00     0.293 HD
ENDBRANCH   6  24
BRANCH   8  26
ATOM     26  O   UNL     1       1.636 -25.495  -9.809  1.00  0.00    -0.508 OA
ATOM     27  H   UNL     1       1.521 -25.104 -10.737  1.00  0.00     0.293 HD
ENDBRANCH   8  26
TORSDOF 6
ENDMDL
MODEL 9
REMARK VINA RESULT:    -5.451      2.096      2.660
REMARK INTER + INTRA:          -6.889
REMARK INTER:                  -6.626
REMARK INTRA:                  -0.263
REMARK UNBOUND:                -0.323
REMARK SMILES O=c1c(O)c(-c2ccc(O)c(O)c2)oc2cc(O)cc(O)c12
REMARK SMILES IDX 5 1 3 2 2 3 1 4 22 5 20 6 19 7 17 8 16 9 15 10 14 11 6 12
REMARK SMILES IDX 7 13 8 14 9 15 13 16 11 17 10 18 12 20 4 22 21 24 18 26
REMARK H PARENT 10 19 12 21 4 23 21 25 18 27
REMARK Flexibility Score: inf
ROOT
ATOM      1  C   UNL     1      -0.466 -24.691  -9.819  1.00  0.00     0.180 A 
ATOM      2  C   UNL     1      -1.291 -25.043 -10.902  1.00  0.00     0.208 A 
ATOM      3  C   UNL     1      -1.429 -26.398 -11.241  1.00  0.00     0.238 A 
ATOM      4  O   UNL     1      -2.125 -26.702 -12.244  1.00  0.00    -0.285 OA
ATOM      5  C   UNL     1      -0.754 -27.386 -10.483  1.00  0.00     0.111 A 
ATOM      6  C   UNL     1      -0.853 -28.791 -10.712  1.00  0.00     0.134 A 
ATOM      7  C   UNL     1      -0.040 -29.669  -9.985  1.00  0.00     0.093 A 
ATOM      8  C   UNL     1       0.822 -29.196  -8.992  1.00  0.00     0.123 A 
ATOM      9  C   UNL     1       0.882 -27.832  -8.721  1.00  0.00     0.094 A 
ATOM     10  C   UNL     1       0.110 -26.928  -9.454  1.00  0.00     0.146 A 
ATOM     11  O   UNL     1       0.204 -25.635  -9.170  1.00  0.00    -0.452 OA
ENDROOT
BRANCH   1  12
ATOM     12  C   UNL     1      -0.291 -23.285  -9.386  1.00  0.00     0.025 A 
ATOM     13  C   UNL     1      -1.314 -22.593  -8.716  1.00  0.00     0.016 A 
ATOM     14  C   UNL     1      -1.118 -21.275  -8.296  1.00  0.00     0.051 A 
ATOM     15  C   UNL     1       0.107 -20.635  -8.525  1.00  0.00     0.157 A 
ATOM     16  C   UNL     1       0.943 -22.646  -9.595  1.00  0.00     0.062 A 
ATOM     17  C   UNL     1       1.143 -21.326  -9.176  1.00  0.00     0.158 A 
BRANCH  15  18
ATOM     18  O   UNL     1       0.300 -19.319  -8.107  1.00  0.00    -0.504 OA
ATOM     19  H   UNL     1      -0.426 -18.618  -8.208  1.00  0.00     0.293 HD
ENDBRANCH  15  18
BRANCH  17  20
ATOM     20  O   UNL     1       2.376 -20.720  -9.413  1.00  0.00    -0.504 OA
ATOM     21  H   UNL     1       2.989 -21.022 -10.162  1.00  0.00     0.293 HD
ENDBRANCH  17  20
ENDBRANCH   1  12
BRANCH   2  22
ATOM     22  O   UNL     1      -1.930 -24.050 -11.650  1.00  0.00    -0.502 OA
ATOM     23  H   UNL     1      -2.006 -24.093 -12.659  1.00  0.00     0.293 HD
ENDBRANCH   2  22
BRANCH   6  24
ATOM     24  O   UNL     1      -1.748 -29.373 -11.615  1.00  0.00    -0.507 OA
ATOM     25  H   UNL     1      -2.493 -28.881 -12.085  1.00  0.00     0.293 HD
ENDBRANCH   6  24
BRANCH   8  26
ATOM     26  O   UNL     1       1.616 -30.078  -8.262  1.00  0.00    -0.508 OA
ATOM     27  H   UNL     1       2.045 -29.804  -7.386  1.00  0.00     0.293 HD
ENDBRANCH   8  26
TORSDOF 6
ENDMDL
