MODEL 1
REMARK VINA RESULT:    15.144      0.000      0.000
REMARK INTER + INTRA:          17.935
REMARK INTER:                  18.243
REMARK INTRA:                  -0.308
REMARK UNBOUND:                -0.308
REMARK SMILES O=c1c(O)c(-c2ccc(O)c(O)c2)oc2cc(O)cc(O)c12
REMARK SMILES IDX 5 1 3 2 2 3 1 4 22 5 20 6 19 7 17 8 16 9 15 10 14 11 6 12
REMARK SMILES IDX 7 13 8 14 9 15 13 16 11 17 10 18 12 20 4 22 21 24 18 26
REMARK H PARENT 10 19 12 21 4 23 21 25 18 27
REMARK Flexibility Score: inf
ROOT
ATOM      1  C   UNL     1     -19.450 -11.161 -12.968  1.00  0.00     0.180 A 
ATOM      2  C   UNL     1     -19.410  -9.781 -12.701  1.00  0.00     0.208 A 
ATOM      3  C   UNL     1     -20.589  -9.130 -12.301  1.00  0.00     0.238 A 
ATOM      4  O   UNL     1     -20.559  -7.885 -12.116  1.00  0.00    -0.285 OA
ATOM      5  C   UNL     1     -21.787  -9.869 -12.158  1.00  0.00     0.111 A 
ATOM      6  C   UNL     1     -23.030  -9.321 -11.721  1.00  0.00     0.134 A 
ATOM      7  C   UNL     1     -24.183 -10.117 -11.741  1.00  0.00     0.093 A 
ATOM      8  C   UNL     1     -24.122 -11.459 -12.121  1.00  0.00     0.123 A 
ATOM      9  C   UNL     1     -22.904 -12.020 -12.494  1.00  0.00     0.094 A 
ATOM     10  C   UNL     1     -21.744 -11.241 -12.517  1.00  0.00     0.146 A 
ATOM     11  O   UNL     1     -20.604 -11.813 -12.889  1.00  0.00    -0.452 OA
ENDROOT
BRANCH   1  12
ATOM     12  C   UNL     1     -18.244 -11.920 -13.370  1.00  0.00     0.025 A 
ATOM     13  C   UNL     1     -17.864 -11.949 -14.721  1.00  0.00     0.016 A 
ATOM     14  C   UNL     1     -16.742 -12.678 -15.124  1.00  0.00     0.051 A 
ATOM     15  C   UNL     1     -15.993 -13.401 -14.187  1.00  0.00     0.157 A 
ATOM     16  C   UNL     1     -17.502 -12.664 -12.434  1.00  0.00     0.062 A 
ATOM     17  C   UNL     1     -16.379 -13.396 -12.836  1.00  0.00     0.158 A 
BRANCH  15  18
ATOM     18  O   UNL     1     -14.873 -14.124 -14.593  1.00  0.00    -0.504 OA
ATOM     19  H   UNL     1     -14.617 -14.203 -15.571  1.00  0.00     0.293 HD
ENDBRANCH  15  18
BRANCH  17  20
ATOM     20  O   UNL     1     -15.664 -14.117 -11.880  1.00  0.00    -0.504 OA
ATOM     21  H   UNL     1     -14.651 -14.159 -11.885  1.00  0.00     0.293 HD
ENDBRANCH  17  20
ENDBRANCH   1  12
BRANCH   2  22
ATOM     22  O   UNL     1     -18.221  -9.067 -12.870  1.00  0.00    -0.502 OA
ATOM     23  H   UNL     1     -18.155  -8.071 -12.696  1.00  0.00     0.293 HD
ENDBRANCH   2  22
BRANCH   6  24
ATOM     24  O   UNL     1     -23.180  -8.018 -11.233  1.00  0.00    -0.507 OA
ATOM     25  H   UNL     1     -23.061  -7.182 -11.785  1.00  0.00     0.293 HD
ENDBRANCH   6  24
BRANCH   8  26
ATOM     26  O   UNL     1     -25.271 -12.249 -12.125  1.00  0.00    -0.508 OA
ATOM     27  H   UNL     1     -25.264 -13.197 -11.767  1.00  0.00     0.293 HD
ENDBRANCH   8  26
TORSDOF 6
ENDMDL
MODEL 2
REMARK VINA RESULT:    17.717      1.886      7.205
REMARK INTER + INTRA:          21.033
REMARK INTER:                  20.699
REMARK INTRA:                   0.334
REMARK UNBOUND:                -0.308
REMARK SMILES O=c1c(O)c(-c2ccc(O)c(O)c2)oc2cc(O)cc(O)c12
REMARK SMILES IDX 5 1 3 2 2 3 1 4 22 5 20 6 19 7 17 8 16 9 15 10 14 11 6 12
REMARK SMILES IDX 7 13 8 14 9 15 13 16 11 17 10 18 12 20 4 22 21 24 18 26
REMARK H PARENT 10 19 12 21 4 23 21 25 18 27
REMARK Flexibility Score: inf
ROOT
ATOM      1  C   UNL     1     -21.272 -11.821 -13.229  1.00  0.00     0.180 A 
ATOM      2  C   UNL     1     -20.811 -13.018 -13.805  1.00  0.00     0.208 A 
ATOM      3  C   UNL     1     -19.504 -13.067 -14.317  1.00  0.00     0.238 A 
ATOM      4  O   UNL     1     -19.116 -14.125 -14.880  1.00  0.00    -0.285 OA
ATOM      5  C   UNL     1     -18.670 -11.927 -14.233  1.00  0.00     0.111 A 
ATOM      6  C   UNL     1     -17.317 -11.877 -14.684  1.00  0.00     0.134 A 
ATOM      7  C   UNL     1     -16.628 -10.658 -14.670  1.00  0.00     0.093 A 
ATOM      8  C   UNL     1     -17.224  -9.501 -14.162  1.00  0.00     0.123 A 
ATOM      9  C   UNL     1     -18.523  -9.552 -13.666  1.00  0.00     0.094 A 
ATOM     10  C   UNL     1     -19.248 -10.746 -13.699  1.00  0.00     0.146 A 
ATOM     11  O   UNL     1     -20.488 -10.748 -13.225  1.00  0.00    -0.452 OA
ENDROOT
BRANCH   1  12
ATOM     12  C   UNL     1     -22.627 -11.698 -12.646  1.00  0.00     0.025 A 
ATOM     13  C   UNL     1     -23.263 -12.837 -12.129  1.00  0.00     0.016 A 
ATOM     14  C   UNL     1     -24.550 -12.748 -11.593  1.00  0.00     0.051 A 
ATOM     15  C   UNL     1     -25.228 -11.522 -11.582  1.00  0.00     0.157 A 
ATOM     16  C   UNL     1     -23.318 -10.473 -12.652  1.00  0.00     0.062 A 
ATOM     17  C   UNL     1     -24.609 -10.380 -12.119  1.00  0.00     0.158 A 
BRANCH  15  18
ATOM     18  O   UNL     1     -26.512 -11.435 -11.045  1.00  0.00    -0.504 OA
ATOM     19  H   UNL     1     -26.839 -12.091 -10.345  1.00  0.00     0.293 HD
ENDBRANCH  15  18
BRANCH  17  20
ATOM     20  O   UNL     1     -25.262  -9.148 -12.136  1.00  0.00    -0.504 OA
ATOM     21  H   UNL     1     -26.044  -8.945 -11.523  1.00  0.00     0.293 HD
ENDBRANCH  17  20
ENDBRANCH   1  12
BRANCH   2  22
ATOM     22  O   UNL     1     -21.658 -14.125 -13.897  1.00  0.00    -0.502 OA
ATOM     23  H   UNL     1     -21.941 -14.662 -13.086  1.00  0.00     0.293 HD
ENDBRANCH   2  22
BRANCH   6  24
ATOM     24  O   UNL     1     -16.600 -12.995 -15.124  1.00  0.00    -0.507 OA
ATOM     25  H   UNL     1     -15.630 -13.174 -14.913  1.00  0.00     0.293 HD
ENDBRANCH   6  24
BRANCH   8  26
ATOM     26  O   UNL     1     -16.526  -8.295 -14.139  1.00  0.00    -0.508 OA
ATOM     27  H   UNL     1     -15.822  -8.103 -13.435  1.00  0.00     0.293 HD
ENDBRANCH   8  26
TORSDOF 6
ENDMDL
MODEL 3
REMARK VINA RESULT:    17.872      1.359      2.834
REMARK INTER + INTRA:          21.220
REMARK INTER:                  21.431
REMARK INTRA:                  -0.211
REMARK UNBOUND:                -0.308
REMARK SMILES O=c1c(O)c(-c2ccc(O)c(O)c2)oc2cc(O)cc(O)c12
REMARK SMILES IDX 5 1 3 2 2 3 1 4 22 5 20 6 19 7 17 8 16 9 15 10 14 11 6 12
REMARK SMILES IDX 7 13 8 14 9 15 13 16 11 17 10 18 12 20 4 22 21 24 18 26
REMARK H PARENT 10 19 12 21 4 23 21 25 18 27
REMARK Flexibility Score: inf
ROOT
ATOM      1  C   UNL     1     -19.416 -12.273 -13.325  1.00  0.00     0.180 A 
ATOM      2  C   UNL     1     -20.480 -12.996 -13.893  1.00  0.00     0.208 A 
ATOM      3  C   UNL     1     -21.798 -12.587 -13.629  1.00  0.00     0.238 A 
ATOM      4  O   UNL     1     -22.747 -13.270 -14.096  1.00  0.00    -0.285 OA
ATOM      5  C   UNL     1     -22.034 -11.453 -12.816  1.00  0.00     0.111 A 
ATOM      6  C   UNL     1     -23.326 -10.927 -12.515  1.00  0.00     0.134 A 
ATOM      7  C   UNL     1     -23.450  -9.880 -11.594  1.00  0.00     0.093 A 
ATOM      8  C   UNL     1     -22.321  -9.298 -11.012  1.00  0.00     0.123 A 
ATOM      9  C   UNL     1     -21.052  -9.765 -11.343  1.00  0.00     0.094 A 
ATOM     10  C   UNL     1     -20.900 -10.833 -12.232  1.00  0.00     0.146 A 
ATOM     11  O   UNL     1     -19.673 -11.254 -12.513  1.00  0.00    -0.452 OA
ENDROOT
BRANCH   1  12
ATOM     12  C   UNL     1     -18.001 -12.627 -13.577  1.00  0.00     0.025 A 
ATOM     13  C   UNL     1     -17.458 -12.438 -14.857  1.00  0.00     0.016 A 
ATOM     14  C   UNL     1     -16.130 -12.785 -15.121  1.00  0.00     0.051 A 
ATOM     15  C   UNL     1     -15.331 -13.342 -14.115  1.00  0.00     0.157 A 
ATOM     16  C   UNL     1     -17.201 -13.205 -12.574  1.00  0.00     0.062 A 
ATOM     17  C   UNL     1     -15.872 -13.556 -12.836  1.00  0.00     0.158 A 
BRANCH  15  18
ATOM     18  O   UNL     1     -14.006 -13.685 -14.380  1.00  0.00    -0.504 OA
ATOM     19  H   UNL     1     -13.711 -14.653 -14.438  1.00  0.00     0.293 HD
ENDBRANCH  15  18
BRANCH  17  20
ATOM     20  O   UNL     1     -15.108 -14.122 -11.816  1.00  0.00    -0.504 OA
ATOM     21  H   UNL     1     -14.267 -13.678 -11.464  1.00  0.00     0.293 HD
ENDBRANCH  17  20
ENDBRANCH   1  12
BRANCH   2  22
ATOM     22  O   UNL     1     -20.224 -14.124 -14.675  1.00  0.00    -0.502 OA
ATOM     23  H   UNL     1     -20.489 -15.058 -14.386  1.00  0.00     0.293 HD
ENDBRANCH   2  22
BRANCH   6  24
ATOM     24  O   UNL     1     -24.510 -11.375 -13.112  1.00  0.00    -0.507 OA
ATOM     25  H   UNL     1     -24.704 -11.339 -14.101  1.00  0.00     0.293 HD
ENDBRANCH   6  24
BRANCH   8  26
ATOM     26  O   UNL     1     -22.451  -8.246 -10.107  1.00  0.00    -0.508 OA
ATOM     27  H   UNL     1     -23.027  -8.328  -9.277  1.00  0.00     0.293 HD
ENDBRANCH   8  26
TORSDOF 6
ENDMDL
