MODEL 1
REMARK VINA RESULT:    -4.081      0.000      0.000
REMARK INTER + INTRA:          -9.661
REMARK INTER:                  -7.422
REMARK INTRA:                  -2.239
REMARK UNBOUND:                -2.239
REMARK SMILES CCCCCCCCCCCCCCCC(=O)[O-]
REMARK SMILES IDX 9 1 10 2 11 3 12 4 13 5 14 6 15 7 16 8 17 9 18 10 8 11 7 12
REMARK SMILES IDX 6 13 5 14 4 15 3 16 2 17 1 18
REMARK H PARENT
REMARK Flexibility Score: inf
ROOT
ATOM      1  C   UNL     1     -21.191 118.214  -3.300  1.00  0.00     0.000 C 
ENDROOT
BRANCH   1   2
ATOM      2  C   UNL     1     -22.178 117.040  -3.406  1.00  0.00     0.000 C 
BRANCH   2   3
ATOM      3  C   UNL     1     -21.556 115.697  -2.981  1.00  0.00     0.000 C 
BRANCH   3   4
ATOM      4  C   UNL     1     -22.079 115.124  -1.648  1.00  0.00     0.000 C 
BRANCH   4   5
ATOM      5  C   UNL     1     -20.989 114.657  -0.662  1.00  0.00     0.000 C 
BRANCH   5   6
ATOM      6  C   UNL     1     -19.615 114.381  -1.296  1.00  0.00     0.006 C 
BRANCH   6   7
ATOM      7  C   UNL     1     -18.455 114.604  -0.318  1.00  0.00     0.053 C 
BRANCH   7   8
ATOM      8  C   UNL     1     -17.198 114.926  -1.064  1.00  0.00     0.041 C 
ATOM      9  O   UNL     1     -16.093 114.468  -0.670  1.00  0.00    -0.550 OA
ATOM     10  O   UNL     1     -17.240 115.773  -2.164  1.00  0.00    -0.550 OA
ENDBRANCH   7   8
ENDBRANCH   6   7
ENDBRANCH   5   6
ENDBRANCH   4   5
ENDBRANCH   3   4
ENDBRANCH   2   3
ENDBRANCH   1   2
BRANCH   1  11
ATOM     11  C   UNL     1     -20.047 117.946  -2.304  1.00  0.00     0.000 C 
BRANCH  11  12
ATOM     12  C   UNL     1     -19.603 119.165  -1.471  1.00  0.00    -0.000 C 
BRANCH  12  13
ATOM     13  C   UNL     1     -20.133 120.525  -1.964  1.00  0.00    -0.000 C 
BRANCH  13  14
ATOM     14  C   UNL     1     -21.208 121.168  -1.065  1.00  0.00    -0.000 C 
BRANCH  14  15
ATOM     15  C   UNL     1     -21.756 120.251   0.046  1.00  0.00    -0.000 C 
BRANCH  15  16
ATOM     16  C   UNL     1     -22.978 119.400  -0.351  1.00  0.00    -0.000 C 
BRANCH  16  17
ATOM     17  C   UNL     1     -23.135 118.086   0.435  1.00  0.00    -0.003 C 
ATOM     18  C   UNL     1     -21.857 117.670   1.162  1.00  0.00     0.004 C 
ENDBRANCH  16  17
ENDBRANCH  15  16
ENDBRANCH  14  15
ENDBRANCH  13  14
ENDBRANCH  12  13
ENDBRANCH  11  12
ENDBRANCH   1  11
TORSDOF 14
ENDMDL
MODEL 2
REMARK VINA RESULT:    -4.047      1.178      3.338
REMARK INTER + INTRA:          -9.599
REMARK INTER:                  -7.294
REMARK INTRA:                  -2.305
REMARK UNBOUND:                -2.239
REMARK SMILES CCCCCCCCCCCCCCCC(=O)[O-]
REMARK SMILES IDX 9 1 10 2 11 3 12 4 13 5 14 6 15 7 16 8 17 9 18 10 8 11 7 12
REMARK SMILES IDX 6 13 5 14 4 15 3 16 2 17 1 18
REMARK H PARENT
REMARK Flexibility Score: inf
ROOT
ATOM      1  C   UNL     1     -20.692 121.170  -0.854  1.00  0.00     0.000 C 
ENDROOT
BRANCH   1   2
ATOM      2  C   UNL     1     -20.034 120.637  -2.138  1.00  0.00     0.000 C 
BRANCH   2   3
ATOM      3  C   UNL     1     -21.040 119.963  -3.089  1.00  0.00     0.000 C 
BRANCH   3   4
ATOM      4  C   UNL     1     -20.960 118.424  -3.145  1.00  0.00     0.000 C 
BRANCH   4   5
ATOM      5  C   UNL     1     -19.977 117.781  -2.146  1.00  0.00     0.000 C 
BRANCH   5   6
ATOM      6  C   UNL     1     -19.465 116.386  -2.544  1.00  0.00     0.006 C 
BRANCH   6   7
ATOM      7  C   UNL     1     -18.840 115.625  -1.369  1.00  0.00     0.053 C 
BRANCH   7   8
ATOM      8  C   UNL     1     -17.416 115.275  -1.672  1.00  0.00     0.041 C 
ATOM      9  O   UNL     1     -16.631 114.953  -0.742  1.00  0.00    -0.550 OA
ATOM     10  O   UNL     1     -16.944 115.355  -2.976  1.00  0.00    -0.550 OA
ENDBRANCH   7   8
ENDBRANCH   6   7
ENDBRANCH   5   6
ENDBRANCH   4   5
ENDBRANCH   3   4
ENDBRANCH   2   3
ENDBRANCH   1   2
BRANCH   1  11
ATOM     11  C   UNL     1     -22.212 120.925  -0.816  1.00  0.00     0.000 C 
BRANCH  11  12
ATOM     12  C   UNL     1     -22.664 119.733   0.052  1.00  0.00    -0.000 C 
BRANCH  12  13
ATOM     13  C   UNL     1     -21.543 119.042   0.851  1.00  0.00    -0.000 C 
BRANCH  13  14
ATOM     14  C   UNL     1     -21.926 117.678   1.460  1.00  0.00    -0.000 C 
BRANCH  14  15
ATOM     15  C   UNL     1     -22.976 116.883   0.660  1.00  0.00    -0.000 C 
BRANCH  15  16
ATOM     16  C   UNL     1     -22.405 115.782  -0.256  1.00  0.00    -0.000 C 
BRANCH  16  17
ATOM     17  C   UNL     1     -23.092 115.662  -1.628  1.00  0.00    -0.003 C 
ATOM     18  C   UNL     1     -24.001 116.848  -1.945  1.00  0.00     0.004 C 
ENDBRANCH  16  17
ENDBRANCH  15  16
ENDBRANCH  14  15
ENDBRANCH  13  14
ENDBRANCH  12  13
ENDBRANCH  11  12
ENDBRANCH   1  11
TORSDOF 14
ENDMDL
MODEL 3
REMARK VINA RESULT:    -3.977      1.294      3.003
REMARK INTER + INTRA:          -9.470
REMARK INTER:                  -7.244
REMARK INTRA:                  -2.226
REMARK UNBOUND:                -2.239
REMARK SMILES CCCCCCCCCCCCCCCC(=O)[O-]
REMARK SMILES IDX 9 1 10 2 11 3 12 4 13 5 14 6 15 7 16 8 17 9 18 10 8 11 7 12
REMARK SMILES IDX 6 13 5 14 4 15 3 16 2 17 1 18
REMARK H PARENT
REMARK Flexibility Score: inf
ROOT
ATOM      1  C   UNL     1     -23.446 117.492   0.422  1.00  0.00     0.000 C 
ENDROOT
BRANCH   1   2
ATOM      2  C   UNL     1     -22.547 116.244   0.459  1.00  0.00     0.000 C 
BRANCH   2   3
ATOM      3  C   UNL     1     -22.525 115.485  -0.880  1.00  0.00     0.000 C 
BRANCH   3   4
ATOM      4  C   UNL     1     -21.218 114.721  -1.180  1.00  0.00     0.000 C 
BRANCH   4   5
ATOM      5  C   UNL     1     -20.032 115.062  -0.256  1.00  0.00     0.000 C 
BRANCH   5   6
ATOM      6  C   UNL     1     -18.649 114.666  -0.801  1.00  0.00     0.006 C 
BRANCH   6   7
ATOM      7  C   UNL     1     -18.718 114.058  -2.207  1.00  0.00     0.053 C 
BRANCH   7   8
ATOM      8  C   UNL     1     -18.029 114.947  -3.194  1.00  0.00     0.041 C 
ATOM      9  O   UNL     1     -16.903 115.441  -2.925  1.00  0.00    -0.550 OA
ATOM     10  O   UNL     1     -18.655 115.272  -4.391  1.00  0.00    -0.550 OA
ENDBRANCH   7   8
ENDBRANCH   6   7
ENDBRANCH   5   6
ENDBRANCH   4   5
ENDBRANCH   3   4
ENDBRANCH   2   3
ENDBRANCH   1   2
BRANCH   1  11
ATOM     11  C   UNL     1     -24.081 117.731  -0.960  1.00  0.00     0.000 C 
BRANCH  11  12
ATOM     12  C   UNL     1     -23.926 119.161  -1.516  1.00  0.00    -0.000 C 
BRANCH  12  13
ATOM     13  C   UNL     1     -23.235 120.161  -0.569  1.00  0.00    -0.000 C 
BRANCH  13  14
ATOM     14  C   UNL     1     -22.164 121.049  -1.233  1.00  0.00    -0.000 C 
BRANCH  14  15
ATOM     15  C   UNL     1     -20.739 120.876  -0.672  1.00  0.00    -0.000 C 
BRANCH  15  16
ATOM     16  C   UNL     1     -19.774 120.078  -1.570  1.00  0.00    -0.000 C 
BRANCH  16  17
ATOM     17  C   UNL     1     -19.956 118.551  -1.519  1.00  0.00    -0.003 C 
ATOM     18  C   UNL     1     -20.598 117.986  -2.786  1.00  0.00     0.004 C 
ENDBRANCH  16  17
ENDBRANCH  15  16
ENDBRANCH  14  15
ENDBRANCH  13  14
ENDBRANCH  12  13
ENDBRANCH  11  12
ENDBRANCH   1  11
TORSDOF 14
ENDMDL
MODEL 4
REMARK VINA RESULT:    -3.959      3.959      6.444
REMARK INTER + INTRA:          -9.439
REMARK INTER:                  -7.466
REMARK INTRA:                  -1.973
REMARK UNBOUND:                -2.239
REMARK SMILES CCCCCCCCCCCCCCCC(=O)[O-]
REMARK SMILES IDX 9 1 10 2 11 3 12 4 13 5 14 6 15 7 16 8 17 9 18 10 8 11 7 12
REMARK SMILES IDX 6 13 5 14 4 15 3 16 2 17 1 18
REMARK H PARENT
REMARK Flexibility Score: inf
ROOT
ATOM      1  C   UNL     1     -20.783 118.164  -2.769  1.00  0.00     0.000 C 
ENDROOT
BRANCH   1   2
ATOM      2  C   UNL     1     -19.762 118.557  -1.688  1.00  0.00     0.000 C 
BRANCH   2   3
ATOM      3  C   UNL     1     -19.709 120.076  -1.440  1.00  0.00     0.000 C 
BRANCH   3   4
ATOM      4  C   UNL     1     -20.740 120.612  -0.425  1.00  0.00     0.000 C 
BRANCH   4   5
ATOM      5  C   UNL     1     -21.893 121.434  -1.033  1.00  0.00     0.000 C 
BRANCH   5   6
ATOM      6  C   UNL     1     -23.209 120.661  -1.230  1.00  0.00     0.006 C 
BRANCH   6   7
ATOM      7  C   UNL     1     -23.887 120.975  -2.569  1.00  0.00     0.053 C 
BRANCH   7   8
ATOM      8  C   UNL     1     -25.291 121.443  -2.347  1.00  0.00     0.041 C 
ATOM      9  O   UNL     1     -25.805 121.383  -1.199  1.00  0.00    -0.550 OA
ATOM     10  O   UNL     1     -26.050 121.897  -3.418  1.00  0.00    -0.550 OA
ENDBRANCH   7   8
ENDBRANCH   6   7
ENDBRANCH   5   6
ENDBRANCH   4   5
ENDBRANCH   3   4
ENDBRANCH   2   3
ENDBRANCH   1   2
BRANCH   1  11
ATOM     11  C   UNL     1     -20.338 116.943  -3.595  1.00  0.00     0.000 C 
BRANCH  11  12
ATOM     12  C   UNL     1     -19.397 115.963  -2.866  1.00  0.00    -0.000 C 
BRANCH  12  13
ATOM     13  C   UNL     1     -19.990 114.566  -2.594  1.00  0.00    -0.000 C 
BRANCH  13  14
ATOM     14  C   UNL     1     -21.292 114.563  -1.769  1.00  0.00    -0.000 C 
BRANCH  14  15
ATOM     15  C   UNL     1     -21.204 115.296  -0.416  1.00  0.00    -0.000 C 
BRANCH  15  16
ATOM     16  C   UNL     1     -22.547 115.816   0.135  1.00  0.00    -0.000 C 
BRANCH  16  17
ATOM     17  C   UNL     1     -22.616 117.340   0.337  1.00  0.00    -0.003 C 
ATOM     18  C   UNL     1     -21.838 117.814   1.564  1.00  0.00     0.004 C 
ENDBRANCH  16  17
ENDBRANCH  15  16
ENDBRANCH  14  15
ENDBRANCH  13  14
ENDBRANCH  12  13
ENDBRANCH  11  12
ENDBRANCH   1  11
TORSDOF 14
ENDMDL
MODEL 5
REMARK VINA RESULT:    -3.942      3.058      6.247
REMARK INTER + INTRA:          -9.407
REMARK INTER:                  -7.004
REMARK INTRA:                  -2.403
REMARK UNBOUND:                -2.239
REMARK SMILES CCCCCCCCCCCCCCCC(=O)[O-]
REMARK SMILES IDX 9 1 10 2 11 3 12 4 13 5 14 6 15 7 16 8 17 9 18 10 8 11 7 12
REMARK SMILES IDX 6 13 5 14 4 15 3 16 2 17 1 18
REMARK H PARENT
REMARK Flexibility Score: inf
ROOT
ATOM      1  C   UNL     1     -20.657 117.314  -0.933  1.00  0.00     0.000 C 
ENDROOT
BRANCH   1   2
ATOM      2  C   UNL     1     -19.707 118.226  -1.728  1.00  0.00     0.000 C 
BRANCH   2   3
ATOM      3  C   UNL     1     -19.806 119.703  -1.306  1.00  0.00     0.000 C 
BRANCH   3   4
ATOM      4  C   UNL     1     -20.297 120.668  -2.405  1.00  0.00     0.000 C 
BRANCH   4   5
ATOM      5  C   UNL     1     -21.429 120.123  -3.299  1.00  0.00     0.000 C 
BRANCH   5   6
ATOM      6  C   UNL     1     -22.850 120.522  -2.864  1.00  0.00     0.006 C 
BRANCH   6   7
ATOM      7  C   UNL     1     -23.588 119.391  -2.138  1.00  0.00     0.053 C 
BRANCH   7   8
ATOM      8  C   UNL     1     -23.527 119.594  -0.657  1.00  0.00     0.041 C 
ATOM      9  O   UNL     1     -23.092 120.676  -0.183  1.00  0.00    -0.550 OA
ATOM     10  O   UNL     1     -23.901 118.568   0.201  1.00  0.00    -0.550 OA
ENDBRANCH   7   8
ENDBRANCH   6   7
ENDBRANCH   5   6
ENDBRANCH   4   5
ENDBRANCH   3   4
ENDBRANCH   2   3
ENDBRANCH   1   2
BRANCH   1  11
ATOM     11  C   UNL     1     -21.299 116.217  -1.801  1.00  0.00     0.000 C 
BRANCH  11  12
ATOM     12  C   UNL     1     -21.102 116.383  -3.322  1.00  0.00    -0.000 C 
BRANCH  12  13
ATOM     13  C   UNL     1     -20.395 115.206  -4.023  1.00  0.00    -0.000 C 
BRANCH  13  14
ATOM     14  C   UNL     1     -18.916 115.456  -4.378  1.00  0.00    -0.000 C 
BRANCH  14  15
ATOM     15  C   UNL     1     -17.900 114.733  -3.471  1.00  0.00    -0.000 C 
BRANCH  15  16
ATOM     16  C   UNL     1     -17.357 115.573  -2.299  1.00  0.00    -0.000 C 
BRANCH  16  17
ATOM     17  C   UNL     1     -17.114 114.788  -0.998  1.00  0.00    -0.003 C 
ATOM     18  C   UNL     1     -18.409 114.404  -0.284  1.00  0.00     0.004 C 
ENDBRANCH  16  17
ENDBRANCH  15  16
ENDBRANCH  14  15
ENDBRANCH  13  14
ENDBRANCH  12  13
ENDBRANCH  11  12
ENDBRANCH   1  11
TORSDOF 14
ENDMDL
MODEL 6
REMARK VINA RESULT:    -3.928      2.570      4.626
REMARK INTER + INTRA:          -9.381
REMARK INTER:                  -7.398
REMARK INTRA:                  -1.983
REMARK UNBOUND:                -2.239
REMARK SMILES CCCCCCCCCCCCCCCC(=O)[O-]
REMARK SMILES IDX 9 1 10 2 11 3 12 4 13 5 14 6 15 7 16 8 17 9 18 10 8 11 7 12
REMARK SMILES IDX 6 13 5 14 4 15 3 16 2 17 1 18
REMARK H PARENT
REMARK Flexibility Score: inf
ROOT
ATOM      1  C   UNL     1     -17.862 115.914  -2.369  1.00  0.00     0.000 C 
ENDROOT
BRANCH   1   2
ATOM      2  C   UNL     1     -17.453 114.952  -1.241  1.00  0.00     0.000 C 
BRANCH   2   3
ATOM      3  C   UNL     1     -18.592 114.685  -0.241  1.00  0.00     0.000 C 
BRANCH   3   4
ATOM      4  C   UNL     1     -19.806 113.926  -0.816  1.00  0.00     0.000 C 
BRANCH   4   5
ATOM      5  C   UNL     1     -21.146 114.685  -0.749  1.00  0.00     0.000 C 
BRANCH   5   6
ATOM      6  C   UNL     1     -21.098 116.023   0.010  1.00  0.00     0.006 C 
BRANCH   6   7
ATOM      7  C   UNL     1     -22.483 116.495   0.470  1.00  0.00     0.053 C 
BRANCH   7   8
ATOM      8  C   UNL     1     -22.485 117.976   0.683  1.00  0.00     0.041 C 
ATOM      9  O   UNL     1     -23.371 118.692   0.147  1.00  0.00    -0.550 OA
ATOM     10  O   UNL     1     -21.478 118.572   1.433  1.00  0.00    -0.550 OA
ENDBRANCH   7   8
ENDBRANCH   6   7
ENDBRANCH   5   6
ENDBRANCH   4   5
ENDBRANCH   3   4
ENDBRANCH   2   3
ENDBRANCH   1   2
BRANCH   1  11
ATOM     11  C   UNL     1     -18.206 115.185  -3.681  1.00  0.00     0.000 C 
BRANCH  11  12
ATOM     12  C   UNL     1     -19.367 115.799  -4.490  1.00  0.00    -0.000 C 
BRANCH  12  13
ATOM     13  C   UNL     1     -20.494 116.425  -3.646  1.00  0.00    -0.000 C 
BRANCH  13  14
ATOM     14  C   UNL     1     -21.064 117.745  -4.202  1.00  0.00    -0.000 C 
BRANCH  14  15
ATOM     15  C   UNL     1     -21.229 118.870  -3.162  1.00  0.00    -0.000 C 
BRANCH  15  16
ATOM     16  C   UNL     1     -20.212 118.845  -2.005  1.00  0.00    -0.000 C 
BRANCH  16  17
ATOM     17  C   UNL     1     -19.837 120.227  -1.442  1.00  0.00    -0.003 C 
ATOM     18  C   UNL     1     -21.057 121.089  -1.118  1.00  0.00     0.004 C 
ENDBRANCH  16  17
ENDBRANCH  15  16
ENDBRANCH  14  15
ENDBRANCH  13  14
ENDBRANCH  12  13
ENDBRANCH  11  12
ENDBRANCH   1  11
TORSDOF 14
ENDMDL
MODEL 7
REMARK VINA RESULT:    -3.921      2.956      6.122
REMARK INTER + INTRA:          -9.370
REMARK INTER:                  -7.259
REMARK INTRA:                  -2.111
REMARK UNBOUND:                -2.239
REMARK SMILES CCCCCCCCCCCCCCCC(=O)[O-]
REMARK SMILES IDX 9 1 10 2 11 3 12 4 13 5 14 6 15 7 16 8 17 9 18 10 8 11 7 12
REMARK SMILES IDX 6 13 5 14 4 15 3 16 2 17 1 18
REMARK H PARENT
REMARK Flexibility Score: inf
ROOT
ATOM      1  C   UNL     1     -22.325 116.104  -2.740  1.00  0.00     0.000 C 
ENDROOT
BRANCH   1   2
ATOM      2  C   UNL     1     -21.892 117.565  -2.953  1.00  0.00     0.000 C 
BRANCH   2   3
ATOM      3  C   UNL     1     -20.376 117.769  -2.781  1.00  0.00     0.000 C 
BRANCH   3   4
ATOM      4  C   UNL     1     -19.957 118.545  -1.516  1.00  0.00     0.000 C 
BRANCH   4   5
ATOM      5  C   UNL     1     -19.782 120.066  -1.706  1.00  0.00     0.000 C 
BRANCH   5   6
ATOM      6  C   UNL     1     -20.836 120.935  -0.997  1.00  0.00     0.006 C 
BRANCH   6   7
ATOM      7  C   UNL     1     -21.668 120.146   0.021  1.00  0.00     0.053 C 
BRANCH   7   8
ATOM      8  C   UNL     1     -23.094 120.061  -0.424  1.00  0.00     0.041 C 
ATOM      9  O   UNL     1     -23.762 119.014  -0.216  1.00  0.00    -0.550 OA
ATOM     10  O   UNL     1     -23.670 121.120  -1.115  1.00  0.00    -0.550 OA
ENDBRANCH   7   8
ENDBRANCH   6   7
ENDBRANCH   5   6
ENDBRANCH   4   5
ENDBRANCH   3   4
ENDBRANCH   2   3
ENDBRANCH   1   2
BRANCH   1  11
ATOM     11  C   UNL     1     -22.878 115.845  -1.327  1.00  0.00     0.000 C 
BRANCH  11  12
ATOM     12  C   UNL     1     -21.863 115.270  -0.318  1.00  0.00    -0.000 C 
BRANCH  12  13
ATOM     13  C   UNL     1     -20.622 114.605  -0.945  1.00  0.00    -0.000 C 
BRANCH  13  14
ATOM     14  C   UNL     1     -19.276 115.024  -0.321  1.00  0.00    -0.000 C 
BRANCH  14  15
ATOM     15  C   UNL     1     -18.028 114.514  -1.068  1.00  0.00    -0.000 C 
BRANCH  15  16
ATOM     16  C   UNL     1     -17.610 115.352  -2.292  1.00  0.00    -0.000 C 
BRANCH  16  17
ATOM     17  C   UNL     1     -17.645 114.599  -3.634  1.00  0.00    -0.003 C 
ATOM     18  C   UNL     1     -19.010 114.666  -4.318  1.00  0.00     0.004 C 
ENDBRANCH  16  17
ENDBRANCH  15  16
ENDBRANCH  14  15
ENDBRANCH  13  14
ENDBRANCH  12  13
ENDBRANCH  11  12
ENDBRANCH   1  11
TORSDOF 14
ENDMDL
MODEL 8
REMARK VINA RESULT:    -3.891      1.900      3.875
REMARK INTER + INTRA:          -9.315
REMARK INTER:                  -6.647
REMARK INTRA:                  -2.669
REMARK UNBOUND:                -2.239
REMARK SMILES CCCCCCCCCCCCCCCC(=O)[O-]
REMARK SMILES IDX 9 1 10 2 11 3 12 4 13 5 14 6 15 7 16 8 17 9 18 10 8 11 7 12
REMARK SMILES IDX 6 13 5 14 4 15 3 16 2 17 1 18
REMARK H PARENT
REMARK Flexibility Score: inf
ROOT
ATOM      1  C   UNL     1     -22.593 118.161   0.982  1.00  0.00     0.000 C 
ENDROOT
BRANCH   1   2
ATOM      2  C   UNL     1     -21.712 116.905   0.867  1.00  0.00     0.000 C 
BRANCH   2   3
ATOM      3  C   UNL     1     -22.413 115.750   0.129  1.00  0.00     0.000 C 
BRANCH   3   4
ATOM      4  C   UNL     1     -21.490 114.870  -0.739  1.00  0.00     0.000 C 
BRANCH   4   5
ATOM      5  C   UNL     1     -19.992 115.230  -0.677  1.00  0.00     0.000 C 
BRANCH   5   6
ATOM      6  C   UNL     1     -19.251 115.161  -2.024  1.00  0.00     0.006 C 
BRANCH   6   7
ATOM      7  C   UNL     1     -20.052 114.424  -3.105  1.00  0.00     0.053 C 
BRANCH   7   8
ATOM      8  C   UNL     1     -20.331 115.334  -4.260  1.00  0.00     0.041 C 
ATOM      9  O   UNL     1     -21.466 115.338  -4.804  1.00  0.00    -0.550 OA
ATOM     10  O   UNL     1     -19.321 116.140  -4.768  1.00  0.00    -0.550 OA
ENDBRANCH   7   8
ENDBRANCH   6   7
ENDBRANCH   5   6
ENDBRANCH   4   5
ENDBRANCH   3   4
ENDBRANCH   2   3
ENDBRANCH   1   2
BRANCH   1  11
ATOM     11  C   UNL     1     -23.812 118.125   0.042  1.00  0.00     0.000 C 
BRANCH  11  12
ATOM     12  C   UNL     1     -23.932 119.320  -0.926  1.00  0.00    -0.000 C 
BRANCH  12  13
ATOM     13  C   UNL     1     -23.740 118.978  -2.416  1.00  0.00    -0.000 C 
BRANCH  13  14
ATOM     14  C   UNL     1     -22.556 118.039  -2.719  1.00  0.00    -0.000 C 
BRANCH  14  15
ATOM     15  C   UNL     1     -21.227 118.752  -3.038  1.00  0.00    -0.000 C 
BRANCH  15  16
ATOM     16  C   UNL     1     -20.197 118.761  -1.891  1.00  0.00    -0.000 C 
BRANCH  16  17
ATOM     17  C   UNL     1     -19.703 120.157  -1.475  1.00  0.00    -0.003 C 
ATOM     18  C   UNL     1     -20.839 121.096  -1.071  1.00  0.00     0.004 C 
ENDBRANCH  16  17
ENDBRANCH  15  16
ENDBRANCH  14  15
ENDBRANCH  13  14
ENDBRANCH  12  13
ENDBRANCH  11  12
ENDBRANCH   1  11
TORSDOF 14
ENDMDL
MODEL 9
REMARK VINA RESULT:    -3.824      1.658      2.750
REMARK INTER + INTRA:          -9.193
REMARK INTER:                  -6.773
REMARK INTRA:                  -2.420
REMARK UNBOUND:                -2.239
REMARK SMILES CCCCCCCCCCCCCCCC(=O)[O-]
REMARK SMILES IDX 9 1 10 2 11 3 12 4 13 5 14 6 15 7 16 8 17 9 18 10 8 11 7 12
REMARK SMILES IDX 6 13 5 14 4 15 3 16 2 17 1 18
REMARK H PARENT
REMARK Flexibility Score: inf
ROOT
ATOM      1  C   UNL     1     -21.487 119.418   0.674  1.00  0.00     0.000 C 
ENDROOT
BRANCH   1   2
ATOM      2  C   UNL     1     -21.318 117.982   0.148  1.00  0.00     0.000 C 
BRANCH   2   3
ATOM      3  C   UNL     1     -22.242 116.974   0.856  1.00  0.00     0.000 C 
BRANCH   3   4
ATOM      4  C   UNL     1     -22.598 115.720   0.032  1.00  0.00     0.000 C 
BRANCH   4   5
ATOM      5  C   UNL     1     -22.318 115.827  -1.480  1.00  0.00     0.000 C 
BRANCH   5   6
ATOM      6  C   UNL     1     -21.154 114.957  -1.988  1.00  0.00     0.006 C 
BRANCH   6   7
ATOM      7  C   UNL     1     -19.905 115.777  -2.329  1.00  0.00     0.053 C 
BRANCH   7   8
ATOM      8  C   UNL     1     -18.826 115.529  -1.321  1.00  0.00     0.041 C 
ATOM      9  O   UNL     1     -19.095 114.954  -0.234  1.00  0.00    -0.550 OA
ATOM     10  O   UNL     1     -17.534 115.979  -1.561  1.00  0.00    -0.550 OA
ENDBRANCH   7   8
ENDBRANCH   6   7
ENDBRANCH   5   6
ENDBRANCH   4   5
ENDBRANCH   3   4
ENDBRANCH   2   3
ENDBRANCH   1   2
BRANCH   1  11
ATOM     11  C   UNL     1     -20.757 120.461  -0.190  1.00  0.00     0.000 C 
BRANCH  11  12
ATOM     12  C   UNL     1     -20.037 119.898  -1.433  1.00  0.00    -0.000 C 
BRANCH  12  13
ATOM     13  C   UNL     1     -20.668 120.284  -2.786  1.00  0.00    -0.000 C 
BRANCH  13  14
ATOM     14  C   UNL     1     -22.092 119.739  -3.016  1.00  0.00    -0.000 C 
BRANCH  14  15
ATOM     15  C   UNL     1     -23.221 120.764  -2.791  1.00  0.00    -0.000 C 
BRANCH  15  16
ATOM     16  C   UNL     1     -24.256 120.372  -1.719  1.00  0.00    -0.000 C 
BRANCH  16  17
ATOM     17  C   UNL     1     -24.512 118.860  -1.588  1.00  0.00    -0.003 C 
ATOM     18  C   UNL     1     -25.386 118.506  -0.385  1.00  0.00     0.004 C 
ENDBRANCH  16  17
ENDBRANCH  15  16
ENDBRANCH  14  15
ENDBRANCH  13  14
ENDBRANCH  12  13
ENDBRANCH  11  12
ENDBRANCH   1  11
TORSDOF 14
ENDMDL
