MODEL 1
REMARK VINA RESULT:    -4.665      0.000      0.000
REMARK INTER + INTRA:          -8.655
REMARK INTER:                  -7.938
REMARK INTRA:                  -0.717
REMARK UNBOUND:                -0.717
REMARK SMILES CCCCCCCCCCCCCC(=O)[O-]
REMARK SMILES IDX 8 1 9 2 10 3 11 4 12 5 13 6 14 7 15 8 16 9 7 10 6 11 5 12
REMARK SMILES IDX 4 13 3 14 2 15 1 16
REMARK H PARENT
REMARK Flexibility Score: inf
ROOT
ATOM      1  C   UNL     1      -5.177  -4.006   3.397  1.00  0.00     0.000 C 
ENDROOT
BRANCH   1   2
ATOM      2  C   UNL     1      -5.518  -3.025   2.263  1.00  0.00     0.000 C 
BRANCH   2   3
ATOM      3  C   UNL     1      -4.769  -3.340   0.959  1.00  0.00     0.000 C 
BRANCH   3   4
ATOM      4  C   UNL     1      -4.679  -4.854   0.731  1.00  0.00     0.000 C 
BRANCH   4   5
ATOM      5  C   UNL     1      -5.919  -5.374  -0.012  1.00  0.00     0.006 C 
BRANCH   5   6
ATOM      6  C   UNL     1      -6.045  -4.780  -1.420  1.00  0.00     0.053 C 
BRANCH   6   7
ATOM      7  C   UNL     1      -6.231  -5.844  -2.458  1.00  0.00     0.041 C 
ATOM      8  O   UNL     1      -7.385  -6.260  -2.742  1.00  0.00    -0.550 OA
ATOM      9  O   UNL     1      -5.124  -6.402  -3.087  1.00  0.00    -0.550 OA
ENDBRANCH   6   7
ENDBRANCH   5   6
ENDBRANCH   4   5
ENDBRANCH   3   4
ENDBRANCH   2   3
ENDBRANCH   1   2
BRANCH   1  10
ATOM     10  C   UNL     1      -4.897  -3.292   4.731  1.00  0.00     0.000 C 
BRANCH  10  11
ATOM     11  C   UNL     1      -4.389  -1.854   4.536  1.00  0.00    -0.000 C 
BRANCH  11  12
ATOM     12  C   UNL     1      -4.392  -1.044   5.844  1.00  0.00    -0.000 C 
BRANCH  12  13
ATOM     13  C   UNL     1      -3.262  -0.004   5.898  1.00  0.00    -0.000 C 
BRANCH  13  14
ATOM     14  C   UNL     1      -2.159  -0.271   4.863  1.00  0.00    -0.000 C 
BRANCH  14  15
ATOM     15  C   UNL     1      -0.812   0.288   5.340  1.00  0.00    -0.003 C 
ATOM     16  C   UNL     1      -0.730   0.301   6.864  1.00  0.00     0.004 C 
ENDBRANCH  14  15
ENDBRANCH  13  14
ENDBRANCH  12  13
ENDBRANCH  11  12
ENDBRANCH  10  11
ENDBRANCH   1  10
TORSDOF 12
ENDMDL
MODEL 2
REMARK VINA RESULT:    -4.590      1.407      2.738
REMARK INTER + INTRA:          -8.526
REMARK INTER:                  -7.790
REMARK INTRA:                  -0.736
REMARK UNBOUND:                -0.717
REMARK SMILES CCCCCCCCCCCCCC(=O)[O-]
REMARK SMILES IDX 8 1 9 2 10 3 11 4 12 5 13 6 14 7 15 8 16 9 7 10 6 11 5 12
REMARK SMILES IDX 4 13 3 14 2 15 1 16
REMARK H PARENT
REMARK Flexibility Score: inf
ROOT
ATOM      1  C   UNL     1      -4.143  -2.339   5.846  1.00  0.00     0.000 C 
ENDROOT
BRANCH   1   2
ATOM      2  C   UNL     1      -4.830  -3.191   4.767  1.00  0.00     0.000 C 
BRANCH   2   3
ATOM      3  C   UNL     1      -4.775  -2.544   3.374  1.00  0.00     0.000 C 
BRANCH   3   4
ATOM      4  C   UNL     1      -5.612  -3.340   2.366  1.00  0.00     0.000 C 
BRANCH   4   5
ATOM      5  C   UNL     1      -4.871  -3.489   1.029  1.00  0.00     0.006 C 
BRANCH   5   6
ATOM      6  C   UNL     1      -4.703  -4.958   0.618  1.00  0.00     0.053 C 
BRANCH   6   7
ATOM      7  C   UNL     1      -5.778  -5.396  -0.329  1.00  0.00     0.041 C 
ATOM      8  O   UNL     1      -5.526  -5.538  -1.554  1.00  0.00    -0.550 OA
ATOM      9  O   UNL     1      -7.069  -5.613   0.138  1.00  0.00    -0.550 OA
ENDBRANCH   6   7
ENDBRANCH   5   6
ENDBRANCH   4   5
ENDBRANCH   3   4
ENDBRANCH   2   3
ENDBRANCH   1   2
BRANCH   1  10
ATOM     10  C   UNL     1      -4.355  -0.830   5.631  1.00  0.00     0.000 C 
BRANCH  10  11
ATOM     11  C   UNL     1      -3.108  -0.003   5.984  1.00  0.00    -0.000 C 
BRANCH  11  12
ATOM     12  C   UNL     1      -2.037  -0.048   4.880  1.00  0.00    -0.000 C 
BRANCH  12  13
ATOM     13  C   UNL     1      -0.614   0.140   5.429  1.00  0.00    -0.000 C 
BRANCH  13  14
ATOM     14  C   UNL     1      -0.363  -0.661   6.716  1.00  0.00    -0.000 C 
BRANCH  14  15
ATOM     15  C   UNL     1       1.096  -1.124   6.797  1.00  0.00    -0.003 C 
ATOM     16  C   UNL     1       1.692  -1.319   5.405  1.00  0.00     0.004 C 
ENDBRANCH  14  15
ENDBRANCH  13  14
ENDBRANCH  12  13
ENDBRANCH  11  12
ENDBRANCH  10  11
ENDBRANCH   1  10
TORSDOF 12
ENDMDL
MODEL 3
REMARK VINA RESULT:    -4.556      1.081      1.743
REMARK INTER + INTRA:          -8.469
REMARK INTER:                  -7.906
REMARK INTRA:                  -0.563
REMARK UNBOUND:                -0.717
REMARK SMILES CCCCCCCCCCCCCC(=O)[O-]
REMARK SMILES IDX 8 1 9 2 10 3 11 4 12 5 13 6 14 7 15 8 16 9 7 10 6 11 5 12
REMARK SMILES IDX 4 13 3 14 2 15 1 16
REMARK H PARENT
REMARK Flexibility Score: inf
ROOT
ATOM      1  C   UNL     1      -5.106  -2.703   1.945  1.00  0.00     0.000 C 
ENDROOT
BRANCH   1   2
ATOM      2  C   UNL     1      -5.162  -4.238   2.009  1.00  0.00     0.000 C 
BRANCH   2   3
ATOM      3  C   UNL     1      -4.909  -4.899   0.646  1.00  0.00     0.000 C 
BRANCH   3   4
ATOM      4  C   UNL     1      -6.223  -5.371   0.012  1.00  0.00     0.000 C 
BRANCH   4   5
ATOM      5  C   UNL     1      -6.356  -4.857  -1.429  1.00  0.00     0.006 C 
BRANCH   5   6
ATOM      6  C   UNL     1      -6.813  -5.955  -2.398  1.00  0.00     0.053 C 
BRANCH   6   7
ATOM      7  C   UNL     1      -5.919  -6.047  -3.596  1.00  0.00     0.041 C 
ATOM      8  O   UNL     1      -4.905  -6.792  -3.577  1.00  0.00    -0.550 OA
ATOM      9  O   UNL     1      -6.188  -5.280  -4.724  1.00  0.00    -0.550 OA
ENDBRANCH   6   7
ENDBRANCH   5   6
ENDBRANCH   4   5
ENDBRANCH   3   4
ENDBRANCH   2   3
ENDBRANCH   1   2
BRANCH   1  10
ATOM     10  C   UNL     1      -4.676  -2.072   3.281  1.00  0.00     0.000 C 
BRANCH  10  11
ATOM     11  C   UNL     1      -4.753  -3.063   4.454  1.00  0.00    -0.000 C 
BRANCH  11  12
ATOM     12  C   UNL     1      -4.334  -2.428   5.792  1.00  0.00    -0.000 C 
BRANCH  12  13
ATOM     13  C   UNL     1      -3.772  -1.008   5.621  1.00  0.00    -0.000 C 
BRANCH  13  14
ATOM     14  C   UNL     1      -2.894  -0.570   6.803  1.00  0.00    -0.000 C 
BRANCH  14  15
ATOM     15  C   UNL     1      -1.507  -0.128   6.321  1.00  0.00    -0.003 C 
ATOM     16  C   UNL     1      -1.615   0.932   5.228  1.00  0.00     0.004 C 
ENDBRANCH  14  15
ENDBRANCH  13  14
ENDBRANCH  12  13
ENDBRANCH  11  12
ENDBRANCH  10  11
ENDBRANCH   1  10
TORSDOF 12
ENDMDL
MODEL 4
REMARK VINA RESULT:    -4.519      2.792      3.432
REMARK INTER + INTRA:          -8.407
REMARK INTER:                  -7.261
REMARK INTRA:                  -1.146
REMARK UNBOUND:                -0.717
REMARK SMILES CCCCCCCCCCCCCC(=O)[O-]
REMARK SMILES IDX 8 1 9 2 10 3 11 4 12 5 13 6 14 7 15 8 16 9 7 10 6 11 5 12
REMARK SMILES IDX 4 13 3 14 2 15 1 16
REMARK H PARENT
REMARK Flexibility Score: inf
ROOT
ATOM      1  C   UNL     1      -5.597  -5.278   3.282  1.00  0.00     0.000 C 
ENDROOT
BRANCH   1   2
ATOM      2  C   UNL     1      -6.058  -5.200   1.818  1.00  0.00     0.000 C 
BRANCH   2   3
ATOM      3  C   UNL     1      -4.904  -4.904   0.847  1.00  0.00     0.000 C 
BRANCH   3   4
ATOM      4  C   UNL     1      -4.633  -3.397   0.761  1.00  0.00     0.000 C 
BRANCH   4   5
ATOM      5  C   UNL     1      -5.888  -2.637   0.306  1.00  0.00     0.006 C 
BRANCH   5   6
ATOM      6  C   UNL     1      -5.923  -1.200   0.843  1.00  0.00     0.053 C 
BRANCH   6   7
ATOM      7  C   UNL     1      -6.276  -0.215  -0.229  1.00  0.00     0.041 C 
ATOM      8  O   UNL     1      -6.997   0.782   0.036  1.00  0.00    -0.550 OA
ATOM      9  O   UNL     1      -5.834  -0.418  -1.532  1.00  0.00    -0.550 OA
ENDBRANCH   6   7
ENDBRANCH   5   6
ENDBRANCH   4   5
ENDBRANCH   3   4
ENDBRANCH   2   3
ENDBRANCH   1   2
BRANCH   1  10
ATOM     10  C   UNL     1      -5.929  -4.000   4.074  1.00  0.00     0.000 C 
BRANCH  10  11
ATOM     11  C   UNL     1      -4.690  -3.381   4.743  1.00  0.00    -0.000 C 
BRANCH  11  12
ATOM     12  C   UNL     1      -4.460  -1.920   4.321  1.00  0.00    -0.000 C 
BRANCH  12  13
ATOM     13  C   UNL     1      -4.465  -0.953   5.515  1.00  0.00    -0.000 C 
BRANCH  13  14
ATOM     14  C   UNL     1      -3.074  -0.778   6.143  1.00  0.00    -0.000 C 
BRANCH  14  15
ATOM     15  C   UNL     1      -2.319   0.386   5.489  1.00  0.00    -0.003 C 
ATOM     16  C   UNL     1      -0.908  -0.029   5.083  1.00  0.00     0.004 C 
ENDBRANCH  14  15
ENDBRANCH  13  14
ENDBRANCH  12  13
ENDBRANCH  11  12
ENDBRANCH  10  11
ENDBRANCH   1  10
TORSDOF 12
ENDMDL
MODEL 5
REMARK VINA RESULT:    -4.425      1.417      1.911
REMARK INTER + INTRA:          -8.246
REMARK INTER:                  -7.571
REMARK INTRA:                  -0.675
REMARK UNBOUND:                -0.717
REMARK SMILES CCCCCCCCCCCCCC(=O)[O-]
REMARK SMILES IDX 8 1 9 2 10 3 11 4 12 5 13 6 14 7 15 8 16 9 7 10 6 11 5 12
REMARK SMILES IDX 4 13 3 14 2 15 1 16
REMARK H PARENT
REMARK Flexibility Score: inf
ROOT
ATOM      1  C   UNL     1      -4.952  -3.709   4.648  1.00  0.00     0.000 C 
ENDROOT
BRANCH   1   2
ATOM      2  C   UNL     1      -5.060  -3.064   3.257  1.00  0.00     0.000 C 
BRANCH   2   3
ATOM      3  C   UNL     1      -6.130  -3.727   2.375  1.00  0.00     0.000 C 
BRANCH   3   4
ATOM      4  C   UNL     1      -5.653  -5.092   1.866  1.00  0.00     0.000 C 
BRANCH   4   5
ATOM      5  C   UNL     1      -4.764  -4.937   0.623  1.00  0.00     0.006 C 
BRANCH   5   6
ATOM      6  C   UNL     1      -5.517  -5.262  -0.674  1.00  0.00     0.053 C 
BRANCH   6   7
ATOM      7  C   UNL     1      -6.326  -4.096  -1.153  1.00  0.00     0.041 C 
ATOM      8  O   UNL     1      -5.809  -2.951  -1.226  1.00  0.00    -0.550 OA
ATOM      9  O   UNL     1      -7.665  -4.269  -1.486  1.00  0.00    -0.550 OA
ENDBRANCH   6   7
ENDBRANCH   5   6
ENDBRANCH   4   5
ENDBRANCH   3   4
ENDBRANCH   2   3
ENDBRANCH   1   2
BRANCH   1  10
ATOM     10  C   UNL     1      -4.444  -2.726   5.717  1.00  0.00     0.000 C 
BRANCH  10  11
ATOM     11  C   UNL     1      -4.651  -1.256   5.313  1.00  0.00    -0.000 C 
BRANCH  11  12
ATOM     12  C   UNL     1      -3.579  -0.325   5.906  1.00  0.00    -0.000 C 
BRANCH  12  13
ATOM     13  C   UNL     1      -2.328  -0.224   5.020  1.00  0.00    -0.000 C 
BRANCH  13  14
ATOM     14  C   UNL     1      -1.356   0.870   5.486  1.00  0.00    -0.000 C 
BRANCH  14  15
ATOM     15  C   UNL     1      -0.600   0.432   6.747  1.00  0.00    -0.003 C 
ATOM     16  C   UNL     1       0.354  -0.720   6.445  1.00  0.00     0.004 C 
ENDBRANCH  14  15
ENDBRANCH  13  14
ENDBRANCH  12  13
ENDBRANCH  11  12
ENDBRANCH  10  11
ENDBRANCH   1  10
TORSDOF 12
ENDMDL
MODEL 6
REMARK VINA RESULT:    -4.356      2.579      4.965
REMARK INTER + INTRA:          -8.129
REMARK INTER:                  -7.214
REMARK INTRA:                  -0.915
REMARK UNBOUND:                -0.717
REMARK SMILES CCCCCCCCCCCCCC(=O)[O-]
REMARK SMILES IDX 8 1 9 2 10 3 11 4 12 5 13 6 14 7 15 8 16 9 7 10 6 11 5 12
REMARK SMILES IDX 4 13 3 14 2 15 1 16
REMARK H PARENT
REMARK Flexibility Score: inf
ROOT
ATOM      1  C   UNL     1      -2.160  -0.091   4.901  1.00  0.00     0.000 C 
ENDROOT
BRANCH   1   2
ATOM      2  C   UNL     1      -3.184  -0.313   6.026  1.00  0.00     0.000 C 
BRANCH   2   3
ATOM      3  C   UNL     1      -4.492  -0.944   5.522  1.00  0.00     0.000 C 
BRANCH   3   4
ATOM      4  C   UNL     1      -4.207  -2.152   4.621  1.00  0.00     0.000 C 
BRANCH   4   5
ATOM      5  C   UNL     1      -5.307  -2.322   3.563  1.00  0.00     0.006 C 
BRANCH   5   6
ATOM      6  C   UNL     1      -4.820  -1.958   2.154  1.00  0.00     0.053 C 
BRANCH   6   7
ATOM      7  C   UNL     1      -5.219  -2.991   1.145  1.00  0.00     0.041 C 
ATOM      8  O   UNL     1      -4.342  -3.684   0.565  1.00  0.00    -0.550 OA
ATOM      9  O   UNL     1      -6.559  -3.164   0.820  1.00  0.00    -0.550 OA
ENDBRANCH   6   7
ENDBRANCH   5   6
ENDBRANCH   4   5
ENDBRANCH   3   4
ENDBRANCH   2   3
ENDBRANCH   1   2
BRANCH   1  10
ATOM     10  C   UNL     1      -0.755   0.234   5.438  1.00  0.00     0.000 C 
BRANCH  10  11
ATOM     11  C   UNL     1      -0.704   0.271   6.975  1.00  0.00    -0.000 C 
BRANCH  11  12
ATOM     12  C   UNL     1       0.563  -0.396   7.539  1.00  0.00    -0.000 C 
BRANCH  12  13
ATOM     13  C   UNL     1       1.072  -1.542   6.652  1.00  0.00    -0.000 C 
BRANCH  13  14
ATOM     14  C   UNL     1       2.525  -1.340   6.195  1.00  0.00    -0.000 C 
BRANCH  14  15
ATOM     15  C   UNL     1       2.835  -2.194   4.960  1.00  0.00    -0.003 C 
ATOM     16  C   UNL     1       2.134  -1.646   3.720  1.00  0.00     0.004 C 
ENDBRANCH  14  15
ENDBRANCH  13  14
ENDBRANCH  12  13
ENDBRANCH  11  12
ENDBRANCH  10  11
ENDBRANCH   1  10
TORSDOF 12
ENDMDL
MODEL 7
REMARK VINA RESULT:    -4.316      4.995      8.227
REMARK INTER + INTRA:          -8.060
REMARK INTER:                  -7.429
REMARK INTRA:                  -0.632
REMARK UNBOUND:                -0.717
REMARK SMILES CCCCCCCCCCCCCC(=O)[O-]
REMARK SMILES IDX 8 1 9 2 10 3 11 4 12 5 13 6 14 7 15 8 16 9 7 10 6 11 5 12
REMARK SMILES IDX 4 13 3 14 2 15 1 16
REMARK H PARENT
REMARK Flexibility Score: inf
ROOT
ATOM      1  C   UNL     1      -0.980   0.292   5.500  1.00  0.00     0.000 C 
ENDROOT
BRANCH   1   2
ATOM      2  C   UNL     1      -0.298  -0.416   6.682  1.00  0.00     0.000 C 
BRANCH   2   3
ATOM      3  C   UNL     1       1.057  -1.034   6.303  1.00  0.00     0.000 C 
BRANCH   3   4
ATOM      4  C   UNL     1       1.240  -1.063   4.781  1.00  0.00     0.000 C 
BRANCH   4   5
ATOM      5  C   UNL     1       2.327  -2.069   4.375  1.00  0.00     0.006 C 
BRANCH   5   6
ATOM      6  C   UNL     1       2.664  -1.990   2.881  1.00  0.00     0.053 C 
BRANCH   6   7
ATOM      7  C   UNL     1       4.123  -1.738   2.653  1.00  0.00     0.041 C 
ATOM      8  O   UNL     1       4.677  -0.720   3.146  1.00  0.00    -0.550 OA
ATOM      9  O   UNL     1       4.865  -2.613   1.867  1.00  0.00    -0.550 OA
ENDBRANCH   6   7
ENDBRANCH   5   6
ENDBRANCH   4   5
ENDBRANCH   3   4
ENDBRANCH   2   3
ENDBRANCH   1   2
BRANCH   1  10
ATOM     10  C   UNL     1      -2.515   0.223   5.576  1.00  0.00     0.000 C 
BRANCH  10  11
ATOM     11  C   UNL     1      -3.016  -1.071   6.239  1.00  0.00    -0.000 C 
BRANCH  11  12
ATOM     12  C   UNL     1      -4.299  -1.612   5.583  1.00  0.00    -0.000 C 
BRANCH  12  13
ATOM     13  C   UNL     1      -4.195  -1.680   4.052  1.00  0.00    -0.000 C 
BRANCH  13  14
ATOM     14  C   UNL     1      -5.043  -2.810   3.448  1.00  0.00    -0.000 C 
BRANCH  14  15
ATOM     15  C   UNL     1      -4.920  -2.831   1.920  1.00  0.00    -0.003 C 
ATOM     16  C   UNL     1      -4.948  -4.260   1.384  1.00  0.00     0.004 C 
ENDBRANCH  14  15
ENDBRANCH  13  14
ENDBRANCH  12  13
ENDBRANCH  11  12
ENDBRANCH  10  11
ENDBRANCH   1  10
TORSDOF 12
ENDMDL
MODEL 8
REMARK VINA RESULT:    -4.313      4.769      8.635
REMARK INTER + INTRA:          -8.055
REMARK INTER:                  -7.267
REMARK INTRA:                  -0.787
REMARK UNBOUND:                -0.717
REMARK SMILES CCCCCCCCCCCCCC(=O)[O-]
REMARK SMILES IDX 8 1 9 2 10 3 11 4 12 5 13 6 14 7 15 8 16 9 7 10 6 11 5 12
REMARK SMILES IDX 4 13 3 14 2 15 1 16
REMARK H PARENT
REMARK Flexibility Score: inf
ROOT
ATOM      1  C   UNL     1      -4.127  -2.347   5.379  1.00  0.00     0.000 C 
ENDROOT
BRANCH   1   2
ATOM      2  C   UNL     1      -4.596  -0.997   5.947  1.00  0.00     0.000 C 
BRANCH   2   3
ATOM      3  C   UNL     1      -3.433  -0.028   6.213  1.00  0.00     0.000 C 
BRANCH   3   4
ATOM      4  C   UNL     1      -2.407  -0.078   5.074  1.00  0.00     0.000 C 
BRANCH   4   5
ATOM      5  C   UNL     1      -1.054   0.490   5.527  1.00  0.00     0.006 C 
BRANCH   5   6
ATOM      6  C   UNL     1      -0.734   0.139   6.986  1.00  0.00     0.053 C 
BRANCH   6   7
ATOM      7  C   UNL     1       0.559  -0.607   7.107  1.00  0.00     0.041 C 
ATOM      8  O   UNL     1       1.019  -1.245   6.123  1.00  0.00    -0.550 OA
ATOM      9  O   UNL     1       1.239  -0.627   8.319  1.00  0.00    -0.550 OA
ENDBRANCH   6   7
ENDBRANCH   5   6
ENDBRANCH   4   5
ENDBRANCH   3   4
ENDBRANCH   2   3
ENDBRANCH   1   2
BRANCH   1  10
ATOM     10  C   UNL     1      -5.052  -2.871   4.266  1.00  0.00     0.000 C 
BRANCH  10  11
ATOM     11  C   UNL     1      -5.073  -1.951   3.034  1.00  0.00    -0.000 C 
BRANCH  11  12
ATOM     12  C   UNL     1      -4.866  -2.722   1.718  1.00  0.00    -0.000 C 
BRANCH  12  13
ATOM     13  C   UNL     1      -5.205  -4.215   1.849  1.00  0.00    -0.000 C 
BRANCH  13  14
ATOM     14  C   UNL     1      -4.826  -5.023   0.598  1.00  0.00    -0.000 C 
BRANCH  14  15
ATOM     15  C   UNL     1      -5.612  -4.538  -0.626  1.00  0.00    -0.003 C 
ATOM     16  C   UNL     1      -5.781  -5.657  -1.651  1.00  0.00     0.004 C 
ENDBRANCH  14  15
ENDBRANCH  13  14
ENDBRANCH  12  13
ENDBRANCH  11  12
ENDBRANCH  10  11
ENDBRANCH   1  10
TORSDOF 12
ENDMDL
MODEL 9
REMARK VINA RESULT:    -4.210      3.071      4.406
REMARK INTER + INTRA:          -7.881
REMARK INTER:                  -6.305
REMARK INTRA:                  -1.576
REMARK UNBOUND:                -0.717
REMARK SMILES CCCCCCCCCCCCCC(=O)[O-]
REMARK SMILES IDX 8 1 9 2 10 3 11 4 12 5 13 6 14 7 15 8 16 9 7 10 6 11 5 12
REMARK SMILES IDX 4 13 3 14 2 15 1 16
REMARK H PARENT
REMARK Flexibility Score: inf
ROOT
ATOM      1  C   UNL     1      -5.432  -5.020   2.248  1.00  0.00     0.000 C 
ENDROOT
BRANCH   1   2
ATOM      2  C   UNL     1      -4.599  -4.730   0.989  1.00  0.00     0.000 C 
BRANCH   2   3
ATOM      3  C   UNL     1      -5.252  -5.271  -0.292  1.00  0.00     0.000 C 
BRANCH   3   4
ATOM      4  C   UNL     1      -6.766  -5.432  -0.111  1.00  0.00     0.000 C 
BRANCH   4   5
ATOM      5  C   UNL     1      -7.477  -5.527  -1.469  1.00  0.00     0.006 C 
BRANCH   5   6
ATOM      6  C   UNL     1      -6.540  -6.011  -2.583  1.00  0.00     0.053 C 
BRANCH   6   7
ATOM      7  C   UNL     1      -6.807  -5.307  -3.879  1.00  0.00     0.041 C 
ATOM      8  O   UNL     1      -6.429  -4.118  -4.046  1.00  0.00    -0.550 OA
ATOM      9  O   UNL     1      -7.507  -5.956  -4.890  1.00  0.00    -0.550 OA
ENDBRANCH   6   7
ENDBRANCH   5   6
ENDBRANCH   4   5
ENDBRANCH   3   4
ENDBRANCH   2   3
ENDBRANCH   1   2
BRANCH   1  10
ATOM     10  C   UNL     1      -5.345  -3.888   3.287  1.00  0.00     0.000 C 
BRANCH  10  11
ATOM     11  C   UNL     1      -4.937  -2.543   2.662  1.00  0.00    -0.000 C 
BRANCH  11  12
ATOM     12  C   UNL     1      -6.112  -1.554   2.570  1.00  0.00    -0.000 C 
BRANCH  12  13
ATOM     13  C   UNL     1      -6.999  -1.803   1.340  1.00  0.00    -0.000 C 
BRANCH  13  14
ATOM     14  C   UNL     1      -7.153  -0.555   0.457  1.00  0.00    -0.000 C 
BRANCH  14  15
ATOM     15  C   UNL     1      -6.032  -0.481  -0.587  1.00  0.00    -0.003 C 
ATOM     16  C   UNL     1      -5.913  -1.790  -1.363  1.00  0.00     0.004 C 
ENDBRANCH  14  15
ENDBRANCH  13  14
ENDBRANCH  12  13
ENDBRANCH  11  12
ENDBRANCH  10  11
ENDBRANCH   1  10
TORSDOF 12
ENDMDL
