MODEL 1
REMARK VINA RESULT:    -6.177      0.000      0.000
REMARK INTER + INTRA:          -6.539
REMARK INTER:                  -6.539
REMARK INTRA:                   0.000
REMARK UNBOUND:                 0.000
REMARK SMILES O=c1ccc2cc(O)c(O)cc2o1
REMARK SMILES IDX 4 1 3 2 2 3 1 4 13 5 12 6 11 7 9 8 7 9 6 10 5 11 8 12 10 14
REMARK H PARENT 8 13 10 15
REMARK Flexibility Score: inf
ROOT
ATOM      1  C   UNL     1      73.266  40.679  -3.110  1.00  0.00     0.019 A 
ATOM      2  C   UNL     1      73.722  40.093  -4.292  1.00  0.00     0.094 A 
ATOM      3  C   UNL     1      74.569  40.827  -5.130  1.00  0.00     0.336 A 
ATOM      4  O   UNL     1      74.990  40.315  -6.200  1.00  0.00    -0.246 OA
ATOM      5  O   UNL     1      74.932  42.065  -4.803  1.00  0.00    -0.423 OA
ATOM      6  C   UNL     1      74.521  42.660  -3.687  1.00  0.00     0.142 A 
ATOM      7  C   UNL     1      74.936  43.964  -3.397  1.00  0.00     0.098 A 
ATOM      8  C   UNL     1      74.507  44.598  -2.224  1.00  0.00     0.161 A 
ATOM      9  C   UNL     1      73.654  43.923  -1.333  1.00  0.00     0.158 A 
ATOM     10  C   UNL     1      73.235  42.615  -1.619  1.00  0.00     0.062 A 
ATOM     11  C   UNL     1      73.665  41.982  -2.794  1.00  0.00     0.022 A 
ENDROOT
BRANCH   9  12
ATOM     12  O   UNL     1      73.226  44.553  -0.164  1.00  0.00    -0.504 OA
ATOM     13  H   UNL     1      72.876  45.503  -0.171  1.00  0.00     0.293 HD
ENDBRANCH   9  12
BRANCH   8  14
ATOM     14  O   UNL     1      74.939  45.898  -1.963  1.00  0.00    -0.504 OA
ATOM     15  H   UNL     1      74.688  46.388  -1.112  1.00  0.00     0.293 HD
ENDBRANCH   8  14
TORSDOF 2
ENDMDL
MODEL 2
REMARK VINA RESULT:    -5.816      1.102      2.250
REMARK INTER + INTRA:          -6.156
REMARK INTER:                  -6.156
REMARK INTRA:                   0.000
REMARK UNBOUND:                 0.000
REMARK SMILES O=c1ccc2cc(O)c(O)cc2o1
REMARK SMILES IDX 4 1 3 2 2 3 1 4 13 5 12 6 11 7 9 8 7 9 6 10 5 11 8 12 10 14
REMARK H PARENT 8 13 10 15
REMARK Flexibility Score: inf
ROOT
ATOM      1  C   UNL     1      75.110  42.084  -4.920  1.00  0.00     0.019 A 
ATOM      2  C   UNL     1      74.627  40.812  -5.229  1.00  0.00     0.094 A 
ATOM      3  C   UNL     1      73.689  40.218  -4.378  1.00  0.00     0.336 A 
ATOM      4  O   UNL     1      73.241  39.071  -4.640  1.00  0.00    -0.246 OA
ATOM      5  O   UNL     1      73.266  40.857  -3.290  1.00  0.00    -0.423 OA
ATOM      6  C   UNL     1      73.701  42.070  -2.959  1.00  0.00     0.142 A 
ATOM      7  C   UNL     1      73.221  42.693  -1.803  1.00  0.00     0.098 A 
ATOM      8  C   UNL     1      73.673  43.970  -1.446  1.00  0.00     0.161 A 
ATOM      9  C   UNL     1      74.617  44.630  -2.255  1.00  0.00     0.158 A 
ATOM     10  C   UNL     1      75.102  44.010  -3.416  1.00  0.00     0.062 A 
ATOM     11  C   UNL     1      74.647  42.732  -3.770  1.00  0.00     0.022 A 
ENDROOT
BRANCH   9  12
ATOM     12  O   UNL     1      75.069  45.902  -1.901  1.00  0.00    -0.504 OA
ATOM     13  H   UNL     1      75.695  46.428  -2.498  1.00  0.00     0.293 HD
ENDBRANCH   9  12
BRANCH   8  14
ATOM     14  O   UNL     1      73.175  44.565  -0.288  1.00  0.00    -0.504 OA
ATOM     15  H   UNL     1      72.680  44.035   0.419  1.00  0.00     0.293 HD
ENDBRANCH   8  14
TORSDOF 2
ENDMDL
MODEL 3
REMARK VINA RESULT:    -5.596      1.156      5.032
REMARK INTER + INTRA:          -5.923
REMARK INTER:                  -5.923
REMARK INTRA:                   0.000
REMARK UNBOUND:                 0.000
REMARK SMILES O=c1ccc2cc(O)c(O)cc2o1
REMARK SMILES IDX 4 1 3 2 2 3 1 4 13 5 12 6 11 7 9 8 7 9 6 10 5 11 8 12 10 14
REMARK H PARENT 8 13 10 15
REMARK Flexibility Score: inf
ROOT
ATOM      1  C   UNL     1      74.750  44.375  -2.999  1.00  0.00     0.019 A 
ATOM      2  C   UNL     1      74.166  44.927  -1.859  1.00  0.00     0.094 A 
ATOM      3  C   UNL     1      73.235  44.169  -1.139  1.00  0.00     0.336 A 
ATOM      4  O   UNL     1      72.697  44.649  -0.107  1.00  0.00    -0.246 OA
ATOM      5  O   UNL     1      72.914  42.941  -1.540  1.00  0.00    -0.423 OA
ATOM      6  C   UNL     1      73.447  42.378  -2.621  1.00  0.00     0.142 A 
ATOM      7  C   UNL     1      73.070  41.084  -2.993  1.00  0.00     0.098 A 
ATOM      8  C   UNL     1      73.626  40.484  -4.130  1.00  0.00     0.161 A 
ATOM      9  C   UNL     1      74.569  41.185  -4.903  1.00  0.00     0.158 A 
ATOM     10  C   UNL     1      74.951  42.484  -4.534  1.00  0.00     0.062 A 
ATOM     11  C   UNL     1      74.393  43.082  -3.395  1.00  0.00     0.022 A 
ENDROOT
BRANCH   9  12
ATOM     12  O   UNL     1      75.124  40.589  -6.035  1.00  0.00    -0.504 OA
ATOM     13  H   UNL     1      75.443  39.628  -6.027  1.00  0.00     0.293 HD
ENDBRANCH   9  12
BRANCH   8  14
ATOM     14  O   UNL     1      73.230  39.192  -4.474  1.00  0.00    -0.504 OA
ATOM     15  H   UNL     1      73.610  38.372  -4.017  1.00  0.00     0.293 HD
ENDBRANCH   8  14
TORSDOF 2
ENDMDL
MODEL 4
REMARK VINA RESULT:    -5.245     12.395     14.422
REMARK INTER + INTRA:          -5.552
REMARK INTER:                  -5.552
REMARK INTRA:                   0.000
REMARK UNBOUND:                 0.000
REMARK SMILES O=c1ccc2cc(O)c(O)cc2o1
REMARK SMILES IDX 4 1 3 2 2 3 1 4 13 5 12 6 11 7 9 8 7 9 6 10 5 11 8 12 10 14
REMARK H PARENT 8 13 10 15
REMARK Flexibility Score: inf
ROOT
ATOM      1  C   UNL     1      69.809  50.133   8.861  1.00  0.00     0.019 A 
ATOM      2  C   UNL     1      70.959  49.751   8.170  1.00  0.00     0.094 A 
ATOM      3  C   UNL     1      70.839  48.875   7.085  1.00  0.00     0.336 A 
ATOM      4  O   UNL     1      71.865  48.520   6.448  1.00  0.00    -0.246 OA
ATOM      5  O   UNL     1      69.645  48.414   6.722  1.00  0.00    -0.423 OA
ATOM      6  C   UNL     1      68.524  48.752   7.354  1.00  0.00     0.142 A 
ATOM      7  C   UNL     1      67.297  48.235   6.927  1.00  0.00     0.098 A 
ATOM      8  C   UNL     1      66.113  48.585   7.587  1.00  0.00     0.161 A 
ATOM      9  C   UNL     1      66.156  49.462   8.686  1.00  0.00     0.158 A 
ATOM     10  C   UNL     1      67.384  49.984   9.119  1.00  0.00     0.062 A 
ATOM     11  C   UNL     1      68.568  49.631   8.457  1.00  0.00     0.022 A 
ENDROOT
BRANCH   9  12
ATOM     12  O   UNL     1      64.977  49.813   9.345  1.00  0.00    -0.504 OA
ATOM     13  H   UNL     1      64.605  50.753   9.303  1.00  0.00     0.293 HD
ENDBRANCH   9  12
BRANCH   8  14
ATOM     14  O   UNL     1      64.905  48.053   7.136  1.00  0.00    -0.504 OA
ATOM     15  H   UNL     1      64.799  47.070   6.916  1.00  0.00     0.293 HD
ENDBRANCH   8  14
TORSDOF 2
ENDMDL
MODEL 5
REMARK VINA RESULT:    -5.185     11.279     13.224
REMARK INTER + INTRA:          -5.488
REMARK INTER:                  -5.488
REMARK INTRA:                   0.000
REMARK UNBOUND:                 0.000
REMARK SMILES O=c1ccc2cc(O)c(O)cc2o1
REMARK SMILES IDX 4 1 3 2 2 3 1 4 13 5 12 6 11 7 9 8 7 9 6 10 5 11 8 12 10 14
REMARK H PARENT 8 13 10 15
REMARK Flexibility Score: inf
ROOT
ATOM      1  C   UNL     1      73.062  49.666   8.516  1.00  0.00     0.019 A 
ATOM      2  C   UNL     1      74.008  49.031   7.711  1.00  0.00     0.094 A 
ATOM      3  C   UNL     1      73.571  48.303   6.598  1.00  0.00     0.336 A 
ATOM      4  O   UNL     1      74.409  47.723   5.859  1.00  0.00    -0.246 OA
ATOM      5  O   UNL     1      72.273  48.220   6.314  1.00  0.00    -0.423 OA
ATOM      6  C   UNL     1      71.340  48.811   7.055  1.00  0.00     0.142 A 
ATOM      7  C   UNL     1      69.991  48.688   6.708  1.00  0.00     0.098 A 
ATOM      8  C   UNL     1      69.002  49.307   7.483  1.00  0.00     0.161 A 
ATOM      9  C   UNL     1      69.365  50.055   8.618  1.00  0.00     0.158 A 
ATOM     10  C   UNL     1      70.717  50.181   8.970  1.00  0.00     0.062 A 
ATOM     11  C   UNL     1      71.705  49.561   8.193  1.00  0.00     0.022 A 
ENDROOT
BRANCH   9  12
ATOM     12  O   UNL     1      68.381  50.672   9.390  1.00  0.00    -0.504 OA
ATOM     13  H   UNL     1      67.599  51.155   8.967  1.00  0.00     0.293 HD
ENDBRANCH   9  12
BRANCH   8  14
ATOM     14  O   UNL     1      67.665  49.166   7.110  1.00  0.00    -0.504 OA
ATOM     15  H   UNL     1      66.957  48.840   7.757  1.00  0.00     0.293 HD
ENDBRANCH   8  14
TORSDOF 2
ENDMDL
MODEL 6
REMARK VINA RESULT:    -5.114      1.190      4.497
REMARK INTER + INTRA:          -5.413
REMARK INTER:                  -5.413
REMARK INTRA:                   0.000
REMARK UNBOUND:                 0.000
REMARK SMILES O=c1ccc2cc(O)c(O)cc2o1
REMARK SMILES IDX 4 1 3 2 2 3 1 4 13 5 12 6 11 7 9 8 7 9 6 10 5 11 8 12 10 14
REMARK H PARENT 8 13 10 15
REMARK Flexibility Score: inf
ROOT
ATOM      1  C   UNL     1      73.020  43.051  -1.713  1.00  0.00     0.019 A 
ATOM      2  C   UNL     1      73.595  44.305  -1.506  1.00  0.00     0.094 A 
ATOM      3  C   UNL     1      74.595  44.745  -2.381  1.00  0.00     0.336 A 
ATOM      4  O   UNL     1      75.125  45.875  -2.211  1.00  0.00    -0.246 OA
ATOM      5  O   UNL     1      74.989  43.977  -3.393  1.00  0.00    -0.423 OA
ATOM      6  C   UNL     1      74.468  42.776  -3.626  1.00  0.00     0.142 A 
ATOM      7  C   UNL     1      74.923  42.013  -4.706  1.00  0.00     0.098 A 
ATOM      8  C   UNL     1      74.380  40.747  -4.957  1.00  0.00     0.161 A 
ATOM      9  C   UNL     1      73.370  40.238  -4.120  1.00  0.00     0.158 A 
ATOM     10  C   UNL     1      72.910  40.999  -3.035  1.00  0.00     0.062 A 
ATOM     11  C   UNL     1      73.455  42.266  -2.785  1.00  0.00     0.022 A 
ENDROOT
BRANCH   9  12
ATOM     12  O   UNL     1      72.828  38.977  -4.369  1.00  0.00    -0.504 OA
ATOM     13  H   UNL     1      73.353  38.260  -4.854  1.00  0.00     0.293 HD
ENDBRANCH   9  12
BRANCH   8  14
ATOM     14  O   UNL     1      74.854  40.012  -6.042  1.00  0.00    -0.504 OA
ATOM     15  H   UNL     1      74.860  38.999  -6.045  1.00  0.00     0.293 HD
ENDBRANCH   8  14
TORSDOF 2
ENDMDL
MODEL 7
REMARK VINA RESULT:    -5.035      1.959      5.556
REMARK INTER + INTRA:          -5.329
REMARK INTER:                  -5.329
REMARK INTRA:                   0.000
REMARK UNBOUND:                 0.000
REMARK SMILES O=c1ccc2cc(O)c(O)cc2o1
REMARK SMILES IDX 4 1 3 2 2 3 1 4 13 5 12 6 11 7 9 8 7 9 6 10 5 11 8 12 10 14
REMARK H PARENT 8 13 10 15
REMARK Flexibility Score: inf
ROOT
ATOM      1  C   UNL     1      74.971  42.025  -3.902  1.00  0.00     0.019 A 
ATOM      2  C   UNL     1      74.553  42.770  -2.799  1.00  0.00     0.094 A 
ATOM      3  C   UNL     1      73.380  42.395  -2.133  1.00  0.00     0.336 A 
ATOM      4  O   UNL     1      72.987  43.055  -1.135  1.00  0.00    -0.246 OA
ATOM      5  O   UNL     1      72.677  41.344  -2.547  1.00  0.00    -0.423 OA
ATOM      6  C   UNL     1      73.040  40.607  -3.594  1.00  0.00     0.142 A 
ATOM      7  C   UNL     1      72.260  39.514  -3.983  1.00  0.00     0.098 A 
ATOM      8  C   UNL     1      72.635  38.733  -5.084  1.00  0.00     0.161 A 
ATOM      9  C   UNL     1      73.802  39.050  -5.803  1.00  0.00     0.158 A 
ATOM     10  C   UNL     1      74.588  40.146  -5.416  1.00  0.00     0.062 A 
ATOM     11  C   UNL     1      74.211  40.926  -4.314  1.00  0.00     0.022 A 
ENDROOT
BRANCH   9  12
ATOM     12  O   UNL     1      74.177  38.273  -6.900  1.00  0.00    -0.504 OA
ATOM     13  H   UNL     1      74.880  38.588  -7.558  1.00  0.00     0.293 HD
ENDBRANCH   9  12
BRANCH   8  14
ATOM     14  O   UNL     1      71.837  37.649  -5.447  1.00  0.00    -0.504 OA
ATOM     15  H   UNL     1      71.504  36.975  -4.768  1.00  0.00     0.293 HD
ENDBRANCH   8  14
TORSDOF 2
ENDMDL
MODEL 8
REMARK VINA RESULT:    -4.959      8.152     11.412
REMARK INTER + INTRA:          -5.249
REMARK INTER:                  -5.249
REMARK INTRA:                   0.000
REMARK UNBOUND:                 0.000
REMARK SMILES O=c1ccc2cc(O)c(O)cc2o1
REMARK SMILES IDX 4 1 3 2 2 3 1 4 13 5 12 6 11 7 9 8 7 9 6 10 5 11 8 12 10 14
REMARK H PARENT 8 13 10 15
REMARK Flexibility Score: inf
ROOT
ATOM      1  C   UNL     1      73.509  48.835   6.372  1.00  0.00     0.019 A 
ATOM      2  C   UNL     1      73.621  49.124   7.733  1.00  0.00     0.094 A 
ATOM      3  C   UNL     1      73.732  48.067   8.643  1.00  0.00     0.336 A 
ATOM      4  O   UNL     1      73.834  48.307   9.874  1.00  0.00    -0.246 OA
ATOM      5  O   UNL     1      73.730  46.807   8.215  1.00  0.00    -0.423 OA
ATOM      6  C   UNL     1      73.625  46.488   6.927  1.00  0.00     0.142 A 
ATOM      7  C   UNL     1      73.628  45.146   6.537  1.00  0.00     0.098 A 
ATOM      8  C   UNL     1      73.518  44.802   5.184  1.00  0.00     0.161 A 
ATOM      9  C   UNL     1      73.403  45.811   4.210  1.00  0.00     0.158 A 
ATOM     10  C   UNL     1      73.400  47.160   4.597  1.00  0.00     0.062 A 
ATOM     11  C   UNL     1      73.510  47.502   5.952  1.00  0.00     0.022 A 
ENDROOT
BRANCH   9  12
ATOM     12  O   UNL     1      73.293  45.471   2.862  1.00  0.00    -0.504 OA
ATOM     13  H   UNL     1      73.556  44.553   2.523  1.00  0.00     0.293 HD
ENDBRANCH   9  12
BRANCH   8  14
ATOM     14  O   UNL     1      73.525  43.454   4.826  1.00  0.00    -0.504 OA
ATOM     15  H   UNL     1      73.330  42.718   5.495  1.00  0.00     0.293 HD
ENDBRANCH   8  14
TORSDOF 2
ENDMDL
MODEL 9
REMARK VINA RESULT:    -4.917     12.319     13.246
REMARK INTER + INTRA:          -5.205
REMARK INTER:                  -5.205
REMARK INTRA:                   0.000
REMARK UNBOUND:                 0.000
REMARK SMILES O=c1ccc2cc(O)c(O)cc2o1
REMARK SMILES IDX 4 1 3 2 2 3 1 4 13 5 12 6 11 7 9 8 7 9 6 10 5 11 8 12 10 14
REMARK H PARENT 8 13 10 15
REMARK Flexibility Score: inf
ROOT
ATOM      1  C   UNL     1      71.844  50.340   7.836  1.00  0.00     0.019 A 
ATOM      2  C   UNL     1      73.179  49.983   8.030  1.00  0.00     0.094 A 
ATOM      3  C   UNL     1      73.526  48.627   8.023  1.00  0.00     0.336 A 
ATOM      4  O   UNL     1      74.725  48.284   8.196  1.00  0.00    -0.246 OA
ATOM      5  O   UNL     1      72.595  47.695   7.833  1.00  0.00    -0.423 OA
ATOM      6  C   UNL     1      71.312  47.992   7.644  1.00  0.00     0.142 A 
ATOM      7  C   UNL     1      70.379  46.969   7.451  1.00  0.00     0.098 A 
ATOM      8  C   UNL     1      69.026  47.274   7.251  1.00  0.00     0.161 A 
ATOM      9  C   UNL     1      68.603  48.616   7.246  1.00  0.00     0.158 A 
ATOM     10  C   UNL     1      69.535  49.646   7.440  1.00  0.00     0.062 A 
ATOM     11  C   UNL     1      70.889  49.338   7.640  1.00  0.00     0.022 A 
ENDROOT
BRANCH   9  12
ATOM     12  O   UNL     1      67.256  48.921   7.048  1.00  0.00    -0.504 OA
ATOM     13  H   UNL     1      66.766  48.639   6.208  1.00  0.00     0.293 HD
ENDBRANCH   9  12
BRANCH   8  14
ATOM     14  O   UNL     1      68.120  46.232   7.060  1.00  0.00    -0.504 OA
ATOM     15  H   UNL     1      67.181  46.391   6.714  1.00  0.00     0.293 HD
ENDBRANCH   8  14
TORSDOF 2
ENDMDL
