MODEL 1
REMARK VINA RESULT:    -3.863      0.000      0.000
REMARK INTER + INTRA:          -8.133
REMARK INTER:                  -7.025
REMARK INTRA:                  -1.107
REMARK UNBOUND:                -1.107
REMARK SMILES CCCCCCCCCCCCCCCC(=O)[O-]
REMARK SMILES IDX 9 1 10 2 11 3 12 4 13 5 14 6 15 7 16 8 17 9 18 10 8 11 7 12
REMARK SMILES IDX 6 13 5 14 4 15 3 16 2 17 1 18
REMARK H PARENT
REMARK Flexibility Score: inf
ROOT
ATOM      1  C   UNL     1      31.246 -11.663  30.189  1.00  0.00     0.000 C 
ENDROOT
BRANCH   1   2
ATOM      2  C   UNL     1      31.730 -10.666  31.257  1.00  0.00     0.000 C 
BRANCH   2   3
ATOM      3  C   UNL     1      32.607  -9.544  30.675  1.00  0.00     0.000 C 
BRANCH   3   4
ATOM      4  C   UNL     1      31.957  -8.159  30.811  1.00  0.00     0.000 C 
BRANCH   4   5
ATOM      5  C   UNL     1      30.591  -8.211  31.519  1.00  0.00     0.000 C 
BRANCH   5   6
ATOM      6  C   UNL     1      30.410  -7.074  32.536  1.00  0.00     0.006 C 
BRANCH   6   7
ATOM      7  C   UNL     1      31.734  -6.648  33.185  1.00  0.00     0.053 C 
BRANCH   7   8
ATOM      8  C   UNL     1      32.126  -7.619  34.253  1.00  0.00     0.041 C 
ATOM      9  O   UNL     1      31.597  -8.761  34.299  1.00  0.00    -0.550 OA
ATOM     10  O   UNL     1      33.112  -7.280  35.172  1.00  0.00    -0.550 OA
ENDBRANCH   7   8
ENDBRANCH   6   7
ENDBRANCH   5   6
ENDBRANCH   4   5
ENDBRANCH   3   4
ENDBRANCH   2   3
ENDBRANCH   1   2
BRANCH   1  11
ATOM     11  C   UNL     1      29.736 -11.609  29.875  1.00  0.00     0.000 C 
BRANCH  11  12
ATOM     12  C   UNL     1      28.815 -11.549  31.107  1.00  0.00    -0.000 C 
BRANCH  12  13
ATOM     13  C   UNL     1      27.805 -10.393  31.043  1.00  0.00    -0.000 C 
BRANCH  13  14
ATOM     14  C   UNL     1      27.678  -9.858  29.609  1.00  0.00    -0.000 C 
BRANCH  14  15
ATOM     15  C   UNL     1      26.457 -10.425  28.868  1.00  0.00    -0.000 C 
BRANCH  15  16
ATOM     16  C   UNL     1      25.413  -9.346  28.533  1.00  0.00    -0.000 C 
BRANCH  16  17
ATOM     17  C   UNL     1      24.983  -8.542  29.770  1.00  0.00    -0.003 C 
ATOM     18  C   UNL     1      24.067  -7.368  29.425  1.00  0.00     0.004 C 
ENDBRANCH  16  17
ENDBRANCH  15  16
ENDBRANCH  14  15
ENDBRANCH  13  14
ENDBRANCH  12  13
ENDBRANCH  11  12
ENDBRANCH   1  11
TORSDOF 14
ENDMDL
MODEL 2
REMARK VINA RESULT:    -3.759      2.846      6.757
REMARK INTER + INTRA:          -7.943
REMARK INTER:                  -6.626
REMARK INTRA:                  -1.318
REMARK UNBOUND:                -1.107
REMARK SMILES CCCCCCCCCCCCCCCC(=O)[O-]
REMARK SMILES IDX 9 1 10 2 11 3 12 4 13 5 14 6 15 7 16 8 17 9 18 10 8 11 7 12
REMARK SMILES IDX 6 13 5 14 4 15 3 16 2 17 1 18
REMARK H PARENT
REMARK Flexibility Score: inf
ROOT
ATOM      1  C   UNL     1      27.065  -9.560  28.851  1.00  0.00     0.000 C 
ENDROOT
BRANCH   1   2
ATOM      2  C   UNL     1      25.734 -10.048  28.250  1.00  0.00     0.000 C 
BRANCH   2   3
ATOM      3  C   UNL     1      24.592  -9.031  28.421  1.00  0.00     0.000 C 
BRANCH   3   4
ATOM      4  C   UNL     1      24.687  -8.258  29.746  1.00  0.00     0.000 C 
BRANCH   4   5
ATOM      5  C   UNL     1      23.399  -8.357  30.584  1.00  0.00     0.000 C 
BRANCH   5   6
ATOM      6  C   UNL     1      23.415  -9.552  31.550  1.00  0.00     0.006 C 
BRANCH   6   7
ATOM      7  C   UNL     1      24.822  -9.865  32.077  1.00  0.00     0.053 C 
BRANCH   7   8
ATOM      8  C   UNL     1      24.814  -9.939  33.571  1.00  0.00     0.041 C 
ATOM      9  O   UNL     1      25.228 -10.974  34.157  1.00  0.00    -0.550 OA
ATOM     10  O   UNL     1      24.396  -8.846  34.319  1.00  0.00    -0.550 OA
ENDBRANCH   7   8
ENDBRANCH   6   7
ENDBRANCH   5   6
ENDBRANCH   4   5
ENDBRANCH   3   4
ENDBRANCH   2   3
ENDBRANCH   1   2
BRANCH   1  11
ATOM     11  C   UNL     1      27.759 -10.555  29.804  1.00  0.00     0.000 C 
BRANCH  11  12
ATOM     12  C   UNL     1      28.586  -9.911  30.932  1.00  0.00    -0.000 C 
BRANCH  12  13
ATOM     13  C   UNL     1      29.805 -10.752  31.336  1.00  0.00    -0.000 C 
BRANCH  13  14
ATOM     14  C   UNL     1      30.988  -9.851  31.720  1.00  0.00    -0.000 C 
BRANCH  14  15
ATOM     15  C   UNL     1      30.696  -8.359  31.499  1.00  0.00    -0.000 C 
BRANCH  15  16
ATOM     16  C   UNL     1      31.272  -7.471  32.616  1.00  0.00    -0.000 C 
BRANCH  16  17
ATOM     17  C   UNL     1      31.824  -8.292  33.792  1.00  0.00    -0.003 C 
ATOM     18  C   UNL     1      32.729  -7.474  34.713  1.00  0.00     0.004 C 
ENDBRANCH  16  17
ENDBRANCH  15  16
ENDBRANCH  14  15
ENDBRANCH  13  14
ENDBRANCH  12  13
ENDBRANCH  11  12
ENDBRANCH   1  11
TORSDOF 14
ENDMDL
MODEL 3
REMARK VINA RESULT:    -3.753      1.609      3.306
REMARK INTER + INTRA:          -7.931
REMARK INTER:                  -6.027
REMARK INTRA:                  -1.904
REMARK UNBOUND:                -1.107
REMARK SMILES CCCCCCCCCCCCCCCC(=O)[O-]
REMARK SMILES IDX 9 1 10 2 11 3 12 4 13 5 14 6 15 7 16 8 17 9 18 10 8 11 7 12
REMARK SMILES IDX 6 13 5 14 4 15 3 16 2 17 1 18
REMARK H PARENT
REMARK Flexibility Score: inf
ROOT
ATOM      1  C   UNL     1      28.461  -9.930  30.800  1.00  0.00     0.000 C 
ENDROOT
BRANCH   1   2
ATOM      2  C   UNL     1      28.995 -11.352  31.054  1.00  0.00     0.000 C 
BRANCH   2   3
ATOM      3  C   UNL     1      30.079 -11.771  30.046  1.00  0.00     0.000 C 
BRANCH   3   4
ATOM      4  C   UNL     1      31.474 -11.861  30.685  1.00  0.00     0.000 C 
BRANCH   4   5
ATOM      5  C   UNL     1      32.241 -10.527  30.625  1.00  0.00     0.000 C 
BRANCH   5   6
ATOM      6  C   UNL     1      32.102  -9.709  31.917  1.00  0.00     0.006 C 
BRANCH   6   7
ATOM      7  C   UNL     1      31.655  -8.265  31.654  1.00  0.00     0.053 C 
BRANCH   7   8
ATOM      8  C   UNL     1      31.055  -7.671  32.889  1.00  0.00     0.041 C 
ATOM      9  O   UNL     1      31.539  -7.937  34.020  1.00  0.00    -0.550 OA
ATOM     10  O   UNL     1      29.989  -6.785  32.787  1.00  0.00    -0.550 OA
ENDBRANCH   7   8
ENDBRANCH   6   7
ENDBRANCH   5   6
ENDBRANCH   4   5
ENDBRANCH   3   4
ENDBRANCH   2   3
ENDBRANCH   1   2
BRANCH   1  11
ATOM     11  C   UNL     1      27.767  -9.721  29.438  1.00  0.00     0.000 C 
BRANCH  11  12
ATOM     12  C   UNL     1      26.565 -10.644  29.169  1.00  0.00    -0.000 C 
BRANCH  12  13
ATOM     13  C   UNL     1      25.267  -9.871  28.893  1.00  0.00    -0.000 C 
BRANCH  13  14
ATOM     14  C   UNL     1      25.140  -8.663  29.834  1.00  0.00    -0.000 C 
BRANCH  14  15
ATOM     15  C   UNL     1      24.314  -8.973  31.092  1.00  0.00    -0.000 C 
BRANCH  15  16
ATOM     16  C   UNL     1      25.183  -9.084  32.358  1.00  0.00    -0.000 C 
BRANCH  16  17
ATOM     17  C   UNL     1      24.880 -10.355  33.167  1.00  0.00    -0.003 C 
ATOM     18  C   UNL     1      25.631 -11.581  32.649  1.00  0.00     0.004 C 
ENDBRANCH  16  17
ENDBRANCH  15  16
ENDBRANCH  14  15
ENDBRANCH  13  14
ENDBRANCH  12  13
ENDBRANCH  11  12
ENDBRANCH   1  11
TORSDOF 14
ENDMDL
MODEL 4
REMARK VINA RESULT:    -3.746      1.728      3.703
REMARK INTER + INTRA:          -7.919
REMARK INTER:                  -6.123
REMARK INTRA:                  -1.796
REMARK UNBOUND:                -1.107
REMARK SMILES CCCCCCCCCCCCCCCC(=O)[O-]
REMARK SMILES IDX 9 1 10 2 11 3 12 4 13 5 14 6 15 7 16 8 17 9 18 10 8 11 7 12
REMARK SMILES IDX 6 13 5 14 4 15 3 16 2 17 1 18
REMARK H PARENT
REMARK Flexibility Score: inf
ROOT
ATOM      1  C   UNL     1      27.316  -9.529  29.688  1.00  0.00     0.000 C 
ENDROOT
BRANCH   1   2
ATOM      2  C   UNL     1      27.814 -10.464  30.804  1.00  0.00     0.000 C 
BRANCH   2   3
ATOM      3  C   UNL     1      28.733 -11.581  30.283  1.00  0.00     0.000 C 
BRANCH   3   4
ATOM      4  C   UNL     1      30.222 -11.211  30.377  1.00  0.00     0.000 C 
BRANCH   4   5
ATOM      5  C   UNL     1      30.516 -10.221  31.519  1.00  0.00     0.000 C 
BRANCH   5   6
ATOM      6  C   UNL     1      31.818  -9.436  31.297  1.00  0.00     0.006 C 
BRANCH   6   7
ATOM      7  C   UNL     1      31.619  -7.920  31.423  1.00  0.00     0.053 C 
BRANCH   7   8
ATOM      8  C   UNL     1      31.043  -7.579  32.762  1.00  0.00     0.041 C 
ATOM      9  O   UNL     1      29.955  -6.951  32.843  1.00  0.00    -0.550 OA
ATOM     10  O   UNL     1      31.685  -7.996  33.921  1.00  0.00    -0.550 OA
ENDBRANCH   7   8
ENDBRANCH   6   7
ENDBRANCH   5   6
ENDBRANCH   4   5
ENDBRANCH   3   4
ENDBRANCH   2   3
ENDBRANCH   1   2
BRANCH   1  11
ATOM     11  C   UNL     1      26.388 -10.185  28.644  1.00  0.00     0.000 C 
BRANCH  11  12
ATOM     12  C   UNL     1      24.969  -9.593  28.567  1.00  0.00    -0.000 C 
BRANCH  12  13
ATOM     13  C   UNL     1      24.815  -8.300  29.380  1.00  0.00    -0.000 C 
BRANCH  13  14
ATOM     14  C   UNL     1      23.405  -8.196  29.980  1.00  0.00    -0.000 C 
BRANCH  14  15
ATOM     15  C   UNL     1      23.245  -9.014  31.272  1.00  0.00    -0.000 C 
BRANCH  15  16
ATOM     16  C   UNL     1      24.510  -8.990  32.147  1.00  0.00    -0.000 C 
BRANCH  16  17
ATOM     17  C   UNL     1      24.770 -10.338  32.839  1.00  0.00    -0.003 C 
ATOM     18  C   UNL     1      24.471 -11.535  31.936  1.00  0.00     0.004 C 
ENDBRANCH  16  17
ENDBRANCH  15  16
ENDBRANCH  14  15
ENDBRANCH  13  14
ENDBRANCH  12  13
ENDBRANCH  11  12
ENDBRANCH   1  11
TORSDOF 14
ENDMDL
MODEL 5
REMARK VINA RESULT:    -3.727      2.963      6.515
REMARK INTER + INTRA:          -7.884
REMARK INTER:                  -6.386
REMARK INTRA:                  -1.498
REMARK UNBOUND:                -1.107
REMARK SMILES CCCCCCCCCCCCCCCC(=O)[O-]
REMARK SMILES IDX 9 1 10 2 11 3 12 4 13 5 14 6 15 7 16 8 17 9 18 10 8 11 7 12
REMARK SMILES IDX 6 13 5 14 4 15 3 16 2 17 1 18
REMARK H PARENT
REMARK Flexibility Score: inf
ROOT
ATOM      1  C   UNL     1      29.962 -11.864  31.201  1.00  0.00     0.000 C 
ENDROOT
BRANCH   1   2
ATOM      2  C   UNL     1      29.988 -11.865  29.662  1.00  0.00     0.000 C 
BRANCH   2   3
ATOM      3  C   UNL     1      28.594 -11.669  29.041  1.00  0.00     0.000 C 
BRANCH   3   4
ATOM      4  C   UNL     1      27.537 -11.270  30.082  1.00  0.00     0.000 C 
BRANCH   4   5
ATOM      5  C   UNL     1      27.216  -9.764  30.056  1.00  0.00     0.000 C 
BRANCH   5   6
ATOM      6  C   UNL     1      26.289  -9.380  28.893  1.00  0.00     0.006 C 
BRANCH   6   7
ATOM      7  C   UNL     1      25.061  -8.584  29.356  1.00  0.00     0.053 C 
BRANCH   7   8
ATOM      8  C   UNL     1      24.418  -9.254  30.529  1.00  0.00     0.041 C 
ATOM      9  O   UNL     1      23.858 -10.374  30.392  1.00  0.00    -0.550 OA
ATOM     10  O   UNL     1      24.479  -8.665  31.786  1.00  0.00    -0.550 OA
ENDBRANCH   7   8
ENDBRANCH   6   7
ENDBRANCH   5   6
ENDBRANCH   4   5
ENDBRANCH   3   4
ENDBRANCH   2   3
ENDBRANCH   1   2
BRANCH   1  11
ATOM     11  C   UNL     1      30.861 -10.805  31.873  1.00  0.00     0.000 C 
BRANCH  11  12
ATOM     12  C   UNL     1      31.687  -9.939  30.904  1.00  0.00    -0.000 C 
BRANCH  12  13
ATOM     13  C   UNL     1      31.288  -8.457  30.939  1.00  0.00    -0.000 C 
BRANCH  13  14
ATOM     14  C   UNL     1      30.055  -8.243  31.829  1.00  0.00    -0.000 C 
BRANCH  14  15
ATOM     15  C   UNL     1      30.230  -7.081  32.820  1.00  0.00    -0.000 C 
BRANCH  15  16
ATOM     16  C   UNL     1      31.701  -6.845  33.202  1.00  0.00    -0.000 C 
BRANCH  16  17
ATOM     17  C   UNL     1      32.204  -7.848  34.252  1.00  0.00    -0.003 C 
ATOM     18  C   UNL     1      33.298  -7.269  35.149  1.00  0.00     0.004 C 
ENDBRANCH  16  17
ENDBRANCH  15  16
ENDBRANCH  14  15
ENDBRANCH  13  14
ENDBRANCH  12  13
ENDBRANCH  11  12
ENDBRANCH   1  11
TORSDOF 14
ENDMDL
MODEL 6
REMARK VINA RESULT:    -3.692      2.170      3.880
REMARK INTER + INTRA:          -7.821
REMARK INTER:                  -6.359
REMARK INTRA:                  -1.462
REMARK UNBOUND:                -1.107
REMARK SMILES CCCCCCCCCCCCCCCC(=O)[O-]
REMARK SMILES IDX 9 1 10 2 11 3 12 4 13 5 14 6 15 7 16 8 17 9 18 10 8 11 7 12
REMARK SMILES IDX 6 13 5 14 4 15 3 16 2 17 1 18
REMARK H PARENT
REMARK Flexibility Score: inf
ROOT
ATOM      1  C   UNL     1      27.379  -9.486  30.381  1.00  0.00     0.000 C 
ENDROOT
BRANCH   1   2
ATOM      2  C   UNL     1      27.558 -10.734  31.265  1.00  0.00     0.000 C 
BRANCH   2   3
ATOM      3  C   UNL     1      28.736 -11.618  30.819  1.00  0.00     0.000 C 
BRANCH   3   4
ATOM      4  C   UNL     1      30.014 -11.349  31.629  1.00  0.00     0.000 C 
BRANCH   4   5
ATOM      5  C   UNL     1      31.130 -10.710  30.784  1.00  0.00     0.000 C 
BRANCH   5   6
ATOM      6  C   UNL     1      31.892  -9.615  31.545  1.00  0.00     0.006 C 
BRANCH   6   7
ATOM      7  C   UNL     1      31.243  -8.232  31.393  1.00  0.00     0.053 C 
BRANCH   7   8
ATOM      8  C   UNL     1      30.848  -7.692  32.731  1.00  0.00     0.041 C 
ATOM      9  O   UNL     1      29.964  -6.800  32.820  1.00  0.00    -0.550 OA
ATOM     10  O   UNL     1      31.422  -8.209  33.886  1.00  0.00    -0.550 OA
ENDBRANCH   7   8
ENDBRANCH   6   7
ENDBRANCH   5   6
ENDBRANCH   4   5
ENDBRANCH   3   4
ENDBRANCH   2   3
ENDBRANCH   1   2
BRANCH   1  11
ATOM     11  C   UNL     1      26.742  -9.744  29.000  1.00  0.00     0.000 C 
BRANCH  11  12
ATOM     12  C   UNL     1      25.316  -9.190  28.825  1.00  0.00    -0.000 C 
BRANCH  12  13
ATOM     13  C   UNL     1      24.888  -8.264  29.973  1.00  0.00    -0.000 C 
BRANCH  13  14
ATOM     14  C   UNL     1      23.624  -8.797  30.663  1.00  0.00    -0.000 C 
BRANCH  14  15
ATOM     15  C   UNL     1      23.935  -9.644  31.906  1.00  0.00    -0.000 C 
BRANCH  15  16
ATOM     16  C   UNL     1      24.801  -8.892  32.933  1.00  0.00    -0.000 C 
BRANCH  16  17
ATOM     17  C   UNL     1      24.241  -8.997  34.360  1.00  0.00    -0.003 C 
ATOM     18  C   UNL     1      22.934  -9.786  34.429  1.00  0.00     0.004 C 
ENDBRANCH  16  17
ENDBRANCH  15  16
ENDBRANCH  14  15
ENDBRANCH  13  14
ENDBRANCH  12  13
ENDBRANCH  11  12
ENDBRANCH   1  11
TORSDOF 14
ENDMDL
MODEL 7
REMARK VINA RESULT:    -3.668      2.388      4.660
REMARK INTER + INTRA:          -7.777
REMARK INTER:                  -6.240
REMARK INTRA:                  -1.536
REMARK UNBOUND:                -1.107
REMARK SMILES CCCCCCCCCCCCCCCC(=O)[O-]
REMARK SMILES IDX 9 1 10 2 11 3 12 4 13 5 14 6 15 7 16 8 17 9 18 10 8 11 7 12
REMARK SMILES IDX 6 13 5 14 4 15 3 16 2 17 1 18
REMARK H PARENT
REMARK Flexibility Score: inf
ROOT
ATOM      1  C   UNL     1      25.592  -8.744  29.728  1.00  0.00     0.000 C 
ENDROOT
BRANCH   1   2
ATOM      2  C   UNL     1      26.241  -9.687  28.698  1.00  0.00     0.000 C 
BRANCH   2   3
ATOM      3  C   UNL     1      27.721  -9.975  29.000  1.00  0.00     0.000 C 
BRANCH   3   4
ATOM      4  C   UNL     1      27.961 -10.341  30.473  1.00  0.00     0.000 C 
BRANCH   4   5
ATOM      5  C   UNL     1      28.780  -9.276  31.225  1.00  0.00     0.000 C 
BRANCH   5   6
ATOM      6  C   UNL     1      30.286  -9.577  31.218  1.00  0.00     0.006 C 
BRANCH   6   7
ATOM      7  C   UNL     1      31.140  -8.314  31.392  1.00  0.00     0.053 C 
BRANCH   7   8
ATOM      8  C   UNL     1      30.925  -7.722  32.749  1.00  0.00     0.041 C 
ATOM      9  O   UNL     1      30.242  -6.673  32.883  1.00  0.00    -0.550 OA
ATOM     10  O   UNL     1      31.440  -8.356  33.873  1.00  0.00    -0.550 OA
ENDBRANCH   7   8
ENDBRANCH   6   7
ENDBRANCH   5   6
ENDBRANCH   4   5
ENDBRANCH   3   4
ENDBRANCH   2   3
ENDBRANCH   1   2
BRANCH   1  11
ATOM     11  C   UNL     1      24.291  -8.058  29.263  1.00  0.00     0.000 C 
BRANCH  11  12
ATOM     12  C   UNL     1      23.079  -8.257  30.192  1.00  0.00    -0.000 C 
BRANCH  12  13
ATOM     13  C   UNL     1      22.672  -9.731  30.336  1.00  0.00    -0.000 C 
BRANCH  13  14
ATOM     14  C   UNL     1      22.785 -10.189  31.798  1.00  0.00    -0.000 C 
BRANCH  14  15
ATOM     15  C   UNL     1      23.953 -11.162  32.028  1.00  0.00    -0.000 C 
BRANCH  15  16
ATOM     16  C   UNL     1      25.086 -10.540  32.861  1.00  0.00    -0.000 C 
BRANCH  16  17
ATOM     17  C   UNL     1      24.699  -9.175  33.452  1.00  0.00    -0.003 C 
ATOM     18  C   UNL     1      24.310  -9.257  34.928  1.00  0.00     0.004 C 
ENDBRANCH  16  17
ENDBRANCH  15  16
ENDBRANCH  14  15
ENDBRANCH  13  14
ENDBRANCH  12  13
ENDBRANCH  11  12
ENDBRANCH   1  11
TORSDOF 14
ENDMDL
MODEL 8
REMARK VINA RESULT:    -3.615      1.383      2.900
REMARK INTER + INTRA:          -7.682
REMARK INTER:                  -5.864
REMARK INTRA:                  -1.818
REMARK UNBOUND:                -1.107
REMARK SMILES CCCCCCCCCCCCCCCC(=O)[O-]
REMARK SMILES IDX 9 1 10 2 11 3 12 4 13 5 14 6 15 7 16 8 17 9 18 10 8 11 7 12
REMARK SMILES IDX 6 13 5 14 4 15 3 16 2 17 1 18
REMARK H PARENT
REMARK Flexibility Score: inf
ROOT
ATOM      1  C   UNL     1      28.128  -9.886  30.400  1.00  0.00     0.000 C 
ENDROOT
BRANCH   1   2
ATOM      2  C   UNL     1      28.213 -11.260  31.089  1.00  0.00     0.000 C 
BRANCH   2   3
ATOM      3  C   UNL     1      29.638 -11.610  31.551  1.00  0.00     0.000 C 
BRANCH   3   4
ATOM      4  C   UNL     1      30.679 -11.429  30.436  1.00  0.00     0.000 C 
BRANCH   4   5
ATOM      5  C   UNL     1      31.854 -10.529  30.861  1.00  0.00     0.000 C 
BRANCH   5   6
ATOM      6  C   UNL     1      31.484  -9.584  32.015  1.00  0.00     0.006 C 
BRANCH   6   7
ATOM      7  C   UNL     1      31.268  -8.139  31.547  1.00  0.00     0.053 C 
BRANCH   7   8
ATOM      8  C   UNL     1      31.042  -7.239  32.720  1.00  0.00     0.041 C 
ATOM      9  O   UNL     1      30.025  -6.498  32.764  1.00  0.00    -0.550 OA
ATOM     10  O   UNL     1      31.930  -7.254  33.789  1.00  0.00    -0.550 OA
ENDBRANCH   7   8
ENDBRANCH   6   7
ENDBRANCH   5   6
ENDBRANCH   4   5
ENDBRANCH   3   4
ENDBRANCH   2   3
ENDBRANCH   1   2
BRANCH   1  11
ATOM     11  C   UNL     1      27.458  -9.887  29.010  1.00  0.00     0.000 C 
BRANCH  11  12
ATOM     12  C   UNL     1      26.875 -11.241  28.566  1.00  0.00    -0.000 C 
BRANCH  12  13
ATOM     13  C   UNL     1      25.344 -11.226  28.455  1.00  0.00    -0.000 C 
BRANCH  13  14
ATOM     14  C   UNL     1      24.694 -11.301  29.845  1.00  0.00    -0.000 C 
BRANCH  14  15
ATOM     15  C   UNL     1      23.645 -10.201  30.072  1.00  0.00    -0.000 C 
BRANCH  15  16
ATOM     16  C   UNL     1      24.242  -8.936  30.712  1.00  0.00    -0.000 C 
BRANCH  16  17
ATOM     17  C   UNL     1      24.271  -7.745  29.742  1.00  0.00    -0.003 C 
ATOM     18  C   UNL     1      23.441  -7.986  28.482  1.00  0.00     0.004 C 
ENDBRANCH  16  17
ENDBRANCH  15  16
ENDBRANCH  14  15
ENDBRANCH  13  14
ENDBRANCH  12  13
ENDBRANCH  11  12
ENDBRANCH   1  11
TORSDOF 14
ENDMDL
MODEL 9
REMARK VINA RESULT:    -3.518      3.291      6.591
REMARK INTER + INTRA:          -7.505
REMARK INTER:                  -5.872
REMARK INTRA:                  -1.633
REMARK UNBOUND:                -1.107
REMARK SMILES CCCCCCCCCCCCCCCC(=O)[O-]
REMARK SMILES IDX 9 1 10 2 11 3 12 4 13 5 14 6 15 7 16 8 17 9 18 10 8 11 7 12
REMARK SMILES IDX 6 13 5 14 4 15 3 16 2 17 1 18
REMARK H PARENT
REMARK Flexibility Score: inf
ROOT
ATOM      1  C   UNL     1      26.283  -9.126  29.952  1.00  0.00     0.000 C 
ENDROOT
BRANCH   1   2
ATOM      2  C   UNL     1      24.881  -9.708  30.208  1.00  0.00     0.000 C 
BRANCH   2   3
ATOM      3  C   UNL     1      24.807 -11.224  29.955  1.00  0.00     0.000 C 
BRANCH   3   4
ATOM      4  C   UNL     1      24.685 -12.033  31.255  1.00  0.00     0.000 C 
BRANCH   4   5
ATOM      5  C   UNL     1      25.897 -11.846  32.187  1.00  0.00     0.000 C 
BRANCH   5   6
ATOM      6  C   UNL     1      25.498 -11.801  33.670  1.00  0.00     0.006 C 
BRANCH   6   7
ATOM      7  C   UNL     1      24.186 -11.040  33.904  1.00  0.00     0.053 C 
BRANCH   7   8
ATOM      8  C   UNL     1      24.468  -9.643  34.359  1.00  0.00     0.041 C 
ATOM      9  O   UNL     1      24.755  -8.748  33.521  1.00  0.00    -0.550 OA
ATOM     10  O   UNL     1      24.367  -9.318  35.706  1.00  0.00    -0.550 OA
ENDBRANCH   7   8
ENDBRANCH   6   7
ENDBRANCH   5   6
ENDBRANCH   4   5
ENDBRANCH   3   4
ENDBRANCH   2   3
ENDBRANCH   1   2
BRANCH   1  11
ATOM     11  C   UNL     1      27.140  -9.902  28.929  1.00  0.00     0.000 C 
BRANCH  11  12
ATOM     12  C   UNL     1      28.438 -10.508  29.491  1.00  0.00    -0.000 C 
BRANCH  12  13
ATOM     13  C   UNL     1      28.819  -9.939  30.865  1.00  0.00    -0.000 C 
BRANCH  13  14
ATOM     14  C   UNL     1      30.034 -10.679  31.446  1.00  0.00    -0.000 C 
BRANCH  14  15
ATOM     15  C   UNL     1      31.191  -9.733  31.804  1.00  0.00    -0.000 C 
BRANCH  15  16
ATOM     16  C   UNL     1      30.879  -8.263  31.475  1.00  0.00    -0.000 C 
BRANCH  16  17
ATOM     17  C   UNL     1      30.873  -7.371  32.726  1.00  0.00    -0.003 C 
ATOM     18  C   UNL     1      31.574  -8.017  33.920  1.00  0.00     0.004 C 
ENDBRANCH  16  17
ENDBRANCH  15  16
ENDBRANCH  14  15
ENDBRANCH  13  14
ENDBRANCH  12  13
ENDBRANCH  11  12
ENDBRANCH   1  11
TORSDOF 14
ENDMDL
