MODEL 1
REMARK VINA RESULT:    -4.527      0.000      0.000
REMARK INTER + INTRA:         -17.883
REMARK INTER:                 -11.937
REMARK INTRA:                  -5.946
REMARK UNBOUND:                -5.946
REMARK SMILES CCCCCCCCCCCCCCCCCCCCCCCCCCCCCC(=O)[O-]
REMARK SMILES IDX 16 1 17 2 18 3 19 4 20 5 21 6 22 7 23 8 24 9 25 10 26 11
REMARK SMILES IDX 27 12 28 13 29 14 30 15 31 16 32 17 15 18 14 19 13 20 12 21
REMARK SMILES IDX 11 22 10 23 9 24 8 25 7 26 6 27 5 28 4 29 3 30 2 31 1 32
REMARK H PARENT
REMARK Flexibility Score: inf
ROOT
ATOM      1  C   UNL     1     -23.965 -59.622   1.540  1.00  0.00     0.000 C 
ENDROOT
BRANCH   1   2
ATOM      2  C   UNL     1     -24.280 -59.387   0.051  1.00  0.00     0.000 C 
BRANCH   2   3
ATOM      3  C   UNL     1     -25.768 -59.150  -0.275  1.00  0.00     0.000 C 
BRANCH   3   4
ATOM      4  C   UNL     1     -26.660 -59.120   0.978  1.00  0.00     0.000 C 
BRANCH   4   5
ATOM      5  C   UNL     1     -27.581 -57.886   1.019  1.00  0.00     0.000 C 
BRANCH   5   6
ATOM      6  C   UNL     1     -28.054 -57.475   2.425  1.00  0.00     0.000 C 
BRANCH   6   7
ATOM      7  C   UNL     1     -26.925 -57.520   3.470  1.00  0.00     0.000 C 
BRANCH   7   8
ATOM      8  C   UNL     1     -26.738 -56.184   4.213  1.00  0.00     0.000 C 
BRANCH   8   9
ATOM      9  C   UNL     1     -25.417 -55.443   3.920  1.00  0.00     0.000 C 
BRANCH   9  10
ATOM     10  C   UNL     1     -24.593 -56.016   2.750  1.00  0.00     0.000 C 
BRANCH  10  11
ATOM     11  C   UNL     1     -24.332 -55.025   1.598  1.00  0.00     0.000 C 
BRANCH  11  12
ATOM     12  C   UNL     1     -25.349 -55.089   0.440  1.00  0.00     0.000 C 
BRANCH  12  13
ATOM     13  C   UNL     1     -26.254 -53.851   0.300  1.00  0.00     0.006 C 
BRANCH  13  14
ATOM     14  C   UNL     1     -25.965 -52.777   1.358  1.00  0.00     0.053 C 
BRANCH  14  15
ATOM     15  C   UNL     1     -25.925 -51.417   0.736  1.00  0.00     0.041 C 
ATOM     16  O   UNL     1     -26.848 -50.590   0.958  1.00  0.00    -0.550 OA
ATOM     17  O   UNL     1     -24.863 -51.061  -0.091  1.00  0.00    -0.550 OA
ENDBRANCH  14  15
ENDBRANCH  13  14
ENDBRANCH  12  13
ENDBRANCH  11  12
ENDBRANCH  10  11
ENDBRANCH   9  10
ENDBRANCH   8   9
ENDBRANCH   7   8
ENDBRANCH   6   7
ENDBRANCH   5   6
ENDBRANCH   4   5
ENDBRANCH   3   4
ENDBRANCH   2   3
ENDBRANCH   1   2
BRANCH   1  18
ATOM     18  C   UNL     1     -23.006 -60.800   1.774  1.00  0.00     0.000 C 
BRANCH  18  19
ATOM     19  C   UNL     1     -23.779 -62.090   2.076  1.00  0.00     0.000 C 
BRANCH  19  20
ATOM     20  C   UNL     1     -25.082 -61.783   2.831  1.00  0.00     0.000 C 
BRANCH  20  21
ATOM     21  C   UNL     1     -25.599 -62.983   3.641  1.00  0.00     0.000 C 
BRANCH  21  22
ATOM     22  C   UNL     1     -24.525 -64.065   3.849  1.00  0.00     0.000 C 
BRANCH  22  23
ATOM     23  C   UNL     1     -24.381 -64.487   5.324  1.00  0.00     0.000 C 
BRANCH  23  24
ATOM     24  C   UNL     1     -23.558 -63.522   6.204  1.00  0.00    -0.000 C 
BRANCH  24  25
ATOM     25  C   UNL     1     -22.443 -62.751   5.468  1.00  0.00    -0.000 C 
BRANCH  25  26
ATOM     26  C   UNL     1     -22.536 -61.217   5.574  1.00  0.00    -0.000 C 
BRANCH  26  27
ATOM     27  C   UNL     1     -23.863 -60.739   6.183  1.00  0.00    -0.000 C 
BRANCH  27  28
ATOM     28  C   UNL     1     -24.302 -59.406   5.560  1.00  0.00    -0.000 C 
BRANCH  28  29
ATOM     29  C   UNL     1     -23.147 -58.663   4.871  1.00  0.00    -0.000 C 
BRANCH  29  30
ATOM     30  C   UNL     1     -22.688 -57.420   5.657  1.00  0.00    -0.000 C 
BRANCH  30  31
ATOM     31  C   UNL     1     -23.688 -57.012   6.749  1.00  0.00    -0.003 C 
ATOM     32  C   UNL     1     -23.098 -56.013   7.744  1.00  0.00     0.004 C 
ENDBRANCH  30  31
ENDBRANCH  29  30
ENDBRANCH  28  29
ENDBRANCH  27  28
ENDBRANCH  26  27
ENDBRANCH  25  26
ENDBRANCH  24  25
ENDBRANCH  23  24
ENDBRANCH  22  23
ENDBRANCH  21  22
ENDBRANCH  20  21
ENDBRANCH  19  20
ENDBRANCH  18  19
ENDBRANCH   1  18
TORSDOF 28
ENDMDL
MODEL 2
REMARK VINA RESULT:    -4.409      2.661      5.164
REMARK INTER + INTRA:         -17.572
REMARK INTER:                 -11.500
REMARK INTRA:                  -6.072
REMARK UNBOUND:                -5.946
REMARK SMILES CCCCCCCCCCCCCCCCCCCCCCCCCCCCCC(=O)[O-]
REMARK SMILES IDX 16 1 17 2 18 3 19 4 20 5 21 6 22 7 23 8 24 9 25 10 26 11
REMARK SMILES IDX 27 12 28 13 29 14 30 15 31 16 32 17 15 18 14 19 13 20 12 21
REMARK SMILES IDX 11 22 10 23 9 24 8 25 7 26 6 27 5 28 4 29 3 30 2 31 1 32
REMARK H PARENT
REMARK Flexibility Score: inf
ROOT
ATOM      1  C   UNL     1     -25.390 -59.973   2.801  1.00  0.00     0.000 C 
ENDROOT
BRANCH   1   2
ATOM      2  C   UNL     1     -26.505 -59.527   1.837  1.00  0.00     0.000 C 
BRANCH   2   3
ATOM      3  C   UNL     1     -26.023 -58.803   0.565  1.00  0.00     0.000 C 
BRANCH   3   4
ATOM      4  C   UNL     1     -25.629 -59.771  -0.564  1.00  0.00     0.000 C 
BRANCH   4   5
ATOM      5  C   UNL     1     -25.591 -59.086  -1.944  1.00  0.00     0.000 C 
BRANCH   5   6
ATOM      6  C   UNL     1     -25.009 -57.661  -1.945  1.00  0.00     0.000 C 
BRANCH   6   7
ATOM      7  C   UNL     1     -25.912 -56.649  -2.673  1.00  0.00     0.000 C 
BRANCH   7   8
ATOM      8  C   UNL     1     -27.156 -56.255  -1.854  1.00  0.00     0.000 C 
BRANCH   8   9
ATOM      9  C   UNL     1     -27.011 -54.974  -1.006  1.00  0.00     0.000 C 
BRANCH   9  10
ATOM     10  C   UNL     1     -26.204 -55.142   0.296  1.00  0.00     0.000 C 
BRANCH  10  11
ATOM     11  C   UNL     1     -26.813 -54.441   1.527  1.00  0.00     0.000 C 
BRANCH  11  12
ATOM     12  C   UNL     1     -27.535 -55.376   2.518  1.00  0.00     0.000 C 
BRANCH  12  13
ATOM     13  C   UNL     1     -29.018 -55.642   2.197  1.00  0.00     0.006 C 
BRANCH  13  14
ATOM     14  C   UNL     1     -29.545 -56.935   2.835  1.00  0.00     0.053 C 
BRANCH  14  15
ATOM     15  C   UNL     1     -29.883 -57.945   1.784  1.00  0.00     0.041 C 
ATOM     16  O   UNL     1     -29.999 -59.162   2.088  1.00  0.00    -0.550 OA
ATOM     17  O   UNL     1     -30.071 -57.542   0.466  1.00  0.00    -0.550 OA
ENDBRANCH  14  15
ENDBRANCH  13  14
ENDBRANCH  12  13
ENDBRANCH  11  12
ENDBRANCH  10  11
ENDBRANCH   9  10
ENDBRANCH   8   9
ENDBRANCH   7   8
ENDBRANCH   6   7
ENDBRANCH   5   6
ENDBRANCH   4   5
ENDBRANCH   3   4
ENDBRANCH   2   3
ENDBRANCH   1   2
BRANCH   1  18
ATOM     18  C   UNL     1     -25.185 -61.495   2.822  1.00  0.00     0.000 C 
BRANCH  18  19
ATOM     19  C   UNL     1     -23.912 -61.892   2.064  1.00  0.00     0.000 C 
BRANCH  19  20
ATOM     20  C   UNL     1     -22.918 -60.720   2.012  1.00  0.00     0.000 C 
BRANCH  20  21
ATOM     21  C   UNL     1     -22.389 -60.449   0.594  1.00  0.00     0.000 C 
BRANCH  21  22
ATOM     22  C   UNL     1     -22.095 -58.960   0.345  1.00  0.00     0.000 C 
BRANCH  22  23
ATOM     23  C   UNL     1     -22.223 -58.105   1.621  1.00  0.00     0.000 C 
BRANCH  23  24
ATOM     24  C   UNL     1     -23.229 -56.938   1.529  1.00  0.00    -0.000 C 
BRANCH  24  25
ATOM     25  C   UNL     1     -23.988 -56.621   2.834  1.00  0.00    -0.000 C 
BRANCH  25  26
ATOM     26  C   UNL     1     -23.142 -56.717   4.117  1.00  0.00    -0.000 C 
BRANCH  26  27
ATOM     27  C   UNL     1     -23.797 -57.586   5.201  1.00  0.00    -0.000 C 
BRANCH  27  28
ATOM     28  C   UNL     1     -22.819 -58.653   5.713  1.00  0.00    -0.000 C 
BRANCH  28  29
ATOM     29  C   UNL     1     -23.493 -60.014   5.948  1.00  0.00    -0.000 C 
BRANCH  29  30
ATOM     30  C   UNL     1     -22.559 -61.200   5.643  1.00  0.00    -0.000 C 
BRANCH  30  31
ATOM     31  C   UNL     1     -23.133 -62.541   6.123  1.00  0.00    -0.003 C 
ATOM     32  C   UNL     1     -22.857 -63.683   5.146  1.00  0.00     0.004 C 
ENDBRANCH  30  31
ENDBRANCH  29  30
ENDBRANCH  28  29
ENDBRANCH  27  28
ENDBRANCH  26  27
ENDBRANCH  25  26
ENDBRANCH  24  25
ENDBRANCH  23  24
ENDBRANCH  22  23
ENDBRANCH  21  22
ENDBRANCH  20  21
ENDBRANCH  19  20
ENDBRANCH  18  19
ENDBRANCH   1  18
TORSDOF 28
ENDMDL
MODEL 3
REMARK VINA RESULT:    -4.401      1.901      5.153
REMARK INTER + INTRA:         -17.552
REMARK INTER:                 -11.500
REMARK INTRA:                  -6.052
REMARK UNBOUND:                -5.946
REMARK SMILES CCCCCCCCCCCCCCCCCCCCCCCCCCCCCC(=O)[O-]
REMARK SMILES IDX 16 1 17 2 18 3 19 4 20 5 21 6 22 7 23 8 24 9 25 10 26 11
REMARK SMILES IDX 27 12 28 13 29 14 30 15 31 16 32 17 15 18 14 19 13 20 12 21
REMARK SMILES IDX 11 22 10 23 9 24 8 25 7 26 6 27 5 28 4 29 3 30 2 31 1 32
REMARK H PARENT
REMARK Flexibility Score: inf
ROOT
ATOM      1  C   UNL     1     -24.558 -62.369   2.784  1.00  0.00     0.000 C 
ENDROOT
BRANCH   1   2
ATOM      2  C   UNL     1     -25.555 -63.222   3.590  1.00  0.00     0.000 C 
BRANCH   2   3
ATOM      3  C   UNL     1     -25.261 -63.325   5.099  1.00  0.00     0.000 C 
BRANCH   3   4
ATOM      4  C   UNL     1     -24.666 -62.032   5.684  1.00  0.00     0.000 C 
BRANCH   4   5
ATOM      5  C   UNL     1     -23.172 -62.172   6.029  1.00  0.00     0.000 C 
BRANCH   5   6
ATOM      6  C   UNL     1     -22.337 -60.894   5.828  1.00  0.00     0.000 C 
BRANCH   6   7
ATOM      7  C   UNL     1     -23.124 -59.773   5.126  1.00  0.00     0.000 C 
BRANCH   7   8
ATOM      8  C   UNL     1     -22.815 -58.375   5.694  1.00  0.00     0.000 C 
BRANCH   8   9
ATOM      9  C   UNL     1     -22.361 -57.326   4.657  1.00  0.00     0.000 C 
BRANCH   9  10
ATOM     10  C   UNL     1     -22.953 -57.504   3.246  1.00  0.00     0.000 C 
BRANCH  10  11
ATOM     11  C   UNL     1     -24.362 -56.906   3.055  1.00  0.00     0.000 C 
BRANCH  11  12
ATOM     12  C   UNL     1     -24.419 -55.645   2.170  1.00  0.00     0.000 C 
BRANCH  12  13
ATOM     13  C   UNL     1     -24.718 -55.908   0.682  1.00  0.00     0.006 C 
BRANCH  13  14
ATOM     14  C   UNL     1     -25.759 -54.941   0.101  1.00  0.00     0.053 C 
BRANCH  14  15
ATOM     15  C   UNL     1     -26.129 -55.336  -1.294  1.00  0.00     0.041 C 
ATOM     16  O   UNL     1     -27.005 -56.219  -1.492  1.00  0.00    -0.550 OA
ATOM     17  O   UNL     1     -25.507 -54.725  -2.378  1.00  0.00    -0.550 OA
ENDBRANCH  14  15
ENDBRANCH  13  14
ENDBRANCH  12  13
ENDBRANCH  11  12
ENDBRANCH  10  11
ENDBRANCH   9  10
ENDBRANCH   8   9
ENDBRANCH   7   8
ENDBRANCH   6   7
ENDBRANCH   5   6
ENDBRANCH   4   5
ENDBRANCH   3   4
ENDBRANCH   2   3
ENDBRANCH   1   2
BRANCH   1  18
ATOM     18  C   UNL     1     -23.415 -63.196   2.174  1.00  0.00     0.000 C 
BRANCH  18  19
ATOM     19  C   UNL     1     -22.413 -62.296   1.441  1.00  0.00     0.000 C 
BRANCH  19  20
ATOM     20  C   UNL     1     -22.785 -60.813   1.606  1.00  0.00     0.000 C 
BRANCH  20  21
ATOM     21  C   UNL     1     -22.011 -59.893   0.648  1.00  0.00     0.000 C 
BRANCH  21  22
ATOM     22  C   UNL     1     -22.937 -59.113  -0.302  1.00  0.00     0.000 C 
BRANCH  22  23
ATOM     23  C   UNL     1     -24.200 -59.905  -0.688  1.00  0.00     0.000 C 
BRANCH  23  24
ATOM     24  C   UNL     1     -25.537 -59.187  -0.407  1.00  0.00    -0.000 C 
BRANCH  24  25
ATOM     25  C   UNL     1     -26.092 -59.368   1.021  1.00  0.00    -0.000 C 
BRANCH  25  26
ATOM     26  C   UNL     1     -27.405 -58.617   1.307  1.00  0.00    -0.000 C 
BRANCH  26  27
ATOM     27  C   UNL     1     -28.385 -59.431   2.165  1.00  0.00    -0.000 C 
BRANCH  27  28
ATOM     28  C   UNL     1     -27.632 -60.286   3.195  1.00  0.00    -0.000 C 
BRANCH  28  29
ATOM     29  C   UNL     1     -27.768 -59.748   4.628  1.00  0.00    -0.000 C 
BRANCH  29  30
ATOM     30  C   UNL     1     -26.559 -58.898   5.060  1.00  0.00    -0.000 C 
BRANCH  30  31
ATOM     31  C   UNL     1     -26.967 -57.507   5.568  1.00  0.00    -0.003 C 
ATOM     32  C   UNL     1     -27.730 -56.699   4.521  1.00  0.00     0.004 C 
ENDBRANCH  30  31
ENDBRANCH  29  30
ENDBRANCH  28  29
ENDBRANCH  27  28
ENDBRANCH  26  27
ENDBRANCH  25  26
ENDBRANCH  24  25
ENDBRANCH  23  24
ENDBRANCH  22  23
ENDBRANCH  21  22
ENDBRANCH  20  21
ENDBRANCH  19  20
ENDBRANCH  18  19
ENDBRANCH   1  18
TORSDOF 28
ENDMDL
MODEL 4
REMARK VINA RESULT:    -4.391      2.192      4.057
REMARK INTER + INTRA:         -17.525
REMARK INTER:                 -12.571
REMARK INTRA:                  -4.954
REMARK UNBOUND:                -5.946
REMARK SMILES CCCCCCCCCCCCCCCCCCCCCCCCCCCCCC(=O)[O-]
REMARK SMILES IDX 16 1 17 2 18 3 19 4 20 5 21 6 22 7 23 8 24 9 25 10 26 11
REMARK SMILES IDX 27 12 28 13 29 14 30 15 31 16 32 17 15 18 14 19 13 20 12 21
REMARK SMILES IDX 11 22 10 23 9 24 8 25 7 26 6 27 5 28 4 29 3 30 2 31 1 32
REMARK H PARENT
REMARK Flexibility Score: inf
ROOT
ATOM      1  C   UNL     1     -23.780 -62.004   2.105  1.00  0.00     0.000 C 
ENDROOT
BRANCH   1   2
ATOM      2  C   UNL     1     -22.689 -60.997   1.696  1.00  0.00     0.000 C 
BRANCH   2   3
ATOM      3  C   UNL     1     -21.900 -61.365   0.425  1.00  0.00     0.000 C 
BRANCH   3   4
ATOM      4  C   UNL     1     -22.285 -60.504  -0.790  1.00  0.00     0.000 C 
BRANCH   4   5
ATOM      5  C   UNL     1     -22.482 -59.020  -0.425  1.00  0.00     0.000 C 
BRANCH   5   6
ATOM      6  C   UNL     1     -23.938 -58.522  -0.497  1.00  0.00     0.000 C 
BRANCH   6   7
ATOM      7  C   UNL     1     -24.896 -59.568  -1.092  1.00  0.00     0.000 C 
BRANCH   7   8
ATOM      8  C   UNL     1     -25.599 -59.081  -2.373  1.00  0.00     0.000 C 
BRANCH   8   9
ATOM      9  C   UNL     1     -25.375 -57.596  -2.727  1.00  0.00     0.000 C 
BRANCH   9  10
ATOM     10  C   UNL     1     -26.658 -56.752  -2.843  1.00  0.00     0.000 C 
BRANCH  10  11
ATOM     11  C   UNL     1     -26.630 -55.421  -2.064  1.00  0.00     0.000 C 
BRANCH  11  12
ATOM     12  C   UNL     1     -25.894 -55.475  -0.710  1.00  0.00     0.000 C 
BRANCH  12  13
ATOM     13  C   UNL     1     -26.808 -55.609   0.522  1.00  0.00     0.006 C 
BRANCH  13  14
ATOM     14  C   UNL     1     -27.994 -56.555   0.285  1.00  0.00     0.053 C 
BRANCH  14  15
ATOM     15  C   UNL     1     -29.291 -55.853   0.536  1.00  0.00     0.041 C 
ATOM     16  O   UNL     1     -29.389 -54.613   0.341  1.00  0.00    -0.550 OA
ATOM     17  O   UNL     1     -30.396 -56.570   0.983  1.00  0.00    -0.550 OA
ENDBRANCH  14  15
ENDBRANCH  13  14
ENDBRANCH  12  13
ENDBRANCH  11  12
ENDBRANCH  10  11
ENDBRANCH   9  10
ENDBRANCH   8   9
ENDBRANCH   7   8
ENDBRANCH   6   7
ENDBRANCH   5   6
ENDBRANCH   4   5
ENDBRANCH   3   4
ENDBRANCH   2   3
ENDBRANCH   1   2
BRANCH   1  18
ATOM     18  C   UNL     1     -24.997 -61.337   2.765  1.00  0.00     0.000 C 
BRANCH  18  19
ATOM     19  C   UNL     1     -25.829 -62.358   3.551  1.00  0.00     0.000 C 
BRANCH  19  20
ATOM     20  C   UNL     1     -25.182 -63.752   3.492  1.00  0.00     0.000 C 
BRANCH  20  21
ATOM     21  C   UNL     1     -24.926 -64.349   4.885  1.00  0.00     0.000 C 
BRANCH  21  22
ATOM     22  C   UNL     1     -23.507 -64.926   5.031  1.00  0.00     0.000 C 
BRANCH  22  23
ATOM     23  C   UNL     1     -22.579 -64.023   5.866  1.00  0.00     0.000 C 
BRANCH  23  24
ATOM     24  C   UNL     1     -22.004 -62.803   5.116  1.00  0.00    -0.000 C 
BRANCH  24  25
ATOM     25  C   UNL     1     -22.245 -61.440   5.798  1.00  0.00    -0.000 C 
BRANCH  25  26
ATOM     26  C   UNL     1     -23.711 -61.152   6.173  1.00  0.00    -0.000 C 
BRANCH  26  27
ATOM     27  C   UNL     1     -24.010 -59.651   6.304  1.00  0.00    -0.000 C 
BRANCH  27  28
ATOM     28  C   UNL     1     -22.827 -58.810   5.803  1.00  0.00    -0.000 C 
BRANCH  28  29
ATOM     29  C   UNL     1     -23.194 -57.333   5.593  1.00  0.00    -0.000 C 
BRANCH  29  30
ATOM     30  C   UNL     1     -22.689 -56.781   4.246  1.00  0.00    -0.000 C 
BRANCH  30  31
ATOM     31  C   UNL     1     -23.210 -57.588   3.047  1.00  0.00    -0.003 C 
ATOM     32  C   UNL     1     -24.733 -57.561   2.937  1.00  0.00     0.004 C 
ENDBRANCH  30  31
ENDBRANCH  29  30
ENDBRANCH  28  29
ENDBRANCH  27  28
ENDBRANCH  26  27
ENDBRANCH  25  26
ENDBRANCH  24  25
ENDBRANCH  23  24
ENDBRANCH  22  23
ENDBRANCH  21  22
ENDBRANCH  20  21
ENDBRANCH  19  20
ENDBRANCH  18  19
ENDBRANCH   1  18
TORSDOF 28
ENDMDL
MODEL 5
REMARK VINA RESULT:    -4.388      2.644      6.237
REMARK INTER + INTRA:         -17.517
REMARK INTER:                 -11.508
REMARK INTRA:                  -6.009
REMARK UNBOUND:                -5.946
REMARK SMILES CCCCCCCCCCCCCCCCCCCCCCCCCCCCCC(=O)[O-]
REMARK SMILES IDX 16 1 17 2 18 3 19 4 20 5 21 6 22 7 23 8 24 9 25 10 26 11
REMARK SMILES IDX 27 12 28 13 29 14 30 15 31 16 32 17 15 18 14 19 13 20 12 21
REMARK SMILES IDX 11 22 10 23 9 24 8 25 7 26 6 27 5 28 4 29 3 30 2 31 1 32
REMARK H PARENT
REMARK Flexibility Score: inf
ROOT
ATOM      1  C   UNL     1     -26.006 -62.956   3.863  1.00  0.00     0.000 C 
ENDROOT
BRANCH   1   2
ATOM      2  C   UNL     1     -26.124 -62.652   5.368  1.00  0.00     0.000 C 
BRANCH   2   3
ATOM      3  C   UNL     1     -25.396 -61.378   5.839  1.00  0.00     0.000 C 
BRANCH   3   4
ATOM      4  C   UNL     1     -24.054 -61.675   6.530  1.00  0.00     0.000 C 
BRANCH   4   5
ATOM      5  C   UNL     1     -22.847 -61.152   5.729  1.00  0.00     0.000 C 
BRANCH   5   6
ATOM      6  C   UNL     1     -23.005 -59.724   5.174  1.00  0.00     0.000 C 
BRANCH   6   7
ATOM      7  C   UNL     1     -23.238 -58.679   6.278  1.00  0.00     0.000 C 
BRANCH   7   8
ATOM      8  C   UNL     1     -22.892 -57.245   5.833  1.00  0.00     0.000 C 
BRANCH   8   9
ATOM      9  C   UNL     1     -22.515 -57.087   4.346  1.00  0.00     0.000 C 
BRANCH   9  10
ATOM     10  C   UNL     1     -23.647 -56.572   3.436  1.00  0.00     0.000 C 
BRANCH  10  11
ATOM     11  C   UNL     1     -24.959 -56.228   4.170  1.00  0.00     0.000 C 
BRANCH  11  12
ATOM     12  C   UNL     1     -26.206 -56.981   3.663  1.00  0.00     0.000 C 
BRANCH  12  13
ATOM     13  C   UNL     1     -26.173 -58.507   3.872  1.00  0.00     0.006 C 
BRANCH  13  14
ATOM     14  C   UNL     1     -26.589 -59.291   2.619  1.00  0.00     0.053 C 
BRANCH  14  15
ATOM     15  C   UNL     1     -28.077 -59.284   2.459  1.00  0.00     0.041 C 
ATOM     16  O   UNL     1     -28.592 -59.383   1.315  1.00  0.00    -0.550 OA
ATOM     17  O   UNL     1     -28.897 -59.168   3.577  1.00  0.00    -0.550 OA
ENDBRANCH  14  15
ENDBRANCH  13  14
ENDBRANCH  12  13
ENDBRANCH  11  12
ENDBRANCH  10  11
ENDBRANCH   9  10
ENDBRANCH   8   9
ENDBRANCH   7   8
ENDBRANCH   6   7
ENDBRANCH   5   6
ENDBRANCH   4   5
ENDBRANCH   3   4
ENDBRANCH   2   3
ENDBRANCH   1   2
BRANCH   1  18
ATOM     18  C   UNL     1     -24.921 -63.996   3.542  1.00  0.00     0.000 C 
BRANCH  18  19
ATOM     19  C   UNL     1     -23.745 -63.355   2.796  1.00  0.00     0.000 C 
BRANCH  19  20
ATOM     20  C   UNL     1     -24.133 -61.973   2.246  1.00  0.00     0.000 C 
BRANCH  20  21
ATOM     21  C   UNL     1     -22.965 -61.262   1.542  1.00  0.00     0.000 C 
BRANCH  21  22
ATOM     22  C   UNL     1     -22.918 -59.755   1.850  1.00  0.00     0.000 C 
BRANCH  22  23
ATOM     23  C   UNL     1     -21.882 -59.004   0.992  1.00  0.00     0.000 C 
BRANCH  23  24
ATOM     24  C   UNL     1     -21.921 -59.329  -0.516  1.00  0.00    -0.000 C 
BRANCH  24  25
ATOM     25  C   UNL     1     -23.095 -58.700  -1.294  1.00  0.00    -0.000 C 
BRANCH  25  26
ATOM     26  C   UNL     1     -24.295 -59.636  -1.528  1.00  0.00    -0.000 C 
BRANCH  26  27
ATOM     27  C   UNL     1     -25.574 -59.157  -0.825  1.00  0.00    -0.000 C 
BRANCH  27  28
ATOM     28  C   UNL     1     -25.413 -57.716  -0.317  1.00  0.00    -0.000 C 
BRANCH  28  29
ATOM     29  C   UNL     1     -26.565 -56.799  -0.758  1.00  0.00    -0.000 C 
BRANCH  29  30
ATOM     30  C   UNL     1     -27.216 -56.055   0.424  1.00  0.00    -0.000 C 
BRANCH  30  31
ATOM     31  C   UNL     1     -26.887 -54.555   0.428  1.00  0.00    -0.003 C 
ATOM     32  C   UNL     1     -25.475 -54.263   0.934  1.00  0.00     0.004 C 
ENDBRANCH  30  31
ENDBRANCH  29  30
ENDBRANCH  28  29
ENDBRANCH  27  28
ENDBRANCH  26  27
ENDBRANCH  25  26
ENDBRANCH  24  25
ENDBRANCH  23  24
ENDBRANCH  22  23
ENDBRANCH  21  22
ENDBRANCH  20  21
ENDBRANCH  19  20
ENDBRANCH  18  19
ENDBRANCH   1  18
TORSDOF 28
ENDMDL
MODEL 6
REMARK VINA RESULT:    -4.359      2.503      5.441
REMARK INTER + INTRA:         -17.439
REMARK INTER:                 -11.151
REMARK INTRA:                  -6.288
REMARK UNBOUND:                -5.946
REMARK SMILES CCCCCCCCCCCCCCCCCCCCCCCCCCCCCC(=O)[O-]
REMARK SMILES IDX 16 1 17 2 18 3 19 4 20 5 21 6 22 7 23 8 24 9 25 10 26 11
REMARK SMILES IDX 27 12 28 13 29 14 30 15 31 16 32 17 15 18 14 19 13 20 12 21
REMARK SMILES IDX 11 22 10 23 9 24 8 25 7 26 6 27 5 28 4 29 3 30 2 31 1 32
REMARK H PARENT
REMARK Flexibility Score: inf
ROOT
ATOM      1  C   UNL     1     -26.137 -61.030   4.658  1.00  0.00     0.000 C 
ENDROOT
BRANCH   1   2
ATOM      2  C   UNL     1     -26.590 -60.667   3.232  1.00  0.00     0.000 C 
BRANCH   2   3
ATOM      3  C   UNL     1     -25.508 -60.024   2.343  1.00  0.00     0.000 C 
BRANCH   3   4
ATOM      4  C   UNL     1     -24.890 -58.762   2.969  1.00  0.00     0.000 C 
BRANCH   4   5
ATOM      5  C   UNL     1     -23.377 -58.905   3.219  1.00  0.00     0.000 C 
BRANCH   5   6
ATOM      6  C   UNL     1     -22.989 -59.256   4.667  1.00  0.00     0.000 C 
BRANCH   6   7
ATOM      7  C   UNL     1     -23.263 -58.106   5.652  1.00  0.00     0.000 C 
BRANCH   7   8
ATOM      8  C   UNL     1     -24.469 -58.376   6.572  1.00  0.00     0.000 C 
BRANCH   8   9
ATOM      9  C   UNL     1     -25.655 -57.403   6.410  1.00  0.00     0.000 C 
BRANCH   9  10
ATOM     10  C   UNL     1     -25.361 -56.151   5.561  1.00  0.00     0.000 C 
BRANCH  10  11
ATOM     11  C   UNL     1     -26.494 -55.743   4.598  1.00  0.00     0.000 C 
BRANCH  11  12
ATOM     12  C   UNL     1     -27.520 -56.853   4.291  1.00  0.00     0.000 C 
BRANCH  12  13
ATOM     13  C   UNL     1     -28.445 -56.569   3.093  1.00  0.00     0.006 C 
BRANCH  13  14
ATOM     14  C   UNL     1     -28.648 -57.796   2.191  1.00  0.00     0.053 C 
BRANCH  14  15
ATOM     15  C   UNL     1     -29.546 -57.466   1.041  1.00  0.00     0.041 C 
ATOM     16  O   UNL     1     -29.096 -56.842   0.044  1.00  0.00    -0.550 OA
ATOM     17  O   UNL     1     -30.882 -57.850   1.069  1.00  0.00    -0.550 OA
ENDBRANCH  14  15
ENDBRANCH  13  14
ENDBRANCH  12  13
ENDBRANCH  11  12
ENDBRANCH  10  11
ENDBRANCH   9  10
ENDBRANCH   8   9
ENDBRANCH   7   8
ENDBRANCH   6   7
ENDBRANCH   5   6
ENDBRANCH   4   5
ENDBRANCH   3   4
ENDBRANCH   2   3
ENDBRANCH   1   2
BRANCH   1  18
ATOM     18  C   UNL     1     -25.087 -62.151   4.689  1.00  0.00     0.000 C 
BRANCH  18  19
ATOM     19  C   UNL     1     -25.440 -63.266   3.696  1.00  0.00     0.000 C 
BRANCH  19  20
ATOM     20  C   UNL     1     -24.240 -63.592   2.792  1.00  0.00     0.000 C 
BRANCH  20  21
ATOM     21  C   UNL     1     -23.063 -62.623   2.990  1.00  0.00     0.000 C 
BRANCH  21  22
ATOM     22  C   UNL     1     -22.189 -62.486   1.731  1.00  0.00     0.000 C 
BRANCH  22  23
ATOM     23  C   UNL     1     -22.807 -61.550   0.675  1.00  0.00     0.000 C 
BRANCH  23  24
ATOM     24  C   UNL     1     -21.898 -60.390   0.215  1.00  0.00    -0.000 C 
BRANCH  24  25
ATOM     25  C   UNL     1     -22.228 -59.810  -1.176  1.00  0.00    -0.000 C 
BRANCH  25  26
ATOM     26  C   UNL     1     -23.330 -58.735  -1.185  1.00  0.00    -0.000 C 
BRANCH  26  27
ATOM     27  C   UNL     1     -24.746 -59.330  -1.228  1.00  0.00    -0.000 C 
BRANCH  27  28
ATOM     28  C   UNL     1     -25.795 -58.276  -0.848  1.00  0.00    -0.000 C 
BRANCH  28  29
ATOM     29  C   UNL     1     -25.651 -56.976  -1.656  1.00  0.00    -0.000 C 
BRANCH  29  30
ATOM     30  C   UNL     1     -25.645 -55.721  -0.764  1.00  0.00    -0.000 C 
BRANCH  30  31
ATOM     31  C   UNL     1     -25.650 -56.062   0.734  1.00  0.00    -0.003 C 
ATOM     32  C   UNL     1     -24.478 -55.431   1.485  1.00  0.00     0.004 C 
ENDBRANCH  30  31
ENDBRANCH  29  30
ENDBRANCH  28  29
ENDBRANCH  27  28
ENDBRANCH  26  27
ENDBRANCH  25  26
ENDBRANCH  24  25
ENDBRANCH  23  24
ENDBRANCH  22  23
ENDBRANCH  21  22
ENDBRANCH  20  21
ENDBRANCH  19  20
ENDBRANCH  18  19
ENDBRANCH   1  18
TORSDOF 28
ENDMDL
MODEL 7
REMARK VINA RESULT:    -4.338      2.467      5.994
REMARK INTER + INTRA:         -17.384
REMARK INTER:                 -10.931
REMARK INTRA:                  -6.453
REMARK UNBOUND:                -5.946
REMARK SMILES CCCCCCCCCCCCCCCCCCCCCCCCCCCCCC(=O)[O-]
REMARK SMILES IDX 16 1 17 2 18 3 19 4 20 5 21 6 22 7 23 8 24 9 25 10 26 11
REMARK SMILES IDX 27 12 28 13 29 14 30 15 31 16 32 17 15 18 14 19 13 20 12 21
REMARK SMILES IDX 11 22 10 23 9 24 8 25 7 26 6 27 5 28 4 29 3 30 2 31 1 32
REMARK H PARENT
REMARK Flexibility Score: inf
ROOT
ATOM      1  C   UNL     1     -23.675 -59.504   5.663  1.00  0.00     0.000 C 
ENDROOT
BRANCH   1   2
ATOM      2  C   UNL     1     -22.585 -60.591   5.699  1.00  0.00     0.000 C 
BRANCH   2   3
ATOM      3  C   UNL     1     -23.079 -62.004   6.066  1.00  0.00     0.000 C 
BRANCH   3   4
ATOM      4  C   UNL     1     -22.500 -63.098   5.154  1.00  0.00     0.000 C 
BRANCH   4   5
ATOM      5  C   UNL     1     -22.653 -62.764   3.658  1.00  0.00     0.000 C 
BRANCH   5   6
ATOM      6  C   UNL     1     -23.950 -63.279   3.007  1.00  0.00     0.000 C 
BRANCH   6   7
ATOM      7  C   UNL     1     -24.858 -62.142   2.509  1.00  0.00     0.000 C 
BRANCH   7   8
ATOM      8  C   UNL     1     -25.941 -61.744   3.529  1.00  0.00     0.000 C 
BRANCH   8   9
ATOM      9  C   UNL     1     -26.461 -60.296   3.411  1.00  0.00     0.000 C 
BRANCH   9  10
ATOM     10  C   UNL     1     -27.994 -60.158   3.336  1.00  0.00     0.000 C 
BRANCH  10  11
ATOM     11  C   UNL     1     -28.516 -59.427   2.083  1.00  0.00     0.000 C 
BRANCH  11  12
ATOM     12  C   UNL     1     -29.735 -58.512   2.322  1.00  0.00     0.000 C 
BRANCH  12  13
ATOM     13  C   UNL     1     -29.859 -57.327   1.347  1.00  0.00     0.006 C 
BRANCH  13  14
ATOM     14  C   UNL     1     -29.753 -55.964   2.047  1.00  0.00     0.053 C 
BRANCH  14  15
ATOM     15  C   UNL     1     -31.097 -55.313   2.145  1.00  0.00     0.041 C 
ATOM     16  O   UNL     1     -31.205 -54.063   2.039  1.00  0.00    -0.550 OA
ATOM     17  O   UNL     1     -32.233 -56.089   2.351  1.00  0.00    -0.550 OA
ENDBRANCH  14  15
ENDBRANCH  13  14
ENDBRANCH  12  13
ENDBRANCH  11  12
ENDBRANCH  10  11
ENDBRANCH   9  10
ENDBRANCH   8   9
ENDBRANCH   7   8
ENDBRANCH   6   7
ENDBRANCH   5   6
ENDBRANCH   4   5
ENDBRANCH   3   4
ENDBRANCH   2   3
ENDBRANCH   1   2
BRANCH   1  18
ATOM     18  C   UNL     1     -23.385 -58.395   4.640  1.00  0.00     0.000 C 
BRANCH  18  19
ATOM     19  C   UNL     1     -23.020 -58.985   3.273  1.00  0.00     0.000 C 
BRANCH  19  20
ATOM     20  C   UNL     1     -22.650 -57.873   2.278  1.00  0.00     0.000 C 
BRANCH  20  21
ATOM     21  C   UNL     1     -22.059 -58.419   0.967  1.00  0.00     0.000 C 
BRANCH  21  22
ATOM     22  C   UNL     1     -21.956 -59.954   0.957  1.00  0.00     0.000 C 
BRANCH  22  23
ATOM     23  C   UNL     1     -23.046 -60.619   0.095  1.00  0.00     0.000 C 
BRANCH  23  24
ATOM     24  C   UNL     1     -23.940 -59.643  -0.698  1.00  0.00    -0.000 C 
BRANCH  24  25
ATOM     25  C   UNL     1     -25.332 -59.381  -0.086  1.00  0.00    -0.000 C 
BRANCH  25  26
ATOM     26  C   UNL     1     -26.008 -58.076  -0.544  1.00  0.00    -0.000 C 
BRANCH  26  27
ATOM     27  C   UNL     1     -25.581 -56.857   0.288  1.00  0.00    -0.000 C 
BRANCH  27  28
ATOM     28  C   UNL     1     -26.171 -56.927   1.704  1.00  0.00    -0.000 C 
BRANCH  28  29
ATOM     29  C   UNL     1     -25.892 -55.659   2.527  1.00  0.00    -0.000 C 
BRANCH  29  30
ATOM     30  C   UNL     1     -25.864 -55.930   4.043  1.00  0.00    -0.000 C 
BRANCH  30  31
ATOM     31  C   UNL     1     -27.108 -56.687   4.529  1.00  0.00    -0.003 C 
ATOM     32  C   UNL     1     -26.866 -57.440   5.836  1.00  0.00     0.004 C 
ENDBRANCH  30  31
ENDBRANCH  29  30
ENDBRANCH  28  29
ENDBRANCH  27  28
ENDBRANCH  26  27
ENDBRANCH  25  26
ENDBRANCH  24  25
ENDBRANCH  23  24
ENDBRANCH  22  23
ENDBRANCH  21  22
ENDBRANCH  20  21
ENDBRANCH  19  20
ENDBRANCH  18  19
ENDBRANCH   1  18
TORSDOF 28
ENDMDL
MODEL 8
REMARK VINA RESULT:    -4.289      2.295      3.402
REMARK INTER + INTRA:         -17.255
REMARK INTER:                 -11.319
REMARK INTRA:                  -5.936
REMARK UNBOUND:                -5.946
REMARK SMILES CCCCCCCCCCCCCCCCCCCCCCCCCCCCCC(=O)[O-]
REMARK SMILES IDX 16 1 17 2 18 3 19 4 20 5 21 6 22 7 23 8 24 9 25 10 26 11
REMARK SMILES IDX 27 12 28 13 29 14 30 15 31 16 32 17 15 18 14 19 13 20 12 21
REMARK SMILES IDX 11 22 10 23 9 24 8 25 7 26 6 27 5 28 4 29 3 30 2 31 1 32
REMARK H PARENT
REMARK Flexibility Score: inf
ROOT
ATOM      1  C   UNL     1     -24.118 -59.808  -1.586  1.00  0.00     0.000 C 
ENDROOT
BRANCH   1   2
ATOM      2  C   UNL     1     -24.761 -58.428  -1.356  1.00  0.00     0.000 C 
BRANCH   2   3
ATOM      3  C   UNL     1     -25.968 -58.418  -0.399  1.00  0.00     0.000 C 
BRANCH   3   4
ATOM      4  C   UNL     1     -25.860 -59.474   0.714  1.00  0.00     0.000 C 
BRANCH   4   5
ATOM      5  C   UNL     1     -25.490 -58.861   2.078  1.00  0.00     0.000 C 
BRANCH   5   6
ATOM      6  C   UNL     1     -26.686 -58.558   3.000  1.00  0.00     0.000 C 
BRANCH   6   7
ATOM      7  C   UNL     1     -27.295 -57.167   2.748  1.00  0.00     0.000 C 
BRANCH   7   8
ATOM      8  C   UNL     1     -26.511 -56.033   3.434  1.00  0.00     0.000 C 
BRANCH   8   9
ATOM      9  C   UNL     1     -26.132 -54.846   2.525  1.00  0.00     0.000 C 
BRANCH   9  10
ATOM     10  C   UNL     1     -25.157 -55.184   1.381  1.00  0.00     0.000 C 
BRANCH  10  11
ATOM     11  C   UNL     1     -25.663 -54.821  -0.029  1.00  0.00     0.000 C 
BRANCH  11  12
ATOM     12  C   UNL     1     -27.195 -54.849  -0.199  1.00  0.00     0.000 C 
BRANCH  12  13
ATOM     13  C   UNL     1     -27.689 -55.356  -1.567  1.00  0.00     0.006 C 
BRANCH  13  14
ATOM     14  C   UNL     1     -26.897 -54.765  -2.743  1.00  0.00     0.053 C 
BRANCH  14  15
ATOM     15  C   UNL     1     -26.211 -55.846  -3.517  1.00  0.00     0.041 C 
ATOM     16  O   UNL     1     -26.847 -56.874  -3.871  1.00  0.00    -0.550 OA
ATOM     17  O   UNL     1     -24.867 -55.717  -3.851  1.00  0.00    -0.550 OA
ENDBRANCH  14  15
ENDBRANCH  13  14
ENDBRANCH  12  13
ENDBRANCH  11  12
ENDBRANCH  10  11
ENDBRANCH   9  10
ENDBRANCH   8   9
ENDBRANCH   7   8
ENDBRANCH   6   7
ENDBRANCH   5   6
ENDBRANCH   4   5
ENDBRANCH   3   4
ENDBRANCH   2   3
ENDBRANCH   1   2
BRANCH   1  18
ATOM     18  C   UNL     1     -22.596 -59.806  -1.373  1.00  0.00     0.000 C 
BRANCH  18  19
ATOM     19  C   UNL     1     -22.186 -58.765  -0.325  1.00  0.00     0.000 C 
BRANCH  19  20
ATOM     20  C   UNL     1     -21.949 -59.428   1.041  1.00  0.00     0.000 C 
BRANCH  20  21
ATOM     21  C   UNL     1     -22.191 -60.946   1.018  1.00  0.00     0.000 C 
BRANCH  21  22
ATOM     22  C   UNL     1     -23.030 -61.432   2.213  1.00  0.00     0.000 C 
BRANCH  22  23
ATOM     23  C   UNL     1     -23.353 -62.936   2.143  1.00  0.00     0.000 C 
BRANCH  23  24
ATOM     24  C   UNL     1     -24.586 -63.380   2.959  1.00  0.00    -0.000 C 
BRANCH  24  25
ATOM     25  C   UNL     1     -25.462 -62.233   3.502  1.00  0.00    -0.000 C 
BRANCH  25  26
ATOM     26  C   UNL     1     -25.796 -62.324   5.002  1.00  0.00    -0.000 C 
BRANCH  26  27
ATOM     27  C   UNL     1     -25.068 -61.265   5.842  1.00  0.00    -0.000 C 
BRANCH  27  28
ATOM     28  C   UNL     1     -23.558 -61.545   5.888  1.00  0.00    -0.000 C 
BRANCH  28  29
ATOM     29  C   UNL     1     -22.712 -60.280   5.669  1.00  0.00    -0.000 C 
BRANCH  29  30
ATOM     30  C   UNL     1     -23.552 -59.081   5.190  1.00  0.00    -0.000 C 
BRANCH  30  31
ATOM     31  C   UNL     1     -22.707 -58.021   4.468  1.00  0.00    -0.003 C 
ATOM     32  C   UNL     1     -23.170 -56.596   4.765  1.00  0.00     0.004 C 
ENDBRANCH  30  31
ENDBRANCH  29  30
ENDBRANCH  28  29
ENDBRANCH  27  28
ENDBRANCH  26  27
ENDBRANCH  25  26
ENDBRANCH  24  25
ENDBRANCH  23  24
ENDBRANCH  22  23
ENDBRANCH  21  22
ENDBRANCH  20  21
ENDBRANCH  19  20
ENDBRANCH  18  19
ENDBRANCH   1  18
TORSDOF 28
ENDMDL
