MODEL 1
REMARK VINA RESULT:    -4.705      0.000      0.000
REMARK INTER + INTRA:         -18.051
REMARK INTER:                 -12.406
REMARK INTRA:                  -5.645
REMARK UNBOUND:                -5.645
REMARK SMILES CCCCCCCCCCCCCCCCCCCCCCCCCCCCCC(=O)[O-]
REMARK SMILES IDX 16 1 17 2 18 3 19 4 20 5 21 6 22 7 23 8 24 9 25 10 26 11
REMARK SMILES IDX 27 12 28 13 29 14 30 15 31 16 32 17 15 18 14 19 13 20 12 21
REMARK SMILES IDX 11 22 10 23 9 24 8 25 7 26 6 27 5 28 4 29 3 30 2 31 1 32
REMARK H PARENT
REMARK Flexibility Score: inf
ROOT
ATOM      1  C   UNL     1     -44.586 -49.899  27.288  1.00  0.00     0.000 C 
ENDROOT
BRANCH   1   2
ATOM      2  C   UNL     1     -44.932 -50.155  25.813  1.00  0.00     0.000 C 
BRANCH   2   3
ATOM      3  C   UNL     1     -43.842 -49.662  24.849  1.00  0.00     0.000 C 
BRANCH   3   4
ATOM      4  C   UNL     1     -44.369 -48.626  23.840  1.00  0.00     0.000 C 
BRANCH   4   5
ATOM      5  C   UNL     1     -44.362 -47.191  24.399  1.00  0.00     0.000 C 
BRANCH   5   6
ATOM      6  C   UNL     1     -45.749 -46.535  24.550  1.00  0.00     0.000 C 
BRANCH   6   7
ATOM      7  C   UNL     1     -46.913 -47.306  23.899  1.00  0.00     0.000 C 
BRANCH   7   8
ATOM      8  C   UNL     1     -48.188 -47.293  24.755  1.00  0.00     0.000 C 
BRANCH   8   9
ATOM      9  C   UNL     1     -48.286 -48.565  25.612  1.00  0.00     0.000 C 
BRANCH   9  10
ATOM     10  C   UNL     1     -48.500 -49.831  24.765  1.00  0.00     0.000 C 
BRANCH  10  11
ATOM     11  C   UNL     1     -49.919 -49.913  24.175  1.00  0.00     0.000 C 
BRANCH  11  12
ATOM     12  C   UNL     1     -49.919 -49.892  22.637  1.00  0.00     0.000 C 
BRANCH  12  13
ATOM     13  C   UNL     1     -50.558 -48.617  22.068  1.00  0.00     0.006 C 
BRANCH  13  14
ATOM     14  C   UNL     1     -51.568 -48.021  23.054  1.00  0.00     0.053 C 
BRANCH  14  15
ATOM     15  C   UNL     1     -52.965 -48.153  22.528  1.00  0.00     0.041 C 
ATOM     16  O   UNL     1     -53.298 -49.166  21.859  1.00  0.00    -0.550 OA
ATOM     17  O   UNL     1     -53.899 -47.151  22.771  1.00  0.00    -0.550 OA
ENDBRANCH  14  15
ENDBRANCH  13  14
ENDBRANCH  12  13
ENDBRANCH  11  12
ENDBRANCH  10  11
ENDBRANCH   9  10
ENDBRANCH   8   9
ENDBRANCH   7   8
ENDBRANCH   6   7
ENDBRANCH   5   6
ENDBRANCH   4   5
ENDBRANCH   3   4
ENDBRANCH   2   3
ENDBRANCH   1   2
BRANCH   1  18
ATOM     18  C   UNL     1     -45.298 -48.641  27.810  1.00  0.00     0.000 C 
BRANCH  18  19
ATOM     19  C   UNL     1     -44.382 -47.753  28.671  1.00  0.00     0.000 C 
BRANCH  19  20
ATOM     20  C   UNL     1     -43.670 -46.621  27.905  1.00  0.00     0.000 C 
BRANCH  20  21
ATOM     21  C   UNL     1     -42.129 -46.689  27.925  1.00  0.00     0.000 C 
BRANCH  21  22
ATOM     22  C   UNL     1     -41.495 -47.473  26.761  1.00  0.00     0.000 C 
BRANCH  22  23
ATOM     23  C   UNL     1     -41.017 -48.873  27.179  1.00  0.00     0.000 C 
BRANCH  23  24
ATOM     24  C   UNL     1     -40.806 -49.009  28.699  1.00  0.00    -0.000 C 
BRANCH  24  25
ATOM     25  C   UNL     1     -41.631 -50.118  29.384  1.00  0.00    -0.000 C 
BRANCH  25  26
ATOM     26  C   UNL     1     -41.743 -49.997  30.915  1.00  0.00    -0.000 C 
BRANCH  26  27
ATOM     27  C   UNL     1     -42.892 -50.838  31.498  1.00  0.00    -0.000 C 
BRANCH  27  28
ATOM     28  C   UNL     1     -43.909 -51.285  30.432  1.00  0.00    -0.000 C 
BRANCH  28  29
ATOM     29  C   UNL     1     -45.204 -51.910  30.985  1.00  0.00    -0.000 C 
BRANCH  29  30
ATOM     30  C   UNL     1     -45.927 -51.003  31.993  1.00  0.00    -0.000 C 
BRANCH  30  31
ATOM     31  C   UNL     1     -46.620 -49.810  31.316  1.00  0.00    -0.003 C 
ATOM     32  C   UNL     1     -46.216 -48.467  31.924  1.00  0.00     0.004 C 
ENDBRANCH  30  31
ENDBRANCH  29  30
ENDBRANCH  28  29
ENDBRANCH  27  28
ENDBRANCH  26  27
ENDBRANCH  25  26
ENDBRANCH  24  25
ENDBRANCH  23  24
ENDBRANCH  22  23
ENDBRANCH  21  22
ENDBRANCH  20  21
ENDBRANCH  19  20
ENDBRANCH  18  19
ENDBRANCH   1  18
TORSDOF 28
ENDMDL
MODEL 2
REMARK VINA RESULT:    -4.689      1.625      2.295
REMARK INTER + INTRA:         -18.009
REMARK INTER:                 -12.939
REMARK INTRA:                  -5.070
REMARK UNBOUND:                -5.645
REMARK SMILES CCCCCCCCCCCCCCCCCCCCCCCCCCCCCC(=O)[O-]
REMARK SMILES IDX 16 1 17 2 18 3 19 4 20 5 21 6 22 7 23 8 24 9 25 10 26 11
REMARK SMILES IDX 27 12 28 13 29 14 30 15 31 16 32 17 15 18 14 19 13 20 12 21
REMARK SMILES IDX 11 22 10 23 9 24 8 25 7 26 6 27 5 28 4 29 3 30 2 31 1 32
REMARK H PARENT
REMARK Flexibility Score: inf
ROOT
ATOM      1  C   UNL     1     -45.331 -48.477  27.694  1.00  0.00     0.000 C 
ENDROOT
BRANCH   1   2
ATOM      2  C   UNL     1     -44.641 -49.817  27.399  1.00  0.00     0.000 C 
BRANCH   2   3
ATOM      3  C   UNL     1     -44.726 -50.221  25.919  1.00  0.00     0.000 C 
BRANCH   3   4
ATOM      4  C   UNL     1     -43.611 -49.591  25.068  1.00  0.00     0.000 C 
BRANCH   4   5
ATOM      5  C   UNL     1     -44.155 -48.778  23.878  1.00  0.00     0.000 C 
BRANCH   5   6
ATOM      6  C   UNL     1     -44.363 -47.274  24.146  1.00  0.00     0.000 C 
BRANCH   6   7
ATOM      7  C   UNL     1     -45.822 -46.847  24.394  1.00  0.00     0.000 C 
BRANCH   7   8
ATOM      8  C   UNL     1     -46.839 -47.789  23.733  1.00  0.00     0.000 C 
BRANCH   8   9
ATOM      9  C   UNL     1     -47.934 -48.200  24.729  1.00  0.00     0.000 C 
BRANCH   9  10
ATOM     10  C   UNL     1     -48.184 -49.718  24.736  1.00  0.00     0.000 C 
BRANCH  10  11
ATOM     11  C   UNL     1     -49.668 -50.072  24.533  1.00  0.00     0.000 C 
BRANCH  11  12
ATOM     12  C   UNL     1     -50.320 -49.252  23.408  1.00  0.00     0.000 C 
BRANCH  12  13
ATOM     13  C   UNL     1     -50.249 -49.962  22.048  1.00  0.00     0.006 C 
BRANCH  13  14
ATOM     14  C   UNL     1     -49.369 -49.181  21.065  1.00  0.00     0.053 C 
BRANCH  14  15
ATOM     15  C   UNL     1     -49.292 -49.885  19.745  1.00  0.00     0.041 C 
ATOM     16  O   UNL     1     -48.342 -49.648  18.954  1.00  0.00    -0.550 OA
ATOM     17  O   UNL     1     -50.275 -50.801  19.386  1.00  0.00    -0.550 OA
ENDBRANCH  14  15
ENDBRANCH  13  14
ENDBRANCH  12  13
ENDBRANCH  11  12
ENDBRANCH  10  11
ENDBRANCH   9  10
ENDBRANCH   8   9
ENDBRANCH   7   8
ENDBRANCH   6   7
ENDBRANCH   5   6
ENDBRANCH   4   5
ENDBRANCH   3   4
ENDBRANCH   2   3
ENDBRANCH   1   2
BRANCH   1  18
ATOM     18  C   UNL     1     -44.418 -47.557  28.520  1.00  0.00     0.000 C 
BRANCH  18  19
ATOM     19  C   UNL     1     -43.910 -46.346  27.718  1.00  0.00     0.000 C 
BRANCH  19  20
ATOM     20  C   UNL     1     -42.501 -46.511  27.116  1.00  0.00     0.000 C 
BRANCH  20  21
ATOM     21  C   UNL     1     -41.485 -47.232  28.025  1.00  0.00     0.000 C 
BRANCH  21  22
ATOM     22  C   UNL     1     -40.991 -48.593  27.500  1.00  0.00     0.000 C 
BRANCH  22  23
ATOM     23  C   UNL     1     -41.237 -49.737  28.498  1.00  0.00     0.000 C 
BRANCH  23  24
ATOM     24  C   UNL     1     -40.934 -49.343  29.956  1.00  0.00    -0.000 C 
BRANCH  24  25
ATOM     25  C   UNL     1     -41.729 -50.114  31.029  1.00  0.00    -0.000 C 
BRANCH  25  26
ATOM     26  C   UNL     1     -43.256 -50.117  30.834  1.00  0.00    -0.000 C 
BRANCH  26  27
ATOM     27  C   UNL     1     -43.905 -51.457  31.223  1.00  0.00    -0.000 C 
BRANCH  27  28
ATOM     28  C   UNL     1     -44.400 -51.483  32.681  1.00  0.00    -0.000 C 
BRANCH  28  29
ATOM     29  C   UNL     1     -45.913 -51.711  32.853  1.00  0.00    -0.000 C 
BRANCH  29  30
ATOM     30  C   UNL     1     -46.637 -50.501  33.468  1.00  0.00    -0.000 C 
BRANCH  30  31
ATOM     31  C   UNL     1     -46.525 -49.244  32.591  1.00  0.00    -0.003 C 
ATOM     32  C   UNL     1     -47.067 -49.458  31.177  1.00  0.00     0.004 C 
ENDBRANCH  30  31
ENDBRANCH  29  30
ENDBRANCH  28  29
ENDBRANCH  27  28
ENDBRANCH  26  27
ENDBRANCH  25  26
ENDBRANCH  24  25
ENDBRANCH  23  24
ENDBRANCH  22  23
ENDBRANCH  21  22
ENDBRANCH  20  21
ENDBRANCH  19  20
ENDBRANCH  18  19
ENDBRANCH   1  18
TORSDOF 28
ENDMDL
MODEL 3
REMARK VINA RESULT:    -4.625      3.588      9.210
REMARK INTER + INTRA:         -17.841
REMARK INTER:                 -11.851
REMARK INTRA:                  -5.991
REMARK UNBOUND:                -5.645
REMARK SMILES CCCCCCCCCCCCCCCCCCCCCCCCCCCCCC(=O)[O-]
REMARK SMILES IDX 16 1 17 2 18 3 19 4 20 5 21 6 22 7 23 8 24 9 25 10 26 11
REMARK SMILES IDX 27 12 28 13 29 14 30 15 31 16 32 17 15 18 14 19 13 20 12 21
REMARK SMILES IDX 11 22 10 23 9 24 8 25 7 26 6 27 5 28 4 29 3 30 2 31 1 32
REMARK H PARENT
REMARK Flexibility Score: inf
ROOT
ATOM      1  C   UNL     1     -44.411 -49.952  24.376  1.00  0.00     0.000 C 
ENDROOT
BRANCH   1   2
ATOM      2  C   UNL     1     -43.980 -49.887  25.849  1.00  0.00     0.000 C 
BRANCH   2   3
ATOM      3  C   UNL     1     -45.164 -49.988  26.824  1.00  0.00     0.000 C 
BRANCH   3   4
ATOM      4  C   UNL     1     -45.105 -48.930  27.938  1.00  0.00     0.000 C 
BRANCH   4   5
ATOM      5  C   UNL     1     -44.844 -47.510  27.401  1.00  0.00     0.000 C 
BRANCH   5   6
ATOM      6  C   UNL     1     -44.026 -46.592  28.332  1.00  0.00     0.000 C 
BRANCH   6   7
ATOM      7  C   UNL     1     -42.837 -45.875  27.666  1.00  0.00     0.000 C 
BRANCH   7   8
ATOM      8  C   UNL     1     -42.452 -46.490  26.313  1.00  0.00     0.000 C 
BRANCH   8   9
ATOM      9  C   UNL     1     -41.356 -47.552  26.484  1.00  0.00     0.000 C 
BRANCH   9  10
ATOM     10  C   UNL     1     -40.427 -47.255  27.672  1.00  0.00     0.000 C 
BRANCH  10  11
ATOM     11  C   UNL     1     -40.123 -48.508  28.513  1.00  0.00     0.000 C 
BRANCH  11  12
ATOM     12  C   UNL     1     -41.315 -49.477  28.576  1.00  0.00     0.000 C 
BRANCH  12  13
ATOM     13  C   UNL     1     -42.075 -49.384  29.908  1.00  0.00     0.006 C 
BRANCH  13  14
ATOM     14  C   UNL     1     -41.973 -50.698  30.692  1.00  0.00     0.053 C 
BRANCH  14  15
ATOM     15  C   UNL     1     -43.325 -51.142  31.162  1.00  0.00     0.041 C 
ATOM     16  O   UNL     1     -44.242 -51.373  30.331  1.00  0.00    -0.550 OA
ATOM     17  O   UNL     1     -43.574 -51.295  32.522  1.00  0.00    -0.550 OA
ENDBRANCH  14  15
ENDBRANCH  13  14
ENDBRANCH  12  13
ENDBRANCH  11  12
ENDBRANCH  10  11
ENDBRANCH   9  10
ENDBRANCH   8   9
ENDBRANCH   7   8
ENDBRANCH   6   7
ENDBRANCH   5   6
ENDBRANCH   4   5
ENDBRANCH   3   4
ENDBRANCH   2   3
ENDBRANCH   1   2
BRANCH   1  18
ATOM     18  C   UNL     1     -44.022 -48.666  23.630  1.00  0.00     0.000 C 
BRANCH  18  19
ATOM     19  C   UNL     1     -44.989 -47.502  23.908  1.00  0.00     0.000 C 
BRANCH  19  20
ATOM     20  C   UNL     1     -46.477 -47.821  23.664  1.00  0.00     0.000 C 
BRANCH  20  21
ATOM     21  C   UNL     1     -47.426 -47.430  24.815  1.00  0.00     0.000 C 
BRANCH  21  22
ATOM     22  C   UNL     1     -48.303 -48.575  25.354  1.00  0.00     0.000 C 
BRANCH  22  23
ATOM     23  C   UNL     1     -48.402 -49.757  24.376  1.00  0.00     0.000 C 
BRANCH  23  24
ATOM     24  C   UNL     1     -49.854 -50.104  23.994  1.00  0.00    -0.000 C 
BRANCH  24  25
ATOM     25  C   UNL     1     -50.943 -49.440  24.860  1.00  0.00    -0.000 C 
BRANCH  25  26
ATOM     26  C   UNL     1     -52.067 -48.741  24.072  1.00  0.00    -0.000 C 
BRANCH  26  27
ATOM     27  C   UNL     1     -52.185 -47.244  24.403  1.00  0.00    -0.000 C 
BRANCH  27  28
ATOM     28  C   UNL     1     -50.920 -46.446  24.035  1.00  0.00    -0.000 C 
BRANCH  28  29
ATOM     29  C   UNL     1     -50.793 -46.072  22.547  1.00  0.00    -0.000 C 
BRANCH  29  30
ATOM     30  C   UNL     1     -49.669 -46.837  21.828  1.00  0.00    -0.000 C 
BRANCH  30  31
ATOM     31  C   UNL     1     -50.204 -47.991  20.966  1.00  0.00    -0.003 C 
ATOM     32  C   UNL     1     -49.106 -48.960  20.525  1.00  0.00     0.004 C 
ENDBRANCH  30  31
ENDBRANCH  29  30
ENDBRANCH  28  29
ENDBRANCH  27  28
ENDBRANCH  26  27
ENDBRANCH  25  26
ENDBRANCH  24  25
ENDBRANCH  23  24
ENDBRANCH  22  23
ENDBRANCH  21  22
ENDBRANCH  20  21
ENDBRANCH  19  20
ENDBRANCH  18  19
ENDBRANCH   1  18
TORSDOF 28
ENDMDL
MODEL 4
REMARK VINA RESULT:    -4.603      4.446     10.299
REMARK INTER + INTRA:         -17.783
REMARK INTER:                 -12.808
REMARK INTRA:                  -4.976
REMARK UNBOUND:                -5.645
REMARK SMILES CCCCCCCCCCCCCCCCCCCCCCCCCCCCCC(=O)[O-]
REMARK SMILES IDX 16 1 17 2 18 3 19 4 20 5 21 6 22 7 23 8 24 9 25 10 26 11
REMARK SMILES IDX 27 12 28 13 29 14 30 15 31 16 32 17 15 18 14 19 13 20 12 21
REMARK SMILES IDX 11 22 10 23 9 24 8 25 7 26 6 27 5 28 4 29 3 30 2 31 1 32
REMARK H PARENT
REMARK Flexibility Score: inf
ROOT
ATOM      1  C   UNL     1     -49.683 -47.904  21.188  1.00  0.00     0.000 C 
ENDROOT
BRANCH   1   2
ATOM      2  C   UNL     1     -48.844 -48.999  21.863  1.00  0.00     0.000 C 
BRANCH   2   3
ATOM      3  C   UNL     1     -49.693 -49.980  22.687  1.00  0.00     0.000 C 
BRANCH   3   4
ATOM      4  C   UNL     1     -49.324 -49.974  24.180  1.00  0.00     0.000 C 
BRANCH   4   5
ATOM      5  C   UNL     1     -50.491 -49.530  25.082  1.00  0.00     0.000 C 
BRANCH   5   6
ATOM      6  C   UNL     1     -51.660 -48.836  24.354  1.00  0.00     0.000 C 
BRANCH   6   7
ATOM      7  C   UNL     1     -51.842 -47.342  24.683  1.00  0.00     0.000 C 
BRANCH   7   8
ATOM      8  C   UNL     1     -50.631 -46.740  25.409  1.00  0.00     0.000 C 
BRANCH   8   9
ATOM      9  C   UNL     1     -49.619 -46.165  24.405  1.00  0.00     0.000 C 
BRANCH   9  10
ATOM     10  C   UNL     1     -48.168 -46.277  24.902  1.00  0.00     0.000 C 
BRANCH  10  11
ATOM     11  C   UNL     1     -47.186 -46.650  23.777  1.00  0.00     0.000 C 
BRANCH  11  12
ATOM     12  C   UNL     1     -45.847 -47.178  24.316  1.00  0.00     0.000 C 
BRANCH  12  13
ATOM     13  C   UNL     1     -46.005 -47.926  25.648  1.00  0.00     0.006 C 
BRANCH  13  14
ATOM     14  C   UNL     1     -45.884 -49.441  25.447  1.00  0.00     0.053 C 
BRANCH  14  15
ATOM     15  C   UNL     1     -44.451 -49.839  25.263  1.00  0.00     0.041 C 
ATOM     16  O   UNL     1     -43.569 -49.419  26.057  1.00  0.00    -0.550 OA
ATOM     17  O   UNL     1     -44.088 -50.671  24.210  1.00  0.00    -0.550 OA
ENDBRANCH  14  15
ENDBRANCH  13  14
ENDBRANCH  12  13
ENDBRANCH  11  12
ENDBRANCH  10  11
ENDBRANCH   9  10
ENDBRANCH   8   9
ENDBRANCH   7   8
ENDBRANCH   6   7
ENDBRANCH   5   6
ENDBRANCH   4   5
ENDBRANCH   3   4
ENDBRANCH   2   3
ENDBRANCH   1   2
BRANCH   1  18
ATOM     18  C   UNL     1     -49.309 -47.760  19.704  1.00  0.00     0.000 C 
BRANCH  18  19
ATOM     19  C   UNL     1     -47.799 -47.910  19.453  1.00  0.00     0.000 C 
BRANCH  19  20
ATOM     20  C   UNL     1     -47.418 -48.329  18.020  1.00  0.00     0.000 C 
BRANCH  20  21
ATOM     21  C   UNL     1     -47.478 -49.846  17.746  1.00  0.00     0.000 C 
BRANCH  21  22
ATOM     22  C   UNL     1     -48.169 -50.244  16.429  1.00  0.00     0.000 C 
BRANCH  22  23
ATOM     23  C   UNL     1     -49.434 -51.089  16.655  1.00  0.00     0.000 C 
BRANCH  23  24
ATOM     24  C   UNL     1     -50.185 -50.717  17.947  1.00  0.00    -0.000 C 
BRANCH  24  25
ATOM     25  C   UNL     1     -51.713 -50.562  17.804  1.00  0.00    -0.000 C 
BRANCH  25  26
ATOM     26  C   UNL     1     -52.385 -49.697  18.885  1.00  0.00    -0.000 C 
BRANCH  26  27
ATOM     27  C   UNL     1     -52.360 -50.354  20.276  1.00  0.00    -0.000 C 
BRANCH  27  28
ATOM     28  C   UNL     1     -53.264 -49.637  21.295  1.00  0.00    -0.000 C 
BRANCH  28  29
ATOM     29  C   UNL     1     -53.263 -48.099  21.202  1.00  0.00    -0.000 C 
BRANCH  29  30
ATOM     30  C   UNL     1     -54.541 -47.461  21.771  1.00  0.00    -0.000 C 
BRANCH  30  31
ATOM     31  C   UNL     1     -55.684 -47.426  20.746  1.00  0.00    -0.003 C 
ATOM     32  C   UNL     1     -56.805 -48.414  21.073  1.00  0.00     0.004 C 
ENDBRANCH  30  31
ENDBRANCH  29  30
ENDBRANCH  28  29
ENDBRANCH  27  28
ENDBRANCH  26  27
ENDBRANCH  25  26
ENDBRANCH  24  25
ENDBRANCH  23  24
ENDBRANCH  22  23
ENDBRANCH  21  22
ENDBRANCH  20  21
ENDBRANCH  19  20
ENDBRANCH  18  19
ENDBRANCH   1  18
TORSDOF 28
ENDMDL
MODEL 5
REMARK VINA RESULT:    -4.598      3.215      6.593
REMARK INTER + INTRA:         -17.770
REMARK INTER:                 -13.173
REMARK INTRA:                  -4.597
REMARK UNBOUND:                -5.645
REMARK SMILES CCCCCCCCCCCCCCCCCCCCCCCCCCCCCC(=O)[O-]
REMARK SMILES IDX 16 1 17 2 18 3 19 4 20 5 21 6 22 7 23 8 24 9 25 10 26 11
REMARK SMILES IDX 27 12 28 13 29 14 30 15 31 16 32 17 15 18 14 19 13 20 12 21
REMARK SMILES IDX 11 22 10 23 9 24 8 25 7 26 6 27 5 28 4 29 3 30 2 31 1 32
REMARK H PARENT
REMARK Flexibility Score: inf
ROOT
ATOM      1  C   UNL     1     -50.385 -48.620  24.941  1.00  0.00     0.000 C 
ENDROOT
BRANCH   1   2
ATOM      2  C   UNL     1     -50.961 -47.254  24.540  1.00  0.00     0.000 C 
BRANCH   2   3
ATOM      3  C   UNL     1     -52.488 -47.277  24.365  1.00  0.00     0.000 C 
BRANCH   3   4
ATOM      4  C   UNL     1     -52.948 -46.569  23.080  1.00  0.00     0.000 C 
BRANCH   4   5
ATOM      5  C   UNL     1     -53.686 -47.511  22.111  1.00  0.00     0.000 C 
BRANCH   5   6
ATOM      6  C   UNL     1     -53.098 -48.932  21.995  1.00  0.00     0.000 C 
BRANCH   6   7
ATOM      7  C   UNL     1     -52.268 -49.197  20.725  1.00  0.00     0.000 C 
BRANCH   7   8
ATOM      8  C   UNL     1     -50.755 -49.163  20.984  1.00  0.00     0.000 C 
BRANCH   8   9
ATOM      9  C   UNL     1     -50.193 -47.750  20.769  1.00  0.00     0.000 C 
BRANCH   9  10
ATOM     10  C   UNL     1     -49.030 -47.724  19.763  1.00  0.00     0.000 C 
BRANCH  10  11
ATOM     11  C   UNL     1     -49.105 -48.876  18.745  1.00  0.00     0.000 C 
BRANCH  11  12
ATOM     12  C   UNL     1     -47.753 -49.584  18.556  1.00  0.00     0.000 C 
BRANCH  12  13
ATOM     13  C   UNL     1     -47.805 -50.665  17.466  1.00  0.00     0.006 C 
BRANCH  13  14
ATOM     14  C   UNL     1     -47.793 -50.037  16.068  1.00  0.00     0.053 C 
BRANCH  14  15
ATOM     15  C   UNL     1     -49.063 -50.346  15.336  1.00  0.00     0.041 C 
ATOM     16  O   UNL     1     -49.307 -49.797  14.230  1.00  0.00    -0.550 OA
ATOM     17  O   UNL     1     -49.981 -51.238  15.879  1.00  0.00    -0.550 OA
ENDBRANCH  14  15
ENDBRANCH  13  14
ENDBRANCH  12  13
ENDBRANCH  11  12
ENDBRANCH  10  11
ENDBRANCH   9  10
ENDBRANCH   8   9
ENDBRANCH   7   8
ENDBRANCH   6   7
ENDBRANCH   5   6
ENDBRANCH   4   5
ENDBRANCH   3   4
ENDBRANCH   2   3
ENDBRANCH   1   2
BRANCH   1  18
ATOM     18  C   UNL     1     -48.854 -48.562  25.051  1.00  0.00     0.000 C 
BRANCH  18  19
ATOM     19  C   UNL     1     -48.148 -48.894  23.725  1.00  0.00     0.000 C 
BRANCH  19  20
ATOM     20  C   UNL     1     -47.272 -47.761  23.155  1.00  0.00     0.000 C 
BRANCH  20  21
ATOM     21  C   UNL     1     -46.700 -46.788  24.206  1.00  0.00     0.000 C 
BRANCH  21  22
ATOM     22  C   UNL     1     -45.187 -46.915  24.459  1.00  0.00     0.000 C 
BRANCH  22  23
ATOM     23  C   UNL     1     -44.519 -47.957  23.545  1.00  0.00     0.000 C 
BRANCH  23  24
ATOM     24  C   UNL     1     -43.750 -49.039  24.326  1.00  0.00    -0.000 C 
BRANCH  24  25
ATOM     25  C   UNL     1     -44.563 -50.299  24.688  1.00  0.00    -0.000 C 
BRANCH  25  26
ATOM     26  C   UNL     1     -45.413 -50.182  25.966  1.00  0.00    -0.000 C 
BRANCH  26  27
ATOM     27  C   UNL     1     -44.564 -49.935  27.226  1.00  0.00    -0.000 C 
BRANCH  27  28
ATOM     28  C   UNL     1     -44.760 -48.525  27.814  1.00  0.00    -0.000 C 
BRANCH  28  29
ATOM     29  C   UNL     1     -43.462 -47.728  28.047  1.00  0.00    -0.000 C 
BRANCH  29  30
ATOM     30  C   UNL     1     -42.198 -48.598  27.959  1.00  0.00    -0.000 C 
BRANCH  30  31
ATOM     31  C   UNL     1     -41.197 -48.074  26.918  1.00  0.00    -0.003 C 
ATOM     32  C   UNL     1     -41.660 -46.777  26.251  1.00  0.00     0.004 C 
ENDBRANCH  30  31
ENDBRANCH  29  30
ENDBRANCH  28  29
ENDBRANCH  27  28
ENDBRANCH  26  27
ENDBRANCH  25  26
ENDBRANCH  24  25
ENDBRANCH  23  24
ENDBRANCH  22  23
ENDBRANCH  21  22
ENDBRANCH  20  21
ENDBRANCH  19  20
ENDBRANCH  18  19
ENDBRANCH   1  18
TORSDOF 28
ENDMDL
MODEL 6
REMARK VINA RESULT:    -4.582      3.604      9.415
REMARK INTER + INTRA:         -17.726
REMARK INTER:                 -13.086
REMARK INTRA:                  -4.640
REMARK UNBOUND:                -5.645
REMARK SMILES CCCCCCCCCCCCCCCCCCCCCCCCCCCCCC(=O)[O-]
REMARK SMILES IDX 16 1 17 2 18 3 19 4 20 5 21 6 22 7 23 8 24 9 25 10 26 11
REMARK SMILES IDX 27 12 28 13 29 14 30 15 31 16 32 17 15 18 14 19 13 20 12 21
REMARK SMILES IDX 11 22 10 23 9 24 8 25 7 26 6 27 5 28 4 29 3 30 2 31 1 32
REMARK H PARENT
REMARK Flexibility Score: inf
ROOT
ATOM      1  C   UNL     1     -44.732 -50.008  25.392  1.00  0.00     0.000 C 
ENDROOT
BRANCH   1   2
ATOM      2  C   UNL     1     -44.381 -49.867  26.881  1.00  0.00     0.000 C 
BRANCH   2   3
ATOM      3  C   UNL     1     -45.297 -48.878  27.619  1.00  0.00     0.000 C 
BRANCH   3   4
ATOM      4  C   UNL     1     -44.510 -47.821  28.412  1.00  0.00     0.000 C 
BRANCH   4   5
ATOM      5  C   UNL     1     -43.890 -46.737  27.510  1.00  0.00     0.000 C 
BRANCH   5   6
ATOM      6  C   UNL     1     -42.381 -46.490  27.716  1.00  0.00     0.000 C 
BRANCH   6   7
ATOM      7  C   UNL     1     -41.457 -47.201  26.710  1.00  0.00     0.000 C 
BRANCH   7   8
ATOM      8  C   UNL     1     -41.037 -48.603  27.174  1.00  0.00     0.000 C 
BRANCH   8   9
ATOM      9  C   UNL     1     -40.499 -48.567  28.613  1.00  0.00     0.000 C 
BRANCH   9  10
ATOM     10  C   UNL     1     -41.395 -49.339  29.597  1.00  0.00     0.000 C 
BRANCH  10  11
ATOM     11  C   UNL     1     -41.706 -50.767  29.115  1.00  0.00     0.000 C 
BRANCH  11  12
ATOM     12  C   UNL     1     -42.849 -51.420  29.911  1.00  0.00     0.000 C 
BRANCH  12  13
ATOM     13  C   UNL     1     -43.523 -50.439  30.881  1.00  0.00     0.006 C 
BRANCH  13  14
ATOM     14  C   UNL     1     -45.035 -50.682  30.949  1.00  0.00     0.053 C 
BRANCH  14  15
ATOM     15  C   UNL     1     -45.428 -51.210  32.295  1.00  0.00     0.041 C 
ATOM     16  O   UNL     1     -44.581 -51.795  33.019  1.00  0.00    -0.550 OA
ATOM     17  O   UNL     1     -46.735 -51.059  32.747  1.00  0.00    -0.550 OA
ENDBRANCH  14  15
ENDBRANCH  13  14
ENDBRANCH  12  13
ENDBRANCH  11  12
ENDBRANCH  10  11
ENDBRANCH   9  10
ENDBRANCH   8   9
ENDBRANCH   7   8
ENDBRANCH   6   7
ENDBRANCH   5   6
ENDBRANCH   4   5
ENDBRANCH   3   4
ENDBRANCH   2   3
ENDBRANCH   1   2
BRANCH   1  18
ATOM     18  C   UNL     1     -43.655 -49.358  24.508  1.00  0.00     0.000 C 
BRANCH  18  19
ATOM     19  C   UNL     1     -44.040 -47.942  24.045  1.00  0.00     0.000 C 
BRANCH  19  20
ATOM     20  C   UNL     1     -45.518 -47.770  23.644  1.00  0.00     0.000 C 
BRANCH  20  21
ATOM     21  C   UNL     1     -46.358 -46.908  24.608  1.00  0.00     0.000 C 
BRANCH  21  22
ATOM     22  C   UNL     1     -47.868 -47.209  24.605  1.00  0.00     0.000 C 
BRANCH  22  23
ATOM     23  C   UNL     1     -48.238 -48.400  25.505  1.00  0.00     0.000 C 
BRANCH  23  24
ATOM     24  C   UNL     1     -48.436 -49.711  24.722  1.00  0.00    -0.000 C 
BRANCH  24  25
ATOM     25  C   UNL     1     -49.902 -50.122  24.481  1.00  0.00    -0.000 C 
BRANCH  25  26
ATOM     26  C   UNL     1     -50.658 -49.270  23.445  1.00  0.00    -0.000 C 
BRANCH  26  27
ATOM     27  C   UNL     1     -51.900 -48.579  24.032  1.00  0.00    -0.000 C 
BRANCH  27  28
ATOM     28  C   UNL     1     -52.764 -47.885  22.963  1.00  0.00    -0.000 C 
BRANCH  28  29
ATOM     29  C   UNL     1     -53.815 -48.785  22.287  1.00  0.00    -0.000 C 
BRANCH  29  30
ATOM     30  C   UNL     1     -53.790 -48.691  20.752  1.00  0.00    -0.000 C 
BRANCH  30  31
ATOM     31  C   UNL     1     -55.095 -48.117  20.179  1.00  0.00    -0.003 C 
ATOM     32  C   UNL     1     -56.328 -48.530  20.984  1.00  0.00     0.004 C 
ENDBRANCH  30  31
ENDBRANCH  29  30
ENDBRANCH  28  29
ENDBRANCH  27  28
ENDBRANCH  26  27
ENDBRANCH  25  26
ENDBRANCH  24  25
ENDBRANCH  23  24
ENDBRANCH  22  23
ENDBRANCH  21  22
ENDBRANCH  20  21
ENDBRANCH  19  20
ENDBRANCH  18  19
ENDBRANCH   1  18
TORSDOF 28
ENDMDL
MODEL 7
REMARK VINA RESULT:    -4.573      2.018      2.750
REMARK INTER + INTRA:         -17.705
REMARK INTER:                 -12.181
REMARK INTRA:                  -5.523
REMARK UNBOUND:                -5.645
REMARK SMILES CCCCCCCCCCCCCCCCCCCCCCCCCCCCCC(=O)[O-]
REMARK SMILES IDX 16 1 17 2 18 3 19 4 20 5 21 6 22 7 23 8 24 9 25 10 26 11
REMARK SMILES IDX 27 12 28 13 29 14 30 15 31 16 32 17 15 18 14 19 13 20 12 21
REMARK SMILES IDX 11 22 10 23 9 24 8 25 7 26 6 27 5 28 4 29 3 30 2 31 1 32
REMARK H PARENT
REMARK Flexibility Score: inf
ROOT
ATOM      1  C   UNL     1     -45.230 -49.921  25.377  1.00  0.00     0.000 C 
ENDROOT
BRANCH   1   2
ATOM      2  C   UNL     1     -44.108 -49.503  24.415  1.00  0.00     0.000 C 
BRANCH   2   3
ATOM      3  C   UNL     1     -44.347 -48.123  23.781  1.00  0.00     0.000 C 
BRANCH   3   4
ATOM      4  C   UNL     1     -45.838 -47.756  23.706  1.00  0.00     0.000 C 
BRANCH   4   5
ATOM      5  C   UNL     1     -46.154 -46.403  24.372  1.00  0.00     0.000 C 
BRANCH   5   6
ATOM      6  C   UNL     1     -47.307 -46.425  25.396  1.00  0.00     0.000 C 
BRANCH   6   7
ATOM      7  C   UNL     1     -48.560 -47.204  24.956  1.00  0.00     0.000 C 
BRANCH   7   8
ATOM      8  C   UNL     1     -48.797 -48.472  25.789  1.00  0.00     0.000 C 
BRANCH   8   9
ATOM      9  C   UNL     1     -49.582 -49.519  24.984  1.00  0.00     0.000 C 
BRANCH   9  10
ATOM     10  C   UNL     1     -48.892 -49.881  23.658  1.00  0.00     0.000 C 
BRANCH  10  11
ATOM     11  C   UNL     1     -49.870 -49.899  22.470  1.00  0.00     0.000 C 
BRANCH  11  12
ATOM     12  C   UNL     1     -49.930 -48.548  21.737  1.00  0.00     0.000 C 
BRANCH  12  13
ATOM     13  C   UNL     1     -48.567 -48.131  21.165  1.00  0.00     0.006 C 
BRANCH  13  14
ATOM     14  C   UNL     1     -48.657 -47.885  19.655  1.00  0.00     0.053 C 
BRANCH  14  15
ATOM     15  C   UNL     1     -48.215 -49.096  18.892  1.00  0.00     0.041 C 
ATOM     16  O   UNL     1     -48.849 -50.179  18.999  1.00  0.00    -0.550 OA
ATOM     17  O   UNL     1     -47.098 -49.031  18.066  1.00  0.00    -0.550 OA
ENDBRANCH  14  15
ENDBRANCH  13  14
ENDBRANCH  12  13
ENDBRANCH  11  12
ENDBRANCH  10  11
ENDBRANCH   9  10
ENDBRANCH   8   9
ENDBRANCH   7   8
ENDBRANCH   6   7
ENDBRANCH   5   6
ENDBRANCH   4   5
ENDBRANCH   3   4
ENDBRANCH   2   3
ENDBRANCH   1   2
BRANCH   1  18
ATOM     18  C   UNL     1     -44.781 -49.785  26.840  1.00  0.00     0.000 C 
BRANCH  18  19
ATOM     19  C   UNL     1     -45.453 -48.603  27.562  1.00  0.00     0.000 C 
BRANCH  19  20
ATOM     20  C   UNL     1     -44.478 -47.583  28.182  1.00  0.00     0.000 C 
BRANCH  20  21
ATOM     21  C   UNL     1     -43.794 -46.638  27.172  1.00  0.00     0.000 C 
BRANCH  21  22
ATOM     22  C   UNL     1     -42.258 -46.588  27.263  1.00  0.00     0.000 C 
BRANCH  22  23
ATOM     23  C   UNL     1     -41.578 -47.659  26.395  1.00  0.00     0.000 C 
BRANCH  23  24
ATOM     24  C   UNL     1     -41.171 -48.913  27.191  1.00  0.00    -0.000 C 
BRANCH  24  25
ATOM     25  C   UNL     1     -40.357 -48.648  28.474  1.00  0.00    -0.000 C 
BRANCH  25  26
ATOM     26  C   UNL     1     -40.928 -49.285  29.753  1.00  0.00    -0.000 C 
BRANCH  26  27
ATOM     27  C   UNL     1     -42.172 -50.151  29.485  1.00  0.00    -0.000 C 
BRANCH  27  28
ATOM     28  C   UNL     1     -43.214 -50.071  30.615  1.00  0.00    -0.000 C 
BRANCH  28  29
ATOM     29  C   UNL     1     -44.497 -50.892  30.381  1.00  0.00    -0.000 C 
BRANCH  29  30
ATOM     30  C   UNL     1     -45.758 -50.205  30.929  1.00  0.00    -0.000 C 
BRANCH  30  31
ATOM     31  C   UNL     1     -46.424 -51.014  32.054  1.00  0.00    -0.003 C 
ATOM     32  C   UNL     1     -46.723 -50.170  33.293  1.00  0.00     0.004 C 
ENDBRANCH  30  31
ENDBRANCH  29  30
ENDBRANCH  28  29
ENDBRANCH  27  28
ENDBRANCH  26  27
ENDBRANCH  25  26
ENDBRANCH  24  25
ENDBRANCH  23  24
ENDBRANCH  22  23
ENDBRANCH  21  22
ENDBRANCH  20  21
ENDBRANCH  19  20
ENDBRANCH  18  19
ENDBRANCH   1  18
TORSDOF 28
ENDMDL
MODEL 8
REMARK VINA RESULT:    -4.540      3.708      8.873
REMARK INTER + INTRA:         -17.616
REMARK INTER:                 -12.766
REMARK INTRA:                  -4.850
REMARK UNBOUND:                -5.645
REMARK SMILES CCCCCCCCCCCCCCCCCCCCCCCCCCCCCC(=O)[O-]
REMARK SMILES IDX 16 1 17 2 18 3 19 4 20 5 21 6 22 7 23 8 24 9 25 10 26 11
REMARK SMILES IDX 27 12 28 13 29 14 30 15 31 16 32 17 15 18 14 19 13 20 12 21
REMARK SMILES IDX 11 22 10 23 9 24 8 25 7 26 6 27 5 28 4 29 3 30 2 31 1 32
REMARK H PARENT
REMARK Flexibility Score: inf
ROOT
ATOM      1  C   UNL     1     -44.319 -48.323  27.786  1.00  0.00     0.000 C 
ENDROOT
BRANCH   1   2
ATOM      2  C   UNL     1     -44.459 -47.969  29.274  1.00  0.00     0.000 C 
BRANCH   2   3
ATOM      3  C   UNL     1     -45.308 -48.986  30.053  1.00  0.00     0.000 C 
BRANCH   3   4
ATOM      4  C   UNL     1     -45.595 -48.536  31.496  1.00  0.00     0.000 C 
BRANCH   4   5
ATOM      5  C   UNL     1     -46.875 -49.167  32.075  1.00  0.00     0.000 C 
BRANCH   5   6
ATOM      6  C   UNL     1     -46.651 -50.212  33.187  1.00  0.00     0.000 C 
BRANCH   6   7
ATOM      7  C   UNL     1     -46.253 -51.617  32.696  1.00  0.00     0.000 C 
BRANCH   7   8
ATOM      8  C   UNL     1     -45.113 -52.235  33.519  1.00  0.00     0.000 C 
BRANCH   8   9
ATOM      9  C   UNL     1     -43.789 -51.500  33.262  1.00  0.00     0.000 C 
BRANCH   9  10
ATOM     10  C   UNL     1     -43.399 -51.492  31.774  1.00  0.00     0.000 C 
BRANCH  10  11
ATOM     11  C   UNL     1     -42.170 -50.609  31.490  1.00  0.00     0.000 C 
BRANCH  11  12
ATOM     12  C   UNL     1     -41.824 -50.547  29.994  1.00  0.00     0.000 C 
BRANCH  12  13
ATOM     13  C   UNL     1     -41.012 -49.294  29.632  1.00  0.00     0.006 C 
BRANCH  13  14
ATOM     14  C   UNL     1     -40.854 -49.161  28.113  1.00  0.00     0.053 C 
BRANCH  14  15
ATOM     15  C   UNL     1     -40.609 -47.734  27.727  1.00  0.00     0.041 C 
ATOM     16  O   UNL     1     -40.056 -46.944  28.536  1.00  0.00    -0.550 OA
ATOM     17  O   UNL     1     -40.999 -47.275  26.474  1.00  0.00    -0.550 OA
ENDBRANCH  14  15
ENDBRANCH  13  14
ENDBRANCH  12  13
ENDBRANCH  11  12
ENDBRANCH  10  11
ENDBRANCH   9  10
ENDBRANCH   8   9
ENDBRANCH   7   8
ENDBRANCH   6   7
ENDBRANCH   5   6
ENDBRANCH   4   5
ENDBRANCH   3   4
ENDBRANCH   2   3
ENDBRANCH   1   2
BRANCH   1  18
ATOM     18  C   UNL     1     -44.744 -49.776  27.523  1.00  0.00     0.000 C 
BRANCH  18  19
ATOM     19  C   UNL     1     -44.774 -50.125  26.024  1.00  0.00     0.000 C 
BRANCH  19  20
ATOM     20  C   UNL     1     -43.610 -49.544  25.199  1.00  0.00     0.000 C 
BRANCH  20  21
ATOM     21  C   UNL     1     -44.023 -48.541  24.103  1.00  0.00     0.000 C 
BRANCH  21  22
ATOM     22  C   UNL     1     -43.870 -47.057  24.484  1.00  0.00     0.000 C 
BRANCH  22  23
ATOM     23  C   UNL     1     -45.221 -46.329  24.586  1.00  0.00     0.000 C 
BRANCH  23  24
ATOM     24  C   UNL     1     -46.429 -47.269  24.409  1.00  0.00    -0.000 C 
BRANCH  24  25
ATOM     25  C   UNL     1     -47.408 -47.319  25.599  1.00  0.00    -0.000 C 
BRANCH  25  26
ATOM     26  C   UNL     1     -48.204 -48.630  25.734  1.00  0.00    -0.000 C 
BRANCH  26  27
ATOM     27  C   UNL     1     -48.177 -49.479  24.452  1.00  0.00    -0.000 C 
BRANCH  27  28
ATOM     28  C   UNL     1     -49.581 -49.905  23.983  1.00  0.00    -0.000 C 
BRANCH  28  29
ATOM     29  C   UNL     1     -50.739 -49.450  24.891  1.00  0.00    -0.000 C 
BRANCH  29  30
ATOM     30  C   UNL     1     -51.889 -48.791  24.113  1.00  0.00    -0.000 C 
BRANCH  30  31
ATOM     31  C   UNL     1     -52.141 -47.341  24.556  1.00  0.00    -0.003 C 
ATOM     32  C   UNL     1     -50.915 -46.445  24.379  1.00  0.00     0.004 C 
ENDBRANCH  30  31
ENDBRANCH  29  30
ENDBRANCH  28  29
ENDBRANCH  27  28
ENDBRANCH  26  27
ENDBRANCH  25  26
ENDBRANCH  24  25
ENDBRANCH  23  24
ENDBRANCH  22  23
ENDBRANCH  21  22
ENDBRANCH  20  21
ENDBRANCH  19  20
ENDBRANCH  18  19
ENDBRANCH   1  18
TORSDOF 28
ENDMDL
MODEL 9
REMARK VINA RESULT:    -4.514      2.894      5.882
REMARK INTER + INTRA:         -17.547
REMARK INTER:                 -12.333
REMARK INTRA:                  -5.214
REMARK UNBOUND:                -5.645
REMARK SMILES CCCCCCCCCCCCCCCCCCCCCCCCCCCCCC(=O)[O-]
REMARK SMILES IDX 16 1 17 2 18 3 19 4 20 5 21 6 22 7 23 8 24 9 25 10 26 11
REMARK SMILES IDX 27 12 28 13 29 14 30 15 31 16 32 17 15 18 14 19 13 20 12 21
REMARK SMILES IDX 11 22 10 23 9 24 8 25 7 26 6 27 5 28 4 29 3 30 2 31 1 32
REMARK H PARENT
REMARK Flexibility Score: inf
ROOT
ATOM      1  C   UNL     1     -49.416 -50.161  23.980  1.00  0.00     0.000 C 
ENDROOT
BRANCH   1   2
ATOM      2  C   UNL     1     -49.748 -49.667  22.564  1.00  0.00     0.000 C 
BRANCH   2   3
ATOM      3  C   UNL     1     -48.839 -48.515  22.105  1.00  0.00     0.000 C 
BRANCH   3   4
ATOM      4  C   UNL     1     -49.604 -47.435  21.321  1.00  0.00     0.000 C 
BRANCH   4   5
ATOM      5  C   UNL     1     -50.196 -46.344  22.233  1.00  0.00     0.000 C 
BRANCH   5   6
ATOM      6  C   UNL     1     -51.736 -46.245  22.230  1.00  0.00     0.000 C 
BRANCH   6   7
ATOM      7  C   UNL     1     -52.444 -47.017  23.358  1.00  0.00     0.000 C 
BRANCH   7   8
ATOM      8  C   UNL     1     -53.123 -48.303  22.866  1.00  0.00     0.000 C 
BRANCH   8   9
ATOM      9  C   UNL     1     -53.217 -48.321  21.332  1.00  0.00     0.000 C 
BRANCH   9  10
ATOM     10  C   UNL     1     -52.886 -49.700  20.737  1.00  0.00     0.000 C 
BRANCH  10  11
ATOM     11  C   UNL     1     -52.171 -49.600  19.378  1.00  0.00     0.000 C 
BRANCH  11  12
ATOM     12  C   UNL     1     -51.151 -50.731  19.165  1.00  0.00     0.000 C 
BRANCH  12  13
ATOM     13  C   UNL     1     -49.741 -50.200  18.867  1.00  0.00     0.006 C 
BRANCH  13  14
ATOM     14  C   UNL     1     -49.193 -50.795  17.565  1.00  0.00     0.053 C 
BRANCH  14  15
ATOM     15  C   UNL     1     -47.868 -50.187  17.219  1.00  0.00     0.041 C 
ATOM     16  O   UNL     1     -47.509 -50.089  16.016  1.00  0.00    -0.550 OA
ATOM     17  O   UNL     1     -47.025 -49.732  18.228  1.00  0.00    -0.550 OA
ENDBRANCH  14  15
ENDBRANCH  13  14
ENDBRANCH  12  13
ENDBRANCH  11  12
ENDBRANCH  10  11
ENDBRANCH   9  10
ENDBRANCH   8   9
ENDBRANCH   7   8
ENDBRANCH   6   7
ENDBRANCH   5   6
ENDBRANCH   4   5
ENDBRANCH   3   4
ENDBRANCH   2   3
ENDBRANCH   1   2
BRANCH   1  18
ATOM     18  C   UNL     1     -50.428 -49.624  25.004  1.00  0.00     0.000 C 
BRANCH  18  19
ATOM     19  C   UNL     1     -49.795 -48.649  26.012  1.00  0.00     0.000 C 
BRANCH  19  20
ATOM     20  C   UNL     1     -49.439 -47.263  25.438  1.00  0.00     0.000 C 
BRANCH  20  21
ATOM     21  C   UNL     1     -47.937 -46.915  25.461  1.00  0.00     0.000 C 
BRANCH  21  22
ATOM     22  C   UNL     1     -47.023 -48.005  26.049  1.00  0.00     0.000 C 
BRANCH  22  23
ATOM     23  C   UNL     1     -46.303 -48.823  24.963  1.00  0.00     0.000 C 
BRANCH  23  24
ATOM     24  C   UNL     1     -45.508 -50.013  25.532  1.00  0.00    -0.000 C 
BRANCH  24  25
ATOM     25  C   UNL     1     -44.017 -50.060  25.143  1.00  0.00    -0.000 C 
BRANCH  25  26
ATOM     26  C   UNL     1     -43.341 -48.686  24.986  1.00  0.00    -0.000 C 
BRANCH  26  27
ATOM     27  C   UNL     1     -42.069 -48.546  25.840  1.00  0.00    -0.000 C 
BRANCH  27  28
ATOM     28  C   UNL     1     -42.365 -48.467  27.350  1.00  0.00    -0.000 C 
BRANCH  28  29
ATOM     29  C   UNL     1     -43.293 -47.313  27.775  1.00  0.00    -0.000 C 
BRANCH  29  30
ATOM     30  C   UNL     1     -44.447 -47.773  28.680  1.00  0.00    -0.000 C 
BRANCH  30  31
ATOM     31  C   UNL     1     -44.025 -48.889  29.648  1.00  0.00    -0.003 C 
ATOM     32  C   UNL     1     -44.805 -50.186  29.434  1.00  0.00     0.004 C 
ENDBRANCH  30  31
ENDBRANCH  29  30
ENDBRANCH  28  29
ENDBRANCH  27  28
ENDBRANCH  26  27
ENDBRANCH  25  26
ENDBRANCH  24  25
ENDBRANCH  23  24
ENDBRANCH  22  23
ENDBRANCH  21  22
ENDBRANCH  20  21
ENDBRANCH  19  20
ENDBRANCH  18  19
ENDBRANCH   1  18
TORSDOF 28
ENDMDL
