MODEL 1
REMARK VINA RESULT:    -4.972      0.000      0.000
REMARK INTER + INTRA:          -6.312
REMARK INTER:                  -5.989
REMARK INTRA:                  -0.323
REMARK UNBOUND:                -0.323
REMARK SMILES O=c1c(O)c(-c2ccc(O)c(O)c2)oc2cc(O)cc(O)c12
REMARK SMILES IDX 5 1 3 2 2 3 1 4 22 5 20 6 19 7 17 8 16 9 15 10 14 11 6 12
REMARK SMILES IDX 7 13 8 14 9 15 13 16 11 17 10 18 12 20 4 22 21 24 18 26
REMARK H PARENT 10 19 12 21 4 23 21 25 18 27
REMARK Flexibility Score: inf
ROOT
ATOM      1  C   UNL     1      32.176   6.856  20.466  1.00  0.00     0.180 A 
ATOM      2  C   UNL     1      31.653   6.812  19.159  1.00  0.00     0.208 A 
ATOM      3  C   UNL     1      31.385   5.563  18.578  1.00  0.00     0.238 A 
ATOM      4  O   UNL     1      30.928   5.510  17.403  1.00  0.00    -0.285 OA
ATOM      5  C   UNL     1      31.624   4.384  19.315  1.00  0.00     0.111 A 
ATOM      6  C   UNL     1      31.376   3.087  18.804  1.00  0.00     0.134 A 
ATOM      7  C   UNL     1      31.631   1.964  19.605  1.00  0.00     0.093 A 
ATOM      8  C   UNL     1      32.126   2.111  20.902  1.00  0.00     0.123 A 
ATOM      9  C   UNL     1      32.372   3.390  21.413  1.00  0.00     0.094 A 
ATOM     10  C   UNL     1      32.126   4.522  20.630  1.00  0.00     0.146 A 
ATOM     11  O   UNL     1      32.373   5.724  21.137  1.00  0.00    -0.452 OA
ENDROOT
BRANCH   1  12
ATOM     12  C   UNL     1      32.502   8.133  21.141  1.00  0.00     0.025 A 
ATOM     13  C   UNL     1      33.787   8.680  21.000  1.00  0.00     0.016 A 
ATOM     14  C   UNL     1      34.109   9.895  21.611  1.00  0.00     0.051 A 
ATOM     15  C   UNL     1      33.151  10.588  22.357  1.00  0.00     0.157 A 
ATOM     16  C   UNL     1      31.533   8.841  21.875  1.00  0.00     0.062 A 
ATOM     17  C   UNL     1      31.855  10.062  22.486  1.00  0.00     0.158 A 
BRANCH  15  18
ATOM     18  O   UNL     1      33.503  11.796  22.957  1.00  0.00    -0.504 OA
ATOM     19  H   UNL     1      33.682  11.870  23.951  1.00  0.00     0.293 HD
ENDBRANCH  15  18
BRANCH  17  20
ATOM     20  O   UNL     1      30.890  10.754  23.217  1.00  0.00    -0.504 OA
ATOM     21  H   UNL     1      30.037  10.307  23.530  1.00  0.00     0.293 HD
ENDBRANCH  17  20
ENDBRANCH   1  12
BRANCH   2  22
ATOM     22  O   UNL     1      31.380   7.995  18.468  1.00  0.00    -0.502 OA
ATOM     23  H   UNL     1      30.664   8.646  18.768  1.00  0.00     0.293 HD
ENDBRANCH   2  22
BRANCH   6  24
ATOM     24  O   UNL     1      30.882   2.908  17.512  1.00  0.00    -0.507 OA
ATOM     25  H   UNL     1      30.062   3.404  17.181  1.00  0.00     0.293 HD
ENDBRANCH   6  24
BRANCH   8  26
ATOM     26  O   UNL     1      32.369   0.979  21.676  1.00  0.00    -0.508 OA
ATOM     27  H   UNL     1      31.641   0.298  21.862  1.00  0.00     0.293 HD
ENDBRANCH   8  26
TORSDOF 6
ENDMDL
MODEL 2
REMARK VINA RESULT:    -4.938      4.822      8.226
REMARK INTER + INTRA:          -6.271
REMARK INTER:                  -5.950
REMARK INTRA:                  -0.321
REMARK UNBOUND:                -0.323
REMARK SMILES O=c1c(O)c(-c2ccc(O)c(O)c2)oc2cc(O)cc(O)c12
REMARK SMILES IDX 5 1 3 2 2 3 1 4 22 5 20 6 19 7 17 8 16 9 15 10 14 11 6 12
REMARK SMILES IDX 7 13 8 14 9 15 13 16 11 17 10 18 12 20 4 22 21 24 18 26
REMARK H PARENT 10 19 12 21 4 23 21 25 18 27
REMARK Flexibility Score: inf
ROOT
ATOM      1  C   UNL     1      36.564  10.318  22.384  1.00  0.00     0.180 A 
ATOM      2  C   UNL     1      37.276  11.241  21.593  1.00  0.00     0.208 A 
ATOM      3  C   UNL     1      38.678  11.237  21.645  1.00  0.00     0.238 A 
ATOM      4  O   UNL     1      39.327  12.067  20.950  1.00  0.00    -0.285 OA
ATOM      5  C   UNL     1      39.344  10.304  22.466  1.00  0.00     0.111 A 
ATOM      6  C   UNL     1      40.754  10.231  22.571  1.00  0.00     0.134 A 
ATOM      7  C   UNL     1      41.341   9.267  23.404  1.00  0.00     0.093 A 
ATOM      8  C   UNL     1      40.549   8.375  24.130  1.00  0.00     0.123 A 
ATOM      9  C   UNL     1      39.156   8.442  24.030  1.00  0.00     0.094 A 
ATOM     10  C   UNL     1      38.551   9.397  23.207  1.00  0.00     0.146 A 
ATOM     11  O   UNL     1      37.226   9.442  23.134  1.00  0.00    -0.452 OA
ENDROOT
BRANCH   1  12
ATOM     12  C   UNL     1      35.084  10.272  22.399  1.00  0.00     0.025 A 
ATOM     13  C   UNL     1      34.374  11.125  23.258  1.00  0.00     0.016 A 
ATOM     14  C   UNL     1      32.977  11.113  23.273  1.00  0.00     0.051 A 
ATOM     15  C   UNL     1      32.268  10.261  22.421  1.00  0.00     0.157 A 
ATOM     16  C   UNL     1      34.369   9.430  21.527  1.00  0.00     0.062 A 
ATOM     17  C   UNL     1      32.967   9.418  21.540  1.00  0.00     0.158 A 
BRANCH  15  18
ATOM     18  O   UNL     1      30.875  10.269  22.460  1.00  0.00    -0.504 OA
ATOM     19  H   UNL     1      30.342  11.130  22.440  1.00  0.00     0.293 HD
ENDBRANCH  15  18
BRANCH  17  20
ATOM     20  O   UNL     1      32.266   8.576  20.677  1.00  0.00    -0.504 OA
ATOM     21  H   UNL     1      31.763   7.765  21.018  1.00  0.00     0.293 HD
ENDBRANCH  17  20
ENDBRANCH   1  12
BRANCH   2  22
ATOM     22  O   UNL     1      36.594  12.123  20.751  1.00  0.00    -0.502 OA
ATOM     23  H   UNL     1      36.466  13.102  20.979  1.00  0.00     0.293 HD
ENDBRANCH   2  22
BRANCH   6  24
ATOM     24  O   UNL     1      41.573  11.108  21.858  1.00  0.00    -0.507 OA
ATOM     25  H   UNL     1      41.429  12.111  21.883  1.00  0.00     0.293 HD
ENDBRANCH   6  24
BRANCH   8  26
ATOM     26  O   UNL     1      41.157   7.427  24.948  1.00  0.00    -0.508 OA
ATOM     27  H   UNL     1      41.062   7.457  25.957  1.00  0.00     0.293 HD
ENDBRANCH   8  26
TORSDOF 6
ENDMDL
MODEL 3
REMARK VINA RESULT:    -4.843      0.717      1.443
REMARK INTER + INTRA:          -6.157
REMARK INTER:                  -5.844
REMARK INTRA:                  -0.313
REMARK UNBOUND:                -0.323
REMARK SMILES O=c1c(O)c(-c2ccc(O)c(O)c2)oc2cc(O)cc(O)c12
REMARK SMILES IDX 5 1 3 2 2 3 1 4 22 5 20 6 19 7 17 8 16 9 15 10 14 11 6 12
REMARK SMILES IDX 7 13 8 14 9 15 13 16 11 17 10 18 12 20 4 22 21 24 18 26
REMARK H PARENT 10 19 12 21 4 23 21 25 18 27
REMARK Flexibility Score: inf
ROOT
ATOM      1  C   UNL     1      31.807   6.549  20.483  1.00  0.00     0.180 A 
ATOM      2  C   UNL     1      31.390   6.495  19.139  1.00  0.00     0.208 A 
ATOM      3  C   UNL     1      31.282   5.243  18.513  1.00  0.00     0.238 A 
ATOM      4  O   UNL     1      30.921   5.182  17.305  1.00  0.00    -0.285 OA
ATOM      5  C   UNL     1      31.572   4.071  19.242  1.00  0.00     0.111 A 
ATOM      6  C   UNL     1      31.483   2.772  18.686  1.00  0.00     0.134 A 
ATOM      7  C   UNL     1      31.779   1.654  19.481  1.00  0.00     0.093 A 
ATOM      8  C   UNL     1      32.159   1.809  20.816  1.00  0.00     0.123 A 
ATOM      9  C   UNL     1      32.248   3.090  21.370  1.00  0.00     0.094 A 
ATOM     10  C   UNL     1      31.959   4.217  20.594  1.00  0.00     0.146 A 
ATOM     11  O   UNL     1      32.056   5.422  21.143  1.00  0.00    -0.452 OA
ENDROOT
BRANCH   1  12
ATOM     12  C   UNL     1      31.963   7.831  21.207  1.00  0.00     0.025 A 
ATOM     13  C   UNL     1      30.974   8.236  22.117  1.00  0.00     0.016 A 
ATOM     14  C   UNL     1      31.110   9.432  22.826  1.00  0.00     0.051 A 
ATOM     15  C   UNL     1      32.243  10.233  22.650  1.00  0.00     0.157 A 
ATOM     16  C   UNL     1      33.112   8.628  21.047  1.00  0.00     0.062 A 
ATOM     17  C   UNL     1      33.251   9.827  21.760  1.00  0.00     0.158 A 
BRANCH  15  18
ATOM     18  O   UNL     1      32.350  11.421  23.370  1.00  0.00    -0.504 OA
ATOM     19  H   UNL     1      33.048  11.551  24.093  1.00  0.00     0.293 HD
ENDBRANCH  15  18
BRANCH  17  20
ATOM     20  O   UNL     1      34.390  10.614  21.590  1.00  0.00    -0.504 OA
ATOM     21  H   UNL     1      35.218  10.259  21.127  1.00  0.00     0.293 HD
ENDBRANCH  17  20
ENDBRANCH   1  12
BRANCH   2  22
ATOM     22  O   UNL     1      31.063   7.667  18.453  1.00  0.00    -0.502 OA
ATOM     23  H   UNL     1      30.851   7.676  17.462  1.00  0.00     0.293 HD
ENDBRANCH   2  22
BRANCH   6  24
ATOM     24  O   UNL     1      31.106   2.584  17.357  1.00  0.00    -0.507 OA
ATOM     25  H   UNL     1      31.237   1.696  16.886  1.00  0.00     0.293 HD
ENDBRANCH   6  24
BRANCH   8  26
ATOM     26  O   UNL     1      32.445   0.683  21.583  1.00  0.00    -0.508 OA
ATOM     27  H   UNL     1      32.848  -0.151  21.170  1.00  0.00     0.293 HD
ENDBRANCH   8  26
TORSDOF 6
ENDMDL
MODEL 4
REMARK VINA RESULT:    -4.530      1.593      7.052
REMARK INTER + INTRA:          -5.781
REMARK INTER:                  -5.469
REMARK INTRA:                  -0.312
REMARK UNBOUND:                -0.323
REMARK SMILES O=c1c(O)c(-c2ccc(O)c(O)c2)oc2cc(O)cc(O)c12
REMARK SMILES IDX 5 1 3 2 2 3 1 4 22 5 20 6 19 7 17 8 16 9 15 10 14 11 6 12
REMARK SMILES IDX 7 13 8 14 9 15 13 16 11 17 10 18 12 20 4 22 21 24 18 26
REMARK H PARENT 10 19 12 21 4 23 21 25 18 27
REMARK Flexibility Score: inf
ROOT
ATOM      1  C   UNL     1      32.830   6.640  20.638  1.00  0.00     0.180 A 
ATOM      2  C   UNL     1      34.137   7.057  20.319  1.00  0.00     0.208 A 
ATOM      3  C   UNL     1      34.548   8.345  20.696  1.00  0.00     0.238 A 
ATOM      4  O   UNL     1      35.713   8.735  20.405  1.00  0.00    -0.285 OA
ATOM      5  C   UNL     1      33.659   9.184  21.399  1.00  0.00     0.111 A 
ATOM      6  C   UNL     1      33.997  10.493  21.819  1.00  0.00     0.134 A 
ATOM      7  C   UNL     1      33.058  11.262  22.523  1.00  0.00     0.093 A 
ATOM      8  C   UNL     1      31.793  10.749  22.816  1.00  0.00     0.123 A 
ATOM      9  C   UNL     1      31.453   9.456  22.404  1.00  0.00     0.094 A 
ATOM     10  C   UNL     1      32.374   8.675  21.700  1.00  0.00     0.146 A 
ATOM     11  O   UNL     1      32.025   7.452  21.316  1.00  0.00    -0.452 OA
ENDROOT
BRANCH   1  12
ATOM     12  C   UNL     1      32.316   5.304  20.259  1.00  0.00     0.025 A 
ATOM     13  C   UNL     1      31.601   5.153  19.061  1.00  0.00     0.016 A 
ATOM     14  C   UNL     1      31.125   3.898  18.674  1.00  0.00     0.051 A 
ATOM     15  C   UNL     1      31.369   2.773  19.467  1.00  0.00     0.157 A 
ATOM     16  C   UNL     1      32.579   4.168  21.046  1.00  0.00     0.062 A 
ATOM     17  C   UNL     1      32.104   2.907  20.657  1.00  0.00     0.158 A 
BRANCH  15  18
ATOM     18  O   UNL     1      30.879   1.535  19.056  1.00  0.00    -0.504 OA
ATOM     19  H   UNL     1      29.887   1.353  18.963  1.00  0.00     0.293 HD
ENDBRANCH  15  18
BRANCH  17  20
ATOM     20  O   UNL     1      32.363   1.787  21.447  1.00  0.00    -0.504 OA
ATOM     21  H   UNL     1      32.237   1.804  22.452  1.00  0.00     0.293 HD
ENDBRANCH  17  20
ENDBRANCH   1  12
BRANCH   2  22
ATOM     22  O   UNL     1      35.015   6.190  19.664  1.00  0.00    -0.502 OA
ATOM     23  H   UNL     1      35.391   5.360  20.108  1.00  0.00     0.293 HD
ENDBRANCH   2  22
BRANCH   6  24
ATOM     24  O   UNL     1      35.253  11.034  21.541  1.00  0.00    -0.507 OA
ATOM     25  H   UNL     1      36.095  10.470  21.578  1.00  0.00     0.293 HD
ENDBRANCH   6  24
BRANCH   8  26
ATOM     26  O   UNL     1      30.881  11.533  23.518  1.00  0.00    -0.508 OA
ATOM     27  H   UNL     1      30.948  12.544  23.527  1.00  0.00     0.293 HD
ENDBRANCH   8  26
TORSDOF 6
ENDMDL
MODEL 5
REMARK VINA RESULT:    -4.412      5.732      7.492
REMARK INTER + INTRA:          -5.638
REMARK INTER:                  -5.336
REMARK INTRA:                  -0.301
REMARK UNBOUND:                -0.323
REMARK SMILES O=c1c(O)c(-c2ccc(O)c(O)c2)oc2cc(O)cc(O)c12
REMARK SMILES IDX 5 1 3 2 2 3 1 4 22 5 20 6 19 7 17 8 16 9 15 10 14 11 6 12
REMARK SMILES IDX 7 13 8 14 9 15 13 16 11 17 10 18 12 20 4 22 21 24 18 26
REMARK H PARENT 10 19 12 21 4 23 21 25 18 27
REMARK Flexibility Score: inf
ROOT
ATOM      1  C   UNL     1      36.854   9.719  22.488  1.00  0.00     0.180 A 
ATOM      2  C   UNL     1      38.045  10.433  22.724  1.00  0.00     0.208 A 
ATOM      3  C   UNL     1      39.144   9.757  23.275  1.00  0.00     0.238 A 
ATOM      4  O   UNL     1      40.212  10.389  23.502  1.00  0.00    -0.285 OA
ATOM      5  C   UNL     1      39.043   8.380  23.562  1.00  0.00     0.111 A 
ATOM      6  C   UNL     1      40.106   7.623  24.113  1.00  0.00     0.134 A 
ATOM      7  C   UNL     1      39.929   6.254  24.361  1.00  0.00     0.093 A 
ATOM      8  C   UNL     1      38.716   5.627  24.068  1.00  0.00     0.123 A 
ATOM      9  C   UNL     1      37.663   6.369  23.522  1.00  0.00     0.094 A 
ATOM     10  C   UNL     1      37.818   7.735  23.270  1.00  0.00     0.146 A 
ATOM     11  O   UNL     1      36.801   8.418  22.756  1.00  0.00    -0.452 OA
ENDROOT
BRANCH   1  12
ATOM     12  C   UNL     1      35.646  10.366  21.927  1.00  0.00     0.025 A 
ATOM     13  C   UNL     1      35.540  10.544  20.539  1.00  0.00     0.016 A 
ATOM     14  C   UNL     1      34.400  11.133  19.986  1.00  0.00     0.051 A 
ATOM     15  C   UNL     1      33.344  11.538  20.808  1.00  0.00     0.157 A 
ATOM     16  C   UNL     1      34.574  10.754  22.751  1.00  0.00     0.062 A 
ATOM     17  C   UNL     1      33.428  11.344  22.197  1.00  0.00     0.158 A 
BRANCH  15  18
ATOM     18  O   UNL     1      32.221  12.125  20.228  1.00  0.00    -0.504 OA
ATOM     19  H   UNL     1      32.148  12.274  19.228  1.00  0.00     0.293 HD
ENDBRANCH  15  18
BRANCH  17  20
ATOM     20  O   UNL     1      32.373  11.732  23.021  1.00  0.00    -0.504 OA
ATOM     21  H   UNL     1      32.356  11.502  24.007  1.00  0.00     0.293 HD
ENDBRANCH  17  20
ENDBRANCH   1  12
BRANCH   2  22
ATOM     22  O   UNL     1      38.135  11.786  22.386  1.00  0.00    -0.502 OA
ATOM     23  H   UNL     1      38.449  12.491  23.044  1.00  0.00     0.293 HD
ENDBRANCH   2  22
BRANCH   6  24
ATOM     24  O   UNL     1      41.329   8.220  24.417  1.00  0.00    -0.507 OA
ATOM     25  H   UNL     1      41.960   8.541  23.691  1.00  0.00     0.293 HD
ENDBRANCH   6  24
BRANCH   8  26
ATOM     26  O   UNL     1      38.568   4.266  24.322  1.00  0.00    -0.508 OA
ATOM     27  H   UNL     1      39.321   3.610  24.150  1.00  0.00     0.293 HD
ENDBRANCH   8  26
TORSDOF 6
ENDMDL
MODEL 6
REMARK VINA RESULT:    -4.408      4.427      7.381
REMARK INTER + INTRA:          -5.633
REMARK INTER:                  -5.348
REMARK INTRA:                  -0.286
REMARK UNBOUND:                -0.323
REMARK SMILES O=c1c(O)c(-c2ccc(O)c(O)c2)oc2cc(O)cc(O)c12
REMARK SMILES IDX 5 1 3 2 2 3 1 4 22 5 20 6 19 7 17 8 16 9 15 10 14 11 6 12
REMARK SMILES IDX 7 13 8 14 9 15 13 16 11 17 10 18 12 20 4 22 21 24 18 26
REMARK H PARENT 10 19 12 21 4 23 21 25 18 27
REMARK Flexibility Score: inf
ROOT
ATOM      1  C   UNL     1      36.874  10.012  22.147  1.00  0.00     0.180 A 
ATOM      2  C   UNL     1      36.585   9.055  21.156  1.00  0.00     0.208 A 
ATOM      3  C   UNL     1      35.244   8.742  20.886  1.00  0.00     0.238 A 
ATOM      4  O   UNL     1      34.973   7.876  20.008  1.00  0.00    -0.285 OA
ATOM      5  C   UNL     1      34.218   9.401  21.593  1.00  0.00     0.111 A 
ATOM      6  C   UNL     1      32.842   9.146  21.379  1.00  0.00     0.134 A 
ATOM      7  C   UNL     1      31.880   9.852  22.118  1.00  0.00     0.093 A 
ATOM      8  C   UNL     1      32.266  10.805  23.063  1.00  0.00     0.123 A 
ATOM      9  C   UNL     1      33.624  11.061  23.279  1.00  0.00     0.094 A 
ATOM     10  C   UNL     1      34.597  10.367  22.554  1.00  0.00     0.146 A 
ATOM     11  O   UNL     1      35.880  10.625  22.783  1.00  0.00    -0.452 OA
ENDROOT
BRANCH   1  12
ATOM     12  C   UNL     1      38.263  10.383  22.502  1.00  0.00     0.025 A 
ATOM     13  C   UNL     1      38.771  11.628  22.097  1.00  0.00     0.016 A 
ATOM     14  C   UNL     1      40.071  12.007  22.438  1.00  0.00     0.051 A 
ATOM     15  C   UNL     1      40.878  11.158  23.202  1.00  0.00     0.157 A 
ATOM     16  C   UNL     1      39.069   9.539  23.288  1.00  0.00     0.062 A 
ATOM     17  C   UNL     1      40.374   9.919  23.633  1.00  0.00     0.158 A 
BRANCH  15  18
ATOM     18  O   UNL     1      42.172  11.562  23.524  1.00  0.00    -0.504 OA
ATOM     19  H   UNL     1      42.980  10.979  23.339  1.00  0.00     0.293 HD
ENDBRANCH  15  18
BRANCH  17  20
ATOM     20  O   UNL     1      41.168   9.074  24.407  1.00  0.00    -0.504 OA
ATOM     21  H   UNL     1      40.773   8.290  24.913  1.00  0.00     0.293 HD
ENDBRANCH  17  20
ENDBRANCH   1  12
BRANCH   2  22
ATOM     22  O   UNL     1      37.619   8.451  20.435  1.00  0.00    -0.502 OA
ATOM     23  H   UNL     1      38.535   8.873  20.342  1.00  0.00     0.293 HD
ENDBRANCH   2  22
BRANCH   6  24
ATOM     24  O   UNL     1      32.425   8.201  20.442  1.00  0.00    -0.507 OA
ATOM     25  H   UNL     1      32.103   7.281  20.720  1.00  0.00     0.293 HD
ENDBRANCH   6  24
BRANCH   8  26
ATOM     26  O   UNL     1      31.291  11.492  23.781  1.00  0.00    -0.508 OA
ATOM     27  H   UNL     1      31.228  12.503  23.755  1.00  0.00     0.293 HD
ENDBRANCH   8  26
TORSDOF 6
ENDMDL
MODEL 7
REMARK VINA RESULT:    -4.316      3.545      6.500
REMARK INTER + INTRA:          -5.522
REMARK INTER:                  -5.191
REMARK INTRA:                  -0.331
REMARK UNBOUND:                -0.323
REMARK SMILES O=c1c(O)c(-c2ccc(O)c(O)c2)oc2cc(O)cc(O)c12
REMARK SMILES IDX 5 1 3 2 2 3 1 4 22 5 20 6 19 7 17 8 16 9 15 10 14 11 6 12
REMARK SMILES IDX 7 13 8 14 9 15 13 16 11 17 10 18 12 20 4 22 21 24 18 26
REMARK H PARENT 10 19 12 21 4 23 21 25 18 27
REMARK Flexibility Score: inf
ROOT
ATOM      1  C   UNL     1      35.517  10.098  21.207  1.00  0.00     0.180 A 
ATOM      2  C   UNL     1      34.904  10.938  22.157  1.00  0.00     0.208 A 
ATOM      3  C   UNL     1      33.592  10.655  22.565  1.00  0.00     0.238 A 
ATOM      4  O   UNL     1      33.027  11.407  23.406  1.00  0.00    -0.285 OA
ATOM      5  C   UNL     1      32.923   9.532  22.035  1.00  0.00     0.111 A 
ATOM      6  C   UNL     1      31.601   9.175  22.397  1.00  0.00     0.134 A 
ATOM      7  C   UNL     1      31.009   8.036  21.832  1.00  0.00     0.093 A 
ATOM      8  C   UNL     1      31.710   7.248  20.916  1.00  0.00     0.123 A 
ATOM      9  C   UNL     1      33.015   7.595  20.555  1.00  0.00     0.094 A 
ATOM     10  C   UNL     1      33.623   8.728  21.105  1.00  0.00     0.146 A 
ATOM     11  O   UNL     1      34.862   9.039  20.741  1.00  0.00    -0.452 OA
ENDROOT
BRANCH   1  12
ATOM     12  C   UNL     1      36.892  10.340  20.713  1.00  0.00     0.025 A 
ATOM     13  C   UNL     1      37.977   9.733  21.364  1.00  0.00     0.016 A 
ATOM     14  C   UNL     1      39.281   9.932  20.902  1.00  0.00     0.051 A 
ATOM     15  C   UNL     1      39.519  10.725  19.775  1.00  0.00     0.157 A 
ATOM     16  C   UNL     1      37.131  11.122  19.567  1.00  0.00     0.062 A 
ATOM     17  C   UNL     1      38.439  11.320  19.101  1.00  0.00     0.158 A 
BRANCH  15  18
ATOM     18  O   UNL     1      40.830  10.907  19.340  1.00  0.00    -0.504 OA
ATOM     19  H   UNL     1      41.329  11.778  19.483  1.00  0.00     0.293 HD
ENDBRANCH  15  18
BRANCH  17  20
ATOM     20  O   UNL     1      38.668  12.101  17.969  1.00  0.00    -0.504 OA
ATOM     21  H   UNL     1      38.135  11.972  17.118  1.00  0.00     0.293 HD
ENDBRANCH  17  20
ENDBRANCH   1  12
BRANCH   2  22
ATOM     22  O   UNL     1      35.605  12.016  22.702  1.00  0.00    -0.502 OA
ATOM     23  H   UNL     1      35.414  12.976  22.441  1.00  0.00     0.293 HD
ENDBRANCH   2  22
BRANCH   6  24
ATOM     24  O   UNL     1      30.876   9.941  23.310  1.00  0.00    -0.507 OA
ATOM     25  H   UNL     1      29.916  10.215  23.131  1.00  0.00     0.293 HD
ENDBRANCH   6  24
BRANCH   8  26
ATOM     26  O   UNL     1      31.099   6.121  20.371  1.00  0.00    -0.508 OA
ATOM     27  H   UNL     1      31.597   5.499  19.746  1.00  0.00     0.293 HD
ENDBRANCH   8  26
TORSDOF 6
ENDMDL
