MODEL 1
REMARK VINA RESULT:    -5.925      0.000      0.000
REMARK INTER + INTRA:         -15.256
REMARK INTER:                 -14.932
REMARK INTRA:                  -0.324
REMARK UNBOUND:                -0.324
REMARK SMILES CCCCCCCCCCCCCCCCCCCCCCCCCCCC(=O)[O-]
REMARK SMILES IDX 15 1 16 2 17 3 18 4 19 5 20 6 21 7 22 8 23 9 24 10 25 11
REMARK SMILES IDX 26 12 27 13 28 14 29 15 30 16 14 17 13 18 12 19 11 20 10 21
REMARK SMILES IDX 9 22 8 23 7 24 6 25 5 26 4 27 3 28 2 29 1 30
REMARK H PARENT
REMARK Flexibility Score: inf
ROOT
ATOM      1  C   UNL     1       6.296  -0.784  20.701  1.00  0.00     0.000 C 
ENDROOT
BRANCH   1   2
ATOM      2  C   UNL     1       4.962  -0.014  20.715  1.00  0.00     0.000 C 
BRANCH   2   3
ATOM      3  C   UNL     1       4.472   0.466  19.335  1.00  0.00     0.000 C 
BRANCH   3   4
ATOM      4  C   UNL     1       3.493  -0.515  18.673  1.00  0.00     0.000 C 
BRANCH   4   5
ATOM      5  C   UNL     1       2.190  -0.618  19.481  1.00  0.00     0.000 C 
BRANCH   5   6
ATOM      6  C   UNL     1       0.993   0.042  18.773  1.00  0.00     0.000 C 
BRANCH   6   7
ATOM      7  C   UNL     1       1.075   1.576  18.648  1.00  0.00     0.000 C 
BRANCH   7   8
ATOM      8  C   UNL     1       0.987   2.120  17.208  1.00  0.00     0.000 C 
BRANCH   8   9
ATOM      9  C   UNL     1       0.898   3.654  17.092  1.00  0.00     0.000 C 
BRANCH   9  10
ATOM     10  C   UNL     1       1.865   4.383  18.041  1.00  0.00     0.000 C 
BRANCH  10  11
ATOM     11  C   UNL     1       1.495   5.866  18.218  1.00  0.00     0.000 C 
BRANCH  11  12
ATOM     12  C   UNL     1       2.437   6.799  17.444  1.00  0.00     0.006 C 
BRANCH  12  13
ATOM     13  C   UNL     1       1.658   7.943  16.787  1.00  0.00     0.053 C 
BRANCH  13  14
ATOM     14  C   UNL     1       2.097   8.143  15.370  1.00  0.00     0.041 C 
ATOM     15  O   UNL     1       2.392   9.296  14.954  1.00  0.00    -0.550 OA
ATOM     16  O   UNL     1       2.172   7.060  14.503  1.00  0.00    -0.550 OA
ENDBRANCH  13  14
ENDBRANCH  12  13
ENDBRANCH  11  12
ENDBRANCH  10  11
ENDBRANCH   9  10
ENDBRANCH   8   9
ENDBRANCH   7   8
ENDBRANCH   6   7
ENDBRANCH   5   6
ENDBRANCH   4   5
ENDBRANCH   3   4
ENDBRANCH   2   3
ENDBRANCH   1   2
BRANCH   1  17
ATOM     17  C   UNL     1       6.407  -1.902  21.755  1.00  0.00     0.000 C 
BRANCH  17  18
ATOM     18  C   UNL     1       5.065  -2.251  22.433  1.00  0.00     0.000 C 
BRANCH  18  19
ATOM     19  C   UNL     1       4.029  -2.793  21.433  1.00  0.00     0.000 C 
BRANCH  19  20
ATOM     20  C   UNL     1       4.594  -3.911  20.543  1.00  0.00     0.000 C 
BRANCH  20  21
ATOM     21  C   UNL     1       5.387  -3.365  19.341  1.00  0.00     0.000 C 
BRANCH  21  22
ATOM     22  C   UNL     1       5.891  -4.481  18.413  1.00  0.00    -0.000 C 
BRANCH  22  23
ATOM     23  C   UNL     1       7.140  -5.189  18.970  1.00  0.00    -0.000 C 
BRANCH  23  24
ATOM     24  C   UNL     1       7.759  -4.434  20.166  1.00  0.00    -0.000 C 
BRANCH  24  25
ATOM     25  C   UNL     1       7.851  -5.276  21.453  1.00  0.00    -0.000 C 
BRANCH  25  26
ATOM     26  C   UNL     1       6.821  -6.412  21.555  1.00  0.00    -0.000 C 
BRANCH  26  27
ATOM     27  C   UNL     1       7.202  -7.640  20.708  1.00  0.00    -0.000 C 
BRANCH  27  28
ATOM     28  C   UNL     1       7.693  -8.818  21.562  1.00  0.00    -0.000 C 
BRANCH  28  29
ATOM     29  C   UNL     1       6.703  -9.194  22.676  1.00  0.00    -0.003 C 
ATOM     30  C   UNL     1       7.148  -8.626  24.020  1.00  0.00     0.004 C 
ENDBRANCH  28  29
ENDBRANCH  27  28
ENDBRANCH  26  27
ENDBRANCH  25  26
ENDBRANCH  24  25
ENDBRANCH  23  24
ENDBRANCH  22  23
ENDBRANCH  21  22
ENDBRANCH  20  21
ENDBRANCH  19  20
ENDBRANCH  18  19
ENDBRANCH  17  18
ENDBRANCH   1  17
TORSDOF 26
ENDMDL
MODEL 2
REMARK VINA RESULT:    -5.892      5.862     12.667
REMARK INTER + INTRA:         -15.173
REMARK INTER:                 -13.682
REMARK INTRA:                  -1.491
REMARK UNBOUND:                -0.324
REMARK SMILES CCCCCCCCCCCCCCCCCCCCCCCCCCCC(=O)[O-]
REMARK SMILES IDX 15 1 16 2 17 3 18 4 19 5 20 6 21 7 22 8 23 9 24 10 25 11
REMARK SMILES IDX 26 12 27 13 28 14 29 15 30 16 14 17 13 18 12 19 11 20 10 21
REMARK SMILES IDX 9 22 8 23 7 24 6 25 5 26 4 27 3 28 2 29 1 30
REMARK H PARENT
REMARK Flexibility Score: inf
ROOT
ATOM      1  C   UNL     1       1.635   0.481  18.818  1.00  0.00     0.000 C 
ENDROOT
BRANCH   1   2
ATOM      2  C   UNL     1       1.175  -0.989  18.854  1.00  0.00     0.000 C 
BRANCH   2   3
ATOM      3  C   UNL     1       2.095  -1.940  19.643  1.00  0.00     0.000 C 
BRANCH   3   4
ATOM      4  C   UNL     1       3.240  -1.208  20.359  1.00  0.00     0.000 C 
BRANCH   4   5
ATOM      5  C   UNL     1       3.393  -1.711  21.803  1.00  0.00     0.000 C 
BRANCH   5   6
ATOM      6  C   UNL     1       4.612  -2.631  21.991  1.00  0.00     0.000 C 
BRANCH   6   7
ATOM      7  C   UNL     1       5.978  -1.961  21.743  1.00  0.00     0.000 C 
BRANCH   7   8
ATOM      8  C   UNL     1       7.005  -2.830  20.988  1.00  0.00     0.000 C 
BRANCH   8   9
ATOM      9  C   UNL     1       6.417  -3.708  19.866  1.00  0.00     0.000 C 
BRANCH   9  10
ATOM     10  C   UNL     1       6.708  -5.206  20.062  1.00  0.00     0.000 C 
BRANCH  10  11
ATOM     11  C   UNL     1       7.108  -5.534  21.511  1.00  0.00     0.000 C 
BRANCH  11  12
ATOM     12  C   UNL     1       8.022  -6.764  21.600  1.00  0.00     0.006 C 
BRANCH  12  13
ATOM     13  C   UNL     1       7.274  -8.034  21.180  1.00  0.00     0.053 C 
BRANCH  13  14
ATOM     14  C   UNL     1       6.909  -8.858  22.376  1.00  0.00     0.041 C 
ATOM     15  O   UNL     1       6.150  -9.857  22.251  1.00  0.00    -0.550 OA
ATOM     16  O   UNL     1       7.396  -8.518  23.632  1.00  0.00    -0.550 OA
ENDBRANCH  13  14
ENDBRANCH  12  13
ENDBRANCH  11  12
ENDBRANCH  10  11
ENDBRANCH   9  10
ENDBRANCH   8   9
ENDBRANCH   7   8
ENDBRANCH   6   7
ENDBRANCH   5   6
ENDBRANCH   4   5
ENDBRANCH   3   4
ENDBRANCH   2   3
ENDBRANCH   1   2
BRANCH   1  17
ATOM     17  C   UNL     1       1.729   1.094  17.408  1.00  0.00     0.000 C 
BRANCH  17  18
ATOM     18  C   UNL     1       0.875   2.368  17.228  1.00  0.00     0.000 C 
BRANCH  18  19
ATOM     19  C   UNL     1       1.578   3.625  17.769  1.00  0.00     0.000 C 
BRANCH  19  20
ATOM     20  C   UNL     1       0.931   4.925  17.270  1.00  0.00     0.000 C 
BRANCH  20  21
ATOM     21  C   UNL     1       1.968   6.016  16.948  1.00  0.00     0.000 C 
BRANCH  21  22
ATOM     22  C   UNL     1       1.521   6.931  15.797  1.00  0.00    -0.000 C 
BRANCH  22  23
ATOM     23  C   UNL     1       2.605   7.087  14.715  1.00  0.00    -0.000 C 
BRANCH  23  24
ATOM     24  C   UNL     1       3.939   6.426  15.120  1.00  0.00    -0.000 C 
BRANCH  24  25
ATOM     25  C   UNL     1       4.620   5.646  13.978  1.00  0.00    -0.000 C 
BRANCH  25  26
ATOM     26  C   UNL     1       6.029   6.138  13.614  1.00  0.00    -0.000 C 
BRANCH  26  27
ATOM     27  C   UNL     1       6.915   5.024  13.027  1.00  0.00    -0.000 C 
BRANCH  27  28
ATOM     28  C   UNL     1       7.747   5.500  11.827  1.00  0.00    -0.000 C 
BRANCH  28  29
ATOM     29  C   UNL     1       7.664   4.537  10.632  1.00  0.00    -0.003 C 
ATOM     30  C   UNL     1       9.003   4.449   9.905  1.00  0.00     0.004 C 
ENDBRANCH  28  29
ENDBRANCH  27  28
ENDBRANCH  26  27
ENDBRANCH  25  26
ENDBRANCH  24  25
ENDBRANCH  23  24
ENDBRANCH  22  23
ENDBRANCH  21  22
ENDBRANCH  20  21
ENDBRANCH  19  20
ENDBRANCH  18  19
ENDBRANCH  17  18
ENDBRANCH   1  17
TORSDOF 26
ENDMDL
MODEL 3
REMARK VINA RESULT:    -5.237      4.932     12.147
REMARK INTER + INTRA:         -13.522
REMARK INTER:                 -11.549
REMARK INTRA:                  -1.973
REMARK UNBOUND:                -0.324
REMARK SMILES CCCCCCCCCCCCCCCCCCCCCCCCCCCC(=O)[O-]
REMARK SMILES IDX 15 1 16 2 17 3 18 4 19 5 20 6 21 7 22 8 23 9 24 10 25 11
REMARK SMILES IDX 26 12 27 13 28 14 29 15 30 16 14 17 13 18 12 19 11 20 10 21
REMARK SMILES IDX 9 22 8 23 7 24 6 25 5 26 4 27 3 28 2 29 1 30
REMARK H PARENT
REMARK Flexibility Score: inf
ROOT
ATOM      1  C   UNL     1       5.898   0.331  19.715  1.00  0.00     0.000 C 
ENDROOT
BRANCH   1   2
ATOM      2  C   UNL     1       6.086  -0.215  21.142  1.00  0.00     0.000 C 
BRANCH   2   3
ATOM      3  C   UNL     1       6.353  -1.730  21.230  1.00  0.00     0.000 C 
BRANCH   3   4
ATOM      4  C   UNL     1       5.404  -2.449  22.200  1.00  0.00     0.000 C 
BRANCH   4   5
ATOM      5  C   UNL     1       3.964  -1.936  22.041  1.00  0.00     0.000 C 
BRANCH   5   6
ATOM      6  C   UNL     1       3.315  -2.372  20.715  1.00  0.00     0.000 C 
BRANCH   6   7
ATOM      7  C   UNL     1       3.874  -3.677  20.115  1.00  0.00     0.000 C 
BRANCH   7   8
ATOM      8  C   UNL     1       4.715  -3.499  18.834  1.00  0.00     0.000 C 
BRANCH   8   9
ATOM      9  C   UNL     1       6.220  -3.784  18.996  1.00  0.00     0.000 C 
BRANCH   9  10
ATOM     10  C   UNL     1       6.514  -5.232  19.424  1.00  0.00     0.000 C 
BRANCH  10  11
ATOM     11  C   UNL     1       7.396  -5.296  20.684  1.00  0.00     0.000 C 
BRANCH  11  12
ATOM     12  C   UNL     1       6.742  -6.105  21.813  1.00  0.00     0.006 C 
BRANCH  12  13
ATOM     13  C   UNL     1       7.650  -7.256  22.260  1.00  0.00     0.053 C 
BRANCH  13  14
ATOM     14  C   UNL     1       7.241  -8.541  21.609  1.00  0.00     0.041 C 
ATOM     15  O   UNL     1       7.579  -8.784  20.419  1.00  0.00    -0.550 OA
ATOM     16  O   UNL     1       6.479  -9.466  22.310  1.00  0.00    -0.550 OA
ENDBRANCH  13  14
ENDBRANCH  12  13
ENDBRANCH  11  12
ENDBRANCH  10  11
ENDBRANCH   9  10
ENDBRANCH   8   9
ENDBRANCH   7   8
ENDBRANCH   6   7
ENDBRANCH   5   6
ENDBRANCH   4   5
ENDBRANCH   3   4
ENDBRANCH   2   3
ENDBRANCH   1   2
BRANCH   1  17
ATOM     17  C   UNL     1       4.460   0.771  19.376  1.00  0.00     0.000 C 
BRANCH  17  18
ATOM     18  C   UNL     1       3.790  -0.091  18.285  1.00  0.00     0.000 C 
BRANCH  18  19
ATOM     19  C   UNL     1       2.850   0.731  17.385  1.00  0.00     0.000 C 
BRANCH  19  20
ATOM     20  C   UNL     1       1.790   1.503  18.187  1.00  0.00     0.000 C 
BRANCH  20  21
ATOM     21  C   UNL     1       1.046   2.544  17.332  1.00  0.00     0.000 C 
BRANCH  21  22
ATOM     22  C   UNL     1       1.741   3.914  17.337  1.00  0.00    -0.000 C 
BRANCH  22  23
ATOM     23  C   UNL     1       0.875   5.011  17.982  1.00  0.00    -0.000 C 
BRANCH  23  24
ATOM     24  C   UNL     1       1.709   5.994  18.832  1.00  0.00    -0.000 C 
BRANCH  24  25
ATOM     25  C   UNL     1       1.923   7.367  18.165  1.00  0.00    -0.000 C 
BRANCH  25  26
ATOM     26  C   UNL     1       1.139   7.579  16.861  1.00  0.00    -0.000 C 
BRANCH  26  27
ATOM     27  C   UNL     1       1.773   8.647  15.952  1.00  0.00    -0.000 C 
BRANCH  27  28
ATOM     28  C   UNL     1       2.316   8.060  14.641  1.00  0.00    -0.000 C 
BRANCH  28  29
ATOM     29  C   UNL     1       3.611   7.258  14.845  1.00  0.00    -0.003 C 
ATOM     30  C   UNL     1       3.307   5.791  15.135  1.00  0.00     0.004 C 
ENDBRANCH  28  29
ENDBRANCH  27  28
ENDBRANCH  26  27
ENDBRANCH  25  26
ENDBRANCH  24  25
ENDBRANCH  23  24
ENDBRANCH  22  23
ENDBRANCH  21  22
ENDBRANCH  20  21
ENDBRANCH  19  20
ENDBRANCH  18  19
ENDBRANCH  17  18
ENDBRANCH   1  17
TORSDOF 26
ENDMDL
MODEL 4
REMARK VINA RESULT:    -5.155      3.692      5.696
REMARK INTER + INTRA:         -13.314
REMARK INTER:                 -12.509
REMARK INTRA:                  -0.805
REMARK UNBOUND:                -0.324
REMARK SMILES CCCCCCCCCCCCCCCCCCCCCCCCCCCC(=O)[O-]
REMARK SMILES IDX 15 1 16 2 17 3 18 4 19 5 20 6 21 7 22 8 23 9 24 10 25 11
REMARK SMILES IDX 26 12 27 13 28 14 29 15 30 16 14 17 13 18 12 19 11 20 10 21
REMARK SMILES IDX 9 22 8 23 7 24 6 25 5 26 4 27 3 28 2 29 1 30
REMARK H PARENT
REMARK Flexibility Score: inf
ROOT
ATOM      1  C   UNL     1       0.876   1.811  17.226  1.00  0.00     0.000 C 
ENDROOT
BRANCH   1   2
ATOM      2  C   UNL     1       0.952   3.056  18.129  1.00  0.00     0.000 C 
BRANCH   2   3
ATOM      3  C   UNL     1       0.976   4.403  17.382  1.00  0.00     0.000 C 
BRANCH   3   4
ATOM      4  C   UNL     1       2.294   5.169  17.571  1.00  0.00     0.000 C 
BRANCH   4   5
ATOM      5  C   UNL     1       2.036   6.676  17.718  1.00  0.00     0.000 C 
BRANCH   5   6
ATOM      6  C   UNL     1       1.287   7.277  16.516  1.00  0.00     0.000 C 
BRANCH   6   7
ATOM      7  C   UNL     1       2.078   7.280  15.192  1.00  0.00     0.000 C 
BRANCH   7   8
ATOM      8  C   UNL     1       3.213   6.240  15.106  1.00  0.00     0.000 C 
BRANCH   8   9
ATOM      9  C   UNL     1       4.261   6.505  14.008  1.00  0.00     0.000 C 
BRANCH   9  10
ATOM     10  C   UNL     1       5.411   5.484  14.017  1.00  0.00     0.000 C 
BRANCH  10  11
ATOM     11  C   UNL     1       6.630   5.977  13.220  1.00  0.00     0.000 C 
BRANCH  11  12
ATOM     12  C   UNL     1       7.425   4.822  12.595  1.00  0.00     0.006 C 
BRANCH  12  13
ATOM     13  C   UNL     1       8.349   5.331  11.483  1.00  0.00     0.053 C 
BRANCH  13  14
ATOM     14  C   UNL     1       8.210   4.494  10.250  1.00  0.00     0.041 C 
ATOM     15  O   UNL     1       7.158   3.828  10.051  1.00  0.00    -0.550 OA
ATOM     16  O   UNL     1       9.244   4.437   9.324  1.00  0.00    -0.550 OA
ENDBRANCH  13  14
ENDBRANCH  12  13
ENDBRANCH  11  12
ENDBRANCH  10  11
ENDBRANCH   9  10
ENDBRANCH   8   9
ENDBRANCH   7   8
ENDBRANCH   6   7
ENDBRANCH   5   6
ENDBRANCH   4   5
ENDBRANCH   3   4
ENDBRANCH   2   3
ENDBRANCH   1   2
BRANCH   1  17
ATOM     17  C   UNL     1       2.053   0.829  17.380  1.00  0.00     0.000 C 
BRANCH  17  18
ATOM     18  C   UNL     1       2.473   0.589  18.846  1.00  0.00     0.000 C 
BRANCH  18  19
ATOM     19  C   UNL     1       2.292  -0.877  19.274  1.00  0.00     0.000 C 
BRANCH  19  20
ATOM     20  C   UNL     1       3.617  -1.544  19.676  1.00  0.00     0.000 C 
BRANCH  20  21
ATOM     21  C   UNL     1       4.789  -0.547  19.725  1.00  0.00     0.000 C 
BRANCH  21  22
ATOM     22  C   UNL     1       6.009  -1.110  20.470  1.00  0.00    -0.000 C 
BRANCH  22  23
ATOM     23  C   UNL     1       5.612  -1.948  21.699  1.00  0.00    -0.000 C 
BRANCH  23  24
ATOM     24  C   UNL     1       6.536  -3.168  21.901  1.00  0.00    -0.000 C 
BRANCH  24  25
ATOM     25  C   UNL     1       7.307  -3.582  20.633  1.00  0.00    -0.000 C 
BRANCH  25  26
ATOM     26  C   UNL     1       7.078  -5.034  20.185  1.00  0.00    -0.000 C 
BRANCH  26  27
ATOM     27  C   UNL     1       6.535  -5.927  21.315  1.00  0.00    -0.000 C 
BRANCH  27  28
ATOM     28  C   UNL     1       7.020  -7.381  21.205  1.00  0.00    -0.000 C 
BRANCH  28  29
ATOM     29  C   UNL     1       7.119  -8.075  22.573  1.00  0.00    -0.003 C 
ATOM     30  C   UNL     1       6.882  -9.577  22.443  1.00  0.00     0.004 C 
ENDBRANCH  28  29
ENDBRANCH  27  28
ENDBRANCH  26  27
ENDBRANCH  25  26
ENDBRANCH  24  25
ENDBRANCH  23  24
ENDBRANCH  22  23
ENDBRANCH  21  22
ENDBRANCH  20  21
ENDBRANCH  19  20
ENDBRANCH  18  19
ENDBRANCH  17  18
ENDBRANCH   1  17
TORSDOF 26
ENDMDL
MODEL 5
REMARK VINA RESULT:    -4.597      5.147     12.743
REMARK INTER + INTRA:         -11.908
REMARK INTER:                 -10.756
REMARK INTRA:                  -1.153
REMARK UNBOUND:                -0.324
REMARK SMILES CCCCCCCCCCCCCCCCCCCCCCCCCCCC(=O)[O-]
REMARK SMILES IDX 15 1 16 2 17 3 18 4 19 5 20 6 21 7 22 8 23 9 24 10 25 11
REMARK SMILES IDX 26 12 27 13 28 14 29 15 30 16 14 17 13 18 12 19 11 20 10 21
REMARK SMILES IDX 9 22 8 23 7 24 6 25 5 26 4 27 3 28 2 29 1 30
REMARK H PARENT
REMARK Flexibility Score: inf
ROOT
ATOM      1  C   UNL     1       1.295   2.120  17.454  1.00  0.00     0.000 C 
ENDROOT
BRANCH   1   2
ATOM      2  C   UNL     1       1.582   1.267  18.704  1.00  0.00     0.000 C 
BRANCH   2   3
ATOM      3  C   UNL     1       2.366  -0.032  18.441  1.00  0.00     0.000 C 
BRANCH   3   4
ATOM      4  C   UNL     1       1.941  -1.185  19.364  1.00  0.00     0.000 C 
BRANCH   4   5
ATOM      5  C   UNL     1       3.140  -2.080  19.710  1.00  0.00     0.000 C 
BRANCH   5   6
ATOM      6  C   UNL     1       4.487  -1.342  19.615  1.00  0.00     0.000 C 
BRANCH   6   7
ATOM      7  C   UNL     1       5.314  -1.324  20.916  1.00  0.00     0.000 C 
BRANCH   7   8
ATOM      8  C   UNL     1       4.814  -2.278  22.021  1.00  0.00     0.000 C 
BRANCH   8   9
ATOM      9  C   UNL     1       5.147  -3.766  21.798  1.00  0.00     0.000 C 
BRANCH   9  10
ATOM     10  C   UNL     1       6.030  -4.005  20.561  1.00  0.00     0.000 C 
BRANCH  10  11
ATOM     11  C   UNL     1       7.442  -4.483  20.942  1.00  0.00     0.000 C 
BRANCH  11  12
ATOM     12  C   UNL     1       7.656  -5.972  20.635  1.00  0.00     0.006 C 
BRANCH  12  13
ATOM     13  C   UNL     1       7.785  -6.785  21.928  1.00  0.00     0.053 C 
BRANCH  13  14
ATOM     14  C   UNL     1       7.253  -8.171  21.742  1.00  0.00     0.041 C 
ATOM     15  O   UNL     1       7.743  -8.925  20.858  1.00  0.00    -0.550 OA
ATOM     16  O   UNL     1       6.208  -8.630  22.534  1.00  0.00    -0.550 OA
ENDBRANCH  13  14
ENDBRANCH  12  13
ENDBRANCH  11  12
ENDBRANCH  10  11
ENDBRANCH   9  10
ENDBRANCH   8   9
ENDBRANCH   7   8
ENDBRANCH   6   7
ENDBRANCH   5   6
ENDBRANCH   4   5
ENDBRANCH   3   4
ENDBRANCH   2   3
ENDBRANCH   1   2
BRANCH   1  17
ATOM     17  C   UNL     1       0.875   3.573  17.746  1.00  0.00     0.000 C 
BRANCH  17  18
ATOM     18  C   UNL     1       2.040   4.583  17.666  1.00  0.00     0.000 C 
BRANCH  18  19
ATOM     19  C   UNL     1       1.746   5.878  18.444  1.00  0.00     0.000 C 
BRANCH  19  20
ATOM     20  C   UNL     1       0.956   6.901  17.613  1.00  0.00     0.000 C 
BRANCH  20  21
ATOM     21  C   UNL     1       1.219   8.351  18.057  1.00  0.00     0.000 C 
BRANCH  21  22
ATOM     22  C   UNL     1       0.875   9.373  16.962  1.00  0.00    -0.000 C 
BRANCH  22  23
ATOM     23  C   UNL     1       2.020   9.556  15.949  1.00  0.00    -0.000 C 
BRANCH  23  24
ATOM     24  C   UNL     1       2.061   8.426  14.899  1.00  0.00    -0.000 C 
BRANCH  24  25
ATOM     25  C   UNL     1       3.309   7.527  14.999  1.00  0.00    -0.000 C 
BRANCH  25  26
ATOM     26  C   UNL     1       3.041   6.027  14.799  1.00  0.00    -0.000 C 
BRANCH  26  27
ATOM     27  C   UNL     1       4.315   5.234  14.460  1.00  0.00    -0.000 C 
BRANCH  27  28
ATOM     28  C   UNL     1       5.451   6.132  13.945  1.00  0.00    -0.000 C 
BRANCH  28  29
ATOM     29  C   UNL     1       6.713   5.335  13.580  1.00  0.00    -0.003 C 
ATOM     30  C   UNL     1       7.316   5.832  12.269  1.00  0.00     0.004 C 
ENDBRANCH  28  29
ENDBRANCH  27  28
ENDBRANCH  26  27
ENDBRANCH  25  26
ENDBRANCH  24  25
ENDBRANCH  23  24
ENDBRANCH  22  23
ENDBRANCH  21  22
ENDBRANCH  20  21
ENDBRANCH  19  20
ENDBRANCH  18  19
ENDBRANCH  17  18
ENDBRANCH   1  17
TORSDOF 26
ENDMDL
MODEL 6
REMARK VINA RESULT:    -4.290      6.249     12.949
REMARK INTER + INTRA:         -11.134
REMARK INTER:                 -10.016
REMARK INTRA:                  -1.119
REMARK UNBOUND:                -0.324
REMARK SMILES CCCCCCCCCCCCCCCCCCCCCCCCCCCC(=O)[O-]
REMARK SMILES IDX 15 1 16 2 17 3 18 4 19 5 20 6 21 7 22 8 23 9 24 10 25 11
REMARK SMILES IDX 26 12 27 13 28 14 29 15 30 16 14 17 13 18 12 19 11 20 10 21
REMARK SMILES IDX 9 22 8 23 7 24 6 25 5 26 4 27 3 28 2 29 1 30
REMARK H PARENT
REMARK Flexibility Score: inf
ROOT
ATOM      1  C   UNL     1       0.876   2.945  17.579  1.00  0.00     0.000 C 
ENDROOT
BRANCH   1   2
ATOM      2  C   UNL     1       1.681   1.633  17.506  1.00  0.00     0.000 C 
BRANCH   2   3
ATOM      3  C   UNL     1       1.331   0.593  18.587  1.00  0.00     0.000 C 
BRANCH   3   4
ATOM      4  C   UNL     1       2.566  -0.135  19.139  1.00  0.00     0.000 C 
BRANCH   4   5
ATOM      5  C   UNL     1       2.199  -1.544  19.628  1.00  0.00     0.000 C 
BRANCH   5   6
ATOM      6  C   UNL     1       3.431  -2.395  19.985  1.00  0.00     0.000 C 
BRANCH   6   7
ATOM      7  C   UNL     1       4.755  -1.611  20.091  1.00  0.00     0.000 C 
BRANCH   7   8
ATOM      8  C   UNL     1       5.910  -2.370  20.775  1.00  0.00     0.000 C 
BRANCH   8   9
ATOM      9  C   UNL     1       5.622  -3.849  21.094  1.00  0.00     0.000 C 
BRANCH   9  10
ATOM     10  C   UNL     1       6.869  -4.613  21.572  1.00  0.00     0.000 C 
BRANCH  10  11
ATOM     11  C   UNL     1       7.409  -5.572  20.497  1.00  0.00     0.000 C 
BRANCH  11  12
ATOM     12  C   UNL     1       7.150  -7.044  20.846  1.00  0.00     0.006 C 
BRANCH  12  13
ATOM     13  C   UNL     1       7.822  -7.420  22.172  1.00  0.00     0.053 C 
BRANCH  13  14
ATOM     14  C   UNL     1       7.205  -8.655  22.751  1.00  0.00     0.041 C 
ATOM     15  O   UNL     1       6.826  -9.589  21.994  1.00  0.00    -0.550 OA
ATOM     16  O   UNL     1       7.036  -8.772  24.125  1.00  0.00    -0.550 OA
ENDBRANCH  13  14
ENDBRANCH  12  13
ENDBRANCH  11  12
ENDBRANCH  10  11
ENDBRANCH   9  10
ENDBRANCH   8   9
ENDBRANCH   7   8
ENDBRANCH   6   7
ENDBRANCH   5   6
ENDBRANCH   4   5
ENDBRANCH   3   4
ENDBRANCH   2   3
ENDBRANCH   1   2
BRANCH   1  17
ATOM     17  C   UNL     1       1.726   4.214  17.782  1.00  0.00     0.000 C 
BRANCH  17  18
ATOM     18  C   UNL     1       0.889   5.493  17.991  1.00  0.00     0.000 C 
BRANCH  18  19
ATOM     19  C   UNL     1       1.767   6.749  18.135  1.00  0.00     0.000 C 
BRANCH  19  20
ATOM     20  C   UNL     1       1.528   7.769  17.011  1.00  0.00     0.000 C 
BRANCH  20  21
ATOM     21  C   UNL     1       2.781   8.000  16.147  1.00  0.00     0.000 C 
BRANCH  21  22
ATOM     22  C   UNL     1       2.724   7.238  14.813  1.00  0.00    -0.000 C 
BRANCH  22  23
ATOM     23  C   UNL     1       3.832   6.176  14.695  1.00  0.00    -0.000 C 
BRANCH  23  24
ATOM     24  C   UNL     1       5.104   6.728  14.018  1.00  0.00    -0.000 C 
BRANCH  24  25
ATOM     25  C   UNL     1       6.018   5.637  13.427  1.00  0.00    -0.000 C 
BRANCH  25  26
ATOM     26  C   UNL     1       6.919   6.107  12.274  1.00  0.00    -0.000 C 
BRANCH  26  27
ATOM     27  C   UNL     1       7.968   5.055  11.871  1.00  0.00    -0.000 C 
BRANCH  27  28
ATOM     28  C   UNL     1       8.342   5.132  10.384  1.00  0.00    -0.000 C 
BRANCH  28  29
ATOM     29  C   UNL     1       8.855   3.791   9.833  1.00  0.00    -0.003 C 
ATOM     30  C   UNL     1      10.342   3.869   9.500  1.00  0.00     0.004 C 
ENDBRANCH  28  29
ENDBRANCH  27  28
ENDBRANCH  26  27
ENDBRANCH  25  26
ENDBRANCH  24  25
ENDBRANCH  23  24
ENDBRANCH  22  23
ENDBRANCH  21  22
ENDBRANCH  20  21
ENDBRANCH  19  20
ENDBRANCH  18  19
ENDBRANCH  17  18
ENDBRANCH   1  17
TORSDOF 26
ENDMDL
MODEL 7
REMARK VINA RESULT:    -3.972      5.808      7.924
REMARK INTER + INTRA:         -10.334
REMARK INTER:                  -7.861
REMARK INTRA:                  -2.474
REMARK UNBOUND:                -0.324
REMARK SMILES CCCCCCCCCCCCCCCCCCCCCCCCCCCC(=O)[O-]
REMARK SMILES IDX 15 1 16 2 17 3 18 4 19 5 20 6 21 7 22 8 23 9 24 10 25 11
REMARK SMILES IDX 26 12 27 13 28 14 29 15 30 16 14 17 13 18 12 19 11 20 10 21
REMARK SMILES IDX 9 22 8 23 7 24 6 25 5 26 4 27 3 28 2 29 1 30
REMARK H PARENT
REMARK Flexibility Score: inf
ROOT
ATOM      1  C   UNL     1       2.636   0.689  18.878  1.00  0.00     0.000 C 
ENDROOT
BRANCH   1   2
ATOM      2  C   UNL     1       3.846   0.060  18.162  1.00  0.00     0.000 C 
BRANCH   2   3
ATOM      3  C   UNL     1       5.215   0.640  18.563  1.00  0.00     0.000 C 
BRANCH   3   4
ATOM      4  C   UNL     1       5.480   0.559  20.073  1.00  0.00     0.000 C 
BRANCH   4   5
ATOM      5  C   UNL     1       6.988   0.525  20.365  1.00  0.00     0.000 C 
BRANCH   5   6
ATOM      6  C   UNL     1       7.836   1.074  19.203  1.00  0.00     0.000 C 
BRANCH   6   7
ATOM      7  C   UNL     1       9.159   1.745  19.623  1.00  0.00     0.000 C 
BRANCH   7   8
ATOM      8  C   UNL     1       9.826   2.612  18.535  1.00  0.00     0.000 C 
BRANCH   8   9
ATOM      9  C   UNL     1      10.045   1.908  17.183  1.00  0.00     0.000 C 
BRANCH   9  10
ATOM     10  C   UNL     1      11.281   0.993  17.176  1.00  0.00     0.000 C 
BRANCH  10  11
ATOM     11  C   UNL     1      12.589   1.787  17.022  1.00  0.00     0.000 C 
BRANCH  11  12
ATOM     12  C   UNL     1      13.754   0.907  16.549  1.00  0.00     0.006 C 
BRANCH  12  13
ATOM     13  C   UNL     1      15.101   1.499  16.982  1.00  0.00     0.053 C 
BRANCH  13  14
ATOM     14  C   UNL     1      16.053   0.417  17.386  1.00  0.00     0.041 C 
ATOM     15  O   UNL     1      16.371  -0.487  16.566  1.00  0.00    -0.550 OA
ATOM     16  O   UNL     1      16.583   0.397  18.670  1.00  0.00    -0.550 OA
ENDBRANCH  13  14
ENDBRANCH  12  13
ENDBRANCH  11  12
ENDBRANCH  10  11
ENDBRANCH   9  10
ENDBRANCH   8   9
ENDBRANCH   7   8
ENDBRANCH   6   7
ENDBRANCH   5   6
ENDBRANCH   4   5
ENDBRANCH   3   4
ENDBRANCH   2   3
ENDBRANCH   1   2
BRANCH   1  17
ATOM     17  C   UNL     1       1.600  -0.322  19.406  1.00  0.00     0.000 C 
BRANCH  17  18
ATOM     18  C   UNL     1       2.147  -1.759  19.536  1.00  0.00     0.000 C 
BRANCH  18  19
ATOM     19  C   UNL     1       2.839  -2.001  20.890  1.00  0.00     0.000 C 
BRANCH  19  20
ATOM     20  C   UNL     1       4.175  -2.746  20.746  1.00  0.00     0.000 C 
BRANCH  20  21
ATOM     21  C   UNL     1       4.908  -2.909  22.090  1.00  0.00     0.000 C 
BRANCH  21  22
ATOM     22  C   UNL     1       6.433  -2.796  21.945  1.00  0.00    -0.000 C 
BRANCH  22  23
ATOM     23  C   UNL     1       6.894  -2.901  20.480  1.00  0.00    -0.000 C 
BRANCH  23  24
ATOM     24  C   UNL     1       7.912  -4.041  20.265  1.00  0.00    -0.000 C 
BRANCH  24  25
ATOM     25  C   UNL     1       7.798  -5.181  21.296  1.00  0.00    -0.000 C 
BRANCH  25  26
ATOM     26  C   UNL     1       6.825  -6.306  20.907  1.00  0.00    -0.000 C 
BRANCH  26  27
ATOM     27  C   UNL     1       7.347  -7.702  21.289  1.00  0.00    -0.000 C 
BRANCH  27  28
ATOM     28  C   UNL     1       7.647  -7.832  22.789  1.00  0.00    -0.000 C 
BRANCH  28  29
ATOM     29  C   UNL     1       6.910  -9.014  23.439  1.00  0.00    -0.003 C 
ATOM     30  C   UNL     1       6.329  -9.947  22.381  1.00  0.00     0.004 C 
ENDBRANCH  28  29
ENDBRANCH  27  28
ENDBRANCH  26  27
ENDBRANCH  25  26
ENDBRANCH  24  25
ENDBRANCH  23  24
ENDBRANCH  22  23
ENDBRANCH  21  22
ENDBRANCH  20  21
ENDBRANCH  19  20
ENDBRANCH  18  19
ENDBRANCH  17  18
ENDBRANCH   1  17
TORSDOF 26
ENDMDL
MODEL 8
REMARK VINA RESULT:    -3.956      2.476      4.489
REMARK INTER + INTRA:         -10.293
REMARK INTER:                 -11.151
REMARK INTRA:                   0.857
REMARK UNBOUND:                -0.324
REMARK SMILES CCCCCCCCCCCCCCCCCCCCCCCCCCCC(=O)[O-]
REMARK SMILES IDX 15 1 16 2 17 3 18 4 19 5 20 6 21 7 22 8 23 9 24 10 25 11
REMARK SMILES IDX 26 12 27 13 28 14 29 15 30 16 14 17 13 18 12 19 11 20 10 21
REMARK SMILES IDX 9 22 8 23 7 24 6 25 5 26 4 27 3 28 2 29 1 30
REMARK H PARENT
REMARK Flexibility Score: inf
ROOT
ATOM      1  C   UNL     1       0.915   0.280  19.099  1.00  0.00     0.000 C 
ENDROOT
BRANCH   1   2
ATOM      2  C   UNL     1       0.988   1.164  17.840  1.00  0.00     0.000 C 
BRANCH   2   3
ATOM      3  C   UNL     1       1.629   2.548  18.051  1.00  0.00     0.000 C 
BRANCH   3   4
ATOM      4  C   UNL     1       0.886   3.671  17.311  1.00  0.00     0.000 C 
BRANCH   4   5
ATOM      5  C   UNL     1       1.023   5.006  18.060  1.00  0.00     0.000 C 
BRANCH   5   6
ATOM      6  C   UNL     1       1.712   6.096  17.221  1.00  0.00     0.000 C 
BRANCH   6   7
ATOM      7  C   UNL     1       1.218   7.532  17.489  1.00  0.00     0.000 C 
BRANCH   7   8
ATOM      8  C   UNL     1       1.768   8.602  16.524  1.00  0.00     0.000 C 
BRANCH   8   9
ATOM      9  C   UNL     1       2.090   8.098  15.104  1.00  0.00     0.000 C 
BRANCH   9  10
ATOM     10  C   UNL     1       2.739   6.704  15.095  1.00  0.00     0.000 C 
BRANCH  10  11
ATOM     11  C   UNL     1       4.273   6.779  14.996  1.00  0.00     0.000 C 
BRANCH  11  12
ATOM     12  C   UNL     1       4.853   5.688  14.086  1.00  0.00     0.006 C 
BRANCH  12  13
ATOM     13  C   UNL     1       6.030   6.227  13.265  1.00  0.00     0.053 C 
BRANCH  13  14
ATOM     14  C   UNL     1       7.096   5.188  13.116  1.00  0.00     0.041 C 
ATOM     15  O   UNL     1       7.374   4.422  14.078  1.00  0.00    -0.550 OA
ATOM     16  O   UNL     1       7.793   5.069  11.920  1.00  0.00    -0.550 OA
ENDBRANCH  13  14
ENDBRANCH  12  13
ENDBRANCH  11  12
ENDBRANCH  10  11
ENDBRANCH   9  10
ENDBRANCH   8   9
ENDBRANCH   7   8
ENDBRANCH   6   7
ENDBRANCH   5   6
ENDBRANCH   4   5
ENDBRANCH   3   4
ENDBRANCH   2   3
ENDBRANCH   1   2
BRANCH   1  17
ATOM     17  C   UNL     1       1.348  -1.183  18.888  1.00  0.00     0.000 C 
BRANCH  17  18
ATOM     18  C   UNL     1       2.878  -1.374  18.827  1.00  0.00     0.000 C 
BRANCH  18  19
ATOM     19  C   UNL     1       3.593  -0.756  20.041  1.00  0.00     0.000 C 
BRANCH  19  20
ATOM     20  C   UNL     1       3.310  -1.518  21.345  1.00  0.00     0.000 C 
BRANCH  20  21
ATOM     21  C   UNL     1       4.400  -2.556  21.671  1.00  0.00     0.000 C 
BRANCH  21  22
ATOM     22  C   UNL     1       5.795  -1.924  21.798  1.00  0.00    -0.000 C 
BRANCH  22  23
ATOM     23  C   UNL     1       6.839  -2.621  20.907  1.00  0.00    -0.000 C 
BRANCH  23  24
ATOM     24  C   UNL     1       7.139  -4.062  21.371  1.00  0.00    -0.000 C 
BRANCH  24  25
ATOM     25  C   UNL     1       5.985  -5.051  21.119  1.00  0.00    -0.000 C 
BRANCH  25  26
ATOM     26  C   UNL     1       6.253  -6.488  21.593  1.00  0.00    -0.000 C 
BRANCH  26  27
ATOM     27  C   UNL     1       7.546  -7.078  21.003  1.00  0.00    -0.000 C 
BRANCH  27  28
ATOM     28  C   UNL     1       7.675  -8.588  21.254  1.00  0.00    -0.000 C 
BRANCH  28  29
ATOM     29  C   UNL     1       6.660  -9.105  22.286  1.00  0.00    -0.003 C 
ATOM     30  C   UNL     1       6.994  -8.595  23.685  1.00  0.00     0.004 C 
ENDBRANCH  28  29
ENDBRANCH  27  28
ENDBRANCH  26  27
ENDBRANCH  25  26
ENDBRANCH  24  25
ENDBRANCH  23  24
ENDBRANCH  22  23
ENDBRANCH  21  22
ENDBRANCH  20  21
ENDBRANCH  19  20
ENDBRANCH  18  19
ENDBRANCH  17  18
ENDBRANCH   1  17
TORSDOF 26
ENDMDL
