MODEL 1
REMARK VINA RESULT:    -2.129      0.000      0.000
REMARK INTER + INTRA:          -5.944
REMARK INTER:                  -4.868
REMARK INTRA:                  -1.076
REMARK UNBOUND:                -1.076
REMARK SMILES CCCCCCCCCCCCCCCCCCCCCCCC(=O)[O-]
REMARK SMILES IDX 13 1 14 2 15 3 16 4 17 5 18 6 19 7 20 8 21 9 22 10 23 11
REMARK SMILES IDX 24 12 25 13 26 14 12 15 11 16 10 17 9 18 8 19 7 20 6 21 5 22
REMARK SMILES IDX 4 23 3 24 2 25 1 26
REMARK H PARENT
REMARK Flexibility Score: inf
ROOT
ATOM      1  C   UNL     1      -0.790  24.620   9.830  1.00  0.00     0.000 C 
ENDROOT
BRANCH   1   2
ATOM      2  C   UNL     1       0.117  25.307   8.802  1.00  0.00     0.000 C 
BRANCH   2   3
ATOM      3  C   UNL     1       1.551  25.434   9.334  1.00  0.00     0.000 C 
BRANCH   3   4
ATOM      4  C   UNL     1       2.389  24.171   9.078  1.00  0.00     0.000 C 
BRANCH   4   5
ATOM      5  C   UNL     1       3.898  24.470   8.998  1.00  0.00     0.000 C 
BRANCH   5   6
ATOM      6  C   UNL     1       4.468  24.229   7.583  1.00  0.00     0.000 C 
BRANCH   6   7
ATOM      7  C   UNL     1       3.984  25.253   6.542  1.00  0.00     0.000 C 
BRANCH   7   8
ATOM      8  C   UNL     1       3.363  24.594   5.300  1.00  0.00     0.000 C 
BRANCH   8   9
ATOM      9  C   UNL     1       2.039  23.876   5.605  1.00  0.00     0.000 C 
BRANCH   9  10
ATOM     10  C   UNL     1       0.915  24.259   4.626  1.00  0.00     0.006 C 
BRANCH  10  11
ATOM     11  C   UNL     1      -0.374  24.667   5.357  1.00  0.00     0.053 C 
BRANCH  11  12
ATOM     12  C   UNL     1      -0.867  26.009   4.911  1.00  0.00     0.041 C 
ATOM     13  O   UNL     1      -1.118  26.220   3.694  1.00  0.00    -0.550 OA
ATOM     14  O   UNL     1      -1.089  27.016   5.842  1.00  0.00    -0.550 OA
ENDBRANCH  11  12
ENDBRANCH  10  11
ENDBRANCH   9  10
ENDBRANCH   8   9
ENDBRANCH   7   8
ENDBRANCH   6   7
ENDBRANCH   5   6
ENDBRANCH   4   5
ENDBRANCH   3   4
ENDBRANCH   2   3
ENDBRANCH   1   2
BRANCH   1  15
ATOM     15  C   UNL     1       0.033  24.052  10.995  1.00  0.00     0.000 C 
BRANCH  15  16
ATOM     16  C   UNL     1      -0.234  24.778  12.324  1.00  0.00     0.000 C 
BRANCH  16  17
ATOM     17  C   UNL     1      -1.044  23.940  13.335  1.00  0.00     0.000 C 
BRANCH  17  18
ATOM     18  C   UNL     1      -1.104  24.598  14.723  1.00  0.00    -0.000 C 
BRANCH  18  19
ATOM     19  C   UNL     1       0.286  25.093  15.156  1.00  0.00    -0.000 C 
BRANCH  19  20
ATOM     20  C   UNL     1       1.205  23.956  15.630  1.00  0.00    -0.000 C 
BRANCH  20  21
ATOM     21  C   UNL     1       2.514  23.876  14.832  1.00  0.00    -0.000 C 
BRANCH  21  22
ATOM     22  C   UNL     1       3.297  25.195  14.931  1.00  0.00    -0.000 C 
BRANCH  22  23
ATOM     23  C   UNL     1       3.036  26.129  13.739  1.00  0.00    -0.000 C 
BRANCH  23  24
ATOM     24  C   UNL     1       3.102  25.399  12.385  1.00  0.00    -0.000 C 
BRANCH  24  25
ATOM     25  C   UNL     1       3.914  24.095  12.460  1.00  0.00    -0.003 C 
ATOM     26  C   UNL     1       5.348  24.263  11.961  1.00  0.00     0.004 C 
ENDBRANCH  24  25
ENDBRANCH  23  24
ENDBRANCH  22  23
ENDBRANCH  21  22
ENDBRANCH  20  21
ENDBRANCH  19  20
ENDBRANCH  18  19
ENDBRANCH  17  18
ENDBRANCH  16  17
ENDBRANCH  15  16
ENDBRANCH   1  15
TORSDOF 22
ENDMDL
MODEL 2
REMARK VINA RESULT:    -2.039      1.982      3.330
REMARK INTER + INTRA:          -5.738
REMARK INTER:                  -4.291
REMARK INTRA:                  -1.447
REMARK UNBOUND:                -1.076
REMARK SMILES CCCCCCCCCCCCCCCCCCCCCCCC(=O)[O-]
REMARK SMILES IDX 13 1 14 2 15 3 16 4 17 5 18 6 19 7 20 8 21 9 22 10 23 11
REMARK SMILES IDX 24 12 25 13 26 14 12 15 11 16 10 17 9 18 8 19 7 20 6 21 5 22
REMARK SMILES IDX 4 23 3 24 2 25 1 26
REMARK H PARENT
REMARK Flexibility Score: inf
ROOT
ATOM      1  C   UNL     1       1.010  23.876   9.544  1.00  0.00     0.000 C 
ENDROOT
BRANCH   1   2
ATOM      2  C   UNL     1       0.024  24.934   9.035  1.00  0.00     0.000 C 
BRANCH   2   3
ATOM      3  C   UNL     1       0.688  25.847   7.995  1.00  0.00     0.000 C 
BRANCH   3   4
ATOM      4  C   UNL     1      -0.335  26.618   7.146  1.00  0.00     0.000 C 
BRANCH   4   5
ATOM      5  C   UNL     1       0.056  26.677   5.658  1.00  0.00     0.000 C 
BRANCH   5   6
ATOM      6  C   UNL     1      -1.040  26.093   4.742  1.00  0.00     0.000 C 
BRANCH   6   7
ATOM      7  C   UNL     1      -1.125  24.557   4.784  1.00  0.00     0.000 C 
BRANCH   7   8
ATOM      8  C   UNL     1      -0.077  23.876   3.889  1.00  0.00     0.000 C 
BRANCH   8   9
ATOM      9  C   UNL     1       1.296  24.564   3.948  1.00  0.00     0.000 C 
BRANCH   9  10
ATOM     10  C   UNL     1       2.173  24.044   5.102  1.00  0.00     0.006 C 
BRANCH  10  11
ATOM     11  C   UNL     1       3.265  25.050   5.495  1.00  0.00     0.053 C 
BRANCH  11  12
ATOM     12  C   UNL     1       3.945  24.665   6.773  1.00  0.00     0.041 C 
ATOM     13  O   UNL     1       5.106  25.084   7.025  1.00  0.00    -0.550 OA
ATOM     14  O   UNL     1       3.283  23.875   7.706  1.00  0.00    -0.550 OA
ENDBRANCH  11  12
ENDBRANCH  10  11
ENDBRANCH   9  10
ENDBRANCH   8   9
ENDBRANCH   7   8
ENDBRANCH   6   7
ENDBRANCH   5   6
ENDBRANCH   4   5
ENDBRANCH   3   4
ENDBRANCH   2   3
ENDBRANCH   1   2
BRANCH   1  15
ATOM     15  C   UNL     1       1.397  24.144  11.005  1.00  0.00     0.000 C 
BRANCH  15  16
ATOM     16  C   UNL     1       0.325  24.938  11.769  1.00  0.00     0.000 C 
BRANCH  16  17
ATOM     17  C   UNL     1      -0.811  24.061  12.334  1.00  0.00     0.000 C 
BRANCH  17  18
ATOM     18  C   UNL     1      -0.843  24.064  13.871  1.00  0.00    -0.000 C 
BRANCH  18  19
ATOM     19  C   UNL     1       0.107  25.133  14.437  1.00  0.00    -0.000 C 
BRANCH  19  20
ATOM     20  C   UNL     1       1.012  24.596  15.558  1.00  0.00    -0.000 C 
BRANCH  20  21
ATOM     21  C   UNL     1       2.494  24.561  15.160  1.00  0.00    -0.000 C 
BRANCH  21  22
ATOM     22  C   UNL     1       2.822  25.683  14.163  1.00  0.00    -0.000 C 
BRANCH  22  23
ATOM     23  C   UNL     1       4.248  25.578  13.602  1.00  0.00    -0.000 C 
BRANCH  23  24
ATOM     24  C   UNL     1       4.464  24.308  12.758  1.00  0.00    -0.000 C 
BRANCH  24  25
ATOM     25  C   UNL     1       4.476  24.602  11.249  1.00  0.00    -0.003 C 
ATOM     26  C   UNL     1       5.602  23.875  10.514  1.00  0.00     0.004 C 
ENDBRANCH  24  25
ENDBRANCH  23  24
ENDBRANCH  22  23
ENDBRANCH  21  22
ENDBRANCH  20  21
ENDBRANCH  19  20
ENDBRANCH  18  19
ENDBRANCH  17  18
ENDBRANCH  16  17
ENDBRANCH  15  16
ENDBRANCH   1  15
TORSDOF 22
ENDMDL
MODEL 3
REMARK VINA RESULT:    -1.972      2.545      7.692
REMARK INTER + INTRA:          -5.585
REMARK INTER:                  -4.580
REMARK INTRA:                  -1.005
REMARK UNBOUND:                -1.076
REMARK SMILES CCCCCCCCCCCCCCCCCCCCCCCC(=O)[O-]
REMARK SMILES IDX 13 1 14 2 15 3 16 4 17 5 18 6 19 7 20 8 21 9 22 10 23 11
REMARK SMILES IDX 24 12 25 13 26 14 12 15 11 16 10 17 9 18 8 19 7 20 6 21 5 22
REMARK SMILES IDX 4 23 3 24 2 25 1 26
REMARK H PARENT
REMARK Flexibility Score: inf
ROOT
ATOM      1  C   UNL     1       1.040  24.734   9.555  1.00  0.00     0.000 C 
ENDROOT
BRANCH   1   2
ATOM      2  C   UNL     1      -0.011  23.940  10.340  1.00  0.00     0.000 C 
BRANCH   2   3
ATOM      3  C   UNL     1       0.241  24.043  11.851  1.00  0.00     0.000 C 
BRANCH   3   4
ATOM      4  C   UNL     1      -0.209  25.392  12.433  1.00  0.00     0.000 C 
BRANCH   4   5
ATOM      5  C   UNL     1      -1.125  25.229  13.660  1.00  0.00     0.000 C 
BRANCH   5   6
ATOM      6  C   UNL     1      -0.504  24.313  14.736  1.00  0.00     0.000 C 
BRANCH   6   7
ATOM      7  C   UNL     1       0.445  25.048  15.699  1.00  0.00     0.000 C 
BRANCH   7   8
ATOM      8  C   UNL     1       1.904  25.047  15.217  1.00  0.00     0.000 C 
BRANCH   8   9
ATOM      9  C   UNL     1       2.212  23.893  14.249  1.00  0.00     0.000 C 
BRANCH   9  10
ATOM     10  C   UNL     1       3.289  24.258  13.212  1.00  0.00     0.006 C 
BRANCH  10  11
ATOM     11  C   UNL     1       4.221  25.371  13.715  1.00  0.00     0.053 C 
BRANCH  11  12
ATOM     12  C   UNL     1       4.020  26.650  12.963  1.00  0.00     0.041 C 
ATOM     13  O   UNL     1       4.676  27.680  13.276  1.00  0.00    -0.550 OA
ATOM     14  O   UNL     1       3.137  26.700  11.891  1.00  0.00    -0.550 OA
ENDBRANCH  11  12
ENDBRANCH  10  11
ENDBRANCH   9  10
ENDBRANCH   8   9
ENDBRANCH   7   8
ENDBRANCH   6   7
ENDBRANCH   5   6
ENDBRANCH   4   5
ENDBRANCH   3   4
ENDBRANCH   2   3
ENDBRANCH   1   2
BRANCH   1  15
ATOM     15  C   UNL     1       0.375  25.798   8.670  1.00  0.00     0.000 C 
BRANCH  15  16
ATOM     16  C   UNL     1       0.030  25.275   7.266  1.00  0.00     0.000 C 
BRANCH  16  17
ATOM     17  C   UNL     1      -0.543  26.357   6.326  1.00  0.00     0.000 C 
BRANCH  17  18
ATOM     18  C   UNL     1      -0.611  25.884   4.865  1.00  0.00    -0.000 C 
BRANCH  18  19
ATOM     19  C   UNL     1       0.763  25.392   4.383  1.00  0.00    -0.000 C 
BRANCH  19  20
ATOM     20  C   UNL     1       1.131  24.006   4.938  1.00  0.00    -0.000 C 
BRANCH  20  21
ATOM     21  C   UNL     1       2.588  23.924   5.415  1.00  0.00    -0.000 C 
BRANCH  21  22
ATOM     22  C   UNL     1       2.949  25.135   6.288  1.00  0.00    -0.000 C 
BRANCH  22  23
ATOM     23  C   UNL     1       4.354  25.027   6.900  1.00  0.00    -0.000 C 
BRANCH  23  24
ATOM     24  C   UNL     1       4.354  25.215   8.428  1.00  0.00    -0.000 C 
BRANCH  24  25
ATOM     25  C   UNL     1       4.706  23.920   9.178  1.00  0.00    -0.003 C 
ATOM     26  C   UNL     1       5.650  24.157  10.356  1.00  0.00     0.004 C 
ENDBRANCH  24  25
ENDBRANCH  23  24
ENDBRANCH  22  23
ENDBRANCH  21  22
ENDBRANCH  20  21
ENDBRANCH  19  20
ENDBRANCH  18  19
ENDBRANCH  17  18
ENDBRANCH  16  17
ENDBRANCH  15  16
ENDBRANCH   1  15
TORSDOF 22
ENDMDL
MODEL 4
REMARK VINA RESULT:    -1.969      2.310      4.562
REMARK INTER + INTRA:          -5.576
REMARK INTER:                  -4.458
REMARK INTRA:                  -1.118
REMARK UNBOUND:                -1.076
REMARK SMILES CCCCCCCCCCCCCCCCCCCCCCCC(=O)[O-]
REMARK SMILES IDX 13 1 14 2 15 3 16 4 17 5 18 6 19 7 20 8 21 9 22 10 23 11
REMARK SMILES IDX 24 12 25 13 26 14 12 15 11 16 10 17 9 18 8 19 7 20 6 21 5 22
REMARK SMILES IDX 4 23 3 24 2 25 1 26
REMARK H PARENT
REMARK Flexibility Score: inf
ROOT
ATOM      1  C   UNL     1       0.765  24.672  10.978  1.00  0.00     0.000 C 
ENDROOT
BRANCH   1   2
ATOM      2  C   UNL     1      -0.555  24.440  10.233  1.00  0.00     0.000 C 
BRANCH   2   3
ATOM      3  C   UNL     1      -0.297  23.914   8.814  1.00  0.00     0.000 C 
BRANCH   3   4
ATOM      4  C   UNL     1      -1.124  24.653   7.751  1.00  0.00     0.000 C 
BRANCH   4   5
ATOM      5  C   UNL     1      -0.574  26.059   7.447  1.00  0.00     0.000 C 
BRANCH   5   6
ATOM      6  C   UNL     1      -0.149  26.214   5.971  1.00  0.00     0.000 C 
BRANCH   6   7
ATOM      7  C   UNL     1       0.015  24.874   5.233  1.00  0.00     0.000 C 
BRANCH   7   8
ATOM      8  C   UNL     1       1.146  24.899   4.193  1.00  0.00     0.000 C 
BRANCH   8   9
ATOM      9  C   UNL     1       2.351  24.037   4.601  1.00  0.00     0.000 C 
BRANCH   9  10
ATOM     10  C   UNL     1       2.958  24.465   5.949  1.00  0.00     0.006 C 
BRANCH  10  11
ATOM     11  C   UNL     1       4.403  23.968   6.115  1.00  0.00     0.053 C 
BRANCH  11  12
ATOM     12  C   UNL     1       5.141  24.739   7.166  1.00  0.00     0.041 C 
ATOM     13  O   UNL     1       5.553  25.905   6.925  1.00  0.00    -0.550 OA
ATOM     14  O   UNL     1       5.342  24.188   8.426  1.00  0.00    -0.550 OA
ENDBRANCH  11  12
ENDBRANCH  10  11
ENDBRANCH   9  10
ENDBRANCH   8   9
ENDBRANCH   7   8
ENDBRANCH   6   7
ENDBRANCH   5   6
ENDBRANCH   4   5
ENDBRANCH   3   4
ENDBRANCH   2   3
ENDBRANCH   1   2
BRANCH   1  15
ATOM     15  C   UNL     1       1.550  25.836  10.357  1.00  0.00     0.000 C 
BRANCH  15  16
ATOM     16  C   UNL     1       3.020  25.483  10.079  1.00  0.00     0.000 C 
BRANCH  16  17
ATOM     17  C   UNL     1       3.596  24.426  11.045  1.00  0.00     0.000 C 
BRANCH  17  18
ATOM     18  C   UNL     1       4.314  25.062  12.246  1.00  0.00    -0.000 C 
BRANCH  18  19
ATOM     19  C   UNL     1       4.191  24.172  13.493  1.00  0.00    -0.000 C 
BRANCH  19  20
ATOM     20  C   UNL     1       2.740  24.016  13.976  1.00  0.00    -0.000 C 
BRANCH  20  21
ATOM     21  C   UNL     1       2.238  25.237  14.758  1.00  0.00    -0.000 C 
BRANCH  21  22
ATOM     22  C   UNL     1       0.930  25.773  14.157  1.00  0.00    -0.000 C 
BRANCH  22  23
ATOM     23  C   UNL     1       0.111  24.682  13.451  1.00  0.00    -0.000 C 
BRANCH  23  24
ATOM     24  C   UNL     1      -1.017  24.118  14.335  1.00  0.00    -0.000 C 
BRANCH  24  25
ATOM     25  C   UNL     1      -1.125  24.848  15.684  1.00  0.00    -0.003 C 
ATOM     26  C   UNL     1      -1.084  23.894  16.877  1.00  0.00     0.004 C 
ENDBRANCH  24  25
ENDBRANCH  23  24
ENDBRANCH  22  23
ENDBRANCH  21  22
ENDBRANCH  20  21
ENDBRANCH  19  20
ENDBRANCH  18  19
ENDBRANCH  17  18
ENDBRANCH  16  17
ENDBRANCH  15  16
ENDBRANCH   1  15
TORSDOF 22
ENDMDL
MODEL 5
REMARK VINA RESULT:    -1.674      2.191      3.752
REMARK INTER + INTRA:          -4.903
REMARK INTER:                  -3.313
REMARK INTRA:                  -1.590
REMARK UNBOUND:                -1.076
REMARK SMILES CCCCCCCCCCCCCCCCCCCCCCCC(=O)[O-]
REMARK SMILES IDX 13 1 14 2 15 3 16 4 17 5 18 6 19 7 20 8 21 9 22 10 23 11
REMARK SMILES IDX 24 12 25 13 26 14 12 15 11 16 10 17 9 18 8 19 7 20 6 21 5 22
REMARK SMILES IDX 4 23 3 24 2 25 1 26
REMARK H PARENT
REMARK Flexibility Score: inf
ROOT
ATOM      1  C   UNL     1       0.700  24.297   8.411  1.00  0.00     0.000 C 
ENDROOT
BRANCH   1   2
ATOM      2  C   UNL     1      -0.616  24.851   7.850  1.00  0.00     0.000 C 
BRANCH   2   3
ATOM      3  C   UNL     1      -0.361  26.086   6.975  1.00  0.00     0.000 C 
BRANCH   3   4
ATOM      4  C   UNL     1      -0.622  25.817   5.485  1.00  0.00     0.000 C 
BRANCH   4   5
ATOM      5  C   UNL     1       0.442  26.458   4.575  1.00  0.00     0.000 C 
BRANCH   5   6
ATOM      6  C   UNL     1       1.148  25.418   3.678  1.00  0.00     0.000 C 
BRANCH   6   7
ATOM      7  C   UNL     1       1.275  24.029   4.329  1.00  0.00     0.000 C 
BRANCH   7   8
ATOM      8  C   UNL     1       2.552  23.878   5.171  1.00  0.00     0.000 C 
BRANCH   8   9
ATOM      9  C   UNL     1       3.169  25.229   5.567  1.00  0.00     0.000 C 
BRANCH   9  10
ATOM     10  C   UNL     1       4.447  25.074   6.410  1.00  0.00     0.006 C 
BRANCH  10  11
ATOM     11  C   UNL     1       4.272  24.052   7.543  1.00  0.00     0.053 C 
BRANCH  11  12
ATOM     12  C   UNL     1       4.423  24.683   8.893  1.00  0.00     0.041 C 
ATOM     13  O   UNL     1       5.267  24.232   9.713  1.00  0.00    -0.550 OA
ATOM     14  O   UNL     1       3.662  25.795   9.234  1.00  0.00    -0.550 OA
ENDBRANCH  11  12
ENDBRANCH  10  11
ENDBRANCH   9  10
ENDBRANCH   8   9
ENDBRANCH   7   8
ENDBRANCH   6   7
ENDBRANCH   5   6
ENDBRANCH   4   5
ENDBRANCH   3   4
ENDBRANCH   2   3
ENDBRANCH   1   2
BRANCH   1  15
ATOM     15  C   UNL     1       0.930  24.780   9.850  1.00  0.00     0.000 C 
BRANCH  15  16
ATOM     16  C   UNL     1      -0.375  25.165  10.566  1.00  0.00     0.000 C 
BRANCH  16  17
ATOM     17  C   UNL     1      -1.124  23.961  11.176  1.00  0.00     0.000 C 
BRANCH  17  18
ATOM     18  C   UNL     1      -0.947  23.875  12.700  1.00  0.00    -0.000 C 
BRANCH  18  19
ATOM     19  C   UNL     1      -0.597  25.251  13.290  1.00  0.00    -0.000 C 
BRANCH  19  20
ATOM     20  C   UNL     1      -0.679  25.282  14.825  1.00  0.00    -0.000 C 
BRANCH  20  21
ATOM     21  C   UNL     1       0.448  24.484  15.497  1.00  0.00    -0.000 C 
BRANCH  21  22
ATOM     22  C   UNL     1       1.639  24.307  14.544  1.00  0.00    -0.000 C 
BRANCH  22  23
ATOM     23  C   UNL     1       2.442  25.603  14.353  1.00  0.00    -0.000 C 
BRANCH  23  24
ATOM     24  C   UNL     1       3.051  25.724  12.944  1.00  0.00    -0.000 C 
BRANCH  24  25
ATOM     25  C   UNL     1       4.045  24.591  12.636  1.00  0.00    -0.003 C 
ATOM     26  C   UNL     1       5.028  24.340  13.779  1.00  0.00     0.004 C 
ENDBRANCH  24  25
ENDBRANCH  23  24
ENDBRANCH  22  23
ENDBRANCH  21  22
ENDBRANCH  20  21
ENDBRANCH  19  20
ENDBRANCH  18  19
ENDBRANCH  17  18
ENDBRANCH  16  17
ENDBRANCH  15  16
ENDBRANCH   1  15
TORSDOF 22
ENDMDL
MODEL 6
REMARK VINA RESULT:    -1.612      3.053      8.555
REMARK INTER + INTRA:          -4.762
REMARK INTER:                  -3.086
REMARK INTRA:                  -1.676
REMARK UNBOUND:                -1.076
REMARK SMILES CCCCCCCCCCCCCCCCCCCCCCCC(=O)[O-]
REMARK SMILES IDX 13 1 14 2 15 3 16 4 17 5 18 6 19 7 20 8 21 9 22 10 23 11
REMARK SMILES IDX 24 12 25 13 26 14 12 15 11 16 10 17 9 18 8 19 7 20 6 21 5 22
REMARK SMILES IDX 4 23 3 24 2 25 1 26
REMARK H PARENT
REMARK Flexibility Score: inf
ROOT
ATOM      1  C   UNL     1       3.657  25.883  10.199  1.00  0.00     0.000 C 
ENDROOT
BRANCH   1   2
ATOM      2  C   UNL     1       2.179  26.193   9.932  1.00  0.00     0.000 C 
BRANCH   2   3
ATOM      3  C   UNL     1       1.297  24.981  10.265  1.00  0.00     0.000 C 
BRANCH   3   4
ATOM      4  C   UNL     1      -0.110  25.387  10.732  1.00  0.00     0.000 C 
BRANCH   4   5
ATOM      5  C   UNL     1      -1.001  24.171  11.045  1.00  0.00     0.000 C 
BRANCH   5   6
ATOM      6  C   UNL     1      -1.124  23.910  12.562  1.00  0.00     0.000 C 
BRANCH   6   7
ATOM      7  C   UNL     1      -0.228  24.822  13.418  1.00  0.00     0.000 C 
BRANCH   7   8
ATOM      8  C   UNL     1      -0.131  24.361  14.881  1.00  0.00     0.000 C 
BRANCH   8   9
ATOM      9  C   UNL     1       1.214  24.721  15.532  1.00  0.00     0.000 C 
BRANCH   9  10
ATOM     10  C   UNL     1       2.418  24.140  14.769  1.00  0.00     0.006 C 
BRANCH  10  11
ATOM     11  C   UNL     1       3.680  24.999  14.943  1.00  0.00     0.053 C 
BRANCH  11  12
ATOM     12  C   UNL     1       4.253  25.422  13.625  1.00  0.00     0.041 C 
ATOM     13  O   UNL     1       4.205  26.631  13.272  1.00  0.00    -0.550 OA
ATOM     14  O   UNL     1       4.875  24.491  12.802  1.00  0.00    -0.550 OA
ENDBRANCH  11  12
ENDBRANCH  10  11
ENDBRANCH   9  10
ENDBRANCH   8   9
ENDBRANCH   7   8
ENDBRANCH   6   7
ENDBRANCH   5   6
ENDBRANCH   4   5
ENDBRANCH   3   4
ENDBRANCH   2   3
ENDBRANCH   1   2
BRANCH   1  15
ATOM     15  C   UNL     1       4.027  24.485   9.682  1.00  0.00     0.000 C 
BRANCH  15  16
ATOM     16  C   UNL     1       4.946  24.529   8.450  1.00  0.00     0.000 C 
BRANCH  16  17
ATOM     17  C   UNL     1       4.328  23.879   7.194  1.00  0.00     0.000 C 
BRANCH  17  18
ATOM     18  C   UNL     1       2.791  23.875   7.235  1.00  0.00    -0.000 C 
BRANCH  18  19
ATOM     19  C   UNL     1       2.223  25.169   6.629  1.00  0.00    -0.000 C 
BRANCH  19  20
ATOM     20  C   UNL     1       2.567  25.334   5.140  1.00  0.00    -0.000 C 
BRANCH  20  21
ATOM     21  C   UNL     1       1.674  24.484   4.225  1.00  0.00    -0.000 C 
BRANCH  21  22
ATOM     22  C   UNL     1       0.985  25.358   3.165  1.00  0.00    -0.000 C 
BRANCH  22  23
ATOM     23  C   UNL     1      -0.543  25.382   3.319  1.00  0.00    -0.000 C 
BRANCH  23  24
ATOM     24  C   UNL     1      -1.039  24.494   4.475  1.00  0.00    -0.000 C 
BRANCH  24  25
ATOM     25  C   UNL     1      -1.125  25.258   5.806  1.00  0.00    -0.003 C 
ATOM     26  C   UNL     1      -0.928  24.353   7.022  1.00  0.00     0.004 C 
ENDBRANCH  24  25
ENDBRANCH  23  24
ENDBRANCH  22  23
ENDBRANCH  21  22
ENDBRANCH  20  21
ENDBRANCH  19  20
ENDBRANCH  18  19
ENDBRANCH  17  18
ENDBRANCH  16  17
ENDBRANCH  15  16
ENDBRANCH   1  15
TORSDOF 22
ENDMDL
