MODEL 1
REMARK VINA RESULT:    -4.277      0.000      0.000
REMARK INTER + INTRA:         -12.184
REMARK INTER:                  -9.278
REMARK INTRA:                  -2.906
REMARK UNBOUND:                -2.906
REMARK SMILES CCCCCCCCCCCCCCCCCCCCCC(=O)[O-]
REMARK SMILES IDX 12 1 11 2 10 3 9 4 8 5 7 6 6 7 5 8 4 9 3 10 2 11 1 12 13 13
REMARK SMILES IDX 14 14 15 15 16 16 17 17 18 18 19 19 20 20 21 21 22 22 23 23
REMARK SMILES IDX 24 24
REMARK H PARENT
REMARK Flexibility Score: inf
ROOT
ATOM      1  C   UNL     1      44.779  27.674  16.754  1.00  0.00     0.000 C 
ENDROOT
BRANCH   1   2
ATOM      2  C   UNL     1      44.295  28.632  15.651  1.00  0.00     0.000 C 
BRANCH   2   3
ATOM      3  C   UNL     1      45.413  29.388  14.908  1.00  0.00     0.000 C 
BRANCH   3   4
ATOM      4  C   UNL     1      46.779  28.688  15.013  1.00  0.00    -0.000 C 
BRANCH   4   5
ATOM      5  C   UNL     1      47.459  28.468  13.649  1.00  0.00    -0.000 C 
BRANCH   5   6
ATOM      6  C   UNL     1      49.000  28.480  13.673  1.00  0.00    -0.000 C 
BRANCH   6   7
ATOM      7  C   UNL     1      49.612  29.560  12.767  1.00  0.00    -0.000 C 
BRANCH   7   8
ATOM      8  C   UNL     1      50.715  30.338  13.499  1.00  0.00    -0.000 C 
BRANCH   8   9
ATOM      9  C   UNL     1      50.687  30.114  15.021  1.00  0.00    -0.000 C 
BRANCH   9  10
ATOM     10  C   UNL     1      50.280  31.348  15.849  1.00  0.00    -0.000 C 
BRANCH  10  11
ATOM     11  C   UNL     1      49.453  32.382  15.055  1.00  0.00    -0.003 C 
ATOM     12  C   UNL     1      47.952  32.111  15.128  1.00  0.00     0.004 C 
ENDBRANCH  10  11
ENDBRANCH   9  10
ENDBRANCH   8   9
ENDBRANCH   7   8
ENDBRANCH   6   7
ENDBRANCH   5   6
ENDBRANCH   4   5
ENDBRANCH   3   4
ENDBRANCH   2   3
ENDBRANCH   1   2
BRANCH   1  13
ATOM     13  C   UNL     1      43.626  27.093  17.588  1.00  0.00     0.000 C 
BRANCH  13  14
ATOM     14  C   UNL     1      43.443  25.579  17.362  1.00  0.00     0.000 C 
BRANCH  14  15
ATOM     15  C   UNL     1      44.676  24.719  17.711  1.00  0.00     0.000 C 
BRANCH  15  16
ATOM     16  C   UNL     1      45.091  24.731  19.196  1.00  0.00     0.000 C 
BRANCH  16  17
ATOM     17  C   UNL     1      46.492  25.308  19.471  1.00  0.00     0.000 C 
BRANCH  17  18
ATOM     18  C   UNL     1      47.358  25.374  18.201  1.00  0.00     0.000 C 
BRANCH  18  19
ATOM     19  C   UNL     1      47.904  26.789  17.938  1.00  0.00     0.000 C 
BRANCH  19  20
ATOM     20  C   UNL     1      49.253  26.798  17.186  1.00  0.00     0.006 C 
BRANCH  20  21
ATOM     21  C   UNL     1      50.291  27.754  17.796  1.00  0.00     0.053 C 
BRANCH  21  22
ATOM     22  C   UNL     1      50.384  27.615  19.283  1.00  0.00     0.041 C 
ATOM     23  O   UNL     1      50.826  26.552  19.794  1.00  0.00    -0.550 OA
ATOM     24  O   UNL     1      49.949  28.642  20.108  1.00  0.00    -0.550 OA
ENDBRANCH  21  22
ENDBRANCH  20  21
ENDBRANCH  19  20
ENDBRANCH  18  19
ENDBRANCH  17  18
ENDBRANCH  16  17
ENDBRANCH  15  16
ENDBRANCH  14  15
ENDBRANCH  13  14
ENDBRANCH   1  13
TORSDOF 20
ENDMDL
MODEL 2
REMARK VINA RESULT:    -4.275      1.375      2.357
REMARK INTER + INTRA:         -12.180
REMARK INTER:                  -9.249
REMARK INTRA:                  -2.931
REMARK UNBOUND:                -2.906
REMARK SMILES CCCCCCCCCCCCCCCCCCCCCC(=O)[O-]
REMARK SMILES IDX 12 1 11 2 10 3 9 4 8 5 7 6 6 7 5 8 4 9 3 10 2 11 1 12 13 13
REMARK SMILES IDX 14 14 15 15 16 16 17 17 18 18 19 19 20 20 21 21 22 22 23 23
REMARK SMILES IDX 24 24
REMARK H PARENT
REMARK Flexibility Score: inf
ROOT
ATOM      1  C   UNL     1      45.404  28.712  15.991  1.00  0.00     0.000 C 
ENDROOT
BRANCH   1   2
ATOM      2  C   UNL     1      45.802  29.590  14.791  1.00  0.00     0.000 C 
BRANCH   2   3
ATOM      3  C   UNL     1      47.083  29.149  14.058  1.00  0.00     0.000 C 
BRANCH   3   4
ATOM      4  C   UNL     1      48.314  29.982  14.455  1.00  0.00    -0.000 C 
BRANCH   4   5
ATOM      5  C   UNL     1      47.957  31.360  15.041  1.00  0.00    -0.000 C 
BRANCH   5   6
ATOM      6  C   UNL     1      48.979  32.478  14.761  1.00  0.00    -0.000 C 
BRANCH   6   7
ATOM      7  C   UNL     1      49.825  32.226  13.503  1.00  0.00    -0.000 C 
BRANCH   7   8
ATOM      8  C   UNL     1      51.325  32.310  13.817  1.00  0.00    -0.000 C 
BRANCH   8   9
ATOM      9  C   UNL     1      51.894  30.983  14.349  1.00  0.00    -0.000 C 
BRANCH   9  10
ATOM     10  C   UNL     1      52.227  30.979  15.853  1.00  0.00    -0.000 C 
BRANCH  10  11
ATOM     11  C   UNL     1      51.430  29.933  16.662  1.00  0.00    -0.003 C 
ATOM     12  C   UNL     1      51.298  28.601  15.925  1.00  0.00     0.004 C 
ENDBRANCH  10  11
ENDBRANCH   9  10
ENDBRANCH   8   9
ENDBRANCH   7   8
ENDBRANCH   6   7
ENDBRANCH   5   6
ENDBRANCH   4   5
ENDBRANCH   3   4
ENDBRANCH   2   3
ENDBRANCH   1   2
BRANCH   1  13
ATOM     13  C   UNL     1      43.937  28.255  15.936  1.00  0.00     0.000 C 
BRANCH  13  14
ATOM     14  C   UNL     1      43.552  27.373  17.140  1.00  0.00     0.000 C 
BRANCH  14  15
ATOM     15  C   UNL     1      44.745  26.749  17.894  1.00  0.00     0.000 C 
BRANCH  15  16
ATOM     16  C   UNL     1      45.129  25.322  17.454  1.00  0.00     0.000 C 
BRANCH  16  17
ATOM     17  C   UNL     1      46.636  25.010  17.518  1.00  0.00     0.000 C 
BRANCH  17  18
ATOM     18  C   UNL     1      47.435  25.751  16.432  1.00  0.00     0.000 C 
BRANCH  18  19
ATOM     19  C   UNL     1      48.330  26.858  17.016  1.00  0.00     0.000 C 
BRANCH  19  20
ATOM     20  C   UNL     1      48.461  26.796  18.553  1.00  0.00     0.006 C 
BRANCH  20  21
ATOM     21  C   UNL     1      49.819  27.292  19.076  1.00  0.00     0.053 C 
BRANCH  21  22
ATOM     22  C   UNL     1      49.759  27.688  20.519  1.00  0.00     0.041 C 
ATOM     23  O   UNL     1      49.066  27.020  21.332  1.00  0.00    -0.550 OA
ATOM     24  O   UNL     1      50.438  28.814  20.961  1.00  0.00    -0.550 OA
ENDBRANCH  21  22
ENDBRANCH  20  21
ENDBRANCH  19  20
ENDBRANCH  18  19
ENDBRANCH  17  18
ENDBRANCH  16  17
ENDBRANCH  15  16
ENDBRANCH  14  15
ENDBRANCH  13  14
ENDBRANCH   1  13
TORSDOF 20
ENDMDL
MODEL 3
REMARK VINA RESULT:    -4.211      2.593      5.869
REMARK INTER + INTRA:         -12.040
REMARK INTER:                  -9.320
REMARK INTRA:                  -2.719
REMARK UNBOUND:                -2.906
REMARK SMILES CCCCCCCCCCCCCCCCCCCCCC(=O)[O-]
REMARK SMILES IDX 12 1 11 2 10 3 9 4 8 5 7 6 6 7 5 8 4 9 3 10 2 11 1 12 13 13
REMARK SMILES IDX 14 14 15 15 16 16 17 17 18 18 19 19 20 20 21 21 22 22 23 23
REMARK SMILES IDX 24 24
REMARK H PARENT
REMARK Flexibility Score: inf
ROOT
ATOM      1  C   UNL     1      49.877  31.689  15.543  1.00  0.00     0.000 C 
ENDROOT
BRANCH   1   2
ATOM      2  C   UNL     1      50.945  31.230  14.534  1.00  0.00     0.000 C 
BRANCH   2   3
ATOM      3  C   UNL     1      50.602  31.495  13.056  1.00  0.00     0.000 C 
BRANCH   3   4
ATOM      4  C   UNL     1      50.144  30.229  12.312  1.00  0.00    -0.000 C 
BRANCH   4   5
ATOM      5  C   UNL     1      50.423  28.929  13.090  1.00  0.00    -0.000 C 
BRANCH   5   6
ATOM      6  C   UNL     1      49.675  27.684  12.578  1.00  0.00    -0.000 C 
BRANCH   6   7
ATOM      7  C   UNL     1      48.386  27.387  13.361  1.00  0.00    -0.000 C 
BRANCH   7   8
ATOM      8  C   UNL     1      48.379  25.947  13.894  1.00  0.00    -0.000 C 
BRANCH   8   9
ATOM      9  C   UNL     1      48.318  25.884  15.430  1.00  0.00    -0.000 C 
BRANCH   9  10
ATOM     10  C   UNL     1      48.600  27.219  16.144  1.00  0.00    -0.000 C 
BRANCH  10  11
ATOM     11  C   UNL     1      49.192  27.051  17.560  1.00  0.00    -0.003 C 
ATOM     12  C   UNL     1      50.719  27.054  17.560  1.00  0.00     0.004 C 
ENDBRANCH  10  11
ENDBRANCH   9  10
ENDBRANCH   8   9
ENDBRANCH   7   8
ENDBRANCH   6   7
ENDBRANCH   5   6
ENDBRANCH   4   5
ENDBRANCH   3   4
ENDBRANCH   2   3
ENDBRANCH   1   2
BRANCH   1  13
ATOM     13  C   UNL     1      48.731  32.473  14.883  1.00  0.00     0.000 C 
BRANCH  13  14
ATOM     14  C   UNL     1      47.349  31.866  15.193  1.00  0.00     0.000 C 
BRANCH  14  15
ATOM     15  C   UNL     1      47.170  30.400  14.747  1.00  0.00     0.000 C 
BRANCH  15  16
ATOM     16  C   UNL     1      45.727  29.860  14.816  1.00  0.00     0.000 C 
BRANCH  16  17
ATOM     17  C   UNL     1      45.528  28.671  15.773  1.00  0.00     0.000 C 
BRANCH  17  18
ATOM     18  C   UNL     1      44.043  28.320  15.972  1.00  0.00     0.000 C 
BRANCH  18  19
ATOM     19  C   UNL     1      43.822  27.358  17.153  1.00  0.00     0.000 C 
BRANCH  19  20
ATOM     20  C   UNL     1      45.133  26.790  17.737  1.00  0.00     0.006 C 
BRANCH  20  21
ATOM     21  C   UNL     1      45.270  25.267  17.575  1.00  0.00     0.053 C 
BRANCH  21  22
ATOM     22  C   UNL     1      44.021  24.542  17.967  1.00  0.00     0.041 C 
ATOM     23  O   UNL     1      43.872  24.129  19.148  1.00  0.00    -0.550 OA
ATOM     24  O   UNL     1      43.036  24.288  17.023  1.00  0.00    -0.550 OA
ENDBRANCH  21  22
ENDBRANCH  20  21
ENDBRANCH  19  20
ENDBRANCH  18  19
ENDBRANCH  17  18
ENDBRANCH  16  17
ENDBRANCH  15  16
ENDBRANCH  14  15
ENDBRANCH  13  14
ENDBRANCH   1  13
TORSDOF 20
ENDMDL
MODEL 4
REMARK VINA RESULT:    -4.175      1.130      2.444
REMARK INTER + INTRA:         -11.963
REMARK INTER:                  -9.238
REMARK INTRA:                  -2.725
REMARK UNBOUND:                -2.906
REMARK SMILES CCCCCCCCCCCCCCCCCCCCCC(=O)[O-]
REMARK SMILES IDX 12 1 11 2 10 3 9 4 8 5 7 6 6 7 5 8 4 9 3 10 2 11 1 12 13 13
REMARK SMILES IDX 14 14 15 15 16 16 17 17 18 18 19 19 20 20 21 21 22 22 23 23
REMARK SMILES IDX 24 24
REMARK H PARENT
REMARK Flexibility Score: inf
ROOT
ATOM      1  C   UNL     1      44.056  28.271  15.920  1.00  0.00     0.000 C 
ENDROOT
BRANCH   1   2
ATOM      2  C   UNL     1      45.518  28.636  15.608  1.00  0.00     0.000 C 
BRANCH   2   3
ATOM      3  C   UNL     1      45.712  29.976  14.873  1.00  0.00     0.000 C 
BRANCH   3   4
ATOM      4  C   UNL     1      47.194  30.339  14.674  1.00  0.00    -0.000 C 
BRANCH   4   5
ATOM      5  C   UNL     1      47.546  31.756  15.165  1.00  0.00    -0.000 C 
BRANCH   5   6
ATOM      6  C   UNL     1      48.953  32.253  14.782  1.00  0.00    -0.000 C 
BRANCH   6   7
ATOM      7  C   UNL     1      50.064  31.675  15.674  1.00  0.00    -0.000 C 
BRANCH   7   8
ATOM      8  C   UNL     1      50.880  30.611  14.925  1.00  0.00    -0.000 C 
BRANCH   8   9
ATOM      9  C   UNL     1      50.452  29.177  15.283  1.00  0.00    -0.000 C 
BRANCH   9  10
ATOM     10  C   UNL     1      50.272  28.236  14.076  1.00  0.00    -0.000 C 
BRANCH  10  11
ATOM     11  C   UNL     1      49.366  27.021  14.368  1.00  0.00    -0.003 C 
ATOM     12  C   UNL     1      48.112  27.003  13.495  1.00  0.00     0.004 C 
ENDBRANCH  10  11
ENDBRANCH   9  10
ENDBRANCH   8   9
ENDBRANCH   7   8
ENDBRANCH   6   7
ENDBRANCH   5   6
ENDBRANCH   4   5
ENDBRANCH   3   4
ENDBRANCH   2   3
ENDBRANCH   1   2
BRANCH   1  13
ATOM     13  C   UNL     1      43.907  27.466  17.221  1.00  0.00     0.000 C 
BRANCH  13  14
ATOM     14  C   UNL     1      42.989  26.240  17.051  1.00  0.00     0.000 C 
BRANCH  14  15
ATOM     15  C   UNL     1      43.625  24.892  17.451  1.00  0.00     0.000 C 
BRANCH  15  16
ATOM     16  C   UNL     1      45.049  24.984  18.038  1.00  0.00     0.000 C 
BRANCH  16  17
ATOM     17  C   UNL     1      46.136  24.276  17.209  1.00  0.00     0.000 C 
BRANCH  17  18
ATOM     18  C   UNL     1      47.244  25.239  16.749  1.00  0.00     0.000 C 
BRANCH  18  19
ATOM     19  C   UNL     1      47.369  26.469  17.666  1.00  0.00     0.000 C 
BRANCH  19  20
ATOM     20  C   UNL     1      48.829  26.839  18.003  1.00  0.00     0.006 C 
BRANCH  20  21
ATOM     21  C   UNL     1      49.110  26.927  19.512  1.00  0.00     0.053 C 
BRANCH  21  22
ATOM     22  C   UNL     1      50.248  27.849  19.823  1.00  0.00     0.041 C 
ATOM     23  O   UNL     1      51.363  27.692  19.259  1.00  0.00    -0.550 OA
ATOM     24  O   UNL     1      50.090  28.859  20.761  1.00  0.00    -0.550 OA
ENDBRANCH  21  22
ENDBRANCH  20  21
ENDBRANCH  19  20
ENDBRANCH  18  19
ENDBRANCH  17  18
ENDBRANCH  16  17
ENDBRANCH  15  16
ENDBRANCH  14  15
ENDBRANCH  13  14
ENDBRANCH   1  13
TORSDOF 20
ENDMDL
MODEL 5
REMARK VINA RESULT:    -4.170      1.299      2.131
REMARK INTER + INTRA:         -11.951
REMARK INTER:                  -8.561
REMARK INTRA:                  -3.389
REMARK UNBOUND:                -2.906
REMARK SMILES CCCCCCCCCCCCCCCCCCCCCC(=O)[O-]
REMARK SMILES IDX 12 1 11 2 10 3 9 4 8 5 7 6 6 7 5 8 4 9 3 10 2 11 1 12 13 13
REMARK SMILES IDX 14 14 15 15 16 16 17 17 18 18 19 19 20 20 21 21 22 22 23 23
REMARK SMILES IDX 24 24
REMARK H PARENT
REMARK Flexibility Score: inf
ROOT
ATOM      1  C   UNL     1      45.649  28.427  15.988  1.00  0.00     0.000 C 
ENDROOT
BRANCH   1   2
ATOM      2  C   UNL     1      46.266  29.257  14.848  1.00  0.00     0.000 C 
BRANCH   2   3
ATOM      3  C   UNL     1      46.996  28.437  13.767  1.00  0.00     0.000 C 
BRANCH   3   4
ATOM      4  C   UNL     1      48.452  28.888  13.557  1.00  0.00    -0.000 C 
BRANCH   4   5
ATOM      5  C   UNL     1      49.478  27.764  13.786  1.00  0.00    -0.000 C 
BRANCH   5   6
ATOM      6  C   UNL     1      50.393  27.949  15.012  1.00  0.00    -0.000 C 
BRANCH   6   7
ATOM      7  C   UNL     1      49.949  29.098  15.932  1.00  0.00    -0.000 C 
BRANCH   7   8
ATOM      8  C   UNL     1      51.125  30.028  16.264  1.00  0.00    -0.000 C 
BRANCH   8   9
ATOM      9  C   UNL     1      50.830  31.499  15.925  1.00  0.00    -0.000 C 
BRANCH   9  10
ATOM     10  C   UNL     1      50.803  31.823  14.420  1.00  0.00    -0.000 C 
BRANCH  10  11
ATOM     11  C   UNL     1      49.470  32.438  13.942  1.00  0.00    -0.003 C 
ATOM     12  C   UNL     1      48.356  32.296  14.977  1.00  0.00     0.004 C 
ENDBRANCH  10  11
ENDBRANCH   9  10
ENDBRANCH   8   9
ENDBRANCH   7   8
ENDBRANCH   6   7
ENDBRANCH   5   6
ENDBRANCH   4   5
ENDBRANCH   3   4
ENDBRANCH   2   3
ENDBRANCH   1   2
BRANCH   1  13
ATOM     13  C   UNL     1      44.120  28.309  15.881  1.00  0.00     0.000 C 
BRANCH  13  14
ATOM     14  C   UNL     1      43.489  27.696  17.146  1.00  0.00     0.000 C 
BRANCH  14  15
ATOM     15  C   UNL     1      42.960  26.257  16.974  1.00  0.00     0.000 C 
BRANCH  15  16
ATOM     16  C   UNL     1      43.719  25.176  17.770  1.00  0.00     0.000 C 
BRANCH  16  17
ATOM     17  C   UNL     1      44.877  25.704  18.636  1.00  0.00     0.000 C 
BRANCH  17  18
ATOM     18  C   UNL     1      46.149  24.850  18.500  1.00  0.00     0.000 C 
BRANCH  18  19
ATOM     19  C   UNL     1      46.657  24.781  17.049  1.00  0.00     0.000 C 
BRANCH  19  20
ATOM     20  C   UNL     1      47.743  25.831  16.728  1.00  0.00     0.006 C 
BRANCH  20  21
ATOM     21  C   UNL     1      48.407  26.431  17.977  1.00  0.00     0.053 C 
BRANCH  21  22
ATOM     22  C   UNL     1      49.752  25.831  18.247  1.00  0.00     0.041 C 
ATOM     23  O   UNL     1      49.862  24.596  18.467  1.00  0.00    -0.550 OA
ATOM     24  O   UNL     1      50.879  26.639  18.292  1.00  0.00    -0.550 OA
ENDBRANCH  21  22
ENDBRANCH  20  21
ENDBRANCH  19  20
ENDBRANCH  18  19
ENDBRANCH  17  18
ENDBRANCH  16  17
ENDBRANCH  15  16
ENDBRANCH  14  15
ENDBRANCH  13  14
ENDBRANCH   1  13
TORSDOF 20
ENDMDL
MODEL 6
REMARK VINA RESULT:    -4.145      1.456      4.159
REMARK INTER + INTRA:         -11.898
REMARK INTER:                  -8.678
REMARK INTRA:                  -3.219
REMARK UNBOUND:                -2.906
REMARK SMILES CCCCCCCCCCCCCCCCCCCCCC(=O)[O-]
REMARK SMILES IDX 12 1 11 2 10 3 9 4 8 5 7 6 6 7 5 8 4 9 3 10 2 11 1 12 13 13
REMARK SMILES IDX 14 14 15 15 16 16 17 17 18 18 19 19 20 20 21 21 22 22 23 23
REMARK SMILES IDX 24 24
REMARK H PARENT
REMARK Flexibility Score: inf
ROOT
ATOM      1  C   UNL     1      48.168  32.076  15.242  1.00  0.00     0.000 C 
ENDROOT
BRANCH   1   2
ATOM      2  C   UNL     1      49.645  32.383  14.938  1.00  0.00     0.000 C 
BRANCH   2   3
ATOM      3  C   UNL     1      50.006  32.431  13.441  1.00  0.00     0.000 C 
BRANCH   3   4
ATOM      4  C   UNL     1      51.467  32.035  13.166  1.00  0.00    -0.000 C 
BRANCH   4   5
ATOM      5  C   UNL     1      51.629  30.574  12.709  1.00  0.00    -0.000 C 
BRANCH   5   6
ATOM      6  C   UNL     1      50.350  29.910  12.164  1.00  0.00    -0.000 C 
BRANCH   6   7
ATOM      7  C   UNL     1      50.008  28.586  12.868  1.00  0.00    -0.000 C 
BRANCH   7   8
ATOM      8  C   UNL     1      50.990  28.296  14.012  1.00  0.00    -0.000 C 
BRANCH   8   9
ATOM      9  C   UNL     1      50.289  28.168  15.375  1.00  0.00    -0.000 C 
BRANCH   9  10
ATOM     10  C   UNL     1      50.662  29.257  16.399  1.00  0.00    -0.000 C 
BRANCH  10  11
ATOM     11  C   UNL     1      52.179  29.365  16.664  1.00  0.00    -0.003 C 
ATOM     12  C   UNL     1      52.734  30.749  16.333  1.00  0.00     0.004 C 
ENDBRANCH  10  11
ENDBRANCH   9  10
ENDBRANCH   8   9
ENDBRANCH   7   8
ENDBRANCH   6   7
ENDBRANCH   5   6
ENDBRANCH   4   5
ENDBRANCH   3   4
ENDBRANCH   2   3
ENDBRANCH   1   2
BRANCH   1  13
ATOM     13  C   UNL     1      47.723  30.702  14.714  1.00  0.00     0.000 C 
BRANCH  13  14
ATOM     14  C   UNL     1      46.220  30.446  14.937  1.00  0.00     0.000 C 
BRANCH  14  15
ATOM     15  C   UNL     1      45.810  28.959  14.948  1.00  0.00     0.000 C 
BRANCH  15  16
ATOM     16  C   UNL     1      44.433  28.658  15.575  1.00  0.00     0.000 C 
BRANCH  16  17
ATOM     17  C   UNL     1      44.461  27.655  16.743  1.00  0.00     0.000 C 
BRANCH  17  18
ATOM     18  C   UNL     1      45.891  27.227  17.116  1.00  0.00     0.000 C 
BRANCH  18  19
ATOM     19  C   UNL     1      45.961  25.762  17.583  1.00  0.00     0.000 C 
BRANCH  19  20
ATOM     20  C   UNL     1      47.358  25.344  18.088  1.00  0.00     0.006 C 
BRANCH  20  21
ATOM     21  C   UNL     1      48.401  26.470  18.017  1.00  0.00     0.053 C 
BRANCH  21  22
ATOM     22  C   UNL     1      48.934  26.835  19.368  1.00  0.00     0.041 C 
ATOM     23  O   UNL     1      48.579  26.184  20.386  1.00  0.00    -0.550 OA
ATOM     24  O   UNL     1      49.793  27.916  19.510  1.00  0.00    -0.550 OA
ENDBRANCH  21  22
ENDBRANCH  20  21
ENDBRANCH  19  20
ENDBRANCH  18  19
ENDBRANCH  17  18
ENDBRANCH  16  17
ENDBRANCH  15  16
ENDBRANCH  14  15
ENDBRANCH  13  14
ENDBRANCH   1  13
TORSDOF 20
ENDMDL
MODEL 7
REMARK VINA RESULT:    -4.137      2.669      5.530
REMARK INTER + INTRA:         -11.880
REMARK INTER:                  -8.604
REMARK INTRA:                  -3.276
REMARK UNBOUND:                -2.906
REMARK SMILES CCCCCCCCCCCCCCCCCCCCCC(=O)[O-]
REMARK SMILES IDX 12 1 11 2 10 3 9 4 8 5 7 6 6 7 5 8 4 9 3 10 2 11 1 12 13 13
REMARK SMILES IDX 14 14 15 15 16 16 17 17 18 18 19 19 20 20 21 21 22 22 23 23
REMARK SMILES IDX 24 24
REMARK H PARENT
REMARK Flexibility Score: inf
ROOT
ATOM      1  C   UNL     1      50.567  30.242  16.450  1.00  0.00     0.000 C 
ENDROOT
BRANCH   1   2
ATOM      2  C   UNL     1      50.830  31.628  15.833  1.00  0.00     0.000 C 
BRANCH   2   3
ATOM      3  C   UNL     1      49.580  32.350  15.298  1.00  0.00     0.000 C 
BRANCH   3   4
ATOM      4  C   UNL     1      49.607  32.541  13.771  1.00  0.00    -0.000 C 
BRANCH   4   5
ATOM      5  C   UNL     1      51.004  32.340  13.156  1.00  0.00    -0.000 C 
BRANCH   5   6
ATOM      6  C   UNL     1      51.095  31.248  12.073  1.00  0.00    -0.000 C 
BRANCH   6   7
ATOM      7  C   UNL     1      51.176  29.826  12.651  1.00  0.00    -0.000 C 
BRANCH   7   8
ATOM      8  C   UNL     1      49.864  29.060  12.427  1.00  0.00    -0.000 C 
BRANCH   8   9
ATOM      9  C   UNL     1      49.126  28.752  13.742  1.00  0.00    -0.000 C 
BRANCH   9  10
ATOM     10  C   UNL     1      47.590  28.808  13.650  1.00  0.00    -0.000 C 
BRANCH  10  11
ATOM     11  C   UNL     1      46.947  29.820  14.622  1.00  0.00    -0.003 C 
ATOM     12  C   UNL     1      45.484  29.496  14.920  1.00  0.00     0.004 C 
ENDBRANCH  10  11
ENDBRANCH   9  10
ENDBRANCH   8   9
ENDBRANCH   7   8
ENDBRANCH   6   7
ENDBRANCH   5   6
ENDBRANCH   4   5
ENDBRANCH   3   4
ENDBRANCH   2   3
ENDBRANCH   1   2
BRANCH   1  13
ATOM     13  C   UNL     1      51.793  29.316  16.381  1.00  0.00     0.000 C 
BRANCH  13  14
ATOM     14  C   UNL     1      51.462  27.872  16.806  1.00  0.00     0.000 C 
BRANCH  14  15
ATOM     15  C   UNL     1      50.609  27.754  18.086  1.00  0.00     0.000 C 
BRANCH  15  16
ATOM     16  C   UNL     1      49.216  27.118  17.895  1.00  0.00     0.000 C 
BRANCH  16  17
ATOM     17  C   UNL     1      48.907  26.661  16.458  1.00  0.00     0.000 C 
BRANCH  17  18
ATOM     18  C   UNL     1      47.481  26.102  16.314  1.00  0.00     0.000 C 
BRANCH  18  19
ATOM     19  C   UNL     1      46.463  26.865  17.180  1.00  0.00     0.000 C 
BRANCH  19  20
ATOM     20  C   UNL     1      45.660  25.953  18.133  1.00  0.00     0.006 C 
BRANCH  20  21
ATOM     21  C   UNL     1      44.234  26.455  18.411  1.00  0.00     0.053 C 
BRANCH  21  22
ATOM     22  C   UNL     1      43.304  26.176  17.271  1.00  0.00     0.041 C 
ATOM     23  O   UNL     1      42.934  27.111  16.512  1.00  0.00    -0.550 OA
ATOM     24  O   UNL     1      42.816  24.893  17.068  1.00  0.00    -0.550 OA
ENDBRANCH  21  22
ENDBRANCH  20  21
ENDBRANCH  19  20
ENDBRANCH  18  19
ENDBRANCH  17  18
ENDBRANCH  16  17
ENDBRANCH  15  16
ENDBRANCH  14  15
ENDBRANCH  13  14
ENDBRANCH   1  13
TORSDOF 20
ENDMDL
MODEL 8
REMARK VINA RESULT:    -4.125      1.426      6.198
REMARK INTER + INTRA:         -11.854
REMARK INTER:                  -8.753
REMARK INTRA:                  -3.101
REMARK UNBOUND:                -2.906
REMARK SMILES CCCCCCCCCCCCCCCCCCCCCC(=O)[O-]
REMARK SMILES IDX 12 1 11 2 10 3 9 4 8 5 7 6 6 7 5 8 4 9 3 10 2 11 1 12 13 13
REMARK SMILES IDX 14 14 15 15 16 16 17 17 18 18 19 19 20 20 21 21 22 22 23 23
REMARK SMILES IDX 24 24
REMARK H PARENT
REMARK Flexibility Score: inf
ROOT
ATOM      1  C   UNL     1      45.523  28.881  15.876  1.00  0.00     0.000 C 
ENDROOT
BRANCH   1   2
ATOM      2  C   UNL     1      44.033  28.592  15.622  1.00  0.00     0.000 C 
BRANCH   2   3
ATOM      3  C   UNL     1      43.453  27.411  16.424  1.00  0.00     0.000 C 
BRANCH   3   4
ATOM      4  C   UNL     1      44.030  27.316  17.847  1.00  0.00    -0.000 C 
BRANCH   4   5
ATOM      5  C   UNL     1      43.754  25.963  18.529  1.00  0.00    -0.000 C 
BRANCH   5   6
ATOM      6  C   UNL     1      44.395  24.740  17.847  1.00  0.00    -0.000 C 
BRANCH   6   7
ATOM      7  C   UNL     1      45.304  23.930  18.786  1.00  0.00    -0.000 C 
BRANCH   7   8
ATOM      8  C   UNL     1      46.081  24.852  19.738  1.00  0.00    -0.000 C 
BRANCH   8   9
ATOM      9  C   UNL     1      47.605  24.701  19.595  1.00  0.00    -0.000 C 
BRANCH   9  10
ATOM     10  C   UNL     1      48.331  25.951  19.061  1.00  0.00    -0.000 C 
BRANCH  10  11
ATOM     11  C   UNL     1      47.605  26.634  17.882  1.00  0.00    -0.003 C 
ATOM     12  C   UNL     1      47.814  25.897  16.561  1.00  0.00     0.004 C 
ENDBRANCH  10  11
ENDBRANCH   9  10
ENDBRANCH   8   9
ENDBRANCH   7   8
ENDBRANCH   6   7
ENDBRANCH   5   6
ENDBRANCH   4   5
ENDBRANCH   3   4
ENDBRANCH   2   3
ENDBRANCH   1   2
BRANCH   1  13
ATOM     13  C   UNL     1      46.381  28.750  14.606  1.00  0.00     0.000 C 
BRANCH  13  14
ATOM     14  C   UNL     1      47.402  29.896  14.468  1.00  0.00     0.000 C 
BRANCH  14  15
ATOM     15  C   UNL     1      46.989  31.218  15.146  1.00  0.00     0.000 C 
BRANCH  15  16
ATOM     16  C   UNL     1      48.091  32.295  15.221  1.00  0.00     0.000 C 
BRANCH  16  17
ATOM     17  C   UNL     1      49.130  32.236  14.086  1.00  0.00     0.000 C 
BRANCH  17  18
ATOM     18  C   UNL     1      50.574  32.177  14.614  1.00  0.00     0.000 C 
BRANCH  18  19
ATOM     19  C   UNL     1      50.670  31.471  15.979  1.00  0.00     0.000 C 
BRANCH  19  20
ATOM     20  C   UNL     1      51.428  30.127  15.924  1.00  0.00     0.006 C 
BRANCH  20  21
ATOM     21  C   UNL     1      50.524  28.901  16.131  1.00  0.00     0.053 C 
BRANCH  21  22
ATOM     22  C   UNL     1      50.864  28.151  17.381  1.00  0.00     0.041 C 
ATOM     23  O   UNL     1      50.771  28.715  18.503  1.00  0.00    -0.550 OA
ATOM     24  O   UNL     1      51.319  26.842  17.306  1.00  0.00    -0.550 OA
ENDBRANCH  21  22
ENDBRANCH  20  21
ENDBRANCH  19  20
ENDBRANCH  18  19
ENDBRANCH  17  18
ENDBRANCH  16  17
ENDBRANCH  15  16
ENDBRANCH  14  15
ENDBRANCH  13  14
ENDBRANCH   1  13
TORSDOF 20
ENDMDL
MODEL 9
REMARK VINA RESULT:    -4.101      1.008      2.147
REMARK INTER + INTRA:         -11.803
REMARK INTER:                  -9.008
REMARK INTRA:                  -2.794
REMARK UNBOUND:                -2.906
REMARK SMILES CCCCCCCCCCCCCCCCCCCCCC(=O)[O-]
REMARK SMILES IDX 12 1 11 2 10 3 9 4 8 5 7 6 6 7 5 8 4 9 3 10 2 11 1 12 13 13
REMARK SMILES IDX 14 14 15 15 16 16 17 17 18 18 19 19 20 20 21 21 22 22 23 23
REMARK SMILES IDX 24 24
REMARK H PARENT
REMARK Flexibility Score: inf
ROOT
ATOM      1  C   UNL     1      45.836  29.379  14.702  1.00  0.00     0.000 C 
ENDROOT
BRANCH   1   2
ATOM      2  C   UNL     1      47.140  28.859  14.070  1.00  0.00     0.000 C 
BRANCH   2   3
ATOM      3  C   UNL     1      48.181  28.325  15.073  1.00  0.00     0.000 C 
BRANCH   3   4
ATOM      4  C   UNL     1      49.266  27.463  14.404  1.00  0.00    -0.000 C 
BRANCH   4   5
ATOM      5  C   UNL     1      49.554  27.865  12.946  1.00  0.00    -0.000 C 
BRANCH   5   6
ATOM      6  C   UNL     1      50.699  28.878  12.757  1.00  0.00    -0.000 C 
BRANCH   6   7
ATOM      7  C   UNL     1      50.243  30.192  12.101  1.00  0.00    -0.000 C 
BRANCH   7   8
ATOM      8  C   UNL     1      50.734  31.409  12.898  1.00  0.00    -0.000 C 
BRANCH   8   9
ATOM      9  C   UNL     1      50.970  31.089  14.384  1.00  0.00    -0.000 C 
BRANCH   9  10
ATOM     10  C   UNL     1      49.895  31.637  15.342  1.00  0.00    -0.000 C 
BRANCH  10  11
ATOM     11  C   UNL     1      48.752  32.390  14.627  1.00  0.00    -0.003 C 
ATOM     12  C   UNL     1      47.440  32.337  15.406  1.00  0.00     0.004 C 
ENDBRANCH  10  11
ENDBRANCH   9  10
ENDBRANCH   8   9
ENDBRANCH   7   8
ENDBRANCH   6   7
ENDBRANCH   5   6
ENDBRANCH   4   5
ENDBRANCH   3   4
ENDBRANCH   2   3
ENDBRANCH   1   2
BRANCH   1  13
ATOM     13  C   UNL     1      45.449  28.620  15.981  1.00  0.00     0.000 C 
BRANCH  13  14
ATOM     14  C   UNL     1      43.958  28.228  16.002  1.00  0.00     0.000 C 
BRANCH  14  15
ATOM     15  C   UNL     1      43.507  27.464  17.264  1.00  0.00     0.000 C 
BRANCH  15  16
ATOM     16  C   UNL     1      43.320  25.944  17.084  1.00  0.00     0.000 C 
BRANCH  16  17
ATOM     17  C   UNL     1      44.265  25.072  17.931  1.00  0.00     0.000 C 
BRANCH  17  18
ATOM     18  C   UNL     1      45.373  25.896  18.610  1.00  0.00     0.000 C 
BRANCH  18  19
ATOM     19  C   UNL     1      46.702  25.840  17.836  1.00  0.00     0.000 C 
BRANCH  19  20
ATOM     20  C   UNL     1      47.943  25.754  18.751  1.00  0.00     0.006 C 
BRANCH  20  21
ATOM     21  C   UNL     1      49.015  26.810  18.436  1.00  0.00     0.053 C 
BRANCH  21  22
ATOM     22  C   UNL     1      49.724  27.281  19.667  1.00  0.00     0.041 C 
ATOM     23  O   UNL     1      49.995  26.469  20.592  1.00  0.00    -0.550 OA
ATOM     24  O   UNL     1      50.055  28.620  19.812  1.00  0.00    -0.550 OA
ENDBRANCH  21  22
ENDBRANCH  20  21
ENDBRANCH  19  20
ENDBRANCH  18  19
ENDBRANCH  17  18
ENDBRANCH  16  17
ENDBRANCH  15  16
ENDBRANCH  14  15
ENDBRANCH  13  14
ENDBRANCH   1  13
TORSDOF 20
ENDMDL
