MODEL 1
REMARK VINA RESULT:    -4.042      0.000      0.000
REMARK INTER + INTRA:          -8.131
REMARK INTER:                  -6.877
REMARK INTRA:                  -1.254
REMARK UNBOUND:                -1.254
REMARK SMILES CCCCCCCCCCCCCC(=O)[O-]
REMARK SMILES IDX 8 1 9 2 10 3 11 4 12 5 13 6 14 7 15 8 16 9 7 10 6 11 5 12
REMARK SMILES IDX 4 13 3 14 2 15 1 16
REMARK H PARENT
REMARK Flexibility Score: inf
ROOT
ATOM      1  C   UNL     1      18.112  44.532  20.403  1.00  0.00     0.000 C 
ENDROOT
BRANCH   1   2
ATOM      2  C   UNL     1      19.523  45.128  20.260  1.00  0.00     0.000 C 
BRANCH   2   3
ATOM      3  C   UNL     1      19.558  46.638  20.538  1.00  0.00     0.000 C 
BRANCH   3   4
ATOM      4  C   UNL     1      18.140  47.218  20.598  1.00  0.00     0.000 C 
BRANCH   4   5
ATOM      5  C   UNL     1      18.172  48.727  20.885  1.00  0.00     0.006 C 
BRANCH   5   6
ATOM      6  C   UNL     1      19.199  49.091  21.966  1.00  0.00     0.053 C 
BRANCH   6   7
ATOM      7  C   UNL     1      20.082  50.221  21.535  1.00  0.00     0.041 C 
ATOM      8  O   UNL     1      20.924  50.708  22.335  1.00  0.00    -0.550 OA
ATOM      9  O   UNL     1      20.001  50.714  20.238  1.00  0.00    -0.550 OA
ENDBRANCH   6   7
ENDBRANCH   5   6
ENDBRANCH   4   5
ENDBRANCH   3   4
ENDBRANCH   2   3
ENDBRANCH   1   2
BRANCH   1  10
ATOM     10  C   UNL     1      17.713  43.662  19.203  1.00  0.00     0.000 C 
BRANCH  10  11
ATOM     11  C   UNL     1      16.468  44.229  18.505  1.00  0.00    -0.000 C 
BRANCH  11  12
ATOM     12  C   UNL     1      15.392  44.706  19.496  1.00  0.00    -0.000 C 
BRANCH  12  13
ATOM     13  C   UNL     1      14.811  46.105  19.207  1.00  0.00    -0.000 C 
BRANCH  13  14
ATOM     14  C   UNL     1      15.217  46.714  17.851  1.00  0.00    -0.000 C 
BRANCH  14  15
ATOM     15  C   UNL     1      14.046  47.012  16.899  1.00  0.00    -0.003 C 
ATOM     16  C   UNL     1      12.688  46.634  17.489  1.00  0.00     0.004 C 
ENDBRANCH  14  15
ENDBRANCH  13  14
ENDBRANCH  12  13
ENDBRANCH  11  12
ENDBRANCH  10  11
ENDBRANCH   1  10
TORSDOF 12
ENDMDL
MODEL 2
REMARK VINA RESULT:    -3.979      2.851      4.957
REMARK INTER + INTRA:          -8.024
REMARK INTER:                  -7.161
REMARK INTRA:                  -0.863
REMARK UNBOUND:                -1.254
REMARK SMILES CCCCCCCCCCCCCC(=O)[O-]
REMARK SMILES IDX 8 1 9 2 10 3 11 4 12 5 13 6 14 7 15 8 16 9 7 10 6 11 5 12
REMARK SMILES IDX 4 13 3 14 2 15 1 16
REMARK H PARENT
REMARK Flexibility Score: inf
ROOT
ATOM      1  C   UNL     1      13.194  46.616  17.389  1.00  0.00     0.000 C 
ENDROOT
BRANCH   1   2
ATOM      2  C   UNL     1      14.635  46.542  17.921  1.00  0.00     0.000 C 
BRANCH   2   3
ATOM      3  C   UNL     1      15.163  45.102  18.004  1.00  0.00     0.000 C 
BRANCH   3   4
ATOM      4  C   UNL     1      16.151  44.946  19.166  1.00  0.00     0.000 C 
BRANCH   4   5
ATOM      5  C   UNL     1      16.052  46.131  20.138  1.00  0.00     0.006 C 
BRANCH   5   6
ATOM      6  C   UNL     1      17.220  46.169  21.131  1.00  0.00     0.053 C 
BRANCH   6   7
ATOM      7  C   UNL     1      18.438  46.803  20.533  1.00  0.00     0.041 C 
ATOM      8  O   UNL     1      19.466  46.110  20.307  1.00  0.00    -0.550 OA
ATOM      9  O   UNL     1      18.428  48.151  20.195  1.00  0.00    -0.550 OA
ENDBRANCH   6   7
ENDBRANCH   5   6
ENDBRANCH   4   5
ENDBRANCH   3   4
ENDBRANCH   2   3
ENDBRANCH   1   2
BRANCH   1  10
ATOM     10  C   UNL     1      12.266  45.587  18.049  1.00  0.00     0.000 C 
BRANCH  10  11
ATOM     11  C   UNL     1      11.724  46.115  19.386  1.00  0.00    -0.000 C 
BRANCH  11  12
ATOM     12  C   UNL     1      10.227  46.469  19.326  1.00  0.00    -0.000 C 
BRANCH  12  13
ATOM     13  C   UNL     1       9.915  47.977  19.246  1.00  0.00    -0.000 C 
BRANCH  13  14
ATOM     14  C   UNL     1      10.260  48.646  17.901  1.00  0.00    -0.000 C 
BRANCH  14  15
ATOM     15  C   UNL     1       9.493  49.948  17.611  1.00  0.00    -0.003 C 
ATOM     16  C   UNL     1       8.043  49.704  17.190  1.00  0.00     0.004 C 
ENDBRANCH  14  15
ENDBRANCH  13  14
ENDBRANCH  12  13
ENDBRANCH  11  12
ENDBRANCH  10  11
ENDBRANCH   1  10
TORSDOF 12
ENDMDL
MODEL 3
REMARK VINA RESULT:    -3.943      1.700      2.963
REMARK INTER + INTRA:          -7.963
REMARK INTER:                  -6.519
REMARK INTRA:                  -1.444
REMARK UNBOUND:                -1.254
REMARK SMILES CCCCCCCCCCCCCC(=O)[O-]
REMARK SMILES IDX 8 1 9 2 10 3 11 4 12 5 13 6 14 7 15 8 16 9 7 10 6 11 5 12
REMARK SMILES IDX 4 13 3 14 2 15 1 16
REMARK H PARENT
REMARK Flexibility Score: inf
ROOT
ATOM      1  C   UNL     1      16.179  44.239  18.526  1.00  0.00     0.000 C 
ENDROOT
BRANCH   1   2
ATOM      2  C   UNL     1      17.367  43.268  18.621  1.00  0.00     0.000 C 
BRANCH   2   3
ATOM      3  C   UNL     1      17.881  43.101  20.059  1.00  0.00     0.000 C 
BRANCH   3   4
ATOM      4  C   UNL     1      18.977  44.127  20.373  1.00  0.00     0.000 C 
BRANCH   4   5
ATOM      5  C   UNL     1      18.448  45.233  21.298  1.00  0.00     0.006 C 
BRANCH   5   6
ATOM      6  C   UNL     1      18.223  46.556  20.554  1.00  0.00     0.053 C 
BRANCH   6   7
ATOM      7  C   UNL     1      19.322  47.538  20.821  1.00  0.00     0.041 C 
ATOM      8  O   UNL     1      20.455  47.379  20.294  1.00  0.00    -0.550 OA
ATOM      9  O   UNL     1      19.086  48.647  21.625  1.00  0.00    -0.550 OA
ENDBRANCH   6   7
ENDBRANCH   5   6
ENDBRANCH   4   5
ENDBRANCH   3   4
ENDBRANCH   2   3
ENDBRANCH   1   2
BRANCH   1  10
ATOM     10  C   UNL     1      15.032  43.866  19.477  1.00  0.00     0.000 C 
BRANCH  10  11
ATOM     11  C   UNL     1      14.705  45.030  20.424  1.00  0.00    -0.000 C 
BRANCH  11  12
ATOM     12  C   UNL     1      13.193  45.204  20.656  1.00  0.00    -0.000 C 
BRANCH  12  13
ATOM     13  C   UNL     1      12.543  46.372  19.888  1.00  0.00    -0.000 C 
BRANCH  13  14
ATOM     14  C   UNL     1      11.943  46.001  18.517  1.00  0.00    -0.000 C 
BRANCH  14  15
ATOM     15  C   UNL     1      12.773  46.455  17.304  1.00  0.00    -0.003 C 
ATOM     16  C   UNL     1      13.130  45.305  16.362  1.00  0.00     0.004 C 
ENDBRANCH  14  15
ENDBRANCH  13  14
ENDBRANCH  12  13
ENDBRANCH  11  12
ENDBRANCH  10  11
ENDBRANCH   1  10
TORSDOF 12
ENDMDL
MODEL 4
REMARK VINA RESULT:    -3.921      1.754      2.564
REMARK INTER + INTRA:          -7.926
REMARK INTER:                  -6.478
REMARK INTRA:                  -1.448
REMARK UNBOUND:                -1.254
REMARK SMILES CCCCCCCCCCCCCC(=O)[O-]
REMARK SMILES IDX 8 1 9 2 10 3 11 4 12 5 13 6 14 7 15 8 16 9 7 10 6 11 5 12
REMARK SMILES IDX 4 13 3 14 2 15 1 16
REMARK H PARENT
REMARK Flexibility Score: inf
ROOT
ATOM      1  C   UNL     1      16.933  42.869  20.294  1.00  0.00     0.000 C 
ENDROOT
BRANCH   1   2
ATOM      2  C   UNL     1      18.184  42.748  21.180  1.00  0.00     0.000 C 
BRANCH   2   3
ATOM      3  C   UNL     1      18.677  44.107  21.698  1.00  0.00     0.000 C 
BRANCH   3   4
ATOM      4  C   UNL     1      20.081  44.420  21.167  1.00  0.00     0.000 C 
BRANCH   4   5
ATOM      5  C   UNL     1      20.032  45.518  20.094  1.00  0.00     0.006 C 
BRANCH   5   6
ATOM      6  C   UNL     1      20.213  46.921  20.687  1.00  0.00     0.053 C 
BRANCH   6   7
ATOM      7  C   UNL     1      18.989  47.764  20.504  1.00  0.00     0.041 C 
ATOM      8  O   UNL     1      18.044  47.697  21.334  1.00  0.00    -0.550 OA
ATOM      9  O   UNL     1      18.905  48.649  19.436  1.00  0.00    -0.550 OA
ENDBRANCH   6   7
ENDBRANCH   5   6
ENDBRANCH   4   5
ENDBRANCH   3   4
ENDBRANCH   2   3
ENDBRANCH   1   2
BRANCH   1  10
ATOM     10  C   UNL     1      17.263  43.305  18.859  1.00  0.00     0.000 C 
BRANCH  10  11
ATOM     11  C   UNL     1      16.264  44.359  18.362  1.00  0.00    -0.000 C 
BRANCH  11  12
ATOM     12  C   UNL     1      16.065  45.513  19.361  1.00  0.00    -0.000 C 
BRANCH  12  13
ATOM     13  C   UNL     1      14.597  45.832  19.707  1.00  0.00    -0.000 C 
BRANCH  13  14
ATOM     14  C   UNL     1      13.571  44.780  19.241  1.00  0.00    -0.000 C 
BRANCH  14  15
ATOM     15  C   UNL     1      12.498  45.308  18.273  1.00  0.00    -0.003 C 
ATOM     16  C   UNL     1      12.988  46.480  17.422  1.00  0.00     0.004 C 
ENDBRANCH  14  15
ENDBRANCH  13  14
ENDBRANCH  12  13
ENDBRANCH  11  12
ENDBRANCH  10  11
ENDBRANCH   1  10
TORSDOF 12
ENDMDL
MODEL 5
REMARK VINA RESULT:    -3.864      1.120      2.264
REMARK INTER + INTRA:          -7.829
REMARK INTER:                  -6.589
REMARK INTRA:                  -1.240
REMARK UNBOUND:                -1.254
REMARK SMILES CCCCCCCCCCCCCC(=O)[O-]
REMARK SMILES IDX 8 1 9 2 10 3 11 4 12 5 13 6 14 7 15 8 16 9 7 10 6 11 5 12
REMARK SMILES IDX 4 13 3 14 2 15 1 16
REMARK H PARENT
REMARK Flexibility Score: inf
ROOT
ATOM      1  C   UNL     1      17.069  43.481  19.082  1.00  0.00     0.000 C 
ENDROOT
BRANCH   1   2
ATOM      2  C   UNL     1      17.313  44.285  20.370  1.00  0.00     0.000 C 
BRANCH   2   3
ATOM      3  C   UNL     1      18.804  44.546  20.633  1.00  0.00     0.000 C 
BRANCH   3   4
ATOM      4  C   UNL     1      19.114  46.047  20.589  1.00  0.00     0.000 C 
BRANCH   4   5
ATOM      5  C   UNL     1      17.865  46.878  20.918  1.00  0.00     0.006 C 
BRANCH   5   6
ATOM      6  C   UNL     1      18.210  48.330  21.276  1.00  0.00     0.053 C 
BRANCH   6   7
ATOM      7  C   UNL     1      19.088  48.964  20.242  1.00  0.00     0.041 C 
ATOM      8  O   UNL     1      18.633  49.222  19.096  1.00  0.00    -0.550 OA
ATOM      9  O   UNL     1      20.400  49.301  20.553  1.00  0.00    -0.550 OA
ENDBRANCH   6   7
ENDBRANCH   5   6
ENDBRANCH   4   5
ENDBRANCH   3   4
ENDBRANCH   2   3
ENDBRANCH   1   2
BRANCH   1  10
ATOM     10  C   UNL     1      16.205  44.239  18.065  1.00  0.00     0.000 C 
BRANCH  10  11
ATOM     11  C   UNL     1      15.298  45.259  18.768  1.00  0.00    -0.000 C 
BRANCH  11  12
ATOM     12  C   UNL     1      15.351  46.654  18.119  1.00  0.00    -0.000 C 
BRANCH  12  13
ATOM     13  C   UNL     1      14.245  46.935  17.082  1.00  0.00    -0.000 C 
BRANCH  13  14
ATOM     14  C   UNL     1      12.980  46.064  17.222  1.00  0.00    -0.000 C 
BRANCH  14  15
ATOM     15  C   UNL     1      11.883  46.658  18.122  1.00  0.00    -0.003 C 
ATOM     16  C   UNL     1      11.493  45.733  19.275  1.00  0.00     0.004 C 
ENDBRANCH  14  15
ENDBRANCH  13  14
ENDBRANCH  12  13
ENDBRANCH  11  12
ENDBRANCH  10  11
ENDBRANCH   1  10
TORSDOF 12
ENDMDL
MODEL 6
REMARK VINA RESULT:    -3.861      3.303      5.573
REMARK INTER + INTRA:          -7.823
REMARK INTER:                  -6.461
REMARK INTRA:                  -1.362
REMARK UNBOUND:                -1.254
REMARK SMILES CCCCCCCCCCCCCC(=O)[O-]
REMARK SMILES IDX 8 1 9 2 10 3 11 4 12 5 13 6 14 7 15 8 16 9 7 10 6 11 5 12
REMARK SMILES IDX 4 13 3 14 2 15 1 16
REMARK H PARENT
REMARK Flexibility Score: inf
ROOT
ATOM      1  C   UNL     1      19.061  42.168  21.151  1.00  0.00     0.000 C 
ENDROOT
BRANCH   1   2
ATOM      2  C   UNL     1      17.708  42.075  20.429  1.00  0.00     0.000 C 
BRANCH   2   3
ATOM      3  C   UNL     1      17.753  42.660  19.009  1.00  0.00     0.000 C 
BRANCH   3   4
ATOM      4  C   UNL     1      16.774  43.832  18.867  1.00  0.00     0.000 C 
BRANCH   4   5
ATOM      5  C   UNL     1      15.993  44.059  20.169  1.00  0.00     0.006 C 
BRANCH   5   6
ATOM      6  C   UNL     1      15.828  45.549  20.497  1.00  0.00     0.053 C 
BRANCH   6   7
ATOM      7  C   UNL     1      14.473  46.056  20.112  1.00  0.00     0.041 C 
ATOM      8  O   UNL     1      13.631  46.352  21.001  1.00  0.00    -0.550 OA
ATOM      9  O   UNL     1      14.150  46.235  18.772  1.00  0.00    -0.550 OA
ENDBRANCH   6   7
ENDBRANCH   5   6
ENDBRANCH   4   5
ENDBRANCH   3   4
ENDBRANCH   2   3
ENDBRANCH   1   2
BRANCH   1  10
ATOM     10  C   UNL     1      19.283  43.533  21.820  1.00  0.00     0.000 C 
BRANCH  10  11
ATOM     11  C   UNL     1      20.129  44.451  20.925  1.00  0.00    -0.000 C 
BRANCH  11  12
ATOM     12  C   UNL     1      19.462  45.814  20.667  1.00  0.00    -0.000 C 
BRANCH  12  13
ATOM     13  C   UNL     1      20.422  47.021  20.663  1.00  0.00    -0.000 C 
BRANCH  13  14
ATOM     14  C   UNL     1      19.761  48.380  20.360  1.00  0.00    -0.000 C 
BRANCH  14  15
ATOM     15  C   UNL     1      18.290  48.496  20.795  1.00  0.00    -0.003 C 
ATOM     16  C   UNL     1      18.124  49.167  22.159  1.00  0.00     0.004 C 
ENDBRANCH  14  15
ENDBRANCH  13  14
ENDBRANCH  12  13
ENDBRANCH  11  12
ENDBRANCH  10  11
ENDBRANCH   1  10
TORSDOF 12
ENDMDL
MODEL 7
REMARK VINA RESULT:    -3.846      2.686      4.850
REMARK INTER + INTRA:          -7.798
REMARK INTER:                  -6.363
REMARK INTRA:                  -1.435
REMARK UNBOUND:                -1.254
REMARK SMILES CCCCCCCCCCCCCC(=O)[O-]
REMARK SMILES IDX 8 1 9 2 10 3 11 4 12 5 13 6 14 7 15 8 16 9 7 10 6 11 5 12
REMARK SMILES IDX 4 13 3 14 2 15 1 16
REMARK H PARENT
REMARK Flexibility Score: inf
ROOT
ATOM      1  C   UNL     1      17.353  44.593  20.604  1.00  0.00     0.000 C 
ENDROOT
BRANCH   1   2
ATOM      2  C   UNL     1      18.090  45.940  20.686  1.00  0.00     0.000 C 
BRANCH   2   3
ATOM      3  C   UNL     1      19.574  45.827  20.305  1.00  0.00     0.000 C 
BRANCH   3   4
ATOM      4  C   UNL     1      20.356  47.058  20.778  1.00  0.00     0.000 C 
BRANCH   4   5
ATOM      5  C   UNL     1      19.450  48.297  20.843  1.00  0.00     0.006 C 
BRANCH   5   6
ATOM      6  C   UNL     1      19.648  49.226  19.638  1.00  0.00     0.053 C 
BRANCH   6   7
ATOM      7  C   UNL     1      20.715  50.246  19.892  1.00  0.00     0.041 C 
ATOM      8  O   UNL     1      21.369  50.730  18.931  1.00  0.00    -0.550 OA
ATOM      9  O   UNL     1      20.965  50.686  21.186  1.00  0.00    -0.550 OA
ENDBRANCH   6   7
ENDBRANCH   5   6
ENDBRANCH   4   5
ENDBRANCH   3   4
ENDBRANCH   2   3
ENDBRANCH   1   2
BRANCH   1  10
ATOM     10  C   UNL     1      17.887  43.693  19.480  1.00  0.00     0.000 C 
BRANCH  10  11
ATOM     11  C   UNL     1      18.275  42.310  20.023  1.00  0.00    -0.000 C 
BRANCH  11  12
ATOM     12  C   UNL     1      17.715  42.042  21.432  1.00  0.00    -0.000 C 
BRANCH  12  13
ATOM     13  C   UNL     1      18.773  41.702  22.501  1.00  0.00    -0.000 C 
BRANCH  13  14
ATOM     14  C   UNL     1      19.331  42.912  23.278  1.00  0.00    -0.000 C 
BRANCH  14  15
ATOM     15  C   UNL     1      20.864  43.033  23.273  1.00  0.00    -0.003 C 
ATOM     16  C   UNL     1      21.444  43.195  21.867  1.00  0.00     0.004 C 
ENDBRANCH  14  15
ENDBRANCH  13  14
ENDBRANCH  12  13
ENDBRANCH  11  12
ENDBRANCH  10  11
ENDBRANCH   1  10
TORSDOF 12
ENDMDL
MODEL 8
REMARK VINA RESULT:    -3.821      3.501      5.431
REMARK INTER + INTRA:          -7.755
REMARK INTER:                  -6.589
REMARK INTRA:                  -1.166
REMARK UNBOUND:                -1.254
REMARK SMILES CCCCCCCCCCCCCC(=O)[O-]
REMARK SMILES IDX 8 1 9 2 10 3 11 4 12 5 13 6 14 7 15 8 16 9 7 10 6 11 5 12
REMARK SMILES IDX 4 13 3 14 2 15 1 16
REMARK H PARENT
REMARK Flexibility Score: inf
ROOT
ATOM      1  C   UNL     1      14.883  46.616  17.815  1.00  0.00     0.000 C 
ENDROOT
BRANCH   1   2
ATOM      2  C   UNL     1      15.283  45.167  18.138  1.00  0.00     0.000 C 
BRANCH   2   3
ATOM      3  C   UNL     1      15.325  44.887  19.648  1.00  0.00     0.000 C 
BRANCH   3   4
ATOM      4  C   UNL     1      15.899  43.493  19.932  1.00  0.00     0.000 C 
BRANCH   4   5
ATOM      5  C   UNL     1      17.099  43.195  19.021  1.00  0.00     0.006 C 
BRANCH   5   6
ATOM      6  C   UNL     1      18.344  42.781  19.816  1.00  0.00     0.053 C 
BRANCH   6   7
ATOM      7  C   UNL     1      18.866  43.904  20.658  1.00  0.00     0.041 C 
ATOM      8  O   UNL     1      19.132  45.018  20.133  1.00  0.00    -0.550 OA
ATOM      9  O   UNL     1      19.027  43.732  22.028  1.00  0.00    -0.550 OA
ENDBRANCH   6   7
ENDBRANCH   5   6
ENDBRANCH   4   5
ENDBRANCH   3   4
ENDBRANCH   2   3
ENDBRANCH   1   2
BRANCH   1  10
ATOM     10  C   UNL     1      13.752  46.701  16.780  1.00  0.00     0.000 C 
BRANCH  10  11
ATOM     11  C   UNL     1      12.503  45.954  17.270  1.00  0.00    -0.000 C 
BRANCH  11  12
ATOM     12  C   UNL     1      11.778  46.687  18.413  1.00  0.00    -0.000 C 
BRANCH  12  13
ATOM     13  C   UNL     1      11.682  45.900  19.736  1.00  0.00    -0.000 C 
BRANCH  13  14
ATOM     14  C   UNL     1      11.386  44.395  19.582  1.00  0.00    -0.000 C 
BRANCH  14  15
ATOM     15  C   UNL     1      10.128  43.904  20.319  1.00  0.00    -0.003 C 
ATOM     16  C   UNL     1       9.720  42.486  19.920  1.00  0.00     0.004 C 
ENDBRANCH  14  15
ENDBRANCH  13  14
ENDBRANCH  12  13
ENDBRANCH  11  12
ENDBRANCH  10  11
ENDBRANCH   1  10
TORSDOF 12
ENDMDL
MODEL 9
REMARK VINA RESULT:    -3.787      3.768      6.082
REMARK INTER + INTRA:          -7.698
REMARK INTER:                  -6.125
REMARK INTRA:                  -1.573
REMARK UNBOUND:                -1.254
REMARK SMILES CCCCCCCCCCCCCC(=O)[O-]
REMARK SMILES IDX 8 1 9 2 10 3 11 4 12 5 13 6 14 7 15 8 16 9 7 10 6 11 5 12
REMARK SMILES IDX 4 13 3 14 2 15 1 16
REMARK H PARENT
REMARK Flexibility Score: inf
ROOT
ATOM      1  C   UNL     1      17.447  41.785  19.623  1.00  0.00     0.000 C 
ENDROOT
BRANCH   1   2
ATOM      2  C   UNL     1      17.569  43.041  18.744  1.00  0.00     0.000 C 
BRANCH   2   3
ATOM      3  C   UNL     1      16.297  43.903  18.765  1.00  0.00     0.000 C 
BRANCH   3   4
ATOM      4  C   UNL     1      15.384  43.506  19.931  1.00  0.00     0.000 C 
BRANCH   4   5
ATOM      5  C   UNL     1      14.891  44.745  20.693  1.00  0.00     0.006 C 
BRANCH   5   6
ATOM      6  C   UNL     1      14.219  45.768  19.767  1.00  0.00     0.053 C 
BRANCH   6   7
ATOM      7  C   UNL     1      12.732  45.780  19.937  1.00  0.00     0.041 C 
ATOM      8  O   UNL     1      12.074  46.826  19.692  1.00  0.00    -0.550 OA
ATOM      9  O   UNL     1      12.066  44.627  20.336  1.00  0.00    -0.550 OA
ENDBRANCH   6   7
ENDBRANCH   5   6
ENDBRANCH   4   5
ENDBRANCH   3   4
ENDBRANCH   2   3
ENDBRANCH   1   2
BRANCH   1  10
ATOM     10  C   UNL     1      18.583  41.668  20.649  1.00  0.00     0.000 C 
BRANCH  10  11
ATOM     11  C   UNL     1      18.392  42.673  21.795  1.00  0.00    -0.000 C 
BRANCH  11  12
ATOM     12  C   UNL     1      19.621  43.574  22.011  1.00  0.00    -0.000 C 
BRANCH  12  13
ATOM     13  C   UNL     1      20.146  44.278  20.743  1.00  0.00    -0.000 C 
BRANCH  13  14
ATOM     14  C   UNL     1      19.839  45.786  20.656  1.00  0.00    -0.000 C 
BRANCH  14  15
ATOM     15  C   UNL     1      18.342  46.140  20.629  1.00  0.00    -0.003 C 
ATOM     16  C   UNL     1      18.087  47.637  20.455  1.00  0.00     0.004 C 
ENDBRANCH  14  15
ENDBRANCH  13  14
ENDBRANCH  12  13
ENDBRANCH  11  12
ENDBRANCH  10  11
ENDBRANCH   1  10
TORSDOF 12
ENDMDL
