MODEL 1
REMARK VINA RESULT:    -3.812      0.000      0.000
REMARK INTER + INTRA:          -6.883
REMARK INTER:                  -6.040
REMARK INTRA:                  -0.843
REMARK UNBOUND:                -0.843
REMARK SMILES CCCCCCCCCCCC(=O)[O-]
REMARK SMILES IDX 7 1 8 2 9 3 10 4 11 5 12 6 13 7 14 8 6 9 5 10 4 11 3 12 2 13
REMARK SMILES IDX 1 14
REMARK H PARENT
REMARK Flexibility Score: inf
ROOT
ATOM      1  C   UNL     1      -5.691  -8.621  32.668  1.00  0.00     0.000 C 
ENDROOT
BRANCH   1   2
ATOM      2  C   UNL     1      -6.728  -9.271  33.602  1.00  0.00     0.000 C 
BRANCH   2   3
ATOM      3  C   UNL     1      -6.376  -9.113  35.089  1.00  0.00     0.000 C 
BRANCH   3   4
ATOM      4  C   UNL     1      -5.177  -8.172  35.272  1.00  0.00     0.006 C 
BRANCH   4   5
ATOM      5  C   UNL     1      -5.569  -6.856  35.956  1.00  0.00     0.053 C 
BRANCH   5   6
ATOM      6  C   UNL     1      -5.839  -5.770  34.962  1.00  0.00     0.041 C 
ATOM      7  O   UNL     1      -4.904  -5.025  34.568  1.00  0.00    -0.550 OA
ATOM      8  O   UNL     1      -7.118  -5.602  34.443  1.00  0.00    -0.550 OA
ENDBRANCH   5   6
ENDBRANCH   4   5
ENDBRANCH   3   4
ENDBRANCH   2   3
ENDBRANCH   1   2
BRANCH   1   9
ATOM      9  C   UNL     1      -5.181  -9.523  31.526  1.00  0.00     0.000 C 
BRANCH   9  10
ATOM     10  C   UNL     1      -4.949 -10.994  31.914  1.00  0.00    -0.000 C 
BRANCH  10  11
ATOM     11  C   UNL     1      -5.888 -11.960  31.173  1.00  0.00    -0.000 C 
BRANCH  11  12
ATOM     12  C   UNL     1      -7.005 -11.234  30.404  1.00  0.00    -0.000 C 
BRANCH  12  13
ATOM     13  C   UNL     1      -7.807 -12.125  29.438  1.00  0.00    -0.003 C 
ATOM     14  C   UNL     1      -7.507 -11.833  27.968  1.00  0.00     0.004 C 
ENDBRANCH  12  13
ENDBRANCH  11  12
ENDBRANCH  10  11
ENDBRANCH   9  10
ENDBRANCH   1   9
TORSDOF 10
ENDMDL
MODEL 2
REMARK VINA RESULT:    -3.769     22.778     24.203
REMARK INTER + INTRA:          -6.816
REMARK INTER:                  -5.617
REMARK INTRA:                  -1.199
REMARK UNBOUND:                -0.843
REMARK SMILES CCCCCCCCCCCC(=O)[O-]
REMARK SMILES IDX 7 1 8 2 9 3 10 4 11 5 12 6 13 7 14 8 6 9 5 10 4 11 3 12 2 13
REMARK SMILES IDX 1 14
REMARK H PARENT
REMARK Flexibility Score: inf
ROOT
ATOM      1  C   UNL     1     -20.430   6.061  20.435  1.00  0.00     0.000 C 
ENDROOT
BRANCH   1   2
ATOM      2  C   UNL     1     -20.804   4.569  20.378  1.00  0.00     0.000 C 
BRANCH   2   3
ATOM      3  C   UNL     1     -19.805   3.673  21.125  1.00  0.00     0.000 C 
BRANCH   3   4
ATOM      4  C   UNL     1     -20.408   2.288  21.398  1.00  0.00     0.006 C 
BRANCH   4   5
ATOM      5  C   UNL     1     -21.907   2.360  21.717  1.00  0.00     0.053 C 
BRANCH   5   6
ATOM      6  C   UNL     1     -22.474   1.011  22.033  1.00  0.00     0.041 C 
ATOM      7  O   UNL     1     -23.274   0.869  22.995  1.00  0.00    -0.550 OA
ATOM      8  O   UNL     1     -22.146  -0.086  21.245  1.00  0.00    -0.550 OA
ENDBRANCH   5   6
ENDBRANCH   4   5
ENDBRANCH   3   4
ENDBRANCH   2   3
ENDBRANCH   1   2
BRANCH   1   9
ATOM      9  C   UNL     1     -21.363   7.001  19.643  1.00  0.00     0.000 C 
BRANCH   9  10
ATOM     10  C   UNL     1     -22.064   8.081  20.485  1.00  0.00    -0.000 C 
BRANCH  10  11
ATOM     11  C   UNL     1     -22.207   7.684  21.964  1.00  0.00    -0.000 C 
BRANCH  11  12
ATOM     12  C   UNL     1     -23.535   6.966  22.263  1.00  0.00    -0.000 C 
BRANCH  12  13
ATOM     13  C   UNL     1     -23.385   5.565  22.883  1.00  0.00    -0.003 C 
ATOM     14  C   UNL     1     -22.153   5.437  23.779  1.00  0.00     0.004 C 
ENDBRANCH  12  13
ENDBRANCH  11  12
ENDBRANCH  10  11
ENDBRANCH   9  10
ENDBRANCH   1   9
TORSDOF 10
ENDMDL
MODEL 3
REMARK VINA RESULT:    -3.724     23.226     24.270
REMARK INTER + INTRA:          -6.743
REMARK INTER:                  -5.664
REMARK INTRA:                  -1.079
REMARK UNBOUND:                -0.843
REMARK SMILES CCCCCCCCCCCC(=O)[O-]
REMARK SMILES IDX 7 1 8 2 9 3 10 4 11 5 12 6 13 7 14 8 6 9 5 10 4 11 3 12 2 13
REMARK SMILES IDX 1 14
REMARK H PARENT
REMARK Flexibility Score: inf
ROOT
ATOM      1  C   UNL     1     -24.472   5.086  24.345  1.00  0.00     0.000 C 
ENDROOT
BRANCH   1   2
ATOM      2  C   UNL     1     -24.593   6.095  23.190  1.00  0.00     0.000 C 
BRANCH   2   3
ATOM      3  C   UNL     1     -23.379   6.078  22.249  1.00  0.00     0.000 C 
BRANCH   3   4
ATOM      4  C   UNL     1     -22.959   7.504  21.869  1.00  0.00     0.006 C 
BRANCH   4   5
ATOM      5  C   UNL     1     -21.472   7.593  21.499  1.00  0.00     0.053 C 
BRANCH   5   6
ATOM      6  C   UNL     1     -21.157   6.805  20.266  1.00  0.00     0.041 C 
ATOM      7  O   UNL     1     -21.597   7.178  19.146  1.00  0.00    -0.550 OA
ATOM      8  O   UNL     1     -20.350   5.676  20.347  1.00  0.00    -0.550 OA
ENDBRANCH   5   6
ENDBRANCH   4   5
ENDBRANCH   3   4
ENDBRANCH   2   3
ENDBRANCH   1   2
BRANCH   1   9
ATOM      9  C   UNL     1     -23.029   4.733  24.758  1.00  0.00     0.000 C 
BRANCH   9  10
ATOM     10  C   UNL     1     -22.632   3.262  24.541  1.00  0.00    -0.000 C 
BRANCH  10  11
ATOM     11  C   UNL     1     -23.694   2.467  23.763  1.00  0.00    -0.000 C 
BRANCH  11  12
ATOM     12  C   UNL     1     -23.232   2.081  22.348  1.00  0.00    -0.000 C 
BRANCH  12  13
ATOM     13  C   UNL     1     -21.902   2.721  21.907  1.00  0.00    -0.003 C 
ATOM     14  C   UNL     1     -20.830   1.690  21.555  1.00  0.00     0.004 C 
ENDBRANCH  12  13
ENDBRANCH  11  12
ENDBRANCH  10  11
ENDBRANCH   9  10
ENDBRANCH   1   9
TORSDOF 10
ENDMDL
MODEL 4
REMARK VINA RESULT:    -3.703     22.971     24.299
REMARK INTER + INTRA:          -6.710
REMARK INTER:                  -5.767
REMARK INTRA:                  -0.943
REMARK UNBOUND:                -0.843
REMARK SMILES CCCCCCCCCCCC(=O)[O-]
REMARK SMILES IDX 7 1 8 2 9 3 10 4 11 5 12 6 13 7 14 8 6 9 5 10 4 11 3 12 2 13
REMARK SMILES IDX 1 14
REMARK H PARENT
REMARK Flexibility Score: inf
ROOT
ATOM      1  C   UNL     1     -21.540   7.253  22.831  1.00  0.00     0.000 C 
ENDROOT
BRANCH   1   2
ATOM      2  C   UNL     1     -20.451   6.460  22.086  1.00  0.00     0.000 C 
BRANCH   2   3
ATOM      3  C   UNL     1     -20.668   6.428  20.566  1.00  0.00     0.000 C 
BRANCH   3   4
ATOM      4  C   UNL     1     -21.104   5.031  20.102  1.00  0.00     0.006 C 
BRANCH   4   5
ATOM      5  C   UNL     1     -21.024   3.993  21.230  1.00  0.00     0.053 C 
BRANCH   5   6
ATOM      6  C   UNL     1     -19.978   2.957  20.960  1.00  0.00     0.041 C 
ATOM      7  O   UNL     1     -18.837   3.300  20.552  1.00  0.00    -0.550 OA
ATOM      8  O   UNL     1     -20.251   1.614  21.191  1.00  0.00    -0.550 OA
ENDBRANCH   5   6
ENDBRANCH   4   5
ENDBRANCH   3   4
ENDBRANCH   2   3
ENDBRANCH   1   2
BRANCH   1   9
ATOM      9  C   UNL     1     -22.850   7.464  22.045  1.00  0.00     0.000 C 
BRANCH   9  10
ATOM     10  C   UNL     1     -24.032   6.594  22.507  1.00  0.00    -0.000 C 
BRANCH  10  11
ATOM     11  C   UNL     1     -23.629   5.557  23.569  1.00  0.00    -0.000 C 
BRANCH  11  12
ATOM     12  C   UNL     1     -24.842   4.888  24.239  1.00  0.00    -0.000 C 
BRANCH  12  13
ATOM     13  C   UNL     1     -24.848   4.960  25.777  1.00  0.00    -0.003 C 
ATOM     14  C   UNL     1     -23.455   4.808  26.388  1.00  0.00     0.004 C 
ENDBRANCH  12  13
ENDBRANCH  11  12
ENDBRANCH  10  11
ENDBRANCH   9  10
ENDBRANCH   1   9
TORSDOF 10
ENDMDL
MODEL 5
REMARK VINA RESULT:    -3.702      2.790      6.229
REMARK INTER + INTRA:          -6.709
REMARK INTER:                  -5.516
REMARK INTRA:                  -1.193
REMARK UNBOUND:                -0.843
REMARK SMILES CCCCCCCCCCCC(=O)[O-]
REMARK SMILES IDX 7 1 8 2 9 3 10 4 11 5 12 6 13 7 14 8 6 9 5 10 4 11 3 12 2 13
REMARK SMILES IDX 1 14
REMARK H PARENT
REMARK Flexibility Score: inf
ROOT
ATOM      1  C   UNL     1      -6.661  -9.092  33.513  1.00  0.00     0.000 C 
ENDROOT
BRANCH   1   2
ATOM      2  C   UNL     1      -5.518  -8.605  32.605  1.00  0.00     0.000 C 
BRANCH   2   3
ATOM      3  C   UNL     1      -5.182  -9.597  31.481  1.00  0.00     0.000 C 
BRANCH   3   4
ATOM      4  C   UNL     1      -5.528 -11.034  31.896  1.00  0.00     0.006 C 
BRANCH   4   5
ATOM      5  C   UNL     1      -6.250 -11.803  30.781  1.00  0.00     0.053 C 
BRANCH   5   6
ATOM      6  C   UNL     1      -7.440 -11.052  30.269  1.00  0.00     0.041 C 
ATOM      7  O   UNL     1      -8.431 -10.847  31.018  1.00  0.00    -0.550 OA
ATOM      8  O   UNL     1      -7.442 -10.549  28.973  1.00  0.00    -0.550 OA
ENDBRANCH   5   6
ENDBRANCH   4   5
ENDBRANCH   3   4
ENDBRANCH   2   3
ENDBRANCH   1   2
BRANCH   1   9
ATOM      9  C   UNL     1      -6.339  -9.108  35.021  1.00  0.00     0.000 C 
BRANCH   9  10
ATOM     10  C   UNL     1      -5.104  -8.285  35.430  1.00  0.00    -0.000 C 
BRANCH  10  11
ATOM     11  C   UNL     1      -5.473  -6.935  36.066  1.00  0.00    -0.000 C 
BRANCH  11  12
ATOM     12  C   UNL     1      -5.463  -5.776  35.053  1.00  0.00    -0.000 C 
BRANCH  12  13
ATOM     13  C   UNL     1      -6.836  -5.125  34.806  1.00  0.00    -0.003 C 
ATOM     14  C   UNL     1      -7.383  -5.396  33.405  1.00  0.00     0.004 C 
ENDBRANCH  12  13
ENDBRANCH  11  12
ENDBRANCH  10  11
ENDBRANCH   9  10
ENDBRANCH   1   9
TORSDOF 10
ENDMDL
MODEL 6
REMARK VINA RESULT:    -3.653     22.691     23.900
REMARK INTER + INTRA:          -6.631
REMARK INTER:                  -5.331
REMARK INTRA:                  -1.300
REMARK UNBOUND:                -0.843
REMARK SMILES CCCCCCCCCCCC(=O)[O-]
REMARK SMILES IDX 7 1 8 2 9 3 10 4 11 5 12 6 13 7 14 8 6 9 5 10 4 11 3 12 2 13
REMARK SMILES IDX 1 14
REMARK H PARENT
REMARK Flexibility Score: inf
ROOT
ATOM      1  C   UNL     1     -22.248   7.380  22.162  1.00  0.00     0.000 C 
ENDROOT
BRANCH   1   2
ATOM      2  C   UNL     1     -21.793   7.818  20.759  1.00  0.00     0.000 C 
BRANCH   2   3
ATOM      3  C   UNL     1     -21.253   6.655  19.914  1.00  0.00     0.000 C 
BRANCH   3   4
ATOM      4  C   UNL     1     -20.266   5.801  20.723  1.00  0.00     0.006 C 
BRANCH   4   5
ATOM      5  C   UNL     1     -20.591   4.304  20.642  1.00  0.00     0.053 C 
BRANCH   5   6
ATOM      6  C   UNL     1     -19.420   3.458  21.037  1.00  0.00     0.041 C 
ATOM      7  O   UNL     1     -18.418   3.369  20.280  1.00  0.00    -0.550 OA
ATOM      8  O   UNL     1     -19.421   2.794  22.258  1.00  0.00    -0.550 OA
ENDBRANCH   5   6
ENDBRANCH   4   5
ENDBRANCH   3   4
ENDBRANCH   2   3
ENDBRANCH   1   2
BRANCH   1   9
ATOM      9  C   UNL     1     -23.627   6.691  22.219  1.00  0.00     0.000 C 
BRANCH   9  10
ATOM     10  C   UNL     1     -23.748   5.564  23.260  1.00  0.00    -0.000 C 
BRANCH  10  11
ATOM     11  C   UNL     1     -22.381   5.063  23.757  1.00  0.00    -0.000 C 
BRANCH  11  12
ATOM     12  C   UNL     1     -22.330   3.534  23.920  1.00  0.00    -0.000 C 
BRANCH  12  13
ATOM     13  C   UNL     1     -23.418   2.767  23.146  1.00  0.00    -0.003 C 
ATOM     14  C   UNL     1     -22.845   1.739  22.170  1.00  0.00     0.004 C 
ENDBRANCH  12  13
ENDBRANCH  11  12
ENDBRANCH  10  11
ENDBRANCH   9  10
ENDBRANCH   1   9
TORSDOF 10
ENDMDL
MODEL 7
REMARK VINA RESULT:    -3.630     23.386     24.533
REMARK INTER + INTRA:          -6.595
REMARK INTER:                  -5.713
REMARK INTRA:                  -0.881
REMARK UNBOUND:                -0.843
REMARK SMILES CCCCCCCCCCCC(=O)[O-]
REMARK SMILES IDX 7 1 8 2 9 3 10 4 11 5 12 6 13 7 14 8 6 9 5 10 4 11 3 12 2 13
REMARK SMILES IDX 1 14
REMARK H PARENT
REMARK Flexibility Score: inf
ROOT
ATOM      1  C   UNL     1     -23.480   6.270  22.393  1.00  0.00     0.000 C 
ENDROOT
BRANCH   1   2
ATOM      2  C   UNL     1     -24.796   6.224  23.190  1.00  0.00     0.000 C 
BRANCH   2   3
ATOM      3  C   UNL     1     -24.802   5.133  24.271  1.00  0.00     0.000 C 
BRANCH   3   4
ATOM      4  C   UNL     1     -23.681   4.113  24.029  1.00  0.00     0.006 C 
BRANCH   4   5
ATOM      5  C   UNL     1     -24.200   2.669  24.020  1.00  0.00     0.053 C 
BRANCH   5   6
ATOM      6  C   UNL     1     -23.201   1.721  23.433  1.00  0.00     0.041 C 
ATOM      7  O   UNL     1     -22.376   1.129  24.177  1.00  0.00    -0.550 OA
ATOM      8  O   UNL     1     -23.201   1.466  22.067  1.00  0.00    -0.550 OA
ENDBRANCH   5   6
ENDBRANCH   4   5
ENDBRANCH   3   4
ENDBRANCH   2   3
ENDBRANCH   1   2
BRANCH   1   9
ATOM      9  C   UNL     1     -22.915   7.682  22.142  1.00  0.00     0.000 C 
BRANCH   9  10
ATOM     10  C   UNL     1     -21.588   7.723  21.363  1.00  0.00    -0.000 C 
BRANCH  10  11
ATOM     11  C   UNL     1     -21.772   7.450  19.860  1.00  0.00    -0.000 C 
BRANCH  11  12
ATOM     12  C   UNL     1     -21.108   6.138  19.407  1.00  0.00    -0.000 C 
BRANCH  12  13
ATOM     13  C   UNL     1     -20.359   5.378  20.516  1.00  0.00    -0.003 C 
ATOM     14  C   UNL     1     -21.019   4.049  20.881  1.00  0.00     0.004 C 
ENDBRANCH  12  13
ENDBRANCH  11  12
ENDBRANCH  10  11
ENDBRANCH   9  10
ENDBRANCH   1   9
TORSDOF 10
ENDMDL
MODEL 8
REMARK VINA RESULT:    -3.626     23.072     24.110
REMARK INTER + INTRA:          -6.588
REMARK INTER:                  -5.587
REMARK INTRA:                  -1.001
REMARK UNBOUND:                -0.843
REMARK SMILES CCCCCCCCCCCC(=O)[O-]
REMARK SMILES IDX 7 1 8 2 9 3 10 4 11 5 12 6 13 7 14 8 6 9 5 10 4 11 3 12 2 13
REMARK SMILES IDX 1 14
REMARK H PARENT
REMARK Flexibility Score: inf
ROOT
ATOM      1  C   UNL     1     -23.805   3.633  24.218  1.00  0.00     0.000 C 
ENDROOT
BRANCH   1   2
ATOM      2  C   UNL     1     -24.824   4.737  24.550  1.00  0.00     0.000 C 
BRANCH   2   3
ATOM      3  C   UNL     1     -24.880   5.841  23.483  1.00  0.00     0.000 C 
BRANCH   3   4
ATOM      4  C   UNL     1     -23.513   6.023  22.809  1.00  0.00     0.006 C 
BRANCH   4   5
ATOM      5  C   UNL     1     -23.382   7.387  22.118  1.00  0.00     0.053 C 
BRANCH   5   6
ATOM      6  C   UNL     1     -22.025   7.578  21.516  1.00  0.00     0.041 C 
ATOM      7  O   UNL     1     -21.009   7.654  22.256  1.00  0.00    -0.550 OA
ATOM      8  O   UNL     1     -21.877   7.639  20.136  1.00  0.00    -0.550 OA
ENDBRANCH   5   6
ENDBRANCH   4   5
ENDBRANCH   3   4
ENDBRANCH   2   3
ENDBRANCH   1   2
BRANCH   1   9
ATOM      9  C   UNL     1     -24.383   2.205  24.157  1.00  0.00     0.000 C 
BRANCH   9  10
ATOM     10  C   UNL     1     -23.566   1.208  23.315  1.00  0.00    -0.000 C 
BRANCH  10  11
ATOM     11  C   UNL     1     -22.989   1.842  22.038  1.00  0.00    -0.000 C 
BRANCH  11  12
ATOM     12  C   UNL     1     -21.453   1.767  21.977  1.00  0.00    -0.000 C 
BRANCH  12  13
ATOM     13  C   UNL     1     -20.738   3.128  22.060  1.00  0.00    -0.003 C 
ATOM     14  C   UNL     1     -21.097   4.063  20.905  1.00  0.00     0.004 C 
ENDBRANCH  12  13
ENDBRANCH  11  12
ENDBRANCH  10  11
ENDBRANCH   9  10
ENDBRANCH   1   9
TORSDOF 10
ENDMDL
MODEL 9
REMARK VINA RESULT:    -3.614     23.206     24.463
REMARK INTER + INTRA:          -6.570
REMARK INTER:                  -5.533
REMARK INTRA:                  -1.036
REMARK UNBOUND:                -0.843
REMARK SMILES CCCCCCCCCCCC(=O)[O-]
REMARK SMILES IDX 7 1 8 2 9 3 10 4 11 5 12 6 13 7 14 8 6 9 5 10 4 11 3 12 2 13
REMARK SMILES IDX 1 14
REMARK H PARENT
REMARK Flexibility Score: inf
ROOT
ATOM      1  C   UNL     1     -23.770   5.434  23.294  1.00  0.00     0.000 C 
ENDROOT
BRANCH   1   2
ATOM      2  C   UNL     1     -24.003   6.736  22.507  1.00  0.00     0.000 C 
BRANCH   2   3
ATOM      3  C   UNL     1     -22.698   7.373  22.005  1.00  0.00     0.000 C 
BRANCH   3   4
ATOM      4  C   UNL     1     -21.475   6.620  22.548  1.00  0.00     0.006 C 
BRANCH   4   5
ATOM      5  C   UNL     1     -20.468   6.275  21.443  1.00  0.00     0.053 C 
BRANCH   5   6
ATOM      6  C   UNL     1     -21.058   5.354  20.420  1.00  0.00     0.041 C 
ATOM      7  O   UNL     1     -21.387   4.181  20.738  1.00  0.00    -0.550 OA
ATOM      8  O   UNL     1     -21.277   5.802  19.123  1.00  0.00    -0.550 OA
ENDBRANCH   5   6
ENDBRANCH   4   5
ENDBRANCH   3   4
ENDBRANCH   2   3
ENDBRANCH   1   2
BRANCH   1   9
ATOM      9  C   UNL     1     -24.777   5.167  24.431  1.00  0.00     0.000 C 
BRANCH   9  10
ATOM     10  C   UNL     1     -24.765   3.731  24.986  1.00  0.00    -0.000 C 
BRANCH  10  11
ATOM     11  C   UNL     1     -23.921   3.596  26.265  1.00  0.00    -0.000 C 
BRANCH  11  12
ATOM     12  C   UNL     1     -23.682   4.944  26.967  1.00  0.00    -0.000 C 
BRANCH  12  13
ATOM     13  C   UNL     1     -22.209   5.246  27.298  1.00  0.00    -0.003 C 
ATOM     14  C   UNL     1     -21.298   5.187  26.072  1.00  0.00     0.004 C 
ENDBRANCH  12  13
ENDBRANCH  11  12
ENDBRANCH  10  11
ENDBRANCH   9  10
ENDBRANCH   1   9
TORSDOF 10
ENDMDL
