MODEL 1
REMARK VINA RESULT:    -6.505      0.000      0.000
REMARK INTER + INTRA:          -7.910
REMARK INTER:                  -7.645
REMARK INTRA:                  -0.264
REMARK UNBOUND:                -0.264
REMARK SMILES O=c1cc(-c2ccc(O)c(O)c2)oc2cc(O)cc(O)c12
REMARK SMILES IDX 4 1 3 2 2 3 1 4 21 5 19 6 18 7 16 8 15 9 14 10 13 11 5 12
REMARK SMILES IDX 6 13 7 14 8 15 12 16 10 17 9 18 11 20 20 22 17 24
REMARK H PARENT 9 19 11 21 20 23 17 25
REMARK Flexibility Score: inf
ROOT
ATOM      1  C   UNL     1       9.957  12.318 -16.649  1.00  0.00     0.138 A 
ATOM      2  C   UNL     1      10.812  13.346 -16.228  1.00  0.00     0.100 A 
ATOM      3  C   UNL     1      10.919  14.510 -16.989  1.00  0.00     0.197 A 
ATOM      4  O   UNL     1      11.740  15.388 -16.619  1.00  0.00    -0.289 OA
ATOM      5  C   UNL     1      10.139  14.659 -18.161  1.00  0.00     0.107 A 
ATOM      6  C   UNL     1      10.134  15.818 -18.992  1.00  0.00     0.134 A 
ATOM      7  C   UNL     1       9.410  15.805 -20.191  1.00  0.00     0.093 A 
ATOM      8  C   UNL     1       8.643  14.700 -20.557  1.00  0.00     0.123 A 
ATOM      9  C   UNL     1       8.598  13.580 -19.725  1.00  0.00     0.094 A 
ATOM     10  C   UNL     1       9.336  13.549 -18.540  1.00  0.00     0.146 A 
ATOM     11  O   UNL     1       9.277  12.460 -17.782  1.00  0.00    -0.456 OA
ENDROOT
BRANCH   1  12
ATOM     12  C   UNL     1       9.806  11.059 -15.877  1.00  0.00     0.021 A 
ATOM     13  C   UNL     1      10.691   9.993 -16.112  1.00  0.00     0.016 A 
ATOM     14  C   UNL     1      10.566   8.794 -15.405  1.00  0.00     0.051 A 
ATOM     15  C   UNL     1       9.548   8.637 -14.457  1.00  0.00     0.157 A 
ATOM     16  C   UNL     1       8.776  10.888 -14.932  1.00  0.00     0.062 A 
ATOM     17  C   UNL     1       8.647   9.688 -14.222  1.00  0.00     0.158 A 
BRANCH  15  18
ATOM     18  O   UNL     1       9.426   7.441 -13.751  1.00  0.00    -0.504 OA
ATOM     19  H   UNL     1       9.160   7.427 -12.773  1.00  0.00     0.293 HD
ENDBRANCH  15  18
BRANCH  17  20
ATOM     20  O   UNL     1       7.614   9.558 -13.294  1.00  0.00    -0.504 OA
ATOM     21  H   UNL     1       7.004  10.331 -13.057  1.00  0.00     0.293 HD
ENDBRANCH  17  20
ENDBRANCH   1  12
BRANCH   6  22
ATOM     22  O   UNL     1      10.798  17.007 -18.678  1.00  0.00    -0.507 OA
ATOM     23  H   UNL     1      11.762  17.070 -18.386  1.00  0.00     0.293 HD
ENDBRANCH   6  22
BRANCH   8  24
ATOM     24  O   UNL     1       7.923  14.728 -21.750  1.00  0.00    -0.508 OA
ATOM     25  H   UNL     1       7.920  15.545 -22.348  1.00  0.00     0.293 HD
ENDBRANCH   8  24
TORSDOF 5
ENDMDL
MODEL 2
REMARK VINA RESULT:    -6.438      1.143      1.681
REMARK INTER + INTRA:          -7.832
REMARK INTER:                  -7.562
REMARK INTRA:                  -0.270
REMARK UNBOUND:                -0.264
REMARK SMILES O=c1cc(-c2ccc(O)c(O)c2)oc2cc(O)cc(O)c12
REMARK SMILES IDX 4 1 3 2 2 3 1 4 21 5 19 6 18 7 16 8 15 9 14 10 13 11 5 12
REMARK SMILES IDX 6 13 7 14 8 15 12 16 10 17 9 18 11 20 20 22 17 24
REMARK H PARENT 9 19 11 21 20 23 17 25
REMARK Flexibility Score: inf
ROOT
ATOM      1  C   UNL     1       9.699  12.666 -17.454  1.00  0.00     0.138 A 
ATOM      2  C   UNL     1      10.498  13.667 -16.882  1.00  0.00     0.100 A 
ATOM      3  C   UNL     1      10.669  14.879 -17.551  1.00  0.00     0.197 A 
ATOM      4  O   UNL     1      11.441  15.733 -17.044  1.00  0.00    -0.289 OA
ATOM      5  C   UNL     1      10.009  15.103 -18.782  1.00  0.00     0.107 A 
ATOM      6  C   UNL     1      10.076  16.315 -19.532  1.00  0.00     0.134 A 
ATOM      7  C   UNL     1       9.475  16.380 -20.795  1.00  0.00     0.093 A 
ATOM      8  C   UNL     1       8.759  15.299 -21.309  1.00  0.00     0.123 A 
ATOM      9  C   UNL     1       8.641  14.126 -20.560  1.00  0.00     0.094 A 
ATOM     10  C   UNL     1       9.258  14.019 -19.312  1.00  0.00     0.146 A 
ATOM     11  O   UNL     1       9.134  12.882 -18.638  1.00  0.00    -0.456 OA
ENDROOT
BRANCH   1  12
ATOM     12  C   UNL     1       9.483  11.358 -16.785  1.00  0.00     0.021 A 
ATOM     13  C   UNL     1       8.172  10.925 -16.523  1.00  0.00     0.016 A 
ATOM     14  C   UNL     1       7.941   9.701 -15.888  1.00  0.00     0.051 A 
ATOM     15  C   UNL     1       9.016   8.896 -15.495  1.00  0.00     0.157 A 
ATOM     16  C   UNL     1      10.560  10.549 -16.374  1.00  0.00     0.062 A 
ATOM     17  C   UNL     1      10.331   9.324 -15.736  1.00  0.00     0.158 A 
BRANCH  15  18
ATOM     18  O   UNL     1       8.784   7.676 -14.862  1.00  0.00    -0.504 OA
ATOM     19  H   UNL     1       9.416   7.315 -14.156  1.00  0.00     0.293 HD
ENDBRANCH  15  18
BRANCH  17  20
ATOM     20  O   UNL     1      11.425   8.550 -15.346  1.00  0.00    -0.504 OA
ATOM     21  H   UNL     1      12.327   8.961 -15.138  1.00  0.00     0.293 HD
ENDBRANCH  17  20
ENDBRANCH   1  12
BRANCH   6  22
ATOM     22  O   UNL     1      10.694  17.482 -19.075  1.00  0.00    -0.507 OA
ATOM     23  H   UNL     1      10.208  18.289 -18.714  1.00  0.00     0.293 HD
ENDBRANCH   6  22
BRANCH   8  24
ATOM     24  O   UNL     1       8.161  15.404 -22.563  1.00  0.00    -0.508 OA
ATOM     25  H   UNL     1       8.651  15.137 -23.408  1.00  0.00     0.293 HD
ENDBRANCH   8  24
TORSDOF 5
ENDMDL
MODEL 3
REMARK VINA RESULT:    -6.240      1.992      7.244
REMARK INTER + INTRA:          -7.599
REMARK INTER:                  -7.285
REMARK INTRA:                  -0.313
REMARK UNBOUND:                -0.264
REMARK SMILES O=c1cc(-c2ccc(O)c(O)c2)oc2cc(O)cc(O)c12
REMARK SMILES IDX 4 1 3 2 2 3 1 4 21 5 19 6 18 7 16 8 15 9 14 10 13 11 5 12
REMARK SMILES IDX 6 13 7 14 8 15 12 16 10 17 9 18 11 20 20 22 17 24
REMARK H PARENT 9 19 11 21 20 23 17 25
REMARK Flexibility Score: inf
ROOT
ATOM      1  C   UNL     1       8.963  13.278 -18.494  1.00  0.00     0.138 A 
ATOM      2  C   UNL     1       9.538  12.043 -18.827  1.00  0.00     0.100 A 
ATOM      3  C   UNL     1       9.654  11.051 -17.852  1.00  0.00     0.197 A 
ATOM      4  O   UNL     1      10.230   9.977 -18.165  1.00  0.00    -0.289 OA
ATOM      5  C   UNL     1       9.162  11.287 -16.547  1.00  0.00     0.107 A 
ATOM      6  C   UNL     1       9.190  10.335 -15.485  1.00  0.00     0.134 A 
ATOM      7  C   UNL     1       8.781  10.721 -14.202  1.00  0.00     0.093 A 
ATOM      8  C   UNL     1       8.289  12.002 -13.957  1.00  0.00     0.123 A 
ATOM      9  C   UNL     1       8.207  12.925 -15.001  1.00  0.00     0.094 A 
ATOM     10  C   UNL     1       8.640  12.582 -16.284  1.00  0.00     0.146 A 
ATOM     11  O   UNL     1       8.559  13.493 -17.247  1.00  0.00    -0.456 OA
ENDROOT
BRANCH   1  12
ATOM     12  C   UNL     1       8.814  14.367 -19.493  1.00  0.00     0.021 A 
ATOM     13  C   UNL     1       8.892  14.063 -20.863  1.00  0.00     0.016 A 
ATOM     14  C   UNL     1       8.763  15.070 -21.823  1.00  0.00     0.051 A 
ATOM     15  C   UNL     1       8.564  16.399 -21.431  1.00  0.00     0.157 A 
ATOM     16  C   UNL     1       8.628  15.708 -19.106  1.00  0.00     0.062 A 
ATOM     17  C   UNL     1       8.500  16.719 -20.065  1.00  0.00     0.158 A 
BRANCH  15  18
ATOM     18  O   UNL     1       8.435  17.402 -22.390  1.00  0.00    -0.504 OA
ATOM     19  H   UNL     1       9.027  17.429 -23.213  1.00  0.00     0.293 HD
ENDBRANCH  15  18
BRANCH  17  20
ATOM     20  O   UNL     1       8.315  18.035 -19.641  1.00  0.00    -0.504 OA
ATOM     21  H   UNL     1       9.002  18.519 -19.077  1.00  0.00     0.293 HD
ENDBRANCH  17  20
ENDBRANCH   1  12
BRANCH   6  22
ATOM     22  O   UNL     1       9.583   9.003 -15.639  1.00  0.00    -0.507 OA
ATOM     23  H   UNL     1       9.023   8.203 -15.385  1.00  0.00     0.293 HD
ENDBRANCH   6  22
BRANCH   8  24
ATOM     24  O   UNL     1       7.876  12.346 -12.671  1.00  0.00    -0.508 OA
ATOM     25  H   UNL     1       8.419  12.092 -11.855  1.00  0.00     0.293 HD
ENDBRANCH   8  24
TORSDOF 5
ENDMDL
MODEL 4
REMARK VINA RESULT:    -6.224      2.156      3.324
REMARK INTER + INTRA:          -7.580
REMARK INTER:                  -7.262
REMARK INTRA:                  -0.318
REMARK UNBOUND:                -0.264
REMARK SMILES O=c1cc(-c2ccc(O)c(O)c2)oc2cc(O)cc(O)c12
REMARK SMILES IDX 4 1 3 2 2 3 1 4 21 5 19 6 18 7 16 8 15 9 14 10 13 11 5 12
REMARK SMILES IDX 6 13 7 14 8 15 12 16 10 17 9 18 11 20 20 22 17 24
REMARK H PARENT 9 19 11 21 20 23 17 25
REMARK Flexibility Score: inf
ROOT
ATOM      1  C   UNL     1       8.117  12.967 -17.162  1.00  0.00     0.138 A 
ATOM      2  C   UNL     1       7.597  12.496 -18.376  1.00  0.00     0.100 A 
ATOM      3  C   UNL     1       7.753  13.259 -19.534  1.00  0.00     0.197 A 
ATOM      4  O   UNL     1       7.222  12.841 -20.595  1.00  0.00    -0.289 OA
ATOM      5  C   UNL     1       8.462  14.482 -19.482  1.00  0.00     0.107 A 
ATOM      6  C   UNL     1       8.718  15.322 -20.606  1.00  0.00     0.134 A 
ATOM      7  C   UNL     1       9.329  16.567 -20.413  1.00  0.00     0.093 A 
ATOM      8  C   UNL     1       9.748  16.976 -19.148  1.00  0.00     0.123 A 
ATOM      9  C   UNL     1       9.550  16.139 -18.048  1.00  0.00     0.094 A 
ATOM     10  C   UNL     1       8.913  14.906 -18.203  1.00  0.00     0.146 A 
ATOM     11  O   UNL     1       8.732  14.145 -17.129  1.00  0.00    -0.456 OA
ENDROOT
BRANCH   1  12
ATOM     12  C   UNL     1       7.981  12.196 -15.900  1.00  0.00     0.021 A 
ATOM     13  C   UNL     1       7.373  10.928 -15.928  1.00  0.00     0.016 A 
ATOM     14  C   UNL     1       7.225  10.185 -14.753  1.00  0.00     0.051 A 
ATOM     15  C   UNL     1       7.672  10.699 -13.531  1.00  0.00     0.157 A 
ATOM     16  C   UNL     1       8.416  12.712 -14.665  1.00  0.00     0.062 A 
ATOM     17  C   UNL     1       8.268  11.970 -13.486  1.00  0.00     0.158 A 
BRANCH  15  18
ATOM     18  O   UNL     1       7.525   9.956 -12.361  1.00  0.00    -0.504 OA
ATOM     19  H   UNL     1       8.277   9.380 -12.000  1.00  0.00     0.293 HD
ENDBRANCH  15  18
BRANCH  17  20
ATOM     20  O   UNL     1       8.713  12.517 -12.282  1.00  0.00    -0.504 OA
ATOM     21  H   UNL     1       8.075  12.923 -11.608  1.00  0.00     0.293 HD
ENDBRANCH  17  20
ENDBRANCH   1  12
BRANCH   6  22
ATOM     22  O   UNL     1       8.417  14.973 -21.926  1.00  0.00    -0.507 OA
ATOM     23  H   UNL     1       7.629  15.324 -22.449  1.00  0.00     0.293 HD
ENDBRANCH   6  22
BRANCH   8  24
ATOM     24  O   UNL     1      10.366  18.215 -18.995  1.00  0.00    -0.508 OA
ATOM     25  H   UNL     1      11.320  18.294 -18.662  1.00  0.00     0.293 HD
ENDBRANCH   8  24
TORSDOF 5
ENDMDL
MODEL 5
REMARK VINA RESULT:    -6.207      2.266      2.993
REMARK INTER + INTRA:          -7.560
REMARK INTER:                  -7.259
REMARK INTRA:                  -0.301
REMARK UNBOUND:                -0.264
REMARK SMILES O=c1cc(-c2ccc(O)c(O)c2)oc2cc(O)cc(O)c12
REMARK SMILES IDX 4 1 3 2 2 3 1 4 21 5 19 6 18 7 16 8 15 9 14 10 13 11 5 12
REMARK SMILES IDX 6 13 7 14 8 15 12 16 10 17 9 18 11 20 20 22 17 24
REMARK H PARENT 9 19 11 21 20 23 17 25
REMARK Flexibility Score: inf
ROOT
ATOM      1  C   UNL     1       9.686  13.819 -18.378  1.00  0.00     0.138 A 
ATOM      2  C   UNL     1       9.418  14.959 -17.607  1.00  0.00     0.100 A 
ATOM      3  C   UNL     1       9.027  16.141 -18.237  1.00  0.00     0.197 A 
ATOM      4  O   UNL     1       8.854  17.164 -17.525  1.00  0.00    -0.289 OA
ATOM      5  C   UNL     1       8.871  16.171 -19.642  1.00  0.00     0.107 A 
ATOM      6  C   UNL     1       8.437  17.308 -20.388  1.00  0.00     0.134 A 
ATOM      7  C   UNL     1       8.433  17.255 -21.787  1.00  0.00     0.093 A 
ATOM      8  C   UNL     1       8.787  16.089 -22.466  1.00  0.00     0.123 A 
ATOM      9  C   UNL     1       9.162  14.954 -21.745  1.00  0.00     0.094 A 
ATOM     10  C   UNL     1       9.209  14.986 -20.350  1.00  0.00     0.146 A 
ATOM     11  O   UNL     1       9.584  13.889 -19.701  1.00  0.00    -0.456 OA
ENDROOT
BRANCH   1  12
ATOM     12  C   UNL     1      10.104  12.536 -17.759  1.00  0.00     0.021 A 
ATOM     13  C   UNL     1      10.939  12.554 -16.628  1.00  0.00     0.016 A 
ATOM     14  C   UNL     1      11.354  11.361 -16.031  1.00  0.00     0.051 A 
ATOM     15  C   UNL     1      10.951  10.129 -16.559  1.00  0.00     0.157 A 
ATOM     16  C   UNL     1       9.714  11.293 -18.293  1.00  0.00     0.062 A 
ATOM     17  C   UNL     1      10.129  10.095 -17.697  1.00  0.00     0.158 A 
BRANCH  15  18
ATOM     18  O   UNL     1      11.365   8.940 -15.961  1.00  0.00    -0.504 OA
ATOM     19  H   UNL     1      11.538   8.880 -14.964  1.00  0.00     0.293 HD
ENDBRANCH  15  18
BRANCH  17  20
ATOM     20  O   UNL     1       9.720   8.885 -18.255  1.00  0.00    -0.504 OA
ATOM     21  H   UNL     1       9.656   8.035 -17.708  1.00  0.00     0.293 HD
ENDBRANCH  17  20
ENDBRANCH   1  12
BRANCH   6  22
ATOM     22  O   UNL     1       7.981  18.495 -19.808  1.00  0.00    -0.507 OA
ATOM     23  H   UNL     1       7.843  19.363 -20.303  1.00  0.00     0.293 HD
ENDBRANCH   6  22
BRANCH   8  24
ATOM     24  O   UNL     1       8.756  16.068 -23.859  1.00  0.00    -0.508 OA
ATOM     25  H   UNL     1       9.400  15.498 -24.394  1.00  0.00     0.293 HD
ENDBRANCH   8  24
TORSDOF 5
ENDMDL
MODEL 6
REMARK VINA RESULT:    -6.159      3.100      7.558
REMARK INTER + INTRA:          -7.503
REMARK INTER:                  -7.226
REMARK INTRA:                  -0.277
REMARK UNBOUND:                -0.264
REMARK SMILES O=c1cc(-c2ccc(O)c(O)c2)oc2cc(O)cc(O)c12
REMARK SMILES IDX 4 1 3 2 2 3 1 4 21 5 19 6 18 7 16 8 15 9 14 10 13 11 5 12
REMARK SMILES IDX 6 13 7 14 8 15 12 16 10 17 9 18 11 20 20 22 17 24
REMARK H PARENT 9 19 11 21 20 23 17 25
REMARK Flexibility Score: inf
ROOT
ATOM      1  C   UNL     1       8.713  16.307 -18.555  1.00  0.00     0.138 A 
ATOM      2  C   UNL     1       8.697  16.064 -19.936  1.00  0.00     0.100 A 
ATOM      3  C   UNL     1       8.986  14.786 -20.415  1.00  0.00     0.197 A 
ATOM      4  O   UNL     1       9.025  14.614 -21.661  1.00  0.00    -0.289 OA
ATOM      5  C   UNL     1       9.260  13.738 -19.504  1.00  0.00     0.107 A 
ATOM      6  C   UNL     1       9.527  12.387 -19.876  1.00  0.00     0.134 A 
ATOM      7  C   UNL     1       9.900  11.462 -18.894  1.00  0.00     0.093 A 
ATOM      8  C   UNL     1       9.956  11.822 -17.548  1.00  0.00     0.123 A 
ATOM      9  C   UNL     1       9.645  13.129 -17.166  1.00  0.00     0.094 A 
ATOM     10  C   UNL     1       9.303  14.083 -18.126  1.00  0.00     0.146 A 
ATOM     11  O   UNL     1       9.027  15.319 -17.724  1.00  0.00    -0.456 OA
ENDROOT
BRANCH   1  12
ATOM     12  C   UNL     1       8.413  17.648 -17.992  1.00  0.00     0.021 A 
ATOM     13  C   UNL     1       7.545  17.756 -16.891  1.00  0.00     0.016 A 
ATOM     14  C   UNL     1       7.239  19.006 -16.347  1.00  0.00     0.051 A 
ATOM     15  C   UNL     1       7.787  20.170 -16.899  1.00  0.00     0.157 A 
ATOM     16  C   UNL     1       8.948  18.824 -18.551  1.00  0.00     0.062 A 
ATOM     17  C   UNL     1       8.643  20.078 -18.009  1.00  0.00     0.158 A 
BRANCH  15  18
ATOM     18  O   UNL     1       7.482  21.416 -16.354  1.00  0.00    -0.504 OA
ATOM     19  H   UNL     1       6.964  22.113 -16.879  1.00  0.00     0.293 HD
ENDBRANCH  15  18
BRANCH  17  20
ATOM     20  O   UNL     1       9.195  21.219 -18.590  1.00  0.00    -0.504 OA
ATOM     21  H   UNL     1       8.784  21.660 -19.404  1.00  0.00     0.293 HD
ENDBRANCH  17  20
ENDBRANCH   1  12
BRANCH   6  22
ATOM     22  O   UNL     1       9.417  11.900 -21.182  1.00  0.00    -0.507 OA
ATOM     23  H   UNL     1       8.606  11.431 -21.556  1.00  0.00     0.293 HD
ENDBRANCH   6  22
BRANCH   8  24
ATOM     24  O   UNL     1      10.316  10.871 -16.596  1.00  0.00    -0.508 OA
ATOM     25  H   UNL     1      11.260  10.505 -16.543  1.00  0.00     0.293 HD
ENDBRANCH   8  24
TORSDOF 5
ENDMDL
MODEL 7
REMARK VINA RESULT:    -6.087      1.239      2.781
REMARK INTER + INTRA:          -7.419
REMARK INTER:                  -7.156
REMARK INTRA:                  -0.263
REMARK UNBOUND:                -0.264
REMARK SMILES O=c1cc(-c2ccc(O)c(O)c2)oc2cc(O)cc(O)c12
REMARK SMILES IDX 4 1 3 2 2 3 1 4 21 5 19 6 18 7 16 8 15 9 14 10 13 11 5 12
REMARK SMILES IDX 6 13 7 14 8 15 12 16 10 17 9 18 11 20 20 22 17 24
REMARK H PARENT 9 19 11 21 20 23 17 25
REMARK Flexibility Score: inf
ROOT
ATOM      1  C   UNL     1       9.186  12.002 -17.893  1.00  0.00     0.138 A 
ATOM      2  C   UNL     1       8.341  11.767 -18.988  1.00  0.00     0.100 A 
ATOM      3  C   UNL     1       8.125  12.782 -19.922  1.00  0.00     0.197 A 
ATOM      4  O   UNL     1       7.315  12.562 -20.858  1.00  0.00    -0.289 OA
ATOM      5  C   UNL     1       8.785  14.025 -19.776  1.00  0.00     0.107 A 
ATOM      6  C   UNL     1       8.673  15.116 -20.688  1.00  0.00     0.134 A 
ATOM      7  C   UNL     1       9.280  16.339 -20.379  1.00  0.00     0.093 A 
ATOM      8  C   UNL     1      10.045  16.492 -19.223  1.00  0.00     0.123 A 
ATOM      9  C   UNL     1      10.205  15.415 -18.350  1.00  0.00     0.094 A 
ATOM     10  C   UNL     1       9.584  14.193 -18.613  1.00  0.00     0.146 A 
ATOM     11  O   UNL     1       9.750  13.197 -17.750  1.00  0.00    -0.456 OA
ENDROOT
BRANCH   1  12
ATOM     12  C   UNL     1       9.450  10.958 -16.870  1.00  0.00     0.021 A 
ATOM     13  C   UNL     1      10.633  10.202 -16.946  1.00  0.00     0.016 A 
ATOM     14  C   UNL     1      10.903   9.208 -16.001  1.00  0.00     0.051 A 
ATOM     15  C   UNL     1       9.992   8.947 -14.971  1.00  0.00     0.157 A 
ATOM     16  C   UNL     1       8.532  10.680 -15.839  1.00  0.00     0.062 A 
ATOM     17  C   UNL     1       8.800   9.684 -14.892  1.00  0.00     0.158 A 
BRANCH  15  18
ATOM     18  O   UNL     1      10.264   7.956 -14.029  1.00  0.00    -0.504 OA
ATOM     19  H   UNL     1      10.746   8.166 -13.162  1.00  0.00     0.293 HD
ENDBRANCH  15  18
BRANCH  17  20
ATOM     20  O   UNL     1       7.866   9.440 -13.885  1.00  0.00    -0.504 OA
ATOM     21  H   UNL     1       6.983   9.935 -13.840  1.00  0.00     0.293 HD
ENDBRANCH  17  20
ENDBRANCH   1  12
BRANCH   6  22
ATOM     22  O   UNL     1       8.004  15.044 -21.913  1.00  0.00    -0.507 OA
ATOM     23  H   UNL     1       7.001  15.047 -22.023  1.00  0.00     0.293 HD
ENDBRANCH   6  22
BRANCH   8  24
ATOM     24  O   UNL     1      10.647  17.720 -18.955  1.00  0.00    -0.508 OA
ATOM     25  H   UNL     1      10.942  18.340 -19.700  1.00  0.00     0.293 HD
ENDBRANCH   8  24
TORSDOF 5
ENDMDL
MODEL 8
REMARK VINA RESULT:    -5.994      2.112      3.748
REMARK INTER + INTRA:          -7.310
REMARK INTER:                  -7.014
REMARK INTRA:                  -0.296
REMARK UNBOUND:                -0.264
REMARK SMILES O=c1cc(-c2ccc(O)c(O)c2)oc2cc(O)cc(O)c12
REMARK SMILES IDX 4 1 3 2 2 3 1 4 21 5 19 6 18 7 16 8 15 9 14 10 13 11 5 12
REMARK SMILES IDX 6 13 7 14 8 15 12 16 10 17 9 18 11 20 20 22 17 24
REMARK H PARENT 9 19 11 21 20 23 17 25
REMARK Flexibility Score: inf
ROOT
ATOM      1  C   UNL     1       9.339  13.580 -18.457  1.00  0.00     0.138 A 
ATOM      2  C   UNL     1       9.235  13.626 -19.854  1.00  0.00     0.100 A 
ATOM      3  C   UNL     1       8.901  14.826 -20.482  1.00  0.00     0.197 A 
ATOM      4  O   UNL     1       8.755  14.821 -21.732  1.00  0.00    -0.289 OA
ATOM      5  C   UNL     1       8.702  15.994 -19.708  1.00  0.00     0.107 A 
ATOM      6  C   UNL     1       8.399  17.281 -20.243  1.00  0.00     0.134 A 
ATOM      7  C   UNL     1       8.108  18.339 -19.373  1.00  0.00     0.093 A 
ATOM      8  C   UNL     1       8.169  18.172 -17.990  1.00  0.00     0.123 A 
ATOM      9  C   UNL     1       8.517  16.930 -17.456  1.00  0.00     0.094 A 
ATOM     10  C   UNL     1       8.779  15.847 -18.297  1.00  0.00     0.146 A 
ATOM     11  O   UNL     1       9.094  14.678 -17.750  1.00  0.00    -0.456 OA
ENDROOT
BRANCH   1  12
ATOM     12  C   UNL     1       9.692  12.330 -17.738  1.00  0.00     0.021 A 
ATOM     13  C   UNL     1       9.591  12.287 -16.337  1.00  0.00     0.016 A 
ATOM     14  C   UNL     1       9.925  11.125 -15.635  1.00  0.00     0.051 A 
ATOM     15  C   UNL     1      10.375   9.991 -16.320  1.00  0.00     0.157 A 
ATOM     16  C   UNL     1      10.159  11.190 -18.419  1.00  0.00     0.062 A 
ATOM     17  C   UNL     1      10.496  10.025 -17.719  1.00  0.00     0.158 A 
BRANCH  15  18
ATOM     18  O   UNL     1      10.706   8.833 -15.619  1.00  0.00    -0.504 OA
ATOM     19  H   UNL     1      10.001   8.156 -15.348  1.00  0.00     0.293 HD
ENDBRANCH  15  18
BRANCH  17  20
ATOM     20  O   UNL     1      10.953   8.916 -18.430  1.00  0.00    -0.504 OA
ATOM     21  H   UNL     1      10.344   8.373 -19.030  1.00  0.00     0.293 HD
ENDBRANCH  17  20
ENDBRANCH   1  12
BRANCH   6  22
ATOM     22  O   UNL     1       8.394  17.579 -21.609  1.00  0.00    -0.507 OA
ATOM     23  H   UNL     1       8.239  18.496 -21.998  1.00  0.00     0.293 HD
ENDBRANCH   6  22
BRANCH   8  24
ATOM     24  O   UNL     1       7.888  19.251 -17.154  1.00  0.00    -0.508 OA
ATOM     25  H   UNL     1       8.627  19.797 -16.727  1.00  0.00     0.293 HD
ENDBRANCH   8  24
TORSDOF 5
ENDMDL
MODEL 9
REMARK VINA RESULT:    -5.934      1.752      2.292
REMARK INTER + INTRA:          -7.240
REMARK INTER:                  -6.950
REMARK INTRA:                  -0.290
REMARK UNBOUND:                -0.264
REMARK SMILES O=c1cc(-c2ccc(O)c(O)c2)oc2cc(O)cc(O)c12
REMARK SMILES IDX 4 1 3 2 2 3 1 4 21 5 19 6 18 7 16 8 15 9 14 10 13 11 5 12
REMARK SMILES IDX 6 13 7 14 8 15 12 16 10 17 9 18 11 20 20 22 17 24
REMARK H PARENT 9 19 11 21 20 23 17 25
REMARK Flexibility Score: inf
ROOT
ATOM      1  C   UNL     1       9.208  13.676 -17.909  1.00  0.00     0.138 A 
ATOM      2  C   UNL     1       8.926  14.859 -17.212  1.00  0.00     0.100 A 
ATOM      3  C   UNL     1       8.699  16.040 -17.920  1.00  0.00     0.197 A 
ATOM      4  O   UNL     1       8.511  17.097 -17.265  1.00  0.00    -0.289 OA
ATOM      5  C   UNL     1       8.722  16.027 -19.335  1.00  0.00     0.107 A 
ATOM      6  C   UNL     1       8.465  17.161 -20.162  1.00  0.00     0.134 A 
ATOM      7  C   UNL     1       8.632  17.056 -21.548  1.00  0.00     0.093 A 
ATOM      8  C   UNL     1       8.985  15.845 -22.142  1.00  0.00     0.123 A 
ATOM      9  C   UNL     1       9.188  14.716 -21.347  1.00  0.00     0.094 A 
ATOM     10  C   UNL     1       9.063  14.797 -19.959  1.00  0.00     0.146 A 
ATOM     11  O   UNL     1       9.277  13.703 -19.236  1.00  0.00    -0.456 OA
ENDROOT
BRANCH   1  12
ATOM     12  C   UNL     1       9.456  12.392 -17.206  1.00  0.00     0.021 A 
ATOM     13  C   UNL     1      10.247  11.408 -17.823  1.00  0.00     0.016 A 
ATOM     14  C   UNL     1      10.489  10.187 -17.186  1.00  0.00     0.051 A 
ATOM     15  C   UNL     1       9.937   9.926 -15.926  1.00  0.00     0.157 A 
ATOM     16  C   UNL     1       8.892  12.117 -15.945  1.00  0.00     0.062 A 
ATOM     17  C   UNL     1       9.132  10.895 -15.305  1.00  0.00     0.158 A 
BRANCH  15  18
ATOM     18  O   UNL     1      10.182   8.709 -15.292  1.00  0.00    -0.504 OA
ATOM     19  H   UNL     1       9.427   8.075 -15.053  1.00  0.00     0.293 HD
ENDBRANCH  15  18
BRANCH  17  20
ATOM     20  O   UNL     1       8.557  10.661 -14.056  1.00  0.00    -0.504 OA
ATOM     21  H   UNL     1       9.042  10.149 -13.328  1.00  0.00     0.293 HD
ENDBRANCH  17  20
ENDBRANCH   1  12
BRANCH   6  22
ATOM     22  O   UNL     1       8.024  18.396 -19.679  1.00  0.00    -0.507 OA
ATOM     23  H   UNL     1       7.059  18.686 -19.634  1.00  0.00     0.293 HD
ENDBRANCH   6  22
BRANCH   8  24
ATOM     24  O   UNL     1       9.127  15.774 -23.527  1.00  0.00    -0.508 OA
ATOM     25  H   UNL     1       9.922  15.314 -23.955  1.00  0.00     0.293 HD
ENDBRANCH   8  24
TORSDOF 5
ENDMDL
