MODEL 1
REMARK VINA RESULT:    -7.538      0.000      0.000
REMARK INTER + INTRA:          -9.177
REMARK INTER:                  -8.860
REMARK INTRA:                  -0.317
REMARK UNBOUND:                -0.317
REMARK SMILES O=c1cc(-c2ccc(O)c(O)c2)oc2cc(O)cc(O)c12
REMARK SMILES IDX 4 1 3 2 2 3 1 4 21 5 19 6 18 7 16 8 15 9 14 10 13 11 5 12
REMARK SMILES IDX 6 13 7 14 8 15 12 16 10 17 9 18 11 20 20 22 17 24
REMARK H PARENT 9 19 11 21 20 23 17 25
REMARK Flexibility Score: inf
ROOT
ATOM      1  C   UNL     1     -96.286  82.066 207.431  1.00  0.00     0.138 A 
ATOM      2  C   UNL     1     -95.465  82.585 208.441  1.00  0.00     0.100 A 
ATOM      3  C   UNL     1     -95.672  83.887 208.898  1.00  0.00     0.197 A 
ATOM      4  O   UNL     1     -94.880  84.347 209.761  1.00  0.00    -0.289 OA
ATOM      5  C   UNL     1     -96.727  84.661 208.360  1.00  0.00     0.107 A 
ATOM      6  C   UNL     1     -97.057  85.986 208.777  1.00  0.00     0.134 A 
ATOM      7  C   UNL     1     -98.050  86.698 208.091  1.00  0.00     0.093 A 
ATOM      8  C   UNL     1     -98.764  86.111 207.044  1.00  0.00     0.123 A 
ATOM      9  C   UNL     1     -98.485  84.800 206.665  1.00  0.00     0.094 A 
ATOM     10  C   UNL     1     -97.478  84.076 207.307  1.00  0.00     0.146 A 
ATOM     11  O   UNL     1     -97.234  82.833 206.905  1.00  0.00    -0.456 OA
ENDROOT
BRANCH   1  12
ATOM     12  C   UNL     1     -96.110  80.686 206.910  1.00  0.00     0.021 A 
ATOM     13  C   UNL     1     -95.027  79.878 207.305  1.00  0.00     0.016 A 
ATOM     14  C   UNL     1     -94.893  78.580 206.806  1.00  0.00     0.051 A 
ATOM     15  C   UNL     1     -95.840  78.064 205.913  1.00  0.00     0.157 A 
ATOM     16  C   UNL     1     -97.063  80.155 206.022  1.00  0.00     0.062 A 
ATOM     17  C   UNL     1     -96.931  78.855 205.521  1.00  0.00     0.158 A 
BRANCH  15  18
ATOM     18  O   UNL     1     -95.701  76.768 205.416  1.00  0.00    -0.504 OA
ATOM     19  H   UNL     1     -95.295  76.588 204.506  1.00  0.00     0.293 HD
ENDBRANCH  15  18
BRANCH  17  20
ATOM     20  O   UNL     1     -97.893  78.370 204.635  1.00  0.00    -0.504 OA
ATOM     21  H   UNL     1     -98.569  78.979 204.191  1.00  0.00     0.293 HD
ENDBRANCH  17  20
ENDBRANCH   1  12
BRANCH   6  22
ATOM     22  O   UNL     1     -96.464  86.633 209.865  1.00  0.00    -0.507 OA
ATOM     23  H   UNL     1     -96.683  86.452 210.832  1.00  0.00     0.293 HD
ENDBRANCH   6  22
BRANCH   8  24
ATOM     24  O   UNL     1     -99.760  86.822 206.377  1.00  0.00    -0.508 OA
ATOM     25  H   UNL     1     -99.905  87.811 206.542  1.00  0.00     0.293 HD
ENDBRANCH   8  24
TORSDOF 5
ENDMDL
MODEL 2
REMARK VINA RESULT:    -6.964      1.479      2.995
REMARK INTER + INTRA:          -8.502
REMARK INTER:                  -8.216
REMARK INTRA:                  -0.286
REMARK UNBOUND:                -0.317
REMARK SMILES O=c1cc(-c2ccc(O)c(O)c2)oc2cc(O)cc(O)c12
REMARK SMILES IDX 4 1 3 2 2 3 1 4 21 5 19 6 18 7 16 8 15 9 14 10 13 11 5 12
REMARK SMILES IDX 6 13 7 14 8 15 12 16 10 17 9 18 11 20 20 22 17 24
REMARK H PARENT 9 19 11 21 20 23 17 25
REMARK Flexibility Score: inf
ROOT
ATOM      1  C   UNL     1     -97.904  82.787 206.791  1.00  0.00     0.138 A 
ATOM      2  C   UNL     1     -99.041  83.249 206.115  1.00  0.00     0.100 A 
ATOM      3  C   UNL     1     -99.357  84.608 206.146  1.00  0.00     0.197 A 
ATOM      4  O   UNL     1    -100.418  84.984 205.582  1.00  0.00    -0.289 OA
ATOM      5  C   UNL     1     -98.512  85.511 206.833  1.00  0.00     0.107 A 
ATOM      6  C   UNL     1     -98.713  86.923 206.898  1.00  0.00     0.134 A 
ATOM      7  C   UNL     1     -97.874  87.703 207.704  1.00  0.00     0.093 A 
ATOM      8  C   UNL     1     -96.806  87.130 208.399  1.00  0.00     0.123 A 
ATOM      9  C   UNL     1     -96.570  85.760 208.299  1.00  0.00     0.094 A 
ATOM     10  C   UNL     1     -97.409  84.951 207.530  1.00  0.00     0.146 A 
ATOM     11  O   UNL     1     -97.158  83.648 207.473  1.00  0.00    -0.456 OA
ENDROOT
BRANCH   1  12
ATOM     12  C   UNL     1     -97.521  81.352 206.789  1.00  0.00     0.021 A 
ATOM     13  C   UNL     1     -96.830  80.768 207.867  1.00  0.00     0.016 A 
ATOM     14  C   UNL     1     -96.492  79.412 207.841  1.00  0.00     0.051 A 
ATOM     15  C   UNL     1     -96.843  78.616 206.744  1.00  0.00     0.157 A 
ATOM     16  C   UNL     1     -97.882  80.542 205.697  1.00  0.00     0.062 A 
ATOM     17  C   UNL     1     -97.544  79.184 205.668  1.00  0.00     0.158 A 
BRANCH  15  18
ATOM     18  O   UNL     1     -96.502  77.264 206.722  1.00  0.00    -0.504 OA
ATOM     19  H   UNL     1     -95.537  76.959 206.759  1.00  0.00     0.293 HD
ENDBRANCH  15  18
BRANCH  17  20
ATOM     20  O   UNL     1     -97.912  78.417 204.562  1.00  0.00    -0.504 OA
ATOM     21  H   UNL     1     -98.873  78.354 204.249  1.00  0.00     0.293 HD
ENDBRANCH  17  20
ENDBRANCH   1  12
BRANCH   6  22
ATOM     22  O   UNL     1     -99.696  87.606 206.176  1.00  0.00    -0.507 OA
ATOM     23  H   UNL     1     -99.606  88.548 205.829  1.00  0.00     0.293 HD
ENDBRANCH   6  22
BRANCH   8  24
ATOM     24  O   UNL     1     -95.968  87.916 209.188  1.00  0.00    -0.508 OA
ATOM     25  H   UNL     1     -95.020  87.629 209.403  1.00  0.00     0.293 HD
ENDBRANCH   8  24
TORSDOF 5
ENDMDL
MODEL 3
REMARK VINA RESULT:    -6.886      1.448      6.940
REMARK INTER + INTRA:          -8.411
REMARK INTER:                  -8.117
REMARK INTRA:                  -0.294
REMARK UNBOUND:                -0.317
REMARK SMILES O=c1cc(-c2ccc(O)c(O)c2)oc2cc(O)cc(O)c12
REMARK SMILES IDX 4 1 3 2 2 3 1 4 21 5 19 6 18 7 16 8 15 9 14 10 13 11 5 12
REMARK SMILES IDX 6 13 7 14 8 15 12 16 10 17 9 18 11 20 20 22 17 24
REMARK H PARENT 9 19 11 21 20 23 17 25
REMARK Flexibility Score: inf
ROOT
ATOM      1  C   UNL     1     -97.140  83.543 207.539  1.00  0.00     0.138 A 
ATOM      2  C   UNL     1     -96.265  83.097 208.540  1.00  0.00     0.100 A 
ATOM      3  C   UNL     1     -95.868  81.759 208.563  1.00  0.00     0.197 A 
ATOM      4  O   UNL     1     -95.132  81.375 209.509  1.00  0.00    -0.289 OA
ATOM      5  C   UNL     1     -96.326  80.873 207.560  1.00  0.00     0.107 A 
ATOM      6  C   UNL     1     -95.956  79.498 207.460  1.00  0.00     0.134 A 
ATOM      7  C   UNL     1     -96.563  78.688 206.493  1.00  0.00     0.093 A 
ATOM      8  C   UNL     1     -97.483  79.218 205.584  1.00  0.00     0.123 A 
ATOM      9  C   UNL     1     -97.810  80.570 205.639  1.00  0.00     0.094 A 
ATOM     10  C   UNL     1     -97.247  81.396 206.614  1.00  0.00     0.146 A 
ATOM     11  O   UNL     1     -97.597  82.677 206.642  1.00  0.00    -0.456 OA
ENDROOT
BRANCH   1  12
ATOM     12  C   UNL     1     -97.592  84.956 207.467  1.00  0.00     0.021 A 
ATOM     13  C   UNL     1     -98.585  85.370 206.560  1.00  0.00     0.016 A 
ATOM     14  C   UNL     1     -98.997  86.705 206.522  1.00  0.00     0.051 A 
ATOM     15  C   UNL     1     -98.432  87.646 207.392  1.00  0.00     0.157 A 
ATOM     16  C   UNL     1     -97.039  85.905 208.346  1.00  0.00     0.062 A 
ATOM     17  C   UNL     1     -97.450  87.242 208.310  1.00  0.00     0.158 A 
BRANCH  15  18
ATOM     18  O   UNL     1     -98.846  88.977 207.349  1.00  0.00    -0.504 OA
ATOM     19  H   UNL     1     -98.864  89.500 206.482  1.00  0.00     0.293 HD
ENDBRANCH  15  18
BRANCH  17  20
ATOM     20  O   UNL     1     -96.870  88.153 209.193  1.00  0.00    -0.504 OA
ATOM     21  H   UNL     1     -96.060  88.706 208.939  1.00  0.00     0.293 HD
ENDBRANCH  17  20
ENDBRANCH   1  12
BRANCH   6  22
ATOM     22  O   UNL     1     -94.985  78.890 208.263  1.00  0.00    -0.507 OA
ATOM     23  H   UNL     1     -94.915  78.998 209.263  1.00  0.00     0.293 HD
ENDBRANCH   6  22
BRANCH   8  24
ATOM     24  O   UNL     1     -98.072  78.407 204.615  1.00  0.00    -0.508 OA
ATOM     25  H   UNL     1     -98.883  77.837 204.823  1.00  0.00     0.293 HD
ENDBRANCH   8  24
TORSDOF 5
ENDMDL
MODEL 4
REMARK VINA RESULT:    -6.788      0.854      0.868
REMARK INTER + INTRA:          -8.296
REMARK INTER:                  -7.978
REMARK INTRA:                  -0.318
REMARK UNBOUND:                -0.317
REMARK SMILES O=c1cc(-c2ccc(O)c(O)c2)oc2cc(O)cc(O)c12
REMARK SMILES IDX 4 1 3 2 2 3 1 4 21 5 19 6 18 7 16 8 15 9 14 10 13 11 5 12
REMARK SMILES IDX 6 13 7 14 8 15 12 16 10 17 9 18 11 20 20 22 17 24
REMARK H PARENT 9 19 11 21 20 23 17 25
REMARK Flexibility Score: inf
ROOT
ATOM      1  C   UNL     1     -96.779  82.684 207.583  1.00  0.00     0.138 A 
ATOM      2  C   UNL     1     -96.002  83.251 208.603  1.00  0.00     0.100 A 
ATOM      3  C   UNL     1     -96.167  84.598 208.928  1.00  0.00     0.197 A 
ATOM      4  O   UNL     1     -95.412  85.094 209.804  1.00  0.00    -0.289 OA
ATOM      5  C   UNL     1     -97.136  85.372 208.248  1.00  0.00     0.107 A 
ATOM      6  C   UNL     1     -97.420  86.743 208.523  1.00  0.00     0.134 A 
ATOM      7  C   UNL     1     -98.321  87.439 207.707  1.00  0.00     0.093 A 
ATOM      8  C   UNL     1     -98.993  86.796 206.664  1.00  0.00     0.123 A 
ATOM      9  C   UNL     1     -98.763  85.443 206.423  1.00  0.00     0.094 A 
ATOM     10  C   UNL     1     -97.845  84.731 207.197  1.00  0.00     0.146 A 
ATOM     11  O   UNL     1     -97.644  83.447 206.924  1.00  0.00    -0.456 OA
ENDROOT
BRANCH   1  12
ATOM     12  C   UNL     1     -96.645  81.256 207.199  1.00  0.00     0.021 A 
ATOM     13  C   UNL     1     -95.814  80.372 207.912  1.00  0.00     0.016 A 
ATOM     14  C   UNL     1     -95.716  79.030 207.533  1.00  0.00     0.051 A 
ATOM     15  C   UNL     1     -96.451  78.547 206.443  1.00  0.00     0.157 A 
ATOM     16  C   UNL     1     -97.390  80.759 206.114  1.00  0.00     0.062 A 
ATOM     17  C   UNL     1     -97.293  79.416 205.732  1.00  0.00     0.158 A 
BRANCH  15  18
ATOM     18  O   UNL     1     -96.348  77.208 206.068  1.00  0.00    -0.504 OA
ATOM     19  H   UNL     1     -97.068  76.753 205.520  1.00  0.00     0.293 HD
ENDBRANCH  15  18
BRANCH  17  20
ATOM     20  O   UNL     1     -98.041  78.965 204.644  1.00  0.00    -0.504 OA
ATOM     21  H   UNL     1     -97.903  79.330 203.710  1.00  0.00     0.293 HD
ENDBRANCH  17  20
ENDBRANCH   1  12
BRANCH   6  22
ATOM     22  O   UNL     1     -96.868  87.456 209.592  1.00  0.00    -0.507 OA
ATOM     23  H   UNL     1     -96.736  87.090 210.522  1.00  0.00     0.293 HD
ENDBRANCH   6  22
BRANCH   8  24
ATOM     24  O   UNL     1     -99.899  87.492 205.866  1.00  0.00    -0.508 OA
ATOM     25  H   UNL     1    -100.556  87.009 205.265  1.00  0.00     0.293 HD
ENDBRANCH   8  24
TORSDOF 5
ENDMDL
MODEL 5
REMARK VINA RESULT:    -6.667      2.177      7.172
REMARK INTER + INTRA:          -8.153
REMARK INTER:                  -7.874
REMARK INTRA:                  -0.279
REMARK UNBOUND:                -0.317
REMARK SMILES O=c1cc(-c2ccc(O)c(O)c2)oc2cc(O)cc(O)c12
REMARK SMILES IDX 4 1 3 2 2 3 1 4 21 5 19 6 18 7 16 8 15 9 14 10 13 11 5 12
REMARK SMILES IDX 6 13 7 14 8 15 12 16 10 17 9 18 11 20 20 22 17 24
REMARK H PARENT 9 19 11 21 20 23 17 25
REMARK Flexibility Score: inf
ROOT
ATOM      1  C   UNL     1     -96.902  85.170 208.101  1.00  0.00     0.138 A 
ATOM      2  C   UNL     1     -96.095  84.784 209.181  1.00  0.00     0.100 A 
ATOM      3  C   UNL     1     -95.897  83.428 209.444  1.00  0.00     0.197 A 
ATOM      4  O   UNL     1     -95.219  83.113 210.456  1.00  0.00    -0.289 OA
ATOM      5  C   UNL     1     -96.487  82.455 208.603  1.00  0.00     0.107 A 
ATOM      6  C   UNL     1     -96.322  81.046 208.751  1.00  0.00     0.134 A 
ATOM      7  C   UNL     1     -97.047  80.175 207.928  1.00  0.00     0.093 A 
ATOM      8  C   UNL     1     -97.886  80.665 206.923  1.00  0.00     0.123 A 
ATOM      9  C   UNL     1     -98.012  82.040 206.736  1.00  0.00     0.094 A 
ATOM     10  C   UNL     1     -97.328  82.933 207.563  1.00  0.00     0.146 A 
ATOM     11  O   UNL     1     -97.487  84.236 207.360  1.00  0.00    -0.456 OA
ENDROOT
BRANCH   1  12
ATOM     12  C   UNL     1     -97.143  86.599 207.776  1.00  0.00     0.021 A 
ATOM     13  C   UNL     1     -97.219  87.052 206.445  1.00  0.00     0.016 A 
ATOM     14  C   UNL     1     -97.457  88.401 206.169  1.00  0.00     0.051 A 
ATOM     15  C   UNL     1     -97.631  89.318 207.214  1.00  0.00     0.157 A 
ATOM     16  C   UNL     1     -97.333  87.524 208.818  1.00  0.00     0.062 A 
ATOM     17  C   UNL     1     -97.571  88.875 208.544  1.00  0.00     0.158 A 
BRANCH  15  18
ATOM     18  O   UNL     1     -97.868  90.663 206.933  1.00  0.00    -0.504 OA
ATOM     19  H   UNL     1     -98.736  90.974 206.515  1.00  0.00     0.293 HD
ENDBRANCH  15  18
BRANCH  17  20
ATOM     20  O   UNL     1     -97.744  89.762 209.608  1.00  0.00    -0.504 OA
ATOM     21  H   UNL     1     -98.211  90.653 209.494  1.00  0.00     0.293 HD
ENDBRANCH  17  20
ENDBRANCH   1  12
BRANCH   6  22
ATOM     22  O   UNL     1     -95.445  80.454 209.666  1.00  0.00    -0.507 OA
ATOM     23  H   UNL     1     -95.632  79.606 210.177  1.00  0.00     0.293 HD
ENDBRANCH   6  22
BRANCH   8  24
ATOM     24  O   UNL     1     -98.594  79.791 206.100  1.00  0.00    -0.508 OA
ATOM     25  H   UNL     1     -98.384  79.708 205.112  1.00  0.00     0.293 HD
ENDBRANCH   8  24
TORSDOF 5
ENDMDL
MODEL 6
REMARK VINA RESULT:    -6.649      2.144      7.363
REMARK INTER + INTRA:          -8.132
REMARK INTER:                  -7.819
REMARK INTRA:                  -0.313
REMARK UNBOUND:                -0.317
REMARK SMILES O=c1cc(-c2ccc(O)c(O)c2)oc2cc(O)cc(O)c12
REMARK SMILES IDX 4 1 3 2 2 3 1 4 21 5 19 6 18 7 16 8 15 9 14 10 13 11 5 12
REMARK SMILES IDX 6 13 7 14 8 15 12 16 10 17 9 18 11 20 20 22 17 24
REMARK H PARENT 9 19 11 21 20 23 17 25
REMARK Flexibility Score: inf
ROOT
ATOM      1  C   UNL     1     -97.202  83.264 207.937  1.00  0.00     0.138 A 
ATOM      2  C   UNL     1     -97.908  82.722 206.854  1.00  0.00     0.100 A 
ATOM      3  C   UNL     1     -98.001  81.336 206.716  1.00  0.00     0.197 A 
ATOM      4  O   UNL     1     -98.587  80.879 205.700  1.00  0.00    -0.289 OA
ATOM      5  C   UNL     1     -97.409  80.491 207.684  1.00  0.00     0.107 A 
ATOM      6  C   UNL     1     -97.474  79.066 207.667  1.00  0.00     0.134 A 
ATOM      7  C   UNL     1     -96.752  78.331 208.616  1.00  0.00     0.093 A 
ATOM      8  C   UNL     1     -96.016  78.972 209.616  1.00  0.00     0.123 A 
ATOM      9  C   UNL     1     -95.991  80.363 209.673  1.00  0.00     0.094 A 
ATOM     10  C   UNL     1     -96.673  81.123 208.721  1.00  0.00     0.146 A 
ATOM     11  O   UNL     1     -96.611  82.448 208.802  1.00  0.00    -0.456 OA
ENDROOT
BRANCH   1  12
ATOM     12  C   UNL     1     -97.075  84.731 208.133  1.00  0.00     0.021 A 
ATOM     13  C   UNL     1     -97.973  85.638 207.539  1.00  0.00     0.016 A 
ATOM     14  C   UNL     1     -97.834  87.012 207.750  1.00  0.00     0.051 A 
ATOM     15  C   UNL     1     -96.804  87.503 208.561  1.00  0.00     0.157 A 
ATOM     16  C   UNL     1     -96.051  85.232 208.957  1.00  0.00     0.062 A 
ATOM     17  C   UNL     1     -95.910  86.608 209.169  1.00  0.00     0.158 A 
BRANCH  15  18
ATOM     18  O   UNL     1     -96.668  88.876 208.767  1.00  0.00    -0.504 OA
ATOM     19  H   UNL     1     -97.284  89.383 209.390  1.00  0.00     0.293 HD
ENDBRANCH  15  18
BRANCH  17  20
ATOM     20  O   UNL     1     -94.875  87.065 209.986  1.00  0.00    -0.504 OA
ATOM     21  H   UNL     1     -95.043  87.411 210.922  1.00  0.00     0.293 HD
ENDBRANCH  17  20
ENDBRANCH   1  12
BRANCH   6  22
ATOM     22  O   UNL     1     -98.247  78.330 206.764  1.00  0.00    -0.507 OA
ATOM     23  H   UNL     1     -99.247  78.214 206.822  1.00  0.00     0.293 HD
ENDBRANCH   6  22
BRANCH   8  24
ATOM     24  O   UNL     1     -95.312  78.232 210.565  1.00  0.00    -0.508 OA
ATOM     25  H   UNL     1     -94.518  78.622 211.057  1.00  0.00     0.293 HD
ENDBRANCH   8  24
TORSDOF 5
ENDMDL
MODEL 7
REMARK VINA RESULT:    -6.398      2.158      3.123
REMARK INTER + INTRA:          -7.837
REMARK INTER:                  -7.533
REMARK INTRA:                  -0.305
REMARK UNBOUND:                -0.317
REMARK SMILES O=c1cc(-c2ccc(O)c(O)c2)oc2cc(O)cc(O)c12
REMARK SMILES IDX 4 1 3 2 2 3 1 4 21 5 19 6 18 7 16 8 15 9 14 10 13 11 5 12
REMARK SMILES IDX 6 13 7 14 8 15 12 16 10 17 9 18 11 20 20 22 17 24
REMARK H PARENT 9 19 11 21 20 23 17 25
REMARK Flexibility Score: inf
ROOT
ATOM      1  C   UNL     1     -98.405  83.082 206.598  1.00  0.00     0.138 A 
ATOM      2  C   UNL     1     -97.796  84.127 207.307  1.00  0.00     0.100 A 
ATOM      3  C   UNL     1     -98.187  85.445 207.065  1.00  0.00     0.197 A 
ATOM      4  O   UNL     1     -97.578  86.365 207.670  1.00  0.00    -0.289 OA
ATOM      5  C   UNL     1     -99.215  85.713 206.131  1.00  0.00     0.107 A 
ATOM      6  C   UNL     1     -99.723  87.013 205.833  1.00  0.00     0.134 A 
ATOM      7  C   UNL     1    -100.662  87.168 204.806  1.00  0.00     0.093 A 
ATOM      8  C   UNL     1    -101.155  86.063 204.107  1.00  0.00     0.123 A 
ATOM      9  C   UNL     1    -100.705  84.785 204.428  1.00  0.00     0.094 A 
ATOM     10  C   UNL     1     -99.744  84.601 205.424  1.00  0.00     0.146 A 
ATOM     11  O   UNL     1     -99.330  83.366 205.688  1.00  0.00    -0.456 OA
ENDROOT
BRANCH   1  12
ATOM     12  C   UNL     1     -98.029  81.662 206.818  1.00  0.00     0.021 A 
ATOM     13  C   UNL     1     -97.635  81.188 208.083  1.00  0.00     0.016 A 
ATOM     14  C   UNL     1     -97.296  79.844 208.263  1.00  0.00     0.051 A 
ATOM     15  C   UNL     1     -97.351  78.951 207.186  1.00  0.00     0.157 A 
ATOM     16  C   UNL     1     -98.094  80.755 205.745  1.00  0.00     0.062 A 
ATOM     17  C   UNL     1     -97.754  79.409 205.922  1.00  0.00     0.158 A 
BRANCH  15  18
ATOM     18  O   UNL     1     -97.010  77.611 207.369  1.00  0.00    -0.504 OA
ATOM     19  H   UNL     1     -97.622  76.861 207.070  1.00  0.00     0.293 HD
ENDBRANCH  15  18
BRANCH  17  20
ATOM     20  O   UNL     1     -97.823  78.544 204.829  1.00  0.00    -0.504 OA
ATOM     21  H   UNL     1     -98.558  78.613 204.135  1.00  0.00     0.293 HD
ENDBRANCH  17  20
ENDBRANCH   1  12
BRANCH   6  22
ATOM     22  O   UNL     1     -99.361  88.171 206.528  1.00  0.00    -0.507 OA
ATOM     23  H   UNL     1     -99.011  89.014 206.100  1.00  0.00     0.293 HD
ENDBRANCH   6  22
BRANCH   8  24
ATOM     24  O   UNL     1    -102.101  86.226 203.096  1.00  0.00    -0.508 OA
ATOM     25  H   UNL     1    -101.855  86.119 202.119  1.00  0.00     0.293 HD
ENDBRANCH   8  24
TORSDOF 5
ENDMDL
MODEL 8
REMARK VINA RESULT:    -6.374      2.066      3.581
REMARK INTER + INTRA:          -7.809
REMARK INTER:                  -7.541
REMARK INTRA:                  -0.268
REMARK UNBOUND:                -0.317
REMARK SMILES O=c1cc(-c2ccc(O)c(O)c2)oc2cc(O)cc(O)c12
REMARK SMILES IDX 4 1 3 2 2 3 1 4 21 5 19 6 18 7 16 8 15 9 14 10 13 11 5 12
REMARK SMILES IDX 6 13 7 14 8 15 12 16 10 17 9 18 11 20 20 22 17 24
REMARK H PARENT 9 19 11 21 20 23 17 25
REMARK Flexibility Score: inf
ROOT
ATOM      1  C   UNL     1     -97.129  83.581 207.565  1.00  0.00     0.138 A 
ATOM      2  C   UNL     1     -98.342  83.760 206.886  1.00  0.00     0.100 A 
ATOM      3  C   UNL     1     -98.852  85.047 206.712  1.00  0.00     0.197 A 
ATOM      4  O   UNL     1     -99.973  85.171 206.154  1.00  0.00    -0.289 OA
ATOM      5  C   UNL     1     -98.127  86.162 207.195  1.00  0.00     0.107 A 
ATOM      6  C   UNL     1     -98.529  87.522 207.040  1.00  0.00     0.134 A 
ATOM      7  C   UNL     1     -97.789  88.536 207.660  1.00  0.00     0.093 A 
ATOM      8  C   UNL     1     -96.628  88.243 208.380  1.00  0.00     0.123 A 
ATOM      9  C   UNL     1     -96.197  86.923 208.491  1.00  0.00     0.094 A 
ATOM     10  C   UNL     1     -96.933  85.887 207.912  1.00  0.00     0.146 A 
ATOM     11  O   UNL     1     -96.495  84.641 208.055  1.00  0.00    -0.456 OA
ENDROOT
BRANCH   1  12
ATOM     12  C   UNL     1     -96.540  82.233 207.775  1.00  0.00     0.021 A 
ATOM     13  C   UNL     1     -95.746  81.611 206.794  1.00  0.00     0.016 A 
ATOM     14  C   UNL     1     -95.197  80.347 207.024  1.00  0.00     0.051 A 
ATOM     15  C   UNL     1     -95.425  79.687 208.238  1.00  0.00     0.157 A 
ATOM     16  C   UNL     1     -96.753  81.569 208.996  1.00  0.00     0.062 A 
ATOM     17  C   UNL     1     -96.204  80.302 209.229  1.00  0.00     0.158 A 
BRANCH  15  18
ATOM     18  O   UNL     1     -94.876  78.424 208.462  1.00  0.00    -0.504 OA
ATOM     19  H   UNL     1     -95.413  77.679 208.888  1.00  0.00     0.293 HD
ENDBRANCH  15  18
BRANCH  17  20
ATOM     20  O   UNL     1     -96.447  79.674 210.451  1.00  0.00    -0.504 OA
ATOM     21  H   UNL     1     -97.251  79.902 211.022  1.00  0.00     0.293 HD
ENDBRANCH  17  20
ENDBRANCH   1  12
BRANCH   6  22
ATOM     22  O   UNL     1     -99.624  87.930 206.271  1.00  0.00    -0.507 OA
ATOM     23  H   UNL     1    -100.191  88.742 206.461  1.00  0.00     0.293 HD
ENDBRANCH   6  22
BRANCH   8  24
ATOM     24  O   UNL     1     -95.889  89.260 208.982  1.00  0.00    -0.508 OA
ATOM     25  H   UNL     1     -95.914  89.410 209.984  1.00  0.00     0.293 HD
ENDBRANCH   8  24
TORSDOF 5
ENDMDL
MODEL 9
REMARK VINA RESULT:    -6.268      2.650      6.363
REMARK INTER + INTRA:          -7.684
REMARK INTER:                  -7.413
REMARK INTRA:                  -0.271
REMARK UNBOUND:                -0.317
REMARK SMILES O=c1cc(-c2ccc(O)c(O)c2)oc2cc(O)cc(O)c12
REMARK SMILES IDX 4 1 3 2 2 3 1 4 21 5 19 6 18 7 16 8 15 9 14 10 13 11 5 12
REMARK SMILES IDX 6 13 7 14 8 15 12 16 10 17 9 18 11 20 20 22 17 24
REMARK H PARENT 9 19 11 21 20 23 17 25
REMARK Flexibility Score: inf
ROOT
ATOM      1  C   UNL     1     -98.511  85.196 206.829  1.00  0.00     0.138 A 
ATOM      2  C   UNL     1     -98.080  86.188 207.722  1.00  0.00     0.100 A 
ATOM      3  C   UNL     1     -97.117  85.879 208.684  1.00  0.00     0.197 A 
ATOM      4  O   UNL     1     -96.797  86.772 209.511  1.00  0.00    -0.289 OA
ATOM      5  C   UNL     1     -96.562  84.579 208.731  1.00  0.00     0.107 A 
ATOM      6  C   UNL     1     -95.546  84.162 209.642  1.00  0.00     0.134 A 
ATOM      7  C   UNL     1     -95.156  82.817 209.673  1.00  0.00     0.093 A 
ATOM      8  C   UNL     1     -95.702  81.888 208.784  1.00  0.00     0.123 A 
ATOM      9  C   UNL     1     -96.655  82.297 207.855  1.00  0.00     0.094 A 
ATOM     10  C   UNL     1     -97.090  83.624 207.822  1.00  0.00     0.146 A 
ATOM     11  O   UNL     1     -98.012  83.969 206.930  1.00  0.00    -0.456 OA
ENDROOT
BRANCH   1  12
ATOM     12  C   UNL     1     -99.530  85.471 205.785  1.00  0.00     0.021 A 
ATOM     13  C   UNL     1    -100.686  84.679 205.652  1.00  0.00     0.016 A 
ATOM     14  C   UNL     1    -101.633  84.968 204.666  1.00  0.00     0.051 A 
ATOM     15  C   UNL     1    -101.447  86.056 203.803  1.00  0.00     0.157 A 
ATOM     16  C   UNL     1     -99.358  86.570 204.923  1.00  0.00     0.062 A 
ATOM     17  C   UNL     1    -100.306  86.861 203.935  1.00  0.00     0.158 A 
BRANCH  15  18
ATOM     18  O   UNL     1    -102.395  86.339 202.820  1.00  0.00    -0.504 OA
ATOM     19  H   UNL     1    -103.192  86.936 203.006  1.00  0.00     0.293 HD
ENDBRANCH  15  18
BRANCH  17  20
ATOM     20  O   UNL     1    -100.093  87.954 203.094  1.00  0.00    -0.504 OA
ATOM     21  H   UNL     1     -99.164  88.235 202.804  1.00  0.00     0.293 HD
ENDBRANCH  17  20
ENDBRANCH   1  12
BRANCH   6  22
ATOM     22  O   UNL     1     -94.875  85.026 210.513  1.00  0.00    -0.507 OA
ATOM     23  H   UNL     1     -93.875  85.142 210.553  1.00  0.00     0.293 HD
ENDBRANCH   6  22
BRANCH   8  24
ATOM     24  O   UNL     1     -95.297  80.555 208.812  1.00  0.00    -0.508 OA
ATOM     25  H   UNL     1     -95.966  79.796 208.758  1.00  0.00     0.293 HD
ENDBRANCH   8  24
TORSDOF 5
ENDMDL
