MODEL 1
REMARK VINA RESULT:    -4.093      0.000      0.000
REMARK INTER + INTRA:         -13.117
REMARK INTER:                  -9.356
REMARK INTRA:                  -3.761
REMARK UNBOUND:                -3.761
REMARK SMILES CCCCCCCCCCCCCCCCCCCCCCCC(=O)[O-]
REMARK SMILES IDX 13 1 14 2 15 3 16 4 17 5 18 6 19 7 20 8 21 9 22 10 23 11
REMARK SMILES IDX 24 12 25 13 26 14 12 15 11 16 10 17 9 18 8 19 7 20 6 21 5 22
REMARK SMILES IDX 4 23 3 24 2 25 1 26
REMARK H PARENT
REMARK Flexibility Score: inf
ROOT
ATOM      1  C   UNL     1       0.759  17.405  27.482  1.00  0.00     0.000 C 
ENDROOT
BRANCH   1   2
ATOM      2  C   UNL     1       1.880  16.354  27.344  1.00  0.00     0.000 C 
BRANCH   2   3
ATOM      3  C   UNL     1       3.297  16.920  27.574  1.00  0.00     0.000 C 
BRANCH   3   4
ATOM      4  C   UNL     1       3.288  18.426  27.886  1.00  0.00     0.000 C 
BRANCH   4   5
ATOM      5  C   UNL     1       4.436  18.852  28.821  1.00  0.00     0.000 C 
BRANCH   5   6
ATOM      6  C   UNL     1       4.484  20.355  29.156  1.00  0.00     0.000 C 
BRANCH   6   7
ATOM      7  C   UNL     1       5.169  20.647  30.502  1.00  0.00     0.000 C 
BRANCH   7   8
ATOM      8  C   UNL     1       6.133  21.843  30.427  1.00  0.00     0.000 C 
BRANCH   8   9
ATOM      9  C   UNL     1       6.105  22.543  29.060  1.00  0.00     0.000 C 
BRANCH   9  10
ATOM     10  C   UNL     1       7.530  22.762  28.528  1.00  0.00     0.006 C 
BRANCH  10  11
ATOM     11  C   UNL     1       8.096  21.508  27.851  1.00  0.00     0.053 C 
BRANCH  11  12
ATOM     12  C   UNL     1       9.592  21.470  27.916  1.00  0.00     0.041 C 
ATOM     13  O   UNL     1      10.278  21.660  26.876  1.00  0.00    -0.550 OA
ATOM     14  O   UNL     1      10.231  21.254  29.131  1.00  0.00    -0.550 OA
ENDBRANCH  11  12
ENDBRANCH  10  11
ENDBRANCH   9  10
ENDBRANCH   8   9
ENDBRANCH   7   8
ENDBRANCH   6   7
ENDBRANCH   5   6
ENDBRANCH   4   5
ENDBRANCH   3   4
ENDBRANCH   2   3
ENDBRANCH   1   2
BRANCH   1  15
ATOM     15  C   UNL     1      -0.217  17.171  28.651  1.00  0.00     0.000 C 
BRANCH  15  16
ATOM     16  C   UNL     1      -0.722  18.453  29.338  1.00  0.00     0.000 C 
BRANCH  16  17
ATOM     17  C   UNL     1       0.386  19.501  29.530  1.00  0.00     0.000 C 
BRANCH  17  18
ATOM     18  C   UNL     1       0.656  19.819  31.012  1.00  0.00    -0.000 C 
BRANCH  18  19
ATOM     19  C   UNL     1       1.943  19.201  31.587  1.00  0.00    -0.000 C 
BRANCH  19  20
ATOM     20  C   UNL     1       1.736  17.775  32.125  1.00  0.00    -0.000 C 
BRANCH  20  21
ATOM     21  C   UNL     1       2.853  16.813  31.685  1.00  0.00    -0.000 C 
BRANCH  21  22
ATOM     22  C   UNL     1       2.313  15.600  30.911  1.00  0.00    -0.000 C 
BRANCH  22  23
ATOM     23  C   UNL     1       0.909  15.217  31.402  1.00  0.00    -0.000 C 
BRANCH  23  24
ATOM     24  C   UNL     1       0.503  13.787  31.003  1.00  0.00    -0.000 C 
BRANCH  24  25
ATOM     25  C   UNL     1       0.286  13.575  29.493  1.00  0.00    -0.003 C 
ATOM     26  C   UNL     1       1.444  12.839  28.821  1.00  0.00     0.004 C 
ENDBRANCH  24  25
ENDBRANCH  23  24
ENDBRANCH  22  23
ENDBRANCH  21  22
ENDBRANCH  20  21
ENDBRANCH  19  20
ENDBRANCH  18  19
ENDBRANCH  17  18
ENDBRANCH  16  17
ENDBRANCH  15  16
ENDBRANCH   1  15
TORSDOF 22
ENDMDL
MODEL 2
REMARK VINA RESULT:    -4.083      1.092      2.074
REMARK INTER + INTRA:         -13.094
REMARK INTER:                  -9.497
REMARK INTRA:                  -3.597
REMARK UNBOUND:                -3.761
REMARK SMILES CCCCCCCCCCCCCCCCCCCCCCCC(=O)[O-]
REMARK SMILES IDX 13 1 14 2 15 3 16 4 17 5 18 6 19 7 20 8 21 9 22 10 23 11
REMARK SMILES IDX 24 12 25 13 26 14 12 15 11 16 10 17 9 18 8 19 7 20 6 21 5 22
REMARK SMILES IDX 4 23 3 24 2 25 1 26
REMARK H PARENT
REMARK Flexibility Score: inf
ROOT
ATOM      1  C   UNL     1       3.272  16.474  27.404  1.00  0.00     0.000 C 
ENDROOT
BRANCH   1   2
ATOM      2  C   UNL     1       3.740  17.840  27.946  1.00  0.00     0.000 C 
BRANCH   2   3
ATOM      3  C   UNL     1       5.093  17.787  28.686  1.00  0.00     0.000 C 
BRANCH   3   4
ATOM      4  C   UNL     1       5.164  18.778  29.860  1.00  0.00     0.000 C 
BRANCH   4   5
ATOM      5  C   UNL     1       4.630  20.177  29.499  1.00  0.00     0.000 C 
BRANCH   5   6
ATOM      6  C   UNL     1       5.590  21.050  28.669  1.00  0.00     0.000 C 
BRANCH   6   7
ATOM      7  C   UNL     1       5.867  22.418  29.316  1.00  0.00     0.000 C 
BRANCH   7   8
ATOM      8  C   UNL     1       7.341  22.840  29.198  1.00  0.00     0.000 C 
BRANCH   8   9
ATOM      9  C   UNL     1       8.314  21.699  29.535  1.00  0.00     0.000 C 
BRANCH   9  10
ATOM     10  C   UNL     1       9.716  21.996  28.983  1.00  0.00     0.006 C 
BRANCH  10  11
ATOM     11  C   UNL     1       9.757  21.961  27.450  1.00  0.00     0.053 C 
BRANCH  11  12
ATOM     12  C   UNL     1      10.096  20.596  26.935  1.00  0.00     0.041 C 
ATOM     13  O   UNL     1       9.370  20.048  26.064  1.00  0.00    -0.550 OA
ATOM     14  O   UNL     1      11.231  19.940  27.397  1.00  0.00    -0.550 OA
ENDBRANCH  11  12
ENDBRANCH  10  11
ENDBRANCH   9  10
ENDBRANCH   8   9
ENDBRANCH   7   8
ENDBRANCH   6   7
ENDBRANCH   5   6
ENDBRANCH   4   5
ENDBRANCH   3   4
ENDBRANCH   2   3
ENDBRANCH   1   2
BRANCH   1  15
ATOM     15  C   UNL     1       1.758  16.210  27.513  1.00  0.00     0.000 C 
BRANCH  15  16
ATOM     16  C   UNL     1       0.883  17.475  27.572  1.00  0.00     0.000 C 
BRANCH  16  17
ATOM     17  C   UNL     1      -0.267  17.356  28.585  1.00  0.00     0.000 C 
BRANCH  17  18
ATOM     18  C   UNL     1      -0.286  18.510  29.604  1.00  0.00    -0.000 C 
BRANCH  18  19
ATOM     19  C   UNL     1       1.084  19.153  29.885  1.00  0.00    -0.000 C 
BRANCH  19  20
ATOM     20  C   UNL     1       1.494  19.069  31.365  1.00  0.00    -0.000 C 
BRANCH  20  21
ATOM     21  C   UNL     1       1.473  17.627  31.900  1.00  0.00    -0.000 C 
BRANCH  21  22
ATOM     22  C   UNL     1       2.646  16.787  31.371  1.00  0.00    -0.000 C 
BRANCH  22  23
ATOM     23  C   UNL     1       2.175  15.383  30.965  1.00  0.00    -0.000 C 
BRANCH  23  24
ATOM     24  C   UNL     1       0.734  15.081  31.411  1.00  0.00    -0.000 C 
BRANCH  24  25
ATOM     25  C   UNL     1       0.196  13.706  30.973  1.00  0.00    -0.003 C 
ATOM     26  C   UNL     1      -0.789  13.792  29.809  1.00  0.00     0.004 C 
ENDBRANCH  24  25
ENDBRANCH  23  24
ENDBRANCH  22  23
ENDBRANCH  21  22
ENDBRANCH  20  21
ENDBRANCH  19  20
ENDBRANCH  18  19
ENDBRANCH  17  18
ENDBRANCH  16  17
ENDBRANCH  15  16
ENDBRANCH   1  15
TORSDOF 22
ENDMDL
MODEL 3
REMARK VINA RESULT:    -4.043      3.937      7.881
REMARK INTER + INTRA:         -13.004
REMARK INTER:                  -8.846
REMARK INTRA:                  -4.158
REMARK UNBOUND:                -3.761
REMARK SMILES CCCCCCCCCCCCCCCCCCCCCCCC(=O)[O-]
REMARK SMILES IDX 13 1 14 2 15 3 16 4 17 5 18 6 19 7 20 8 21 9 22 10 23 11
REMARK SMILES IDX 24 12 25 13 26 14 12 15 11 16 10 17 9 18 8 19 7 20 6 21 5 22
REMARK SMILES IDX 4 23 3 24 2 25 1 26
REMARK H PARENT
REMARK Flexibility Score: inf
ROOT
ATOM      1  C   UNL     1       3.192  17.030  27.112  1.00  0.00     0.000 C 
ENDROOT
BRANCH   1   2
ATOM      2  C   UNL     1       1.817  16.392  27.398  1.00  0.00     0.000 C 
BRANCH   2   3
ATOM      3  C   UNL     1       0.660  17.411  27.472  1.00  0.00     0.000 C 
BRANCH   3   4
ATOM      4  C   UNL     1       0.004  17.461  28.863  1.00  0.00     0.000 C 
BRANCH   4   5
ATOM      5  C   UNL     1       0.663  16.503  29.872  1.00  0.00     0.000 C 
BRANCH   5   6
ATOM      6  C   UNL     1       1.441  17.186  31.013  1.00  0.00     0.000 C 
BRANCH   6   7
ATOM      7  C   UNL     1       2.660  16.372  31.478  1.00  0.00     0.000 C 
BRANCH   7   8
ATOM      8  C   UNL     1       2.454  14.856  31.318  1.00  0.00     0.000 C 
BRANCH   8   9
ATOM      9  C   UNL     1       3.548  14.195  30.466  1.00  0.00     0.000 C 
BRANCH   9  10
ATOM     10  C   UNL     1       3.063  12.853  29.898  1.00  0.00     0.006 C 
BRANCH  10  11
ATOM     11  C   UNL     1       2.210  13.030  28.635  1.00  0.00     0.053 C 
BRANCH  11  12
ATOM     12  C   UNL     1       0.839  12.452  28.806  1.00  0.00     0.041 C 
ATOM     13  O   UNL     1       0.009  13.004  29.577  1.00  0.00    -0.550 OA
ATOM     14  O   UNL     1       0.467  11.319  28.093  1.00  0.00    -0.550 OA
ENDBRANCH  11  12
ENDBRANCH  10  11
ENDBRANCH   9  10
ENDBRANCH   8   9
ENDBRANCH   7   8
ENDBRANCH   6   7
ENDBRANCH   5   6
ENDBRANCH   4   5
ENDBRANCH   3   4
ENDBRANCH   2   3
ENDBRANCH   1   2
BRANCH   1  15
ATOM     15  C   UNL     1       4.181  17.010  28.293  1.00  0.00     0.000 C 
BRANCH  15  16
ATOM     16  C   UNL     1       4.560  18.397  28.844  1.00  0.00     0.000 C 
BRANCH  16  17
ATOM     17  C   UNL     1       3.684  19.523  28.272  1.00  0.00     0.000 C 
BRANCH  17  18
ATOM     18  C   UNL     1       2.782  20.177  29.335  1.00  0.00    -0.000 C 
BRANCH  18  19
ATOM     19  C   UNL     1       3.432  20.356  30.719  1.00  0.00    -0.000 C 
BRANCH  19  20
ATOM     20  C   UNL     1       4.015  21.764  30.930  1.00  0.00    -0.000 C 
BRANCH  20  21
ATOM     21  C   UNL     1       5.515  21.835  30.600  1.00  0.00    -0.000 C 
BRANCH  21  22
ATOM     22  C   UNL     1       5.888  23.111  29.829  1.00  0.00    -0.000 C 
BRANCH  22  23
ATOM     23  C   UNL     1       6.981  22.823  28.789  1.00  0.00    -0.000 C 
BRANCH  23  24
ATOM     24  C   UNL     1       6.756  21.503  28.031  1.00  0.00    -0.000 C 
BRANCH  24  25
ATOM     25  C   UNL     1       8.044  20.759  27.633  1.00  0.00    -0.003 C 
ATOM     26  C   UNL     1       8.110  19.337  28.188  1.00  0.00     0.004 C 
ENDBRANCH  24  25
ENDBRANCH  23  24
ENDBRANCH  22  23
ENDBRANCH  21  22
ENDBRANCH  20  21
ENDBRANCH  19  20
ENDBRANCH  18  19
ENDBRANCH  17  18
ENDBRANCH  16  17
ENDBRANCH  15  16
ENDBRANCH   1  15
TORSDOF 22
ENDMDL
MODEL 4
REMARK VINA RESULT:    -4.025      1.920      4.313
REMARK INTER + INTRA:         -12.962
REMARK INTER:                 -10.289
REMARK INTRA:                  -2.673
REMARK UNBOUND:                -3.761
REMARK SMILES CCCCCCCCCCCCCCCCCCCCCCCC(=O)[O-]
REMARK SMILES IDX 13 1 14 2 15 3 16 4 17 5 18 6 19 7 20 8 21 9 22 10 23 11
REMARK SMILES IDX 24 12 25 13 26 14 12 15 11 16 10 17 9 18 8 19 7 20 6 21 5 22
REMARK SMILES IDX 4 23 3 24 2 25 1 26
REMARK H PARENT
REMARK Flexibility Score: inf
ROOT
ATOM      1  C   UNL     1       2.873  16.661  28.343  1.00  0.00     0.000 C 
ENDROOT
BRANCH   1   2
ATOM      2  C   UNL     1       4.003  17.638  27.959  1.00  0.00     0.000 C 
BRANCH   2   3
ATOM      3  C   UNL     1       3.586  19.123  28.007  1.00  0.00     0.000 C 
BRANCH   3   4
ATOM      4  C   UNL     1       3.926  19.789  29.352  1.00  0.00     0.000 C 
BRANCH   4   5
ATOM      5  C   UNL     1       5.430  20.076  29.516  1.00  0.00     0.000 C 
BRANCH   5   6
ATOM      6  C   UNL     1       5.772  21.323  30.354  1.00  0.00     0.000 C 
BRANCH   6   7
ATOM      7  C   UNL     1       5.918  22.595  29.502  1.00  0.00     0.000 C 
BRANCH   7   8
ATOM      8  C   UNL     1       6.866  22.400  28.307  1.00  0.00     0.000 C 
BRANCH   8   9
ATOM      9  C   UNL     1       8.091  23.326  28.364  1.00  0.00     0.000 C 
BRANCH   9  10
ATOM     10  C   UNL     1       9.384  22.511  28.523  1.00  0.00     0.006 C 
BRANCH  10  11
ATOM     11  C   UNL     1       9.188  21.033  28.164  1.00  0.00     0.053 C 
BRANCH  11  12
ATOM     12  C   UNL     1       9.898  20.671  26.896  1.00  0.00     0.041 C 
ATOM     13  O   UNL     1      11.089  21.035  26.710  1.00  0.00    -0.550 OA
ATOM     14  O   UNL     1       9.253  19.906  25.932  1.00  0.00    -0.550 OA
ENDBRANCH  11  12
ENDBRANCH  10  11
ENDBRANCH   9  10
ENDBRANCH   8   9
ENDBRANCH   7   8
ENDBRANCH   6   7
ENDBRANCH   5   6
ENDBRANCH   4   5
ENDBRANCH   3   4
ENDBRANCH   2   3
ENDBRANCH   1   2
BRANCH   1  15
ATOM     15  C   UNL     1       1.831  16.399  27.239  1.00  0.00     0.000 C 
BRANCH  15  16
ATOM     16  C   UNL     1       0.551  17.248  27.342  1.00  0.00     0.000 C 
BRANCH  16  17
ATOM     17  C   UNL     1      -0.085  17.199  28.740  1.00  0.00     0.000 C 
BRANCH  17  18
ATOM     18  C   UNL     1      -0.023  18.552  29.472  1.00  0.00    -0.000 C 
BRANCH  18  19
ATOM     19  C   UNL     1       0.770  18.542  30.792  1.00  0.00    -0.000 C 
BRANCH  19  20
ATOM     20  C   UNL     1       1.078  19.955  31.317  1.00  0.00    -0.000 C 
BRANCH  20  21
ATOM     21  C   UNL     1       0.701  21.052  30.308  1.00  0.00    -0.000 C 
BRANCH  21  22
ATOM     22  C   UNL     1       0.615  22.442  30.957  1.00  0.00    -0.000 C 
BRANCH  22  23
ATOM     23  C   UNL     1      -0.617  23.208  30.451  1.00  0.00    -0.000 C 
BRANCH  23  24
ATOM     24  C   UNL     1      -1.943  22.619  30.965  1.00  0.00    -0.000 C 
BRANCH  24  25
ATOM     25  C   UNL     1      -2.829  21.978  29.882  1.00  0.00    -0.003 C 
ATOM     26  C   UNL     1      -3.014  20.474  30.073  1.00  0.00     0.004 C 
ENDBRANCH  24  25
ENDBRANCH  23  24
ENDBRANCH  22  23
ENDBRANCH  21  22
ENDBRANCH  20  21
ENDBRANCH  19  20
ENDBRANCH  18  19
ENDBRANCH  17  18
ENDBRANCH  16  17
ENDBRANCH  15  16
ENDBRANCH   1  15
TORSDOF 22
ENDMDL
MODEL 5
REMARK VINA RESULT:    -4.003      4.097      8.549
REMARK INTER + INTRA:         -12.912
REMARK INTER:                  -9.702
REMARK INTRA:                  -3.210
REMARK UNBOUND:                -3.761
REMARK SMILES CCCCCCCCCCCCCCCCCCCCCCCC(=O)[O-]
REMARK SMILES IDX 13 1 14 2 15 3 16 4 17 5 18 6 19 7 20 8 21 9 22 10 23 11
REMARK SMILES IDX 24 12 25 13 26 14 12 15 11 16 10 17 9 18 8 19 7 20 6 21 5 22
REMARK SMILES IDX 4 23 3 24 2 25 1 26
REMARK H PARENT
REMARK Flexibility Score: inf
ROOT
ATOM      1  C   UNL     1       1.152  17.341  27.857  1.00  0.00     0.000 C 
ENDROOT
BRANCH   1   2
ATOM      2  C   UNL     1       0.379  17.321  29.192  1.00  0.00     0.000 C 
BRANCH   2   3
ATOM      3  C   UNL     1       0.236  18.710  29.849  1.00  0.00     0.000 C 
BRANCH   3   4
ATOM      4  C   UNL     1       1.078  18.848  31.129  1.00  0.00     0.000 C 
BRANCH   4   5
ATOM      5  C   UNL     1       1.614  17.499  31.645  1.00  0.00     0.000 C 
BRANCH   5   6
ATOM      6  C   UNL     1       3.129  17.458  31.919  1.00  0.00     0.000 C 
BRANCH   6   7
ATOM      7  C   UNL     1       3.781  16.136  31.480  1.00  0.00     0.000 C 
BRANCH   7   8
ATOM      8  C   UNL     1       2.758  15.123  30.940  1.00  0.00     0.000 C 
BRANCH   8   9
ATOM      9  C   UNL     1       3.274  14.356  29.712  1.00  0.00     0.000 C 
BRANCH   9  10
ATOM     10  C   UNL     1       2.470  13.064  29.498  1.00  0.00     0.006 C 
BRANCH  10  11
ATOM     11  C   UNL     1       1.012  13.205  29.952  1.00  0.00     0.053 C 
BRANCH  11  12
ATOM     12  C   UNL     1       0.118  12.225  29.255  1.00  0.00     0.041 C 
ATOM     13  O   UNL     1       0.548  11.556  28.278  1.00  0.00    -0.550 OA
ATOM     14  O   UNL     1      -1.183  12.030  29.704  1.00  0.00    -0.550 OA
ENDBRANCH  11  12
ENDBRANCH  10  11
ENDBRANCH   9  10
ENDBRANCH   8   9
ENDBRANCH   7   8
ENDBRANCH   6   7
ENDBRANCH   5   6
ENDBRANCH   4   5
ENDBRANCH   3   4
ENDBRANCH   2   3
ENDBRANCH   1   2
BRANCH   1  15
ATOM     15  C   UNL     1       2.678  17.506  27.987  1.00  0.00     0.000 C 
BRANCH  15  16
ATOM     16  C   UNL     1       3.234  18.837  27.446  1.00  0.00     0.000 C 
BRANCH  16  17
ATOM     17  C   UNL     1       3.554  19.844  28.562  1.00  0.00     0.000 C 
BRANCH  17  18
ATOM     18  C   UNL     1       4.855  19.509  29.314  1.00  0.00    -0.000 C 
BRANCH  18  19
ATOM     19  C   UNL     1       5.766  20.715  29.609  1.00  0.00    -0.000 C 
BRANCH  19  20
ATOM     20  C   UNL     1       6.440  21.281  28.348  1.00  0.00    -0.000 C 
BRANCH  20  21
ATOM     21  C   UNL     1       6.948  22.718  28.548  1.00  0.00    -0.000 C 
BRANCH  21  22
ATOM     22  C   UNL     1       8.443  22.864  28.225  1.00  0.00    -0.000 C 
BRANCH  22  23
ATOM     23  C   UNL     1       9.284  21.905  29.079  1.00  0.00    -0.000 C 
BRANCH  23  24
ATOM     24  C   UNL     1      10.224  21.020  28.240  1.00  0.00    -0.000 C 
BRANCH  24  25
ATOM     25  C   UNL     1       9.898  20.977  26.736  1.00  0.00    -0.003 C 
ATOM     26  C   UNL     1       9.383  19.616  26.274  1.00  0.00     0.004 C 
ENDBRANCH  24  25
ENDBRANCH  23  24
ENDBRANCH  22  23
ENDBRANCH  21  22
ENDBRANCH  20  21
ENDBRANCH  19  20
ENDBRANCH  18  19
ENDBRANCH  17  18
ENDBRANCH  16  17
ENDBRANCH  15  16
ENDBRANCH   1  15
TORSDOF 22
ENDMDL
MODEL 6
REMARK VINA RESULT:    -4.000      1.549      3.345
REMARK INTER + INTRA:         -12.905
REMARK INTER:                  -9.965
REMARK INTRA:                  -2.940
REMARK UNBOUND:                -3.761
REMARK SMILES CCCCCCCCCCCCCCCCCCCCCCCC(=O)[O-]
REMARK SMILES IDX 13 1 14 2 15 3 16 4 17 5 18 6 19 7 20 8 21 9 22 10 23 11
REMARK SMILES IDX 24 12 25 13 26 14 12 15 11 16 10 17 9 18 8 19 7 20 6 21 5 22
REMARK SMILES IDX 4 23 3 24 2 25 1 26
REMARK H PARENT
REMARK Flexibility Score: inf
ROOT
ATOM      1  C   UNL     1       2.745  19.847  29.394  1.00  0.00     0.000 C 
ENDROOT
BRANCH   1   2
ATOM      2  C   UNL     1       3.805  19.252  28.445  1.00  0.00     0.000 C 
BRANCH   2   3
ATOM      3  C   UNL     1       4.888  20.262  28.008  1.00  0.00     0.000 C 
BRANCH   3   4
ATOM      4  C   UNL     1       5.835  20.648  29.157  1.00  0.00     0.000 C 
BRANCH   4   5
ATOM      5  C   UNL     1       5.643  22.100  29.632  1.00  0.00     0.000 C 
BRANCH   5   6
ATOM      6  C   UNL     1       6.896  22.991  29.537  1.00  0.00     0.000 C 
BRANCH   6   7
ATOM      7  C   UNL     1       7.646  22.831  28.203  1.00  0.00     0.000 C 
BRANCH   7   8
ATOM      8  C   UNL     1       9.172  22.803  28.383  1.00  0.00     0.000 C 
BRANCH   8   9
ATOM      9  C   UNL     1       9.637  21.695  29.341  1.00  0.00     0.000 C 
BRANCH   9  10
ATOM     10  C   UNL     1       9.608  20.324  28.647  1.00  0.00     0.006 C 
BRANCH  10  11
ATOM     11  C   UNL     1      10.696  20.192  27.575  1.00  0.00     0.053 C 
BRANCH  11  12
ATOM     12  C   UNL     1      11.749  19.203  27.972  1.00  0.00     0.041 C 
ATOM     13  O   UNL     1      12.223  18.404  27.121  1.00  0.00    -0.550 OA
ATOM     14  O   UNL     1      12.227  19.182  29.276  1.00  0.00    -0.550 OA
ENDBRANCH  11  12
ENDBRANCH  10  11
ENDBRANCH   9  10
ENDBRANCH   8   9
ENDBRANCH   7   8
ENDBRANCH   6   7
ENDBRANCH   5   6
ENDBRANCH   4   5
ENDBRANCH   3   4
ENDBRANCH   2   3
ENDBRANCH   1   2
BRANCH   1  15
ATOM     15  C   UNL     1       2.433  18.999  30.641  1.00  0.00     0.000 C 
BRANCH  15  16
ATOM     16  C   UNL     1       0.934  18.812  30.939  1.00  0.00     0.000 C 
BRANCH  16  17
ATOM     17  C   UNL     1       0.032  19.486  29.894  1.00  0.00     0.000 C 
BRANCH  17  18
ATOM     18  C   UNL     1      -0.859  18.483  29.137  1.00  0.00    -0.000 C 
BRANCH  18  19
ATOM     19  C   UNL     1      -0.168  17.163  28.750  1.00  0.00    -0.000 C 
BRANCH  19  20
ATOM     20  C   UNL     1       0.603  17.256  27.423  1.00  0.00    -0.000 C 
BRANCH  20  21
ATOM     21  C   UNL     1       1.821  16.318  27.384  1.00  0.00    -0.000 C 
BRANCH  21  22
ATOM     22  C   UNL     1       2.234  15.834  28.783  1.00  0.00    -0.000 C 
BRANCH  22  23
ATOM     23  C   UNL     1       2.561  14.333  28.768  1.00  0.00    -0.000 C 
BRANCH  23  24
ATOM     24  C   UNL     1       1.311  13.445  28.906  1.00  0.00    -0.000 C 
BRANCH  24  25
ATOM     25  C   UNL     1       0.436  13.749  30.136  1.00  0.00    -0.003 C 
ATOM     26  C   UNL     1      -1.059  13.590  29.860  1.00  0.00     0.004 C 
ENDBRANCH  24  25
ENDBRANCH  23  24
ENDBRANCH  22  23
ENDBRANCH  21  22
ENDBRANCH  20  21
ENDBRANCH  19  20
ENDBRANCH  18  19
ENDBRANCH  17  18
ENDBRANCH  16  17
ENDBRANCH  15  16
ENDBRANCH   1  15
TORSDOF 22
ENDMDL
MODEL 7
REMARK VINA RESULT:    -3.993      4.498      7.890
REMARK INTER + INTRA:         -12.890
REMARK INTER:                  -9.088
REMARK INTRA:                  -3.802
REMARK UNBOUND:                -3.761
REMARK SMILES CCCCCCCCCCCCCCCCCCCCCCCC(=O)[O-]
REMARK SMILES IDX 13 1 14 2 15 3 16 4 17 5 18 6 19 7 20 8 21 9 22 10 23 11
REMARK SMILES IDX 24 12 25 13 26 14 12 15 11 16 10 17 9 18 8 19 7 20 6 21 5 22
REMARK SMILES IDX 4 23 3 24 2 25 1 26
REMARK H PARENT
REMARK Flexibility Score: inf
ROOT
ATOM      1  C   UNL     1       2.386  17.632  29.593  1.00  0.00     0.000 C 
ENDROOT
BRANCH   1   2
ATOM      2  C   UNL     1       3.885  17.280  29.682  1.00  0.00     0.000 C 
BRANCH   2   3
ATOM      3  C   UNL     1       4.634  17.398  28.338  1.00  0.00     0.000 C 
BRANCH   3   4
ATOM      4  C   UNL     1       5.052  16.030  27.772  1.00  0.00     0.000 C 
BRANCH   4   5
ATOM      5  C   UNL     1       4.306  15.663  26.476  1.00  0.00     0.000 C 
BRANCH   5   6
ATOM      6  C   UNL     1       3.481  14.363  26.540  1.00  0.00     0.000 C 
BRANCH   6   7
ATOM      7  C   UNL     1       2.334  14.432  27.562  1.00  0.00     0.000 C 
BRANCH   7   8
ATOM      8  C   UNL     1       2.473  13.382  28.677  1.00  0.00     0.000 C 
BRANCH   8   9
ATOM      9  C   UNL     1       2.534  14.010  30.079  1.00  0.00     0.000 C 
BRANCH   9  10
ATOM     10  C   UNL     1       1.387  13.492  30.960  1.00  0.00     0.006 C 
BRANCH  10  11
ATOM     11  C   UNL     1       0.018  13.999  30.489  1.00  0.00     0.053 C 
BRANCH  11  12
ATOM     12  C   UNL     1      -0.963  12.879  30.329  1.00  0.00     0.041 C 
ATOM     13  O   UNL     1      -0.826  12.042  29.398  1.00  0.00    -0.550 OA
ATOM     14  O   UNL     1      -2.016  12.742  31.227  1.00  0.00    -0.550 OA
ENDBRANCH  11  12
ENDBRANCH  10  11
ENDBRANCH   9  10
ENDBRANCH   8   9
ENDBRANCH   7   8
ENDBRANCH   6   7
ENDBRANCH   5   6
ENDBRANCH   4   5
ENDBRANCH   3   4
ENDBRANCH   2   3
ENDBRANCH   1   2
BRANCH   1  15
ATOM     15  C   UNL     1       1.876  17.971  28.179  1.00  0.00     0.000 C 
BRANCH  15  16
ATOM     16  C   UNL     1       0.409  17.587  27.912  1.00  0.00     0.000 C 
BRANCH  16  17
ATOM     17  C   UNL     1      -0.430  17.512  29.197  1.00  0.00     0.000 C 
BRANCH  17  18
ATOM     18  C   UNL     1      -1.819  18.158  29.044  1.00  0.00    -0.000 C 
BRANCH  18  19
ATOM     19  C   UNL     1      -1.909  19.624  29.505  1.00  0.00    -0.000 C 
BRANCH  19  20
ATOM     20  C   UNL     1      -0.615  20.125  30.169  1.00  0.00    -0.000 C 
BRANCH  20  21
ATOM     21  C   UNL     1      -0.578  21.656  30.305  1.00  0.00    -0.000 C 
BRANCH  21  22
ATOM     22  C   UNL     1       0.825  22.234  30.068  1.00  0.00    -0.000 C 
BRANCH  22  23
ATOM     23  C   UNL     1       1.901  21.153  30.245  1.00  0.00    -0.000 C 
BRANCH  23  24
ATOM     24  C   UNL     1       3.203  21.695  30.861  1.00  0.00    -0.000 C 
BRANCH  24  25
ATOM     25  C   UNL     1       4.437  20.797  30.660  1.00  0.00    -0.003 C 
ATOM     26  C   UNL     1       5.048  20.924  29.265  1.00  0.00     0.004 C 
ENDBRANCH  24  25
ENDBRANCH  23  24
ENDBRANCH  22  23
ENDBRANCH  21  22
ENDBRANCH  20  21
ENDBRANCH  19  20
ENDBRANCH  18  19
ENDBRANCH  17  18
ENDBRANCH  16  17
ENDBRANCH  15  16
ENDBRANCH   1  15
TORSDOF 22
ENDMDL
MODEL 8
REMARK VINA RESULT:    -3.882      3.338      8.163
REMARK INTER + INTRA:         -12.636
REMARK INTER:                  -9.694
REMARK INTRA:                  -2.943
REMARK UNBOUND:                -3.761
REMARK SMILES CCCCCCCCCCCCCCCCCCCCCCCC(=O)[O-]
REMARK SMILES IDX 13 1 14 2 15 3 16 4 17 5 18 6 19 7 20 8 21 9 22 10 23 11
REMARK SMILES IDX 24 12 25 13 26 14 12 15 11 16 10 17 9 18 8 19 7 20 6 21 5 22
REMARK SMILES IDX 4 23 3 24 2 25 1 26
REMARK H PARENT
REMARK Flexibility Score: inf
ROOT
ATOM      1  C   UNL     1       5.950  19.464  28.738  1.00  0.00     0.000 C 
ENDROOT
BRANCH   1   2
ATOM      2  C   UNL     1       4.681  19.068  29.521  1.00  0.00     0.000 C 
BRANCH   2   3
ATOM      3  C   UNL     1       3.373  19.599  28.898  1.00  0.00     0.000 C 
BRANCH   3   4
ATOM      4  C   UNL     1       2.641  20.593  29.816  1.00  0.00     0.000 C 
BRANCH   4   5
ATOM      5  C   UNL     1       1.198  20.164  30.137  1.00  0.00     0.000 C 
BRANCH   5   6
ATOM      6  C   UNL     1       0.943  18.645  30.103  1.00  0.00     0.000 C 
BRANCH   6   7
ATOM      7  C   UNL     1      -0.148  18.243  29.096  1.00  0.00     0.000 C 
BRANCH   7   8
ATOM      8  C   UNL     1       0.407  17.416  27.924  1.00  0.00     0.000 C 
BRANCH   8   9
ATOM      9  C   UNL     1       1.483  16.411  28.363  1.00  0.00     0.000 C 
BRANCH   9  10
ATOM     10  C   UNL     1       2.447  16.103  27.207  1.00  0.00     0.006 C 
BRANCH  10  11
ATOM     11  C   UNL     1       3.881  15.861  27.694  1.00  0.00     0.053 C 
BRANCH  11  12
ATOM     12  C   UNL     1       4.532  14.728  26.962  1.00  0.00     0.041 C 
ATOM     13  O   UNL     1       5.181  13.853  27.594  1.00  0.00    -0.550 OA
ATOM     14  O   UNL     1       4.398  14.622  25.583  1.00  0.00    -0.550 OA
ENDBRANCH  11  12
ENDBRANCH  10  11
ENDBRANCH   9  10
ENDBRANCH   8   9
ENDBRANCH   7   8
ENDBRANCH   6   7
ENDBRANCH   5   6
ENDBRANCH   4   5
ENDBRANCH   3   4
ENDBRANCH   2   3
ENDBRANCH   1   2
BRANCH   1  15
ATOM     15  C   UNL     1       5.976  20.917  28.226  1.00  0.00     0.000 C 
BRANCH  15  16
ATOM     16  C   UNL     1       6.785  21.896  29.096  1.00  0.00     0.000 C 
BRANCH  16  17
ATOM     17  C   UNL     1       7.587  22.909  28.263  1.00  0.00     0.000 C 
BRANCH  17  18
ATOM     18  C   UNL     1       9.104  22.816  28.509  1.00  0.00    -0.000 C 
BRANCH  18  19
ATOM     19  C   UNL     1       9.563  21.564  29.278  1.00  0.00    -0.000 C 
BRANCH  19  20
ATOM     20  C   UNL     1      10.375  20.589  28.407  1.00  0.00    -0.000 C 
BRANCH  20  21
ATOM     21  C   UNL     1      10.261  20.908  26.907  1.00  0.00    -0.000 C 
BRANCH  21  22
ATOM     22  C   UNL     1       9.323  19.939  26.170  1.00  0.00    -0.000 C 
BRANCH  22  23
ATOM     23  C   UNL     1       9.283  18.574  26.872  1.00  0.00    -0.000 C 
BRANCH  23  24
ATOM     24  C   UNL     1       9.401  17.392  25.893  1.00  0.00    -0.000 C 
BRANCH  24  25
ATOM     25  C   UNL     1      10.799  16.752  25.817  1.00  0.00    -0.003 C 
ATOM     26  C   UNL     1      11.741  17.240  26.917  1.00  0.00     0.004 C 
ENDBRANCH  24  25
ENDBRANCH  23  24
ENDBRANCH  22  23
ENDBRANCH  21  22
ENDBRANCH  20  21
ENDBRANCH  19  20
ENDBRANCH  18  19
ENDBRANCH  17  18
ENDBRANCH  16  17
ENDBRANCH  15  16
ENDBRANCH   1  15
TORSDOF 22
ENDMDL
MODEL 9
REMARK VINA RESULT:    -3.869      3.815      7.827
REMARK INTER + INTRA:         -12.605
REMARK INTER:                  -8.039
REMARK INTRA:                  -4.566
REMARK UNBOUND:                -3.761
REMARK SMILES CCCCCCCCCCCCCCCCCCCCCCCC(=O)[O-]
REMARK SMILES IDX 13 1 14 2 15 3 16 4 17 5 18 6 19 7 20 8 21 9 22 10 23 11
REMARK SMILES IDX 24 12 25 13 26 14 12 15 11 16 10 17 9 18 8 19 7 20 6 21 5 22
REMARK SMILES IDX 4 23 3 24 2 25 1 26
REMARK H PARENT
REMARK Flexibility Score: inf
ROOT
ATOM      1  C   UNL     1      11.598  19.693  27.628  1.00  0.00     0.000 C 
ENDROOT
BRANCH   1   2
ATOM      2  C   UNL     1      10.278  19.429  26.875  1.00  0.00     0.000 C 
BRANCH   2   3
ATOM      3  C   UNL     1       9.340  20.653  26.813  1.00  0.00     0.000 C 
BRANCH   3   4
ATOM      4  C   UNL     1      10.013  21.941  27.319  1.00  0.00     0.000 C 
BRANCH   4   5
ATOM      5  C   UNL     1       9.047  22.863  28.084  1.00  0.00     0.000 C 
BRANCH   5   6
ATOM      6  C   UNL     1       7.559  22.475  27.991  1.00  0.00     0.000 C 
BRANCH   6   7
ATOM      7  C   UNL     1       6.786  22.746  29.293  1.00  0.00     0.000 C 
BRANCH   7   8
ATOM      8  C   UNL     1       5.645  21.742  29.523  1.00  0.00     0.000 C 
BRANCH   8   9
ATOM      9  C   UNL     1       5.559  20.678  28.417  1.00  0.00     0.000 C 
BRANCH   9  10
ATOM     10  C   UNL     1       4.723  19.475  28.880  1.00  0.00     0.006 C 
BRANCH  10  11
ATOM     11  C   UNL     1       3.300  19.501  28.308  1.00  0.00     0.053 C 
BRANCH  11  12
ATOM     12  C   UNL     1       2.271  19.644  29.387  1.00  0.00     0.041 C 
ATOM     13  O   UNL     1       2.044  20.771  29.901  1.00  0.00    -0.550 OA
ATOM     14  O   UNL     1       1.543  18.537  29.805  1.00  0.00    -0.550 OA
ENDBRANCH  11  12
ENDBRANCH  10  11
ENDBRANCH   9  10
ENDBRANCH   8   9
ENDBRANCH   7   8
ENDBRANCH   6   7
ENDBRANCH   5   6
ENDBRANCH   4   5
ENDBRANCH   3   4
ENDBRANCH   2   3
ENDBRANCH   1   2
BRANCH   1  15
ATOM     15  C   UNL     1      11.988  18.620  28.661  1.00  0.00     0.000 C 
BRANCH  15  16
ATOM     16  C   UNL     1      12.688  19.159  29.922  1.00  0.00     0.000 C 
BRANCH  16  17
ATOM     17  C   UNL     1      11.708  19.431  31.075  1.00  0.00     0.000 C 
BRANCH  17  18
ATOM     18  C   UNL     1      11.092  20.840  31.015  1.00  0.00    -0.000 C 
BRANCH  18  19
ATOM     19  C   UNL     1       9.562  20.889  31.173  1.00  0.00    -0.000 C 
BRANCH  19  20
ATOM     20  C   UNL     1       8.834  19.863  30.288  1.00  0.00    -0.000 C 
BRANCH  20  21
ATOM     21  C   UNL     1       7.930  18.922  31.101  1.00  0.00    -0.000 C 
BRANCH  21  22
ATOM     22  C   UNL     1       7.465  17.704  30.288  1.00  0.00    -0.000 C 
BRANCH  22  23
ATOM     23  C   UNL     1       8.039  17.745  28.864  1.00  0.00    -0.000 C 
BRANCH  23  24
ATOM     24  C   UNL     1       7.386  16.716  27.924  1.00  0.00    -0.000 C 
BRANCH  24  25
ATOM     25  C   UNL     1       6.136  16.022  28.493  1.00  0.00    -0.003 C 
ATOM     26  C   UNL     1       4.986  15.944  27.490  1.00  0.00     0.004 C 
ENDBRANCH  24  25
ENDBRANCH  23  24
ENDBRANCH  22  23
ENDBRANCH  21  22
ENDBRANCH  20  21
ENDBRANCH  19  20
ENDBRANCH  18  19
ENDBRANCH  17  18
ENDBRANCH  16  17
ENDBRANCH  15  16
ENDBRANCH   1  15
TORSDOF 22
ENDMDL
