MODEL 1
REMARK VINA RESULT:    -5.230      0.000      0.000
REMARK INTER + INTRA:         -12.960
REMARK INTER:                 -11.957
REMARK INTRA:                  -1.002
REMARK UNBOUND:                -1.002
REMARK SMILES CCCCCCCCCCCCCCCCCCCCCCCC(=O)[O-]
REMARK SMILES IDX 13 1 14 2 15 3 16 4 17 5 18 6 19 7 20 8 21 9 22 10 23 11
REMARK SMILES IDX 24 12 25 13 26 14 12 15 11 16 10 17 9 18 8 19 7 20 6 21 5 22
REMARK SMILES IDX 4 23 3 24 2 25 1 26
REMARK H PARENT
REMARK Flexibility Score: inf
ROOT
ATOM      1  C   UNL     1     127.676 127.673 123.371  1.00  0.00     0.000 C 
ENDROOT
BRANCH   1   2
ATOM      2  C   UNL     1     128.450 128.583 122.399  1.00  0.00     0.000 C 
BRANCH   2   3
ATOM      3  C   UNL     1     128.790 129.950 123.026  1.00  0.00     0.000 C 
BRANCH   3   4
ATOM      4  C   UNL     1     128.290 130.117 124.474  1.00  0.00     0.000 C 
BRANCH   4   5
ATOM      5  C   UNL     1     129.178 131.025 125.351  1.00  0.00     0.000 C 
BRANCH   5   6
ATOM      6  C   UNL     1     128.533 131.468 126.681  1.00  0.00     0.000 C 
BRANCH   6   7
ATOM      7  C   UNL     1     129.025 130.719 127.935  1.00  0.00     0.000 C 
BRANCH   7   8
ATOM      8  C   UNL     1     130.181 131.430 128.653  1.00  0.00     0.000 C 
BRANCH   8   9
ATOM      9  C   UNL     1     130.331 132.876 128.158  1.00  0.00     0.000 C 
BRANCH   9  10
ATOM     10  C   UNL     1     130.551 133.885 129.300  1.00  0.00     0.006 C 
BRANCH  10  11
ATOM     11  C   UNL     1     131.525 133.396 130.386  1.00  0.00     0.053 C 
BRANCH  11  12
ATOM     12  C   UNL     1     131.579 134.318 131.567  1.00  0.00     0.041 C 
ATOM     13  O   UNL     1     131.634 133.848 132.735  1.00  0.00    -0.550 OA
ATOM     14  O   UNL     1     131.528 135.694 131.384  1.00  0.00    -0.550 OA
ENDBRANCH  11  12
ENDBRANCH  10  11
ENDBRANCH   9  10
ENDBRANCH   8   9
ENDBRANCH   7   8
ENDBRANCH   6   7
ENDBRANCH   5   6
ENDBRANCH   4   5
ENDBRANCH   3   4
ENDBRANCH   2   3
ENDBRANCH   1   2
BRANCH   1  15
ATOM     15  C   UNL     1     127.247 126.344 122.730  1.00  0.00     0.000 C 
BRANCH  15  16
ATOM     16  C   UNL     1     126.593 125.383 123.737  1.00  0.00     0.000 C 
BRANCH  16  17
ATOM     17  C   UNL     1     127.534 124.990 124.892  1.00  0.00     0.000 C 
BRANCH  17  18
ATOM     18  C   UNL     1     126.890 124.974 126.291  1.00  0.00    -0.000 C 
BRANCH  18  19
ATOM     19  C   UNL     1     127.444 123.858 127.194  1.00  0.00    -0.000 C 
BRANCH  19  20
ATOM     20  C   UNL     1     126.339 123.075 127.926  1.00  0.00    -0.000 C 
BRANCH  20  21
ATOM     21  C   UNL     1     125.408 123.923 128.815  1.00  0.00    -0.000 C 
BRANCH  21  22
ATOM     22  C   UNL     1     124.469 123.119 129.736  1.00  0.00    -0.000 C 
BRANCH  22  23
ATOM     23  C   UNL     1     124.990 121.725 130.139  1.00  0.00    -0.000 C 
BRANCH  23  24
ATOM     24  C   UNL     1     123.972 120.840 130.878  1.00  0.00    -0.000 C 
BRANCH  24  25
ATOM     25  C   UNL     1     124.515 119.438 131.189  1.00  0.00    -0.003 C 
ATOM     26  C   UNL     1     125.428 118.942 130.070  1.00  0.00     0.004 C 
ENDBRANCH  24  25
ENDBRANCH  23  24
ENDBRANCH  22  23
ENDBRANCH  21  22
ENDBRANCH  20  21
ENDBRANCH  19  20
ENDBRANCH  18  19
ENDBRANCH  17  18
ENDBRANCH  16  17
ENDBRANCH  15  16
ENDBRANCH   1  15
TORSDOF 22
ENDMDL
MODEL 2
REMARK VINA RESULT:    -4.981      6.576     11.883
REMARK INTER + INTRA:         -12.389
REMARK INTER:                  -9.795
REMARK INTRA:                  -2.595
REMARK UNBOUND:                -1.002
REMARK SMILES CCCCCCCCCCCCCCCCCCCCCCCC(=O)[O-]
REMARK SMILES IDX 13 1 14 2 15 3 16 4 17 5 18 6 19 7 20 8 21 9 22 10 23 11
REMARK SMILES IDX 24 12 25 13 26 14 12 15 11 16 10 17 9 18 8 19 7 20 6 21 5 22
REMARK SMILES IDX 4 23 3 24 2 25 1 26
REMARK H PARENT
REMARK Flexibility Score: inf
ROOT
ATOM      1  C   UNL     1     133.023 134.314 133.009  1.00  0.00     0.000 C 
ENDROOT
BRANCH   1   2
ATOM      2  C   UNL     1     133.875 133.800 134.185  1.00  0.00     0.000 C 
BRANCH   2   3
ATOM      3  C   UNL     1     133.081 132.860 135.113  1.00  0.00     0.000 C 
BRANCH   3   4
ATOM      4  C   UNL     1     132.530 133.546 136.377  1.00  0.00     0.000 C 
BRANCH   4   5
ATOM      5  C   UNL     1     131.020 133.866 136.319  1.00  0.00     0.000 C 
BRANCH   5   6
ATOM      6  C   UNL     1     130.129 132.930 137.162  1.00  0.00     0.000 C 
BRANCH   6   7
ATOM      7  C   UNL     1     129.483 131.762 136.390  1.00  0.00     0.000 C 
BRANCH   7   8
ATOM      8  C   UNL     1     129.317 132.044 134.890  1.00  0.00     0.000 C 
BRANCH   8   9
ATOM      9  C   UNL     1     130.209 131.115 134.052  1.00  0.00     0.000 C 
BRANCH   9  10
ATOM     10  C   UNL     1     130.243 129.670 134.583  1.00  0.00     0.006 C 
BRANCH  10  11
ATOM     11  C   UNL     1     129.347 128.696 133.798  1.00  0.00     0.053 C 
BRANCH  11  12
ATOM     12  C   UNL     1     128.392 127.953 134.683  1.00  0.00     0.041 C 
ATOM     13  O   UNL     1     127.155 128.176 134.607  1.00  0.00    -0.550 OA
ATOM     14  O   UNL     1     128.869 127.044 135.619  1.00  0.00    -0.550 OA
ENDBRANCH  11  12
ENDBRANCH  10  11
ENDBRANCH   9  10
ENDBRANCH   8   9
ENDBRANCH   7   8
ENDBRANCH   6   7
ENDBRANCH   5   6
ENDBRANCH   4   5
ENDBRANCH   3   4
ENDBRANCH   2   3
ENDBRANCH   1   2
BRANCH   1  15
ATOM     15  C   UNL     1     132.645 135.797 133.150  1.00  0.00     0.000 C 
BRANCH  15  16
ATOM     16  C   UNL     1     133.449 136.705 132.204  1.00  0.00     0.000 C 
BRANCH  16  17
ATOM     17  C   UNL     1     132.652 137.935 131.730  1.00  0.00     0.000 C 
BRANCH  17  18
ATOM     18  C   UNL     1     131.127 137.736 131.633  1.00  0.00    -0.000 C 
BRANCH  18  19
ATOM     19  C   UNL     1     130.688 137.101 130.302  1.00  0.00    -0.000 C 
BRANCH  19  20
ATOM     20  C   UNL     1     130.169 135.661 130.467  1.00  0.00    -0.000 C 
BRANCH  20  21
ATOM     21  C   UNL     1     130.804 134.619 129.524  1.00  0.00    -0.000 C 
BRANCH  21  22
ATOM     22  C   UNL     1     130.966 133.208 130.122  1.00  0.00    -0.000 C 
BRANCH  22  23
ATOM     23  C   UNL     1     131.192 132.085 129.089  1.00  0.00    -0.000 C 
BRANCH  23  24
ATOM     24  C   UNL     1     129.933 131.284 128.714  1.00  0.00    -0.000 C 
BRANCH  24  25
ATOM     25  C   UNL     1     129.209 131.852 127.486  1.00  0.00    -0.003 C 
ATOM     26  C   UNL     1     127.907 132.541 127.885  1.00  0.00     0.004 C 
ENDBRANCH  24  25
ENDBRANCH  23  24
ENDBRANCH  22  23
ENDBRANCH  21  22
ENDBRANCH  20  21
ENDBRANCH  19  20
ENDBRANCH  18  19
ENDBRANCH  17  18
ENDBRANCH  16  17
ENDBRANCH  15  16
ENDBRANCH   1  15
TORSDOF 22
ENDMDL
MODEL 3
REMARK VINA RESULT:    -4.893      6.329      9.938
REMARK INTER + INTRA:         -12.188
REMARK INTER:                  -9.017
REMARK INTRA:                  -3.171
REMARK UNBOUND:                -1.002
REMARK SMILES CCCCCCCCCCCCCCCCCCCCCCCC(=O)[O-]
REMARK SMILES IDX 13 1 14 2 15 3 16 4 17 5 18 6 19 7 20 8 21 9 22 10 23 11
REMARK SMILES IDX 24 12 25 13 26 14 12 15 11 16 10 17 9 18 8 19 7 20 6 21 5 22
REMARK SMILES IDX 4 23 3 24 2 25 1 26
REMARK H PARENT
REMARK Flexibility Score: inf
ROOT
ATOM      1  C   UNL     1     127.640 129.859 137.444  1.00  0.00     0.000 C 
ENDROOT
BRANCH   1   2
ATOM      2  C   UNL     1     128.406 130.992 138.153  1.00  0.00     0.000 C 
BRANCH   2   3
ATOM      3  C   UNL     1     129.315 131.775 137.184  1.00  0.00     0.000 C 
BRANCH   3   4
ATOM      4  C   UNL     1     128.745 131.907 135.759  1.00  0.00     0.000 C 
BRANCH   4   5
ATOM      5  C   UNL     1     129.777 132.359 134.702  1.00  0.00     0.000 C 
BRANCH   5   6
ATOM      6  C   UNL     1     130.951 133.190 135.260  1.00  0.00     0.000 C 
BRANCH   6   7
ATOM      7  C   UNL     1     132.244 133.149 134.423  1.00  0.00     0.000 C 
BRANCH   7   8
ATOM      8  C   UNL     1     132.363 134.316 133.432  1.00  0.00     0.000 C 
BRANCH   8   9
ATOM      9  C   UNL     1     132.251 133.821 131.982  1.00  0.00     0.000 C 
BRANCH   9  10
ATOM     10  C   UNL     1     131.015 134.374 131.249  1.00  0.00     0.006 C 
BRANCH  10  11
ATOM     11  C   UNL     1     131.188 134.478 129.724  1.00  0.00     0.053 C 
BRANCH  11  12
ATOM     12  C   UNL     1     130.670 133.271 129.003  1.00  0.00     0.041 C 
ATOM     13  O   UNL     1     131.344 132.207 128.983  1.00  0.00    -0.550 OA
ATOM     14  O   UNL     1     129.463 133.330 128.318  1.00  0.00    -0.550 OA
ENDBRANCH  11  12
ENDBRANCH  10  11
ENDBRANCH   9  10
ENDBRANCH   8   9
ENDBRANCH   7   8
ENDBRANCH   6   7
ENDBRANCH   5   6
ENDBRANCH   4   5
ENDBRANCH   3   4
ENDBRANCH   2   3
ENDBRANCH   1   2
BRANCH   1  15
ATOM     15  C   UNL     1     127.160 128.767 138.414  1.00  0.00     0.000 C 
BRANCH  15  16
ATOM     16  C   UNL     1     128.268 127.763 138.771  1.00  0.00     0.000 C 
BRANCH  16  17
ATOM     17  C   UNL     1     128.779 126.972 137.552  1.00  0.00     0.000 C 
BRANCH  17  18
ATOM     18  C   UNL     1     127.949 125.729 137.177  1.00  0.00    -0.000 C 
BRANCH  18  19
ATOM     19  C   UNL     1     127.650 125.639 135.671  1.00  0.00    -0.000 C 
BRANCH  19  20
ATOM     20  C   UNL     1     126.433 126.484 135.248  1.00  0.00    -0.000 C 
BRANCH  20  21
ATOM     21  C   UNL     1     126.763 127.759 134.447  1.00  0.00    -0.000 C 
BRANCH  21  22
ATOM     22  C   UNL     1     127.173 127.522 132.980  1.00  0.00    -0.000 C 
BRANCH  22  23
ATOM     23  C   UNL     1     128.508 128.171 132.563  1.00  0.00    -0.000 C 
BRANCH  23  24
ATOM     24  C   UNL     1     129.226 128.951 133.678  1.00  0.00    -0.000 C 
BRANCH  24  25
ATOM     25  C   UNL     1     130.331 128.132 134.361  1.00  0.00    -0.003 C 
ATOM     26  C   UNL     1     131.143 128.998 135.321  1.00  0.00     0.004 C 
ENDBRANCH  24  25
ENDBRANCH  23  24
ENDBRANCH  22  23
ENDBRANCH  21  22
ENDBRANCH  20  21
ENDBRANCH  19  20
ENDBRANCH  18  19
ENDBRANCH  17  18
ENDBRANCH  16  17
ENDBRANCH  15  16
ENDBRANCH   1  15
TORSDOF 22
ENDMDL
MODEL 4
REMARK VINA RESULT:    -4.867      5.953     10.642
REMARK INTER + INTRA:         -12.129
REMARK INTER:                  -9.734
REMARK INTRA:                  -2.395
REMARK UNBOUND:                -1.002
REMARK SMILES CCCCCCCCCCCCCCCCCCCCCCCC(=O)[O-]
REMARK SMILES IDX 13 1 14 2 15 3 16 4 17 5 18 6 19 7 20 8 21 9 22 10 23 11
REMARK SMILES IDX 24 12 25 13 26 14 12 15 11 16 10 17 9 18 8 19 7 20 6 21 5 22
REMARK SMILES IDX 4 23 3 24 2 25 1 26
REMARK H PARENT
REMARK Flexibility Score: inf
ROOT
ATOM      1  C   UNL     1     124.239 122.707 134.537  1.00  0.00     0.000 C 
ENDROOT
BRANCH   1   2
ATOM      2  C   UNL     1     123.362 122.453 135.777  1.00  0.00     0.000 C 
BRANCH   2   3
ATOM      3  C   UNL     1     124.090 121.611 136.844  1.00  0.00     0.000 C 
BRANCH   3   4
ATOM      4  C   UNL     1     125.464 122.174 137.255  1.00  0.00     0.000 C 
BRANCH   4   5
ATOM      5  C   UNL     1     125.511 122.751 138.687  1.00  0.00     0.000 C 
BRANCH   5   6
ATOM      6  C   UNL     1     126.277 124.084 138.821  1.00  0.00     0.000 C 
BRANCH   6   7
ATOM      7  C   UNL     1     125.459 125.350 138.500  1.00  0.00     0.000 C 
BRANCH   7   8
ATOM      8  C   UNL     1     125.996 126.131 137.292  1.00  0.00     0.000 C 
BRANCH   8   9
ATOM      9  C   UNL     1     127.158 125.380 136.623  1.00  0.00     0.000 C 
BRANCH   9  10
ATOM     10  C   UNL     1     127.045 125.338 135.088  1.00  0.00     0.006 C 
BRANCH  10  11
ATOM     11  C   UNL     1     125.717 125.892 134.544  1.00  0.00     0.053 C 
BRANCH  11  12
ATOM     12  C   UNL     1     125.890 127.196 133.826  1.00  0.00     0.041 C 
ATOM     13  O   UNL     1     124.989 128.075 133.884  1.00  0.00    -0.550 OA
ATOM     14  O   UNL     1     127.025 127.428 133.060  1.00  0.00    -0.550 OA
ENDBRANCH  11  12
ENDBRANCH  10  11
ENDBRANCH   9  10
ENDBRANCH   8   9
ENDBRANCH   7   8
ENDBRANCH   6   7
ENDBRANCH   5   6
ENDBRANCH   4   5
ENDBRANCH   3   4
ENDBRANCH   2   3
ENDBRANCH   1   2
BRANCH   1  15
ATOM     15  C   UNL     1     123.791 121.894 133.312  1.00  0.00     0.000 C 
BRANCH  15  16
ATOM     16  C   UNL     1     122.714 120.851 133.656  1.00  0.00     0.000 C 
BRANCH  16  17
ATOM     17  C   UNL     1     123.084 119.430 133.192  1.00  0.00     0.000 C 
BRANCH  17  18
ATOM     18  C   UNL     1     123.386 119.284 131.689  1.00  0.00    -0.000 C 
BRANCH  18  19
ATOM     19  C   UNL     1     124.748 118.623 131.411  1.00  0.00    -0.000 C 
BRANCH  19  20
ATOM     20  C   UNL     1     125.466 119.220 130.187  1.00  0.00    -0.000 C 
BRANCH  20  21
ATOM     21  C   UNL     1     125.762 120.731 130.269  1.00  0.00    -0.000 C 
BRANCH  21  22
ATOM     22  C   UNL     1     124.709 121.640 129.604  1.00  0.00    -0.000 C 
BRANCH  22  23
ATOM     23  C   UNL     1     125.278 122.689 128.628  1.00  0.00    -0.000 C 
BRANCH  23  24
ATOM     24  C   UNL     1     126.765 122.509 128.275  1.00  0.00    -0.000 C 
BRANCH  24  25
ATOM     25  C   UNL     1     127.386 123.767 127.651  1.00  0.00    -0.003 C 
ATOM     26  C   UNL     1     126.716 125.031 128.181  1.00  0.00     0.004 C 
ENDBRANCH  24  25
ENDBRANCH  23  24
ENDBRANCH  22  23
ENDBRANCH  21  22
ENDBRANCH  20  21
ENDBRANCH  19  20
ENDBRANCH  18  19
ENDBRANCH  17  18
ENDBRANCH  16  17
ENDBRANCH  15  16
ENDBRANCH   1  15
TORSDOF 22
ENDMDL
MODEL 5
REMARK VINA RESULT:    -4.834      6.379     12.190
REMARK INTER + INTRA:         -12.054
REMARK INTER:                  -9.639
REMARK INTRA:                  -2.414
REMARK UNBOUND:                -1.002
REMARK SMILES CCCCCCCCCCCCCCCCCCCCCCCC(=O)[O-]
REMARK SMILES IDX 13 1 14 2 15 3 16 4 17 5 18 6 19 7 20 8 21 9 22 10 23 11
REMARK SMILES IDX 24 12 25 13 26 14 12 15 11 16 10 17 9 18 8 19 7 20 6 21 5 22
REMARK SMILES IDX 4 23 3 24 2 25 1 26
REMARK H PARENT
REMARK Flexibility Score: inf
ROOT
ATOM      1  C   UNL     1     129.591 131.687 134.527  1.00  0.00     0.000 C 
ENDROOT
BRANCH   1   2
ATOM      2  C   UNL     1     128.370 131.425 135.430  1.00  0.00     0.000 C 
BRANCH   2   3
ATOM      3  C   UNL     1     128.716 131.542 136.927  1.00  0.00     0.000 C 
BRANCH   3   4
ATOM      4  C   UNL     1     128.360 130.290 137.752  1.00  0.00     0.000 C 
BRANCH   4   5
ATOM      5  C   UNL     1     127.878 129.090 136.907  1.00  0.00     0.000 C 
BRANCH   5   6
ATOM      6  C   UNL     1     128.879 127.919 136.821  1.00  0.00     0.000 C 
BRANCH   6   7
ATOM      7  C   UNL     1     128.922 127.187 135.465  1.00  0.00     0.000 C 
BRANCH   7   8
ATOM      8  C   UNL     1     128.367 128.026 134.305  1.00  0.00     0.000 C 
BRANCH   8   9
ATOM      9  C   UNL     1     126.929 127.610 133.962  1.00  0.00     0.000 C 
BRANCH   9  10
ATOM     10  C   UNL     1     126.595 126.172 134.399  1.00  0.00     0.006 C 
BRANCH  10  11
ATOM     11  C   UNL     1     125.188 126.013 134.999  1.00  0.00     0.053 C 
BRANCH  11  12
ATOM     12  C   UNL     1     125.217 125.762 136.476  1.00  0.00     0.041 C 
ATOM     13  O   UNL     1     124.179 125.932 137.168  1.00  0.00    -0.550 OA
ATOM     14  O   UNL     1     126.400 125.381 137.097  1.00  0.00    -0.550 OA
ENDBRANCH  11  12
ENDBRANCH  10  11
ENDBRANCH   9  10
ENDBRANCH   8   9
ENDBRANCH   7   8
ENDBRANCH   6   7
ENDBRANCH   5   6
ENDBRANCH   4   5
ENDBRANCH   3   4
ENDBRANCH   2   3
ENDBRANCH   1   2
BRANCH   1  15
ATOM     15  C   UNL     1     130.892 131.108 135.103  1.00  0.00     0.000 C 
BRANCH  15  16
ATOM     16  C   UNL     1     132.043 132.128 135.110  1.00  0.00     0.000 C 
BRANCH  16  17
ATOM     17  C   UNL     1     131.647 133.485 134.500  1.00  0.00     0.000 C 
BRANCH  17  18
ATOM     18  C   UNL     1     132.809 134.311 133.917  1.00  0.00    -0.000 C 
BRANCH  18  19
ATOM     19  C   UNL     1     132.568 134.743 132.460  1.00  0.00    -0.000 C 
BRANCH  19  20
ATOM     20  C   UNL     1     131.384 134.009 131.805  1.00  0.00    -0.000 C 
BRANCH  20  21
ATOM     21  C   UNL     1     131.764 132.991 130.711  1.00  0.00    -0.000 C 
BRANCH  21  22
ATOM     22  C   UNL     1     131.019 133.160 129.372  1.00  0.00    -0.000 C 
BRANCH  22  23
ATOM     23  C   UNL     1     130.358 131.877 128.828  1.00  0.00    -0.000 C 
BRANCH  23  24
ATOM     24  C   UNL     1     129.500 132.074 127.566  1.00  0.00    -0.000 C 
BRANCH  24  25
ATOM     25  C   UNL     1     127.998 132.153 127.874  1.00  0.00    -0.003 C 
ATOM     26  C   UNL     1     127.554 133.600 128.075  1.00  0.00     0.004 C 
ENDBRANCH  24  25
ENDBRANCH  23  24
ENDBRANCH  22  23
ENDBRANCH  21  22
ENDBRANCH  20  21
ENDBRANCH  19  20
ENDBRANCH  18  19
ENDBRANCH  17  18
ENDBRANCH  16  17
ENDBRANCH  15  16
ENDBRANCH   1  15
TORSDOF 22
ENDMDL
MODEL 6
REMARK VINA RESULT:    -4.783      8.459     12.794
REMARK INTER + INTRA:         -11.936
REMARK INTER:                  -8.379
REMARK INTRA:                  -3.557
REMARK UNBOUND:                -1.002
REMARK SMILES CCCCCCCCCCCCCCCCCCCCCCCC(=O)[O-]
REMARK SMILES IDX 13 1 14 2 15 3 16 4 17 5 18 6 19 7 20 8 21 9 22 10 23 11
REMARK SMILES IDX 24 12 25 13 26 14 12 15 11 16 10 17 9 18 8 19 7 20 6 21 5 22
REMARK SMILES IDX 4 23 3 24 2 25 1 26
REMARK H PARENT
REMARK Flexibility Score: inf
ROOT
ATOM      1  C   UNL     1     124.166 122.603 131.193  1.00  0.00     0.000 C 
ENDROOT
BRANCH   1   2
ATOM      2  C   UNL     1     124.203 121.340 130.312  1.00  0.00     0.000 C 
BRANCH   2   3
ATOM      3  C   UNL     1     125.509 120.540 130.496  1.00  0.00     0.000 C 
BRANCH   3   4
ATOM      4  C   UNL     1     125.369 119.035 130.198  1.00  0.00     0.000 C 
BRANCH   4   5
ATOM      5  C   UNL     1     125.042 118.171 131.435  1.00  0.00     0.000 C 
BRANCH   5   6
ATOM      6  C   UNL     1     123.536 117.957 131.693  1.00  0.00     0.000 C 
BRANCH   6   7
ATOM      7  C   UNL     1     123.072 118.213 133.141  1.00  0.00     0.000 C 
BRANCH   7   8
ATOM      8  C   UNL     1     121.655 118.797 133.230  1.00  0.00     0.000 C 
BRANCH   8   9
ATOM      9  C   UNL     1     121.351 119.694 132.020  1.00  0.00     0.000 C 
BRANCH   9  10
ATOM     10  C   UNL     1     120.460 120.899 132.371  1.00  0.00     0.006 C 
BRANCH  10  11
ATOM     11  C   UNL     1     119.797 120.804 133.756  1.00  0.00     0.053 C 
BRANCH  11  12
ATOM     12  C   UNL     1     119.591 122.147 134.388  1.00  0.00     0.041 C 
ATOM     13  O   UNL     1     119.877 122.327 135.602  1.00  0.00    -0.550 OA
ATOM     14  O   UNL     1     119.046 123.191 133.651  1.00  0.00    -0.550 OA
ENDBRANCH  11  12
ENDBRANCH  10  11
ENDBRANCH   9  10
ENDBRANCH   8   9
ENDBRANCH   7   8
ENDBRANCH   6   7
ENDBRANCH   5   6
ENDBRANCH   4   5
ENDBRANCH   3   4
ENDBRANCH   2   3
ENDBRANCH   1   2
BRANCH   1  15
ATOM     15  C   UNL     1     124.785 122.380 132.581  1.00  0.00     0.000 C 
BRANCH  15  16
ATOM     16  C   UNL     1     123.771 121.836 133.602  1.00  0.00     0.000 C 
BRANCH  16  17
ATOM     17  C   UNL     1     123.285 122.907 134.596  1.00  0.00     0.000 C 
BRANCH  17  18
ATOM     18  C   UNL     1     123.552 122.599 136.081  1.00  0.00    -0.000 C 
BRANCH  18  19
ATOM     19  C   UNL     1     125.030 122.290 136.375  1.00  0.00    -0.000 C 
BRANCH  19  20
ATOM     20  C   UNL     1     125.713 123.377 137.226  1.00  0.00    -0.000 C 
BRANCH  20  21
ATOM     21  C   UNL     1     126.925 124.064 136.567  1.00  0.00    -0.000 C 
BRANCH  21  22
ATOM     22  C   UNL     1     126.862 124.172 135.031  1.00  0.00    -0.000 C 
BRANCH  22  23
ATOM     23  C   UNL     1     126.075 125.384 134.494  1.00  0.00    -0.000 C 
BRANCH  23  24
ATOM     24  C   UNL     1     126.127 126.638 135.385  1.00  0.00    -0.000 C 
BRANCH  24  25
ATOM     25  C   UNL     1     126.458 127.914 134.599  1.00  0.00    -0.003 C 
ATOM     26  C   UNL     1     127.943 127.973 134.249  1.00  0.00     0.004 C 
ENDBRANCH  24  25
ENDBRANCH  23  24
ENDBRANCH  22  23
ENDBRANCH  21  22
ENDBRANCH  20  21
ENDBRANCH  19  20
ENDBRANCH  18  19
ENDBRANCH  17  18
ENDBRANCH  16  17
ENDBRANCH  15  16
ENDBRANCH   1  15
TORSDOF 22
ENDMDL
MODEL 7
REMARK VINA RESULT:    -4.775      6.618      9.185
REMARK INTER + INTRA:         -11.919
REMARK INTER:                  -8.448
REMARK INTRA:                  -3.471
REMARK UNBOUND:                -1.002
REMARK SMILES CCCCCCCCCCCCCCCCCCCCCCCC(=O)[O-]
REMARK SMILES IDX 13 1 14 2 15 3 16 4 17 5 18 6 19 7 20 8 21 9 22 10 23 11
REMARK SMILES IDX 24 12 25 13 26 14 12 15 11 16 10 17 9 18 8 19 7 20 6 21 5 22
REMARK SMILES IDX 4 23 3 24 2 25 1 26
REMARK H PARENT
REMARK Flexibility Score: inf
ROOT
ATOM      1  C   UNL     1     129.985 130.897 134.385  1.00  0.00     0.000 C 
ENDROOT
BRANCH   1   2
ATOM      2  C   UNL     1     129.268 132.012 135.169  1.00  0.00     0.000 C 
BRANCH   2   3
ATOM      3  C   UNL     1     129.162 131.691 136.673  1.00  0.00     0.000 C 
BRANCH   3   4
ATOM      4  C   UNL     1     129.662 132.821 137.592  1.00  0.00     0.000 C 
BRANCH   4   5
ATOM      5  C   UNL     1     131.199 132.903 137.720  1.00  0.00     0.000 C 
BRANCH   5   6
ATOM      6  C   UNL     1     131.842 134.106 136.999  1.00  0.00     0.000 C 
BRANCH   6   7
ATOM      7  C   UNL     1     132.777 133.749 135.826  1.00  0.00     0.000 C 
BRANCH   7   8
ATOM      8  C   UNL     1     132.369 134.410 134.502  1.00  0.00     0.000 C 
BRANCH   8   9
ATOM      9  C   UNL     1     132.494 133.423 133.331  1.00  0.00     0.000 C 
BRANCH   9  10
ATOM     10  C   UNL     1     131.384 133.592 132.277  1.00  0.00     0.006 C 
BRANCH  10  11
ATOM     11  C   UNL     1     131.811 133.198 130.853  1.00  0.00     0.053 C 
BRANCH  11  12
ATOM     12  C   UNL     1     131.033 133.926 129.798  1.00  0.00     0.041 C 
ATOM     13  O   UNL     1     130.971 133.466 128.627  1.00  0.00    -0.550 OA
ATOM     14  O   UNL     1     130.410 135.131 130.095  1.00  0.00    -0.550 OA
ENDBRANCH  11  12
ENDBRANCH  10  11
ENDBRANCH   9  10
ENDBRANCH   8   9
ENDBRANCH   7   8
ENDBRANCH   6   7
ENDBRANCH   5   6
ENDBRANCH   4   5
ENDBRANCH   3   4
ENDBRANCH   2   3
ENDBRANCH   1   2
BRANCH   1  15
ATOM     15  C   UNL     1     131.190 130.316 135.141  1.00  0.00     0.000 C 
BRANCH  15  16
ATOM     16  C   UNL     1     131.323 128.794 134.964  1.00  0.00     0.000 C 
BRANCH  16  17
ATOM     17  C   UNL     1     130.084 128.154 134.312  1.00  0.00     0.000 C 
BRANCH  17  18
ATOM     18  C   UNL     1     129.239 127.258 135.237  1.00  0.00    -0.000 C 
BRANCH  18  19
ATOM     19  C   UNL     1     128.447 128.056 136.287  1.00  0.00    -0.000 C 
BRANCH  19  20
ATOM     20  C   UNL     1     127.138 128.646 135.731  1.00  0.00    -0.000 C 
BRANCH  20  21
ATOM     21  C   UNL     1     126.590 127.957 134.466  1.00  0.00    -0.000 C 
BRANCH  21  22
ATOM     22  C   UNL     1     125.163 127.389 134.596  1.00  0.00    -0.000 C 
BRANCH  22  23
ATOM     23  C   UNL     1     125.062 126.048 135.350  1.00  0.00    -0.000 C 
BRANCH  23  24
ATOM     24  C   UNL     1     125.669 124.841 134.614  1.00  0.00    -0.000 C 
BRANCH  24  25
ATOM     25  C   UNL     1     127.027 124.413 135.188  1.00  0.00    -0.003 C 
ATOM     26  C   UNL     1     126.924 124.127 136.684  1.00  0.00     0.004 C 
ENDBRANCH  24  25
ENDBRANCH  23  24
ENDBRANCH  22  23
ENDBRANCH  21  22
ENDBRANCH  20  21
ENDBRANCH  19  20
ENDBRANCH  18  19
ENDBRANCH  17  18
ENDBRANCH  16  17
ENDBRANCH  15  16
ENDBRANCH   1  15
TORSDOF 22
ENDMDL
MODEL 8
REMARK VINA RESULT:    -4.762      6.422     10.505
REMARK INTER + INTRA:         -11.888
REMARK INTER:                  -9.783
REMARK INTRA:                  -2.105
REMARK UNBOUND:                -1.002
REMARK SMILES CCCCCCCCCCCCCCCCCCCCCCCC(=O)[O-]
REMARK SMILES IDX 13 1 14 2 15 3 16 4 17 5 18 6 19 7 20 8 21 9 22 10 23 11
REMARK SMILES IDX 24 12 25 13 26 14 12 15 11 16 10 17 9 18 8 19 7 20 6 21 5 22
REMARK SMILES IDX 4 23 3 24 2 25 1 26
REMARK H PARENT
REMARK Flexibility Score: inf
ROOT
ATOM      1  C   UNL     1     123.267 119.830 132.388  1.00  0.00     0.000 C 
ENDROOT
BRANCH   1   2
ATOM      2  C   UNL     1     124.267 119.548 131.251  1.00  0.00     0.000 C 
BRANCH   2   3
ATOM      3  C   UNL     1     125.035 120.814 130.822  1.00  0.00     0.000 C 
BRANCH   3   4
ATOM      4  C   UNL     1     124.252 122.123 131.035  1.00  0.00     0.000 C 
BRANCH   4   5
ATOM      5  C   UNL     1     124.355 123.123 129.863  1.00  0.00     0.000 C 
BRANCH   5   6
ATOM      6  C   UNL     1     124.940 122.535 128.562  1.00  0.00     0.000 C 
BRANCH   6   7
ATOM      7  C   UNL     1     126.392 122.945 128.247  1.00  0.00     0.000 C 
BRANCH   7   8
ATOM      8  C   UNL     1     126.537 124.429 127.881  1.00  0.00     0.000 C 
BRANCH   8   9
ATOM      9  C   UNL     1     127.350 124.602 126.589  1.00  0.00     0.000 C 
BRANCH   9  10
ATOM     10  C   UNL     1     126.472 124.872 125.354  1.00  0.00     0.006 C 
BRANCH  10  11
ATOM     11  C   UNL     1     127.269 125.074 124.053  1.00  0.00     0.053 C 
BRANCH  11  12
ATOM     12  C   UNL     1     126.469 125.764 122.990  1.00  0.00     0.041 C 
ATOM     13  O   UNL     1     125.213 125.679 122.987  1.00  0.00    -0.550 OA
ATOM     14  O   UNL     1     127.111 126.467 121.978  1.00  0.00    -0.550 OA
ENDBRANCH  11  12
ENDBRANCH  10  11
ENDBRANCH   9  10
ENDBRANCH   8   9
ENDBRANCH   7   8
ENDBRANCH   6   7
ENDBRANCH   5   6
ENDBRANCH   4   5
ENDBRANCH   3   4
ENDBRANCH   2   3
ENDBRANCH   1   2
BRANCH   1  15
ATOM     15  C   UNL     1     121.814 119.525 131.992  1.00  0.00     0.000 C 
BRANCH  15  16
ATOM     16  C   UNL     1     120.958 119.068 133.185  1.00  0.00     0.000 C 
BRANCH  16  17
ATOM     17  C   UNL     1     120.024 120.173 133.714  1.00  0.00     0.000 C 
BRANCH  17  18
ATOM     18  C   UNL     1     120.668 121.165 134.700  1.00  0.00    -0.000 C 
BRANCH  18  19
ATOM     19  C   UNL     1     120.717 122.604 134.158  1.00  0.00    -0.000 C 
BRANCH  19  20
ATOM     20  C   UNL     1     122.038 123.325 134.483  1.00  0.00    -0.000 C 
BRANCH  20  21
ATOM     21  C   UNL     1     123.016 122.535 135.376  1.00  0.00    -0.000 C 
BRANCH  21  22
ATOM     22  C   UNL     1     124.434 122.359 134.798  1.00  0.00    -0.000 C 
BRANCH  22  23
ATOM     23  C   UNL     1     125.027 123.617 134.132  1.00  0.00    -0.000 C 
BRANCH  23  24
ATOM     24  C   UNL     1     125.679 124.618 135.102  1.00  0.00    -0.000 C 
BRANCH  24  25
ATOM     25  C   UNL     1     127.152 124.295 135.391  1.00  0.00    -0.003 C 
ATOM     26  C   UNL     1     127.620 124.968 136.678  1.00  0.00     0.004 C 
ENDBRANCH  24  25
ENDBRANCH  23  24
ENDBRANCH  22  23
ENDBRANCH  21  22
ENDBRANCH  20  21
ENDBRANCH  19  20
ENDBRANCH  18  19
ENDBRANCH  17  18
ENDBRANCH  16  17
ENDBRANCH  15  16
ENDBRANCH   1  15
TORSDOF 22
ENDMDL
MODEL 9
REMARK VINA RESULT:    -4.742      6.097     12.370
REMARK INTER + INTRA:         -11.843
REMARK INTER:                  -9.662
REMARK INTRA:                  -2.181
REMARK UNBOUND:                -1.002
REMARK SMILES CCCCCCCCCCCCCCCCCCCCCCCC(=O)[O-]
REMARK SMILES IDX 13 1 14 2 15 3 16 4 17 5 18 6 19 7 20 8 21 9 22 10 23 11
REMARK SMILES IDX 24 12 25 13 26 14 12 15 11 16 10 17 9 18 8 19 7 20 6 21 5 22
REMARK SMILES IDX 4 23 3 24 2 25 1 26
REMARK H PARENT
REMARK Flexibility Score: inf
ROOT
ATOM      1  C   UNL     1     130.486 132.131 135.283  1.00  0.00     0.000 C 
ENDROOT
BRANCH   1   2
ATOM      2  C   UNL     1     130.734 130.611 135.269  1.00  0.00     0.000 C 
BRANCH   2   3
ATOM      3  C   UNL     1     129.876 129.891 134.209  1.00  0.00     0.000 C 
BRANCH   3   4
ATOM      4  C   UNL     1     128.911 128.841 134.791  1.00  0.00     0.000 C 
BRANCH   4   5
ATOM      5  C   UNL     1     127.611 129.430 135.379  1.00  0.00     0.000 C 
BRANCH   5   6
ATOM      6  C   UNL     1     127.600 129.565 136.916  1.00  0.00     0.000 C 
BRANCH   6   7
ATOM      7  C   UNL     1     128.047 128.310 137.692  1.00  0.00     0.000 C 
BRANCH   7   8
ATOM      8  C   UNL     1     127.164 127.083 137.420  1.00  0.00     0.000 C 
BRANCH   8   9
ATOM      9  C   UNL     1     128.018 125.820 137.233  1.00  0.00     0.000 C 
BRANCH   9  10
ATOM     10  C   UNL     1     128.042 125.318 135.778  1.00  0.00     0.006 C 
BRANCH  10  11
ATOM     11  C   UNL     1     126.817 125.743 134.950  1.00  0.00     0.053 C 
BRANCH  11  12
ATOM     12  C   UNL     1     125.723 124.719 134.972  1.00  0.00     0.041 C 
ATOM     13  O   UNL     1     125.953 123.539 134.598  1.00  0.00    -0.550 OA
ATOM     14  O   UNL     1     124.440 125.075 135.368  1.00  0.00    -0.550 OA
ENDBRANCH  11  12
ENDBRANCH  10  11
ENDBRANCH   9  10
ENDBRANCH   8   9
ENDBRANCH   7   8
ENDBRANCH   6   7
ENDBRANCH   5   6
ENDBRANCH   4   5
ENDBRANCH   3   4
ENDBRANCH   2   3
ENDBRANCH   1   2
BRANCH   1  15
ATOM     15  C   UNL     1     131.302 132.878 134.217  1.00  0.00     0.000 C 
BRANCH  15  16
ATOM     16  C   UNL     1     132.543 133.574 134.800  1.00  0.00     0.000 C 
BRANCH  16  17
ATOM     17  C   UNL     1     133.403 134.268 133.727  1.00  0.00     0.000 C 
BRANCH  17  18
ATOM     18  C   UNL     1     132.792 135.541 133.112  1.00  0.00    -0.000 C 
BRANCH  18  19
ATOM     19  C   UNL     1     132.745 135.502 131.575  1.00  0.00    -0.000 C 
BRANCH  19  20
ATOM     20  C   UNL     1     131.353 135.838 131.008  1.00  0.00    -0.000 C 
BRANCH  20  21
ATOM     21  C   UNL     1     130.666 134.699 130.229  1.00  0.00    -0.000 C 
BRANCH  21  22
ATOM     22  C   UNL     1     131.345 133.320 130.352  1.00  0.00    -0.000 C 
BRANCH  22  23
ATOM     23  C   UNL     1     131.256 132.435 129.092  1.00  0.00    -0.000 C 
BRANCH  23  24
ATOM     24  C   UNL     1     130.067 132.742 128.166  1.00  0.00    -0.000 C 
BRANCH  24  25
ATOM     25  C   UNL     1     129.495 131.485 127.495  1.00  0.00    -0.003 C 
ATOM     26  C   UNL     1     129.120 130.431 128.533  1.00  0.00     0.004 C 
ENDBRANCH  24  25
ENDBRANCH  23  24
ENDBRANCH  22  23
ENDBRANCH  21  22
ENDBRANCH  20  21
ENDBRANCH  19  20
ENDBRANCH  18  19
ENDBRANCH  17  18
ENDBRANCH  16  17
ENDBRANCH  15  16
ENDBRANCH   1  15
TORSDOF 22
ENDMDL
