MODEL 1
REMARK VINA RESULT:    -3.611      0.000      0.000
REMARK INTER + INTRA:          -9.751
REMARK INTER:                  -6.778
REMARK INTRA:                  -2.974
REMARK UNBOUND:                -2.974
REMARK SMILES CCCCCCCCC=CCCCCCCCC(=O)[O-]
REMARK SMILES IDX 10 1 9 2 11 3 12 4 13 5 14 6 15 7 16 8 17 9 18 10 19 11
REMARK SMILES IDX 20 12 8 13 7 14 6 15 5 16 4 17 3 18 2 19 1 20
REMARK H PARENT
REMARK Flexibility Score: inf
ROOT
ATOM      1  C   UNL     1     212.629 203.465 196.815  1.00  0.00    -0.031 C 
ATOM      2  C   UNL     1     213.754 203.037 196.209  1.00  0.00    -0.031 C 
ENDROOT
BRANCH   1   3
ATOM      3  C   UNL     1     211.707 204.537 196.290  1.00  0.00     0.027 C 
BRANCH   3   4
ATOM      4  C   UNL     1     211.658 205.746 197.237  1.00  0.00     0.004 C 
BRANCH   4   5
ATOM      5  C   UNL     1     212.117 207.044 196.551  1.00  0.00     0.000 C 
BRANCH   5   6
ATOM      6  C   UNL     1     212.451 206.869 195.057  1.00  0.00     0.000 C 
BRANCH   6   7
ATOM      7  C   UNL     1     213.865 207.376 194.685  1.00  0.00     0.000 C 
BRANCH   7   8
ATOM      8  C   UNL     1     214.772 207.526 195.917  1.00  0.00     0.006 C 
BRANCH   8   9
ATOM      9  C   UNL     1     215.761 208.690 195.774  1.00  0.00     0.053 C 
BRANCH   9  10
ATOM     10  C   UNL     1     215.108 210.013 196.038  1.00  0.00     0.041 C 
ATOM     11  O   UNL     1     214.685 210.293 197.190  1.00  0.00    -0.550 OA
ATOM     12  O   UNL     1     214.995 210.948 195.017  1.00  0.00    -0.550 OA
ENDBRANCH   9  10
ENDBRANCH   8   9
ENDBRANCH   7   8
ENDBRANCH   6   7
ENDBRANCH   5   6
ENDBRANCH   4   5
ENDBRANCH   3   4
ENDBRANCH   1   3
BRANCH   2  13
ATOM     13  C   UNL     1     214.300 203.560 194.902  1.00  0.00     0.027 C 
BRANCH  13  14
ATOM     14  C   UNL     1     215.706 204.164 195.060  1.00  0.00     0.004 C 
BRANCH  14  15
ATOM     15  C   UNL     1     216.350 204.653 193.750  1.00  0.00     0.000 C 
BRANCH  15  16
ATOM     16  C   UNL     1     215.499 204.341 192.511  1.00  0.00     0.000 C 
BRANCH  16  17
ATOM     17  C   UNL     1     215.127 205.628 191.759  1.00  0.00    -0.000 C 
BRANCH  17  18
ATOM     18  C   UNL     1     213.636 205.665 191.364  1.00  0.00    -0.000 C 
BRANCH  18  19
ATOM     19  C   UNL     1     212.940 204.298 191.458  1.00  0.00    -0.003 C 
ATOM     20  C   UNL     1     211.723 204.306 192.382  1.00  0.00     0.004 C 
ENDBRANCH  18  19
ENDBRANCH  17  18
ENDBRANCH  16  17
ENDBRANCH  15  16
ENDBRANCH  14  15
ENDBRANCH  13  14
ENDBRANCH   2  13
TORSDOF 15
ENDMDL
MODEL 2
REMARK VINA RESULT:    -3.604      1.705      3.519
REMARK INTER + INTRA:          -9.739
REMARK INTER:                  -6.691
REMARK INTRA:                  -3.047
REMARK UNBOUND:                -2.974
REMARK SMILES CCCCCCCCC=CCCCCCCCC(=O)[O-]
REMARK SMILES IDX 10 1 9 2 11 3 12 4 13 5 14 6 15 7 16 8 17 9 18 10 19 11
REMARK SMILES IDX 20 12 8 13 7 14 6 15 5 16 4 17 3 18 2 19 1 20
REMARK H PARENT
REMARK Flexibility Score: inf
ROOT
ATOM      1  C   UNL     1     214.282 203.813 195.582  1.00  0.00    -0.031 C 
ATOM      2  C   UNL     1     213.142 204.530 195.532  1.00  0.00    -0.031 C 
ENDROOT
BRANCH   1   3
ATOM      3  C   UNL     1     215.224 203.587 194.426  1.00  0.00     0.027 C 
BRANCH   3   4
ATOM      4  C   UNL     1     216.263 204.714 194.321  1.00  0.00     0.004 C 
BRANCH   4   5
ATOM      5  C   UNL     1     217.090 204.867 195.609  1.00  0.00     0.000 C 
BRANCH   5   6
ATOM      6  C   UNL     1     217.023 206.278 196.224  1.00  0.00     0.000 C 
BRANCH   6   7
ATOM      7  C   UNL     1     216.087 207.236 195.450  1.00  0.00     0.000 C 
BRANCH   7   8
ATOM      8  C   UNL     1     215.201 208.070 196.389  1.00  0.00     0.006 C 
BRANCH   8   9
ATOM      9  C   UNL     1     213.814 208.343 195.793  1.00  0.00     0.053 C 
BRANCH   9  10
ATOM     10  C   UNL     1     212.756 208.417 196.853  1.00  0.00     0.041 C 
ATOM     11  O   UNL     1     212.384 207.373 197.451  1.00  0.00    -0.550 OA
ATOM     12  O   UNL     1     212.204 209.644 197.200  1.00  0.00    -0.550 OA
ENDBRANCH   9  10
ENDBRANCH   8   9
ENDBRANCH   7   8
ENDBRANCH   6   7
ENDBRANCH   5   6
ENDBRANCH   4   5
ENDBRANCH   3   4
ENDBRANCH   1   3
BRANCH   2  13
ATOM     13  C   UNL     1     212.597 205.227 194.308  1.00  0.00     0.027 C 
BRANCH  13  14
ATOM     14  C   UNL     1     211.663 204.319 193.491  1.00  0.00     0.004 C 
BRANCH  14  15
ATOM     15  C   UNL     1     211.729 204.529 191.967  1.00  0.00     0.000 C 
BRANCH  15  16
ATOM     16  C   UNL     1     213.148 204.368 191.402  1.00  0.00     0.000 C 
BRANCH  16  17
ATOM     17  C   UNL     1     213.628 205.668 190.738  1.00  0.00    -0.000 C 
BRANCH  17  18
ATOM     18  C   UNL     1     214.849 206.276 191.459  1.00  0.00    -0.000 C 
BRANCH  18  19
ATOM     19  C   UNL     1     214.633 207.727 191.920  1.00  0.00    -0.003 C 
ATOM     20  C   UNL     1     213.158 208.100 192.056  1.00  0.00     0.004 C 
ENDBRANCH  18  19
ENDBRANCH  17  18
ENDBRANCH  16  17
ENDBRANCH  15  16
ENDBRANCH  14  15
ENDBRANCH  13  14
ENDBRANCH   2  13
TORSDOF 15
ENDMDL
MODEL 3
REMARK VINA RESULT:    -3.575      2.315      5.393
REMARK INTER + INTRA:          -9.684
REMARK INTER:                  -6.578
REMARK INTRA:                  -3.106
REMARK UNBOUND:                -2.974
REMARK SMILES CCCCCCCCC=CCCCCCCCC(=O)[O-]
REMARK SMILES IDX 10 1 9 2 11 3 12 4 13 5 14 6 15 7 16 8 17 9 18 10 19 11
REMARK SMILES IDX 20 12 8 13 7 14 6 15 5 16 4 17 3 18 2 19 1 20
REMARK H PARENT
REMARK Flexibility Score: inf
ROOT
ATOM      1  C   UNL     1     216.839 205.069 194.794  1.00  0.00    -0.031 C 
ATOM      2  C   UNL     1     215.868 204.499 195.533  1.00  0.00    -0.031 C 
ENDROOT
BRANCH   1   3
ATOM      3  C   UNL     1     217.125 204.770 193.343  1.00  0.00     0.027 C 
BRANCH   3   4
ATOM      4  C   UNL     1     216.885 206.004 192.460  1.00  0.00     0.004 C 
BRANCH   4   5
ATOM      5  C   UNL     1     215.542 205.936 191.712  1.00  0.00     0.000 C 
BRANCH   5   6
ATOM      6  C   UNL     1     214.938 204.519 191.657  1.00  0.00     0.000 C 
BRANCH   6   7
ATOM      7  C   UNL     1     213.467 204.503 191.176  1.00  0.00     0.000 C 
BRANCH   7   8
ATOM      8  C   UNL     1     213.226 205.471 190.006  1.00  0.00     0.006 C 
BRANCH   8   9
ATOM      9  C   UNL     1     212.021 206.389 190.249  1.00  0.00     0.053 C 
BRANCH   9  10
ATOM     10  C   UNL     1     212.444 207.782 190.608  1.00  0.00     0.041 C 
ATOM     11  O   UNL     1     213.367 208.349 189.966  1.00  0.00    -0.550 OA
ATOM     12  O   UNL     1     211.798 208.462 191.632  1.00  0.00    -0.550 OA
ENDBRANCH   9  10
ENDBRANCH   8   9
ENDBRANCH   7   8
ENDBRANCH   6   7
ENDBRANCH   5   6
ENDBRANCH   4   5
ENDBRANCH   3   4
ENDBRANCH   1   3
BRANCH   2  13
ATOM     13  C   UNL     1     214.896 203.450 195.045  1.00  0.00     0.027 C 
BRANCH  13  14
ATOM     14  C   UNL     1     213.459 203.990 194.953  1.00  0.00     0.004 C 
BRANCH  14  15
ATOM     15  C   UNL     1     213.279 205.436 195.451  1.00  0.00     0.000 C 
BRANCH  15  16
ATOM     16  C   UNL     1     212.976 206.426 194.317  1.00  0.00     0.000 C 
BRANCH  16  17
ATOM     17  C   UNL     1     213.340 207.861 194.726  1.00  0.00    -0.000 C 
BRANCH  17  18
ATOM     18  C   UNL     1     214.865 208.089 194.770  1.00  0.00    -0.000 C 
BRANCH  18  19
ATOM     19  C   UNL     1     215.371 208.609 196.125  1.00  0.00    -0.003 C 
ATOM     20  C   UNL     1     214.285 208.643 197.199  1.00  0.00     0.004 C 
ENDBRANCH  18  19
ENDBRANCH  17  18
ENDBRANCH  16  17
ENDBRANCH  15  16
ENDBRANCH  14  15
ENDBRANCH  13  14
ENDBRANCH   2  13
TORSDOF 15
ENDMDL
MODEL 4
REMARK VINA RESULT:    -3.530      1.421      2.121
REMARK INTER + INTRA:          -9.598
REMARK INTER:                  -6.427
REMARK INTRA:                  -3.172
REMARK UNBOUND:                -2.974
REMARK SMILES CCCCCCCCC=CCCCCCCCC(=O)[O-]
REMARK SMILES IDX 10 1 9 2 11 3 12 4 13 5 14 6 15 7 16 8 17 9 18 10 19 11
REMARK SMILES IDX 20 12 8 13 7 14 6 15 5 16 4 17 3 18 2 19 1 20
REMARK H PARENT
REMARK Flexibility Score: inf
ROOT
ATOM      1  C   UNL     1     211.400 204.823 196.013  1.00  0.00    -0.031 C 
ATOM      2  C   UNL     1     212.386 204.278 196.751  1.00  0.00    -0.031 C 
ENDROOT
BRANCH   1   3
ATOM      3  C   UNL     1     211.098 204.488 194.573  1.00  0.00     0.027 C 
BRANCH   3   4
ATOM      4  C   UNL     1     211.439 205.661 193.642  1.00  0.00     0.004 C 
BRANCH   4   5
ATOM      5  C   UNL     1     212.033 206.858 194.404  1.00  0.00     0.000 C 
BRANCH   5   6
ATOM      6  C   UNL     1     213.152 207.587 193.636  1.00  0.00     0.000 C 
BRANCH   6   7
ATOM      7  C   UNL     1     214.478 207.674 194.427  1.00  0.00     0.000 C 
BRANCH   7   8
ATOM      8  C   UNL     1     214.290 207.341 195.917  1.00  0.00     0.006 C 
BRANCH   8   9
ATOM      9  C   UNL     1     214.380 208.587 196.808  1.00  0.00     0.053 C 
BRANCH   9  10
ATOM     10  C   UNL     1     213.025 209.083 197.212  1.00  0.00     0.041 C 
ATOM     11  O   UNL     1     212.296 208.390 197.970  1.00  0.00    -0.550 OA
ATOM     12  O   UNL     1     212.581 210.325 196.776  1.00  0.00    -0.550 OA
ENDBRANCH   9  10
ENDBRANCH   8   9
ENDBRANCH   7   8
ENDBRANCH   6   7
ENDBRANCH   5   6
ENDBRANCH   4   5
ENDBRANCH   3   4
ENDBRANCH   1   3
BRANCH   2  13
ATOM     13  C   UNL     1     213.374 203.243 196.268  1.00  0.00     0.027 C 
BRANCH  13  14
ATOM     14  C   UNL     1     214.573 203.878 195.545  1.00  0.00     0.004 C 
BRANCH  14  15
ATOM     15  C   UNL     1     214.604 203.649 194.022  1.00  0.00     0.000 C 
BRANCH  15  16
ATOM     16  C   UNL     1     215.772 204.368 193.332  1.00  0.00     0.000 C 
BRANCH  16  17
ATOM     17  C   UNL     1     215.328 204.991 192.000  1.00  0.00    -0.000 C 
BRANCH  17  18
ATOM     18  C   UNL     1     214.058 204.320 191.436  1.00  0.00    -0.000 C 
BRANCH  18  19
ATOM     19  C   UNL     1     213.277 205.208 190.453  1.00  0.00    -0.003 C 
ATOM     20  C   UNL     1     213.969 206.539 190.167  1.00  0.00     0.004 C 
ENDBRANCH  18  19
ENDBRANCH  17  18
ENDBRANCH  16  17
ENDBRANCH  15  16
ENDBRANCH  14  15
ENDBRANCH  13  14
ENDBRANCH   2  13
TORSDOF 15
ENDMDL
MODEL 5
REMARK VINA RESULT:    -3.526      2.075      4.537
REMARK INTER + INTRA:          -9.592
REMARK INTER:                  -6.865
REMARK INTRA:                  -2.728
REMARK UNBOUND:                -2.974
REMARK SMILES CCCCCCCCC=CCCCCCCCC(=O)[O-]
REMARK SMILES IDX 10 1 9 2 11 3 12 4 13 5 14 6 15 7 16 8 17 9 18 10 19 11
REMARK SMILES IDX 20 12 8 13 7 14 6 15 5 16 4 17 3 18 2 19 1 20
REMARK H PARENT
REMARK Flexibility Score: inf
ROOT
ATOM      1  C   UNL     1     212.640 204.927 195.765  1.00  0.00    -0.031 C 
ATOM      2  C   UNL     1     213.777 204.236 195.977  1.00  0.00    -0.031 C 
ENDROOT
BRANCH   1   3
ATOM      3  C   UNL     1     212.132 205.384 194.420  1.00  0.00     0.027 C 
BRANCH   3   4
ATOM      4  C   UNL     1     211.112 204.393 193.839  1.00  0.00     0.004 C 
BRANCH   4   5
ATOM      5  C   UNL     1     211.474 203.953 192.410  1.00  0.00     0.000 C 
BRANCH   5   6
ATOM      6  C   UNL     1     212.331 204.980 191.646  1.00  0.00     0.000 C 
BRANCH   6   7
ATOM      7  C   UNL     1     213.637 204.380 191.074  1.00  0.00     0.000 C 
BRANCH   7   8
ATOM      8  C   UNL     1     214.888 205.104 191.597  1.00  0.00     0.006 C 
BRANCH   8   9
ATOM      9  C   UNL     1     214.647 206.604 191.812  1.00  0.00     0.053 C 
BRANCH   9  10
ATOM     10  C   UNL     1     215.785 207.432 191.294  1.00  0.00     0.041 C 
ATOM     11  O   UNL     1     215.975 207.544 190.055  1.00  0.00    -0.550 OA
ATOM     12  O   UNL     1     216.616 208.103 192.182  1.00  0.00    -0.550 OA
ENDBRANCH   9  10
ENDBRANCH   8   9
ENDBRANCH   7   8
ENDBRANCH   6   7
ENDBRANCH   5   6
ENDBRANCH   4   5
ENDBRANCH   3   4
ENDBRANCH   1   3
BRANCH   2  13
ATOM     13  C   UNL     1     214.754 203.806 194.909  1.00  0.00     0.027 C 
BRANCH  13  14
ATOM     14  C   UNL     1     216.188 204.269 195.213  1.00  0.00     0.004 C 
BRANCH  14  15
ATOM     15  C   UNL     1     216.485 205.735 194.847  1.00  0.00     0.000 C 
BRANCH  15  16
ATOM     16  C   UNL     1     216.839 206.597 196.067  1.00  0.00     0.000 C 
BRANCH  16  17
ATOM     17  C   UNL     1     216.272 208.018 195.923  1.00  0.00    -0.000 C 
BRANCH  17  18
ATOM     18  C   UNL     1     214.729 208.037 195.947  1.00  0.00    -0.000 C 
BRANCH  18  19
ATOM     19  C   UNL     1     214.140 208.599 197.251  1.00  0.00    -0.003 C 
ATOM     20  C   UNL     1     212.659 208.271 197.430  1.00  0.00     0.004 C 
ENDBRANCH  18  19
ENDBRANCH  17  18
ENDBRANCH  16  17
ENDBRANCH  15  16
ENDBRANCH  14  15
ENDBRANCH  13  14
ENDBRANCH   2  13
TORSDOF 15
ENDMDL
MODEL 6
REMARK VINA RESULT:    -3.497      9.840     11.968
REMARK INTER + INTRA:          -9.537
REMARK INTER:                  -7.041
REMARK INTRA:                  -2.497
REMARK UNBOUND:                -2.974
REMARK SMILES CCCCCCCCC=CCCCCCCCC(=O)[O-]
REMARK SMILES IDX 10 1 9 2 11 3 12 4 13 5 14 6 15 7 16 8 17 9 18 10 19 11
REMARK SMILES IDX 20 12 8 13 7 14 6 15 5 16 4 17 3 18 2 19 1 20
REMARK H PARENT
REMARK Flexibility Score: inf
ROOT
ATOM      1  C   UNL     1     202.568 206.771 192.579  1.00  0.00    -0.031 C 
ATOM      2  C   UNL     1     202.961 205.865 191.662  1.00  0.00    -0.031 C 
ENDROOT
BRANCH   1   3
ATOM      3  C   UNL     1     202.693 208.267 192.440  1.00  0.00     0.027 C 
BRANCH   3   4
ATOM      4  C   UNL     1     202.633 208.964 193.809  1.00  0.00     0.004 C 
BRANCH   4   5
ATOM      5  C   UNL     1     202.620 207.960 194.974  1.00  0.00     0.000 C 
BRANCH   5   6
ATOM      6  C   UNL     1     203.780 208.152 195.970  1.00  0.00     0.000 C 
BRANCH   6   7
ATOM      7  C   UNL     1     205.155 208.309 195.280  1.00  0.00     0.000 C 
BRANCH   7   8
ATOM      8  C   UNL     1     205.637 206.999 194.637  1.00  0.00     0.006 C 
BRANCH   8   9
ATOM      9  C   UNL     1     205.421 205.786 195.552  1.00  0.00     0.053 C 
BRANCH   9  10
ATOM     10  C   UNL     1     206.633 205.492 196.383  1.00  0.00     0.041 C 
ATOM     11  O   UNL     1     206.529 204.808 197.436  1.00  0.00    -0.550 OA
ATOM     12  O   UNL     1     207.881 205.948 195.979  1.00  0.00    -0.550 OA
ENDBRANCH   9  10
ENDBRANCH   8   9
ENDBRANCH   7   8
ENDBRANCH   6   7
ENDBRANCH   5   6
ENDBRANCH   4   5
ENDBRANCH   3   4
ENDBRANCH   1   3
BRANCH   2  13
ATOM     13  C   UNL     1     203.607 206.185 190.334  1.00  0.00     0.027 C 
BRANCH  13  14
ATOM     14  C   UNL     1     202.783 205.662 189.147  1.00  0.00     0.004 C 
BRANCH  14  15
ATOM     15  C   UNL     1     201.338 205.256 189.492  1.00  0.00     0.000 C 
BRANCH  15  16
ATOM     16  C   UNL     1     200.310 206.336 189.127  1.00  0.00     0.000 C 
BRANCH  16  17
ATOM     17  C   UNL     1     199.302 206.547 190.267  1.00  0.00    -0.000 C 
BRANCH  17  18
ATOM     18  C   UNL     1     199.226 205.330 191.213  1.00  0.00    -0.000 C 
BRANCH  18  19
ATOM     19  C   UNL     1     199.176 205.709 192.702  1.00  0.00    -0.003 C 
ATOM     20  C   UNL     1     199.007 207.209 192.934  1.00  0.00     0.004 C 
ENDBRANCH  18  19
ENDBRANCH  17  18
ENDBRANCH  16  17
ENDBRANCH  15  16
ENDBRANCH  14  15
ENDBRANCH  13  14
ENDBRANCH   2  13
TORSDOF 15
ENDMDL
MODEL 7
REMARK VINA RESULT:    -3.479     10.905     12.859
REMARK INTER + INTRA:          -9.504
REMARK INTER:                  -6.811
REMARK INTRA:                  -2.694
REMARK UNBOUND:                -2.974
REMARK SMILES CCCCCCCCC=CCCCCCCCC(=O)[O-]
REMARK SMILES IDX 10 1 9 2 11 3 12 4 13 5 14 6 15 7 16 8 17 9 18 10 19 11
REMARK SMILES IDX 20 12 8 13 7 14 6 15 5 16 4 17 3 18 2 19 1 20
REMARK H PARENT
REMARK Flexibility Score: inf
ROOT
ATOM      1  C   UNL     1     199.474 205.390 192.493  1.00  0.00    -0.031 C 
ATOM      2  C   UNL     1     199.228 205.351 191.169  1.00  0.00    -0.031 C 
ENDROOT
BRANCH   1   3
ATOM      3  C   UNL     1     200.022 206.577 193.246  1.00  0.00     0.027 C 
BRANCH   3   4
ATOM      4  C   UNL     1     198.916 207.594 193.568  1.00  0.00     0.004 C 
BRANCH   4   5
ATOM      5  C   UNL     1     199.473 209.012 193.783  1.00  0.00     0.000 C 
BRANCH   5   6
ATOM      6  C   UNL     1     201.011 209.068 193.856  1.00  0.00     0.000 C 
BRANCH   6   7
ATOM      7  C   UNL     1     201.535 209.910 195.043  1.00  0.00     0.000 C 
BRANCH   7   8
ATOM      8  C   UNL     1     202.960 209.506 195.459  1.00  0.00     0.006 C 
BRANCH   8   9
ATOM      9  C   UNL     1     203.226 208.010 195.248  1.00  0.00     0.053 C 
BRANCH   9  10
ATOM     10  C   UNL     1     204.638 207.641 195.592  1.00  0.00     0.041 C 
ATOM     11  O   UNL     1     205.591 208.390 195.247  1.00  0.00    -0.550 OA
ATOM     12  O   UNL     1     204.898 206.487 196.319  1.00  0.00    -0.550 OA
ENDBRANCH   9  10
ENDBRANCH   8   9
ENDBRANCH   7   8
ENDBRANCH   6   7
ENDBRANCH   5   6
ENDBRANCH   4   5
ENDBRANCH   3   4
ENDBRANCH   1   3
BRANCH   2  13
ATOM     13  C   UNL     1     199.464 206.484 190.199  1.00  0.00     0.027 C 
BRANCH  13  14
ATOM     14  C   UNL     1     200.276 206.037 188.971  1.00  0.00     0.004 C 
BRANCH  14  15
ATOM     15  C   UNL     1     201.390 205.017 189.271  1.00  0.00     0.000 C 
BRANCH  15  16
ATOM     16  C   UNL     1     202.752 205.677 189.529  1.00  0.00     0.000 C 
BRANCH  16  17
ATOM     17  C   UNL     1     203.032 205.794 191.035  1.00  0.00    -0.000 C 
BRANCH  17  18
ATOM     18  C   UNL     1     203.142 207.261 191.498  1.00  0.00    -0.000 C 
BRANCH  18  19
ATOM     19  C   UNL     1     203.137 208.274 190.341  1.00  0.00    -0.003 C 
ATOM     20  C   UNL     1     201.950 209.234 190.389  1.00  0.00     0.004 C 
ENDBRANCH  18  19
ENDBRANCH  17  18
ENDBRANCH  16  17
ENDBRANCH  15  16
ENDBRANCH  14  15
ENDBRANCH  13  14
ENDBRANCH   2  13
TORSDOF 15
ENDMDL
MODEL 8
REMARK VINA RESULT:    -3.473      2.688      4.381
REMARK INTER + INTRA:          -9.493
REMARK INTER:                  -6.408
REMARK INTRA:                  -3.085
REMARK UNBOUND:                -2.974
REMARK SMILES CCCCCCCCC=CCCCCCCCC(=O)[O-]
REMARK SMILES IDX 10 1 9 2 11 3 12 4 13 5 14 6 15 7 16 8 17 9 18 10 19 11
REMARK SMILES IDX 20 12 8 13 7 14 6 15 5 16 4 17 3 18 2 19 1 20
REMARK H PARENT
REMARK Flexibility Score: inf
ROOT
ATOM      1  C   UNL     1     215.668 204.474 195.378  1.00  0.00    -0.031 C 
ATOM      2  C   UNL     1     215.255 203.971 194.199  1.00  0.00    -0.031 C 
ENDROOT
BRANCH   1   3
ATOM      3  C   UNL     1     217.041 205.032 195.658  1.00  0.00     0.027 C 
BRANCH   3   4
ATOM      4  C   UNL     1     217.017 206.567 195.737  1.00  0.00     0.004 C 
BRANCH   4   5
ATOM      5  C   UNL     1     217.124 207.224 194.350  1.00  0.00     0.000 C 
BRANCH   5   6
ATOM      6  C   UNL     1     215.822 207.903 193.885  1.00  0.00     0.000 C 
BRANCH   6   7
ATOM      7  C   UNL     1     214.808 208.126 195.031  1.00  0.00     0.000 C 
BRANCH   7   8
ATOM      8  C   UNL     1     213.474 207.404 194.778  1.00  0.00     0.006 C 
BRANCH   8   9
ATOM      9  C   UNL     1     212.924 206.735 196.045  1.00  0.00     0.053 C 
BRANCH   9  10
ATOM     10  C   UNL     1     211.830 205.760 195.730  1.00  0.00     0.041 C 
ATOM     11  O   UNL     1     211.916 205.015 194.719  1.00  0.00    -0.550 OA
ATOM     12  O   UNL     1     210.730 205.654 196.572  1.00  0.00    -0.550 OA
ENDBRANCH   9  10
ENDBRANCH   8   9
ENDBRANCH   7   8
ENDBRANCH   6   7
ENDBRANCH   5   6
ENDBRANCH   4   5
ENDBRANCH   3   4
ENDBRANCH   1   3
BRANCH   2  13
ATOM     13  C   UNL     1     216.094 203.866 192.947  1.00  0.00     0.027 C 
BRANCH  13  14
ATOM     14  C   UNL     1     215.648 204.862 191.864  1.00  0.00     0.004 C 
BRANCH  14  15
ATOM     15  C   UNL     1     214.147 205.205 191.881  1.00  0.00     0.000 C 
BRANCH  15  16
ATOM     16  C   UNL     1     213.700 205.998 190.644  1.00  0.00     0.000 C 
BRANCH  16  17
ATOM     17  C   UNL     1     213.515 207.486 190.980  1.00  0.00    -0.000 C 
BRANCH  17  18
ATOM     18  C   UNL     1     214.465 208.391 190.170  1.00  0.00    -0.000 C 
BRANCH  18  19
ATOM     19  C   UNL     1     215.440 207.614 189.271  1.00  0.00    -0.003 C 
ATOM     20  C   UNL     1     216.883 208.100 189.390  1.00  0.00     0.004 C 
ENDBRANCH  18  19
ENDBRANCH  17  18
ENDBRANCH  16  17
ENDBRANCH  15  16
ENDBRANCH  14  15
ENDBRANCH  13  14
ENDBRANCH   2  13
TORSDOF 15
ENDMDL
MODEL 9
REMARK VINA RESULT:    -3.455     11.819     14.020
REMARK INTER + INTRA:          -9.458
REMARK INTER:                  -6.264
REMARK INTRA:                  -3.194
REMARK UNBOUND:                -2.974
REMARK SMILES CCCCCCCCC=CCCCCCCCC(=O)[O-]
REMARK SMILES IDX 10 1 9 2 11 3 12 4 13 5 14 6 15 7 16 8 17 9 18 10 19 11
REMARK SMILES IDX 20 12 8 13 7 14 6 15 5 16 4 17 3 18 2 19 1 20
REMARK H PARENT
REMARK Flexibility Score: inf
ROOT
ATOM      1  C   UNL     1     200.700 205.411 191.671  1.00  0.00    -0.031 C 
ATOM      2  C   UNL     1     199.462 205.465 192.199  1.00  0.00    -0.031 C 
ENDROOT
BRANCH   1   3
ATOM      3  C   UNL     1     201.022 205.387 190.198  1.00  0.00     0.027 C 
BRANCH   3   4
ATOM      4  C   UNL     1     202.483 205.784 189.937  1.00  0.00     0.004 C 
BRANCH   4   5
ATOM      5  C   UNL     1     203.207 206.224 191.222  1.00  0.00     0.000 C 
BRANCH   5   6
ATOM      6  C   UNL     1     203.646 207.700 191.210  1.00  0.00     0.000 C 
BRANCH   6   7
ATOM      7  C   UNL     1     203.674 208.339 192.618  1.00  0.00     0.000 C 
BRANCH   7   8
ATOM      8  C   UNL     1     203.429 207.307 193.731  1.00  0.00     0.006 C 
BRANCH   8   9
ATOM      9  C   UNL     1     202.473 207.830 194.811  1.00  0.00     0.053 C 
BRANCH   9  10
ATOM     10  C   UNL     1     202.978 209.095 195.437  1.00  0.00     0.041 C 
ATOM     11  O   UNL     1     204.055 209.095 196.089  1.00  0.00    -0.550 OA
ATOM     12  O   UNL     1     202.273 210.281 195.274  1.00  0.00    -0.550 OA
ENDBRANCH   9  10
ENDBRANCH   8   9
ENDBRANCH   7   8
ENDBRANCH   6   7
ENDBRANCH   5   6
ENDBRANCH   4   5
ENDBRANCH   3   4
ENDBRANCH   1   3
BRANCH   2  13
ATOM     13  C   UNL     1     198.173 205.500 191.412  1.00  0.00     0.027 C 
BRANCH  13  14
ATOM     14  C   UNL     1     197.175 206.525 191.977  1.00  0.00     0.004 C 
BRANCH  14  15
ATOM     15  C   UNL     1     196.920 207.744 191.072  1.00  0.00     0.000 C 
BRANCH  15  16
ATOM     16  C   UNL     1     198.011 207.940 190.009  1.00  0.00     0.000 C 
BRANCH  16  17
ATOM     17  C   UNL     1     198.807 209.229 190.267  1.00  0.00    -0.000 C 
BRANCH  17  18
ATOM     18  C   UNL     1     200.143 208.957 190.989  1.00  0.00    -0.000 C 
BRANCH  18  19
ATOM     19  C   UNL     1     200.274 209.685 192.336  1.00  0.00    -0.003 C 
ATOM     20  C   UNL     1     199.394 209.084 193.431  1.00  0.00     0.004 C 
ENDBRANCH  18  19
ENDBRANCH  17  18
ENDBRANCH  16  17
ENDBRANCH  15  16
ENDBRANCH  14  15
ENDBRANCH  13  14
ENDBRANCH   2  13
TORSDOF 15
ENDMDL
