MODEL 1
REMARK VINA RESULT:    -9.038      0.000      0.000
REMARK INTER + INTRA:         -10.920
REMARK INTER:                 -10.623
REMARK INTRA:                  -0.297
REMARK UNBOUND:                -0.297
REMARK SMILES O=c1cc(-c2ccc(O)c(O)c2)oc2cc(O)cc(O)c12
REMARK SMILES IDX 4 1 3 2 2 3 1 4 21 5 19 6 18 7 16 8 15 9 14 10 13 11 5 12
REMARK SMILES IDX 6 13 7 14 8 15 12 16 10 17 9 18 11 20 20 22 17 24
REMARK H PARENT 9 19 11 21 20 23 17 25
REMARK Flexibility Score: inf
ROOT
ATOM      1  C   UNL     1     135.156 134.860 113.730  1.00  0.00     0.138 A 
ATOM      2  C   UNL     1     134.815 134.838 112.370  1.00  0.00     0.100 A 
ATOM      3  C   UNL     1     133.477 134.965 111.992  1.00  0.00     0.197 A 
ATOM      4  O   UNL     1     133.209 135.004 110.764  1.00  0.00    -0.289 OA
ATOM      5  C   UNL     1     132.475 135.082 112.984  1.00  0.00     0.107 A 
ATOM      6  C   UNL     1     131.076 135.176 112.718  1.00  0.00     0.134 A 
ATOM      7  C   UNL     1     130.186 135.406 113.775  1.00  0.00     0.093 A 
ATOM      8  C   UNL     1     130.636 135.485 115.092  1.00  0.00     0.123 A 
ATOM      9  C   UNL     1     131.996 135.341 115.370  1.00  0.00     0.094 A 
ATOM     10  C   UNL     1     132.913 135.145 114.333  1.00  0.00     0.146 A 
ATOM     11  O   UNL     1     134.201 135.027 114.638  1.00  0.00    -0.456 OA
ENDROOT
BRANCH   1  12
ATOM     12  C   UNL     1     136.563 134.728 114.187  1.00  0.00     0.021 A 
ATOM     13  C   UNL     1     136.847 134.739 115.564  1.00  0.00     0.016 A 
ATOM     14  C   UNL     1     138.161 134.609 116.020  1.00  0.00     0.051 A 
ATOM     15  C   UNL     1     139.212 134.457 115.108  1.00  0.00     0.157 A 
ATOM     16  C   UNL     1     137.625 134.562 113.276  1.00  0.00     0.062 A 
ATOM     17  C   UNL     1     138.944 134.430 113.735  1.00  0.00     0.158 A 
BRANCH  15  18
ATOM     18  O   UNL     1     140.525 134.329 115.560  1.00  0.00    -0.504 OA
ATOM     19  H   UNL     1     140.938 135.008 116.188  1.00  0.00     0.293 HD
ENDBRANCH  15  18
BRANCH  17  20
ATOM     20  O   UNL     1     139.993 134.267 112.831  1.00  0.00    -0.504 OA
ATOM     21  H   UNL     1     140.959 134.267 113.134  1.00  0.00     0.293 HD
ENDBRANCH  17  20
ENDBRANCH   1  12
BRANCH   6  22
ATOM     22  O   UNL     1     130.510 135.027 111.448  1.00  0.00    -0.507 OA
ATOM     23  H   UNL     1     129.573 134.699 111.270  1.00  0.00     0.293 HD
ENDBRANCH   6  22
BRANCH   8  24
ATOM     24  O   UNL     1     129.721 135.700 116.120  1.00  0.00    -0.508 OA
ATOM     25  H   UNL     1     128.828 136.148 115.948  1.00  0.00     0.293 HD
ENDBRANCH   8  24
TORSDOF 5
ENDMDL
MODEL 2
REMARK VINA RESULT:    -8.716      1.707      2.953
REMARK INTER + INTRA:         -10.542
REMARK INTER:                 -10.238
REMARK INTRA:                  -0.304
REMARK UNBOUND:                -0.297
REMARK SMILES O=c1cc(-c2ccc(O)c(O)c2)oc2cc(O)cc(O)c12
REMARK SMILES IDX 4 1 3 2 2 3 1 4 21 5 19 6 18 7 16 8 15 9 14 10 13 11 5 12
REMARK SMILES IDX 6 13 7 14 8 15 12 16 10 17 9 18 11 20 20 22 17 24
REMARK H PARENT 9 19 11 21 20 23 17 25
REMARK Flexibility Score: inf
ROOT
ATOM      1  C   UNL     1     134.506 134.654 113.289  1.00  0.00     0.138 A 
ATOM      2  C   UNL     1     133.553 135.364 114.033  1.00  0.00     0.100 A 
ATOM      3  C   UNL     1     132.209 135.316 113.657  1.00  0.00     0.197 A 
ATOM      4  O   UNL     1     131.369 135.911 114.379  1.00  0.00    -0.289 OA
ATOM      5  C   UNL     1     131.826 134.577 112.512  1.00  0.00     0.107 A 
ATOM      6  C   UNL     1     130.492 134.490 112.012  1.00  0.00     0.134 A 
ATOM      7  C   UNL     1     130.213 133.634 110.938  1.00  0.00     0.093 A 
ATOM      8  C   UNL     1     131.226 132.911 110.310  1.00  0.00     0.123 A 
ATOM      9  C   UNL     1     132.543 133.031 110.757  1.00  0.00     0.094 A 
ATOM     10  C   UNL     1     132.848 133.850 111.848  1.00  0.00     0.146 A 
ATOM     11  O   UNL     1     134.111 133.924 112.251  1.00  0.00    -0.456 OA
ENDROOT
BRANCH   1  12
ATOM     12  C   UNL     1     135.948 134.673 113.644  1.00  0.00     0.021 A 
ATOM     13  C   UNL     1     136.327 134.787 114.994  1.00  0.00     0.016 A 
ATOM     14  C   UNL     1     137.677 134.798 115.354  1.00  0.00     0.051 A 
ATOM     15  C   UNL     1     138.670 134.688 114.374  1.00  0.00     0.157 A 
ATOM     16  C   UNL     1     136.953 134.549 112.665  1.00  0.00     0.062 A 
ATOM     17  C   UNL     1     138.308 134.560 113.028  1.00  0.00     0.158 A 
BRANCH  15  18
ATOM     18  O   UNL     1     140.018 134.701 114.731  1.00  0.00    -0.504 OA
ATOM     19  H   UNL     1     140.566 135.553 114.699  1.00  0.00     0.293 HD
ENDBRANCH  15  18
BRANCH  17  20
ATOM     20  O   UNL     1     139.300 134.438 112.056  1.00  0.00    -0.504 OA
ATOM     21  H   UNL     1     140.026 133.735 112.124  1.00  0.00     0.293 HD
ENDBRANCH  17  20
ENDBRANCH   1  12
BRANCH   6  22
ATOM     22  O   UNL     1     129.419 135.233 112.512  1.00  0.00    -0.507 OA
ATOM     23  H   UNL     1     128.473 135.187 112.163  1.00  0.00     0.293 HD
ENDBRANCH   6  22
BRANCH   8  24
ATOM     24  O   UNL     1     130.914 132.082 109.235  1.00  0.00    -0.508 OA
ATOM     25  H   UNL     1     130.884 132.435 108.286  1.00  0.00     0.293 HD
ENDBRANCH   8  24
TORSDOF 5
ENDMDL
MODEL 3
REMARK VINA RESULT:    -8.560      1.749      7.033
REMARK INTER + INTRA:         -10.358
REMARK INTER:                 -10.093
REMARK INTRA:                  -0.265
REMARK UNBOUND:                -0.297
REMARK SMILES O=c1cc(-c2ccc(O)c(O)c2)oc2cc(O)cc(O)c12
REMARK SMILES IDX 4 1 3 2 2 3 1 4 21 5 19 6 18 7 16 8 15 9 14 10 13 11 5 12
REMARK SMILES IDX 6 13 7 14 8 15 12 16 10 17 9 18 11 20 20 22 17 24
REMARK H PARENT 9 19 11 21 20 23 17 25
REMARK Flexibility Score: inf
ROOT
ATOM      1  C   UNL     1     135.241 134.398 114.509  1.00  0.00     0.138 A 
ATOM      2  C   UNL     1     136.206 134.576 113.508  1.00  0.00     0.100 A 
ATOM      3  C   UNL     1     137.558 134.626 113.853  1.00  0.00     0.197 A 
ATOM      4  O   UNL     1     138.403 134.724 112.927  1.00  0.00    -0.289 OA
ATOM      5  C   UNL     1     137.941 134.527 115.211  1.00  0.00     0.107 A 
ATOM      6  C   UNL     1     139.285 134.605 115.684  1.00  0.00     0.134 A 
ATOM      7  C   UNL     1     139.554 134.377 117.039  1.00  0.00     0.093 A 
ATOM      8  C   UNL     1     138.525 134.134 117.948  1.00  0.00     0.123 A 
ATOM      9  C   UNL     1     137.201 134.110 117.506  1.00  0.00     0.094 A 
ATOM     10  C   UNL     1     136.903 134.299 116.154  1.00  0.00     0.146 A 
ATOM     11  O   UNL     1     135.632 134.252 115.771  1.00  0.00    -0.456 OA
ENDROOT
BRANCH   1  12
ATOM     12  C   UNL     1     133.790 134.340 114.198  1.00  0.00     0.021 A 
ATOM     13  C   UNL     1     133.208 133.109 113.845  1.00  0.00     0.016 A 
ATOM     14  C   UNL     1     131.843 133.027 113.556  1.00  0.00     0.051 A 
ATOM     15  C   UNL     1     131.037 134.169 113.622  1.00  0.00     0.157 A 
ATOM     16  C   UNL     1     132.970 135.482 114.276  1.00  0.00     0.062 A 
ATOM     17  C   UNL     1     131.600 135.397 113.986  1.00  0.00     0.158 A 
BRANCH  15  18
ATOM     18  O   UNL     1     129.676 134.090 113.332  1.00  0.00    -0.504 OA
ATOM     19  H   UNL     1     129.343 133.944 112.386  1.00  0.00     0.293 HD
ENDBRANCH  15  18
BRANCH  17  20
ATOM     20  O   UNL     1     130.792 136.531 114.062  1.00  0.00    -0.504 OA
ATOM     21  H   UNL     1     131.047 137.396 113.602  1.00  0.00     0.293 HD
ENDBRANCH  17  20
ENDBRANCH   1  12
BRANCH   6  22
ATOM     22  O   UNL     1     140.380 134.925 114.876  1.00  0.00    -0.507 OA
ATOM     23  H   UNL     1     141.124 135.555 115.136  1.00  0.00     0.293 HD
ENDBRANCH   6  22
BRANCH   8  24
ATOM     24  O   UNL     1     138.829 133.928 119.292  1.00  0.00    -0.508 OA
ATOM     25  H   UNL     1     138.123 134.016 120.014  1.00  0.00     0.293 HD
ENDBRANCH   8  24
TORSDOF 5
ENDMDL
MODEL 4
REMARK VINA RESULT:    -8.528      1.552      6.904
REMARK INTER + INTRA:         -10.320
REMARK INTER:                 -10.034
REMARK INTRA:                  -0.286
REMARK UNBOUND:                -0.297
REMARK SMILES O=c1cc(-c2ccc(O)c(O)c2)oc2cc(O)cc(O)c12
REMARK SMILES IDX 4 1 3 2 2 3 1 4 21 5 19 6 18 7 16 8 15 9 14 10 13 11 5 12
REMARK SMILES IDX 6 13 7 14 8 15 12 16 10 17 9 18 11 20 20 22 17 24
REMARK H PARENT 9 19 11 21 20 23 17 25
REMARK Flexibility Score: inf
ROOT
ATOM      1  C   UNL     1     134.576 134.732 114.866  1.00  0.00     0.138 A 
ATOM      2  C   UNL     1     134.836 134.609 113.495  1.00  0.00     0.100 A 
ATOM      3  C   UNL     1     136.155 134.510 113.048  1.00  0.00     0.197 A 
ATOM      4  O   UNL     1     136.354 134.338 111.819  1.00  0.00    -0.289 OA
ATOM      5  C   UNL     1     137.218 134.566 113.980  1.00  0.00     0.107 A 
ATOM      6  C   UNL     1     138.603 134.516 113.637  1.00  0.00     0.134 A 
ATOM      7  C   UNL     1     139.564 134.462 114.654  1.00  0.00     0.093 A 
ATOM      8  C   UNL     1     139.197 134.518 115.998  1.00  0.00     0.123 A 
ATOM      9  C   UNL     1     137.849 134.622 116.344  1.00  0.00     0.094 A 
ATOM     10  C   UNL     1     136.863 134.643 115.353  1.00  0.00     0.146 A 
ATOM     11  O   UNL     1     135.591 134.727 115.725  1.00  0.00    -0.456 OA
ENDROOT
BRANCH   1  12
ATOM     12  C   UNL     1     133.192 134.842 115.395  1.00  0.00     0.021 A 
ATOM     13  C   UNL     1     132.884 134.285 116.648  1.00  0.00     0.016 A 
ATOM     14  C   UNL     1     131.592 134.382 117.171  1.00  0.00     0.051 A 
ATOM     15  C   UNL     1     130.589 135.044 116.455  1.00  0.00     0.157 A 
ATOM     16  C   UNL     1     132.181 135.519 114.686  1.00  0.00     0.062 A 
ATOM     17  C   UNL     1     130.884 135.617 115.212  1.00  0.00     0.158 A 
BRANCH  15  18
ATOM     18  O   UNL     1     129.298 135.141 116.973  1.00  0.00    -0.504 OA
ATOM     19  H   UNL     1     129.133 135.239 117.968  1.00  0.00     0.293 HD
ENDBRANCH  15  18
BRANCH  17  20
ATOM     20  O   UNL     1     129.885 136.286 114.507  1.00  0.00    -0.504 OA
ATOM     21  H   UNL     1     129.981 136.493 113.520  1.00  0.00     0.293 HD
ENDBRANCH  17  20
ENDBRANCH   1  12
BRANCH   6  22
ATOM     22  O   UNL     1     139.084 134.542 112.324  1.00  0.00    -0.507 OA
ATOM     23  H   UNL     1     139.224 133.727 111.746  1.00  0.00     0.293 HD
ENDBRANCH   6  22
BRANCH   8  24
ATOM     24  O   UNL     1     140.181 134.478 116.982  1.00  0.00    -0.508 OA
ATOM     25  H   UNL     1     140.863 133.729 117.019  1.00  0.00     0.293 HD
ENDBRANCH   8  24
TORSDOF 5
ENDMDL
MODEL 5
REMARK VINA RESULT:    -8.483      4.422      6.832
REMARK INTER + INTRA:         -10.267
REMARK INTER:                  -9.984
REMARK INTRA:                  -0.283
REMARK UNBOUND:                -0.297
REMARK SMILES O=c1cc(-c2ccc(O)c(O)c2)oc2cc(O)cc(O)c12
REMARK SMILES IDX 4 1 3 2 2 3 1 4 21 5 19 6 18 7 16 8 15 9 14 10 13 11 5 12
REMARK SMILES IDX 6 13 7 14 8 15 12 16 10 17 9 18 11 20 20 22 17 24
REMARK H PARENT 9 19 11 21 20 23 17 25
REMARK Flexibility Score: inf
ROOT
ATOM      1  C   UNL     1     128.889 134.031 111.141  1.00  0.00     0.138 A 
ATOM      2  C   UNL     1     128.189 134.091 109.928  1.00  0.00     0.100 A 
ATOM      3  C   UNL     1     126.827 134.399 109.931  1.00  0.00     0.197 A 
ATOM      4  O   UNL     1     126.240 134.507 108.824  1.00  0.00    -0.289 OA
ATOM      5  C   UNL     1     126.159 134.617 111.160  1.00  0.00     0.107 A 
ATOM      6  C   UNL     1     124.766 134.898 111.287  1.00  0.00     0.134 A 
ATOM      7  C   UNL     1     124.238 135.212 112.546  1.00  0.00     0.093 A 
ATOM      8  C   UNL     1     125.038 135.196 113.688  1.00  0.00     0.123 A 
ATOM      9  C   UNL     1     126.391 134.870 113.582  1.00  0.00     0.094 A 
ATOM     10  C   UNL     1     126.955 134.586 112.335  1.00  0.00     0.146 A 
ATOM     11  O   UNL     1     128.250 134.295 112.276  1.00  0.00    -0.456 OA
ENDROOT
BRANCH   1  12
ATOM     12  C   UNL     1     130.337 133.706 111.194  1.00  0.00     0.021 A 
ATOM     13  C   UNL     1     131.160 134.369 112.123  1.00  0.00     0.016 A 
ATOM     14  C   UNL     1     132.524 134.075 112.198  1.00  0.00     0.051 A 
ATOM     15  C   UNL     1     133.087 133.111 111.354  1.00  0.00     0.157 A 
ATOM     16  C   UNL     1     130.908 132.728 110.358  1.00  0.00     0.062 A 
ATOM     17  C   UNL     1     132.277 132.433 110.435  1.00  0.00     0.158 A 
BRANCH  15  18
ATOM     18  O   UNL     1     134.448 132.817 111.426  1.00  0.00    -0.504 OA
ATOM     19  H   UNL     1     135.100 133.151 110.726  1.00  0.00     0.293 HD
ENDBRANCH  15  18
BRANCH  17  20
ATOM     20  O   UNL     1     132.839 131.465 109.605  1.00  0.00    -0.504 OA
ATOM     21  H   UNL     1     133.819 131.217 109.667  1.00  0.00     0.293 HD
ENDBRANCH  17  20
ENDBRANCH   1  12
BRANCH   6  22
ATOM     22  O   UNL     1     123.859 134.859 110.223  1.00  0.00    -0.507 OA
ATOM     23  H   UNL     1     123.244 135.615 109.962  1.00  0.00     0.293 HD
ENDBRANCH   6  22
BRANCH   8  24
ATOM     24  O   UNL     1     124.475 135.498 114.926  1.00  0.00    -0.508 OA
ATOM     25  H   UNL     1     124.551 136.424 115.330  1.00  0.00     0.293 HD
ENDBRANCH   8  24
TORSDOF 5
ENDMDL
MODEL 6
REMARK VINA RESULT:    -8.443      4.213      9.537
REMARK INTER + INTRA:         -10.221
REMARK INTER:                  -9.912
REMARK INTRA:                  -0.309
REMARK UNBOUND:                -0.297
REMARK SMILES O=c1cc(-c2ccc(O)c(O)c2)oc2cc(O)cc(O)c12
REMARK SMILES IDX 4 1 3 2 2 3 1 4 21 5 19 6 18 7 16 8 15 9 14 10 13 11 5 12
REMARK SMILES IDX 6 13 7 14 8 15 12 16 10 17 9 18 11 20 20 22 17 24
REMARK H PARENT 9 19 11 21 20 23 17 25
REMARK Flexibility Score: inf
ROOT
ATOM      1  C   UNL     1     128.421 134.749 112.110  1.00  0.00     0.138 A 
ATOM      2  C   UNL     1     129.194 135.565 112.947  1.00  0.00     0.100 A 
ATOM      3  C   UNL     1     130.580 135.399 112.985  1.00  0.00     0.197 A 
ATOM      4  O   UNL     1     131.253 136.187 113.697  1.00  0.00    -0.289 OA
ATOM      5  C   UNL     1     131.188 134.388 112.203  1.00  0.00     0.107 A 
ATOM      6  C   UNL     1     132.586 134.100 112.193  1.00  0.00     0.134 A 
ATOM      7  C   UNL     1     133.088 133.153 111.291  1.00  0.00     0.093 A 
ATOM      8  C   UNL     1     132.239 132.442 110.444  1.00  0.00     0.123 A 
ATOM      9  C   UNL     1     130.864 132.677 110.485  1.00  0.00     0.094 A 
ATOM     10  C   UNL     1     130.336 133.640 111.349  1.00  0.00     0.146 A 
ATOM     11  O   UNL     1     129.023 133.844 111.345  1.00  0.00    -0.456 OA
ENDROOT
BRANCH   1  12
ATOM     12  C   UNL     1     126.944 134.883 112.033  1.00  0.00     0.021 A 
ATOM     13  C   UNL     1     126.240 135.421 113.124  1.00  0.00     0.016 A 
ATOM     14  C   UNL     1     124.851 135.565 113.073  1.00  0.00     0.051 A 
ATOM     15  C   UNL     1     124.143 135.180 111.929  1.00  0.00     0.157 A 
ATOM     16  C   UNL     1     126.226 134.511 110.879  1.00  0.00     0.062 A 
ATOM     17  C   UNL     1     124.832 134.656 110.829  1.00  0.00     0.158 A 
BRANCH  15  18
ATOM     18  O   UNL     1     122.758 135.321 111.876  1.00  0.00    -0.504 OA
ATOM     19  H   UNL     1     122.172 135.110 112.675  1.00  0.00     0.293 HD
ENDBRANCH  15  18
BRANCH  17  20
ATOM     20  O   UNL     1     124.125 134.285 109.686  1.00  0.00    -0.504 OA
ATOM     21  H   UNL     1     124.428 134.565 108.761  1.00  0.00     0.293 HD
ENDBRANCH  17  20
ENDBRANCH   1  12
BRANCH   6  22
ATOM     22  O   UNL     1     133.512 134.692 113.056  1.00  0.00    -0.507 OA
ATOM     23  H   UNL     1     133.833 134.287 113.923  1.00  0.00     0.293 HD
ENDBRANCH   6  22
BRANCH   8  24
ATOM     24  O   UNL     1     132.773 131.496 109.572  1.00  0.00    -0.508 OA
ATOM     25  H   UNL     1     133.182 131.766 108.685  1.00  0.00     0.293 HD
ENDBRANCH   8  24
TORSDOF 5
ENDMDL
MODEL 7
REMARK VINA RESULT:    -8.283      3.800      8.452
REMARK INTER + INTRA:         -10.032
REMARK INTER:                  -9.766
REMARK INTRA:                  -0.266
REMARK UNBOUND:                -0.297
REMARK SMILES O=c1cc(-c2ccc(O)c(O)c2)oc2cc(O)cc(O)c12
REMARK SMILES IDX 4 1 3 2 2 3 1 4 21 5 19 6 18 7 16 8 15 9 14 10 13 11 5 12
REMARK SMILES IDX 6 13 7 14 8 15 12 16 10 17 9 18 11 20 20 22 17 24
REMARK H PARENT 9 19 11 21 20 23 17 25
REMARK Flexibility Score: inf
ROOT
ATOM      1  C   UNL     1     129.887 134.435 110.599  1.00  0.00     0.138 A 
ATOM      2  C   UNL     1     130.184 133.069 110.487  1.00  0.00     0.100 A 
ATOM      3  C   UNL     1     131.167 132.508 111.304  1.00  0.00     0.197 A 
ATOM      4  O   UNL     1     131.368 131.269 111.224  1.00  0.00    -0.289 OA
ATOM      5  C   UNL     1     131.876 133.326 112.215  1.00  0.00     0.107 A 
ATOM      6  C   UNL     1     132.926 132.872 113.068  1.00  0.00     0.134 A 
ATOM      7  C   UNL     1     133.475 133.748 114.013  1.00  0.00     0.093 A 
ATOM      8  C   UNL     1     133.057 135.075 114.094  1.00  0.00     0.123 A 
ATOM      9  C   UNL     1     132.069 135.545 113.228  1.00  0.00     0.094 A 
ATOM     10  C   UNL     1     131.476 134.686 112.298  1.00  0.00     0.146 A 
ATOM     11  O   UNL     1     130.529 135.169 111.502  1.00  0.00    -0.456 OA
ENDROOT
BRANCH   1  12
ATOM     12  C   UNL     1     128.852 135.083 109.754  1.00  0.00     0.021 A 
ATOM     13  C   UNL     1     127.566 135.301 110.281  1.00  0.00     0.016 A 
ATOM     14  C   UNL     1     126.578 135.917 109.508  1.00  0.00     0.051 A 
ATOM     15  C   UNL     1     126.858 136.331 108.201  1.00  0.00     0.157 A 
ATOM     16  C   UNL     1     129.131 135.515 108.443  1.00  0.00     0.062 A 
ATOM     17  C   UNL     1     128.138 136.133 107.669  1.00  0.00     0.158 A 
BRANCH  15  18
ATOM     18  O   UNL     1     125.873 136.943 107.428  1.00  0.00    -0.504 OA
ATOM     19  H   UNL     1     125.970 137.899 107.106  1.00  0.00     0.293 HD
ENDBRANCH  15  18
BRANCH  17  20
ATOM     20  O   UNL     1     128.417 136.558 106.371  1.00  0.00    -0.504 OA
ATOM     21  H   UNL     1     128.913 137.423 106.191  1.00  0.00     0.293 HD
ENDBRANCH  17  20
ENDBRANCH   1  12
BRANCH   6  22
ATOM     22  O   UNL     1     133.477 131.588 113.013  1.00  0.00    -0.507 OA
ATOM     23  H   UNL     1     132.947 130.731 113.048  1.00  0.00     0.293 HD
ENDBRANCH   6  22
BRANCH   8  24
ATOM     24  O   UNL     1     133.637 135.922 115.035  1.00  0.00    -0.508 OA
ATOM     25  H   UNL     1     133.885 136.878 114.806  1.00  0.00     0.293 HD
ENDBRANCH   8  24
TORSDOF 5
ENDMDL
MODEL 8
REMARK VINA RESULT:    -8.222      4.494      7.607
REMARK INTER + INTRA:          -9.960
REMARK INTER:                  -9.687
REMARK INTRA:                  -0.274
REMARK UNBOUND:                -0.297
REMARK SMILES O=c1cc(-c2ccc(O)c(O)c2)oc2cc(O)cc(O)c12
REMARK SMILES IDX 4 1 3 2 2 3 1 4 21 5 19 6 18 7 16 8 15 9 14 10 13 11 5 12
REMARK SMILES IDX 6 13 7 14 8 15 12 16 10 17 9 18 11 20 20 22 17 24
REMARK H PARENT 9 19 11 21 20 23 17 25
REMARK Flexibility Score: inf
ROOT
ATOM      1  C   UNL     1     130.264 134.305 111.458  1.00  0.00     0.138 A 
ATOM      2  C   UNL     1     131.454 134.983 111.759  1.00  0.00     0.100 A 
ATOM      3  C   UNL     1     131.785 135.238 113.091  1.00  0.00     0.197 A 
ATOM      4  O   UNL     1     132.887 135.792 113.333  1.00  0.00    -0.289 OA
ATOM      5  C   UNL     1     130.903 134.839 114.123  1.00  0.00     0.107 A 
ATOM      6  C   UNL     1     131.116 135.082 115.513  1.00  0.00     0.134 A 
ATOM      7  C   UNL     1     130.232 134.537 116.452  1.00  0.00     0.093 A 
ATOM      8  C   UNL     1     129.110 133.812 116.052  1.00  0.00     0.123 A 
ATOM      9  C   UNL     1     128.862 133.615 114.693  1.00  0.00     0.094 A 
ATOM     10  C   UNL     1     129.745 134.115 113.732  1.00  0.00     0.146 A 
ATOM     11  O   UNL     1     129.481 133.892 112.449  1.00  0.00    -0.456 OA
ENDROOT
BRANCH   1  12
ATOM     12  C   UNL     1     129.863 134.009 110.059  1.00  0.00     0.021 A 
ATOM     13  C   UNL     1     129.506 132.696 109.705  1.00  0.00     0.016 A 
ATOM     14  C   UNL     1     129.118 132.393 108.398  1.00  0.00     0.051 A 
ATOM     15  C   UNL     1     129.072 133.398 107.424  1.00  0.00     0.157 A 
ATOM     16  C   UNL     1     129.802 135.017 109.077  1.00  0.00     0.062 A 
ATOM     17  C   UNL     1     129.411 134.712 107.765  1.00  0.00     0.158 A 
BRANCH  15  18
ATOM     18  O   UNL     1     128.687 133.099 106.118  1.00  0.00    -0.504 OA
ATOM     19  H   UNL     1     128.668 133.808 105.395  1.00  0.00     0.293 HD
ENDBRANCH  15  18
BRANCH  17  20
ATOM     20  O   UNL     1     129.353 135.713 106.796  1.00  0.00    -0.504 OA
ATOM     21  H   UNL     1     128.740 135.638 105.993  1.00  0.00     0.293 HD
ENDBRANCH  17  20
ENDBRANCH   1  12
BRANCH   6  22
ATOM     22  O   UNL     1     132.159 135.865 116.019  1.00  0.00    -0.507 OA
ATOM     23  H   UNL     1     132.215 136.207 116.966  1.00  0.00     0.293 HD
ENDBRANCH   6  22
BRANCH   8  24
ATOM     24  O   UNL     1     128.244 133.299 117.014  1.00  0.00    -0.508 OA
ATOM     25  H   UNL     1     128.552 132.610 117.691  1.00  0.00     0.293 HD
ENDBRANCH   8  24
TORSDOF 5
ENDMDL
MODEL 9
REMARK VINA RESULT:    -8.187      8.837     10.240
REMARK INTER + INTRA:          -9.920
REMARK INTER:                  -9.657
REMARK INTRA:                  -0.263
REMARK UNBOUND:                -0.297
REMARK SMILES O=c1cc(-c2ccc(O)c(O)c2)oc2cc(O)cc(O)c12
REMARK SMILES IDX 4 1 3 2 2 3 1 4 21 5 19 6 18 7 16 8 15 9 14 10 13 11 5 12
REMARK SMILES IDX 6 13 7 14 8 15 12 16 10 17 9 18 11 20 20 22 17 24
REMARK H PARENT 9 19 11 21 20 23 17 25
REMARK Flexibility Score: inf
ROOT
ATOM      1  C   UNL     1     125.848 134.962 110.510  1.00  0.00     0.138 A 
ATOM      2  C   UNL     1     124.449 135.026 110.441  1.00  0.00     0.100 A 
ATOM      3  C   UNL     1     123.693 134.862 111.604  1.00  0.00     0.197 A 
ATOM      4  O   UNL     1     122.444 134.986 111.522  1.00  0.00    -0.289 OA
ATOM      5  C   UNL     1     124.343 134.601 112.834  1.00  0.00     0.107 A 
ATOM      6  C   UNL     1     123.673 134.377 114.074  1.00  0.00     0.134 A 
ATOM      7  C   UNL     1     124.424 134.245 115.249  1.00  0.00     0.093 A 
ATOM      8  C   UNL     1     125.818 134.268 115.221  1.00  0.00     0.123 A 
ATOM      9  C   UNL     1     126.484 134.432 114.005  1.00  0.00     0.094 A 
ATOM     10  C   UNL     1     125.763 134.602 112.820  1.00  0.00     0.146 A 
ATOM     11  O   UNL     1     126.435 134.771 111.687  1.00  0.00    -0.456 OA
ENDROOT
BRANCH   1  12
ATOM     12  C   UNL     1     126.699 135.127 109.304  1.00  0.00     0.021 A 
ATOM     13  C   UNL     1     127.454 134.037 108.836  1.00  0.00     0.016 A 
ATOM     14  C   UNL     1     128.257 134.165 107.700  1.00  0.00     0.051 A 
ATOM     15  C   UNL     1     128.313 135.380 107.008  1.00  0.00     0.157 A 
ATOM     16  C   UNL     1     126.751 136.343 108.595  1.00  0.00     0.062 A 
ATOM     17  C   UNL     1     127.556 136.470 107.454  1.00  0.00     0.158 A 
BRANCH  15  18
ATOM     18  O   UNL     1     129.115 135.511 105.875  1.00  0.00    -0.504 OA
ATOM     19  H   UNL     1     128.899 135.023 105.014  1.00  0.00     0.293 HD
ENDBRANCH  15  18
BRANCH  17  20
ATOM     20  O   UNL     1     127.606 137.675 106.756  1.00  0.00    -0.504 OA
ATOM     21  H   UNL     1     127.638 137.701 105.744  1.00  0.00     0.293 HD
ENDBRANCH  17  20
ENDBRANCH   1  12
BRANCH   6  22
ATOM     22  O   UNL     1     122.287 134.252 114.203  1.00  0.00    -0.507 OA
ATOM     23  H   UNL     1     121.817 133.486 114.660  1.00  0.00     0.293 HD
ENDBRANCH   6  22
BRANCH   8  24
ATOM     24  O   UNL     1     126.532 134.118 116.407  1.00  0.00    -0.508 OA
ATOM     25  H   UNL     1     127.012 134.899 116.839  1.00  0.00     0.293 HD
ENDBRANCH   8  24
TORSDOF 5
ENDMDL
