MODEL 1
REMARK VINA RESULT:    -5.361      0.000      0.000
REMARK INTER + INTRA:         -15.522
REMARK INTER:                 -12.255
REMARK INTRA:                  -3.267
REMARK UNBOUND:                -3.267
REMARK SMILES CCCCCCCCCCCCCCCCCCCCCCCC(=O)[O-]
REMARK SMILES IDX 13 1 14 2 15 3 16 4 17 5 18 6 19 7 20 8 21 9 22 10 23 11
REMARK SMILES IDX 24 12 25 13 26 14 12 15 11 16 10 17 9 18 8 19 7 20 6 21 5 22
REMARK SMILES IDX 4 23 3 24 2 25 1 26
REMARK H PARENT
REMARK Flexibility Score: inf
ROOT
ATOM      1  C   UNL     1      -2.894  10.362  -7.296  1.00  0.00     0.000 C 
ENDROOT
BRANCH   1   2
ATOM      2  C   UNL     1      -2.211  10.439  -8.678  1.00  0.00     0.000 C 
BRANCH   2   3
ATOM      3  C   UNL     1      -1.951  11.884  -9.135  1.00  0.00     0.000 C 
BRANCH   3   4
ATOM      4  C   UNL     1      -0.878  12.597  -8.291  1.00  0.00     0.000 C 
BRANCH   4   5
ATOM      5  C   UNL     1      -1.415  13.598  -7.247  1.00  0.00     0.000 C 
BRANCH   5   6
ATOM      6  C   UNL     1      -0.727  13.549  -5.869  1.00  0.00     0.000 C 
BRANCH   6   7
ATOM      7  C   UNL     1      -0.150  12.174  -5.480  1.00  0.00     0.000 C 
BRANCH   7   8
ATOM      8  C   UNL     1       1.193  12.280  -4.746  1.00  0.00     0.000 C 
BRANCH   8   9
ATOM      9  C   UNL     1       2.361  11.991  -5.699  1.00  0.00     0.000 C 
BRANCH   9  10
ATOM     10  C   UNL     1       1.877  11.282  -6.969  1.00  0.00     0.006 C 
BRANCH  10  11
ATOM     11  C   UNL     1       3.034  10.630  -7.739  1.00  0.00     0.053 C 
BRANCH  11  12
ATOM     12  C   UNL     1       2.541   9.864  -8.930  1.00  0.00     0.041 C 
ATOM     13  O   UNL     1       1.329   9.534  -9.015  1.00  0.00    -0.550 OA
ATOM     14  O   UNL     1       3.427   9.483  -9.926  1.00  0.00    -0.550 OA
ENDBRANCH  11  12
ENDBRANCH  10  11
ENDBRANCH   9  10
ENDBRANCH   8   9
ENDBRANCH   7   8
ENDBRANCH   6   7
ENDBRANCH   5   6
ENDBRANCH   4   5
ENDBRANCH   3   4
ENDBRANCH   2   3
ENDBRANCH   1   2
BRANCH   1  15
ATOM     15  C   UNL     1      -4.286   9.702  -7.283  1.00  0.00     0.000 C 
BRANCH  15  16
ATOM     16  C   UNL     1      -5.438  10.599  -6.793  1.00  0.00     0.000 C 
BRANCH  16  17
ATOM     17  C   UNL     1      -5.108  12.106  -6.800  1.00  0.00     0.000 C 
BRANCH  17  18
ATOM     18  C   UNL     1      -6.033  12.910  -7.731  1.00  0.00    -0.000 C 
BRANCH  18  19
ATOM     19  C   UNL     1      -5.513  12.965  -9.180  1.00  0.00    -0.000 C 
BRANCH  19  20
ATOM     20  C   UNL     1      -6.088  11.884 -10.114  1.00  0.00    -0.000 C 
BRANCH  20  21
ATOM     21  C   UNL     1      -4.993  11.056 -10.808  1.00  0.00    -0.000 C 
BRANCH  21  22
ATOM     22  C   UNL     1      -5.392   9.587 -11.012  1.00  0.00    -0.000 C 
BRANCH  22  23
ATOM     23  C   UNL     1      -4.177   8.640 -11.019  1.00  0.00    -0.000 C 
BRANCH  23  24
ATOM     24  C   UNL     1      -4.584   7.160 -10.845  1.00  0.00    -0.000 C 
BRANCH  24  25
ATOM     25  C   UNL     1      -6.075   6.948 -10.531  1.00  0.00    -0.003 C 
ATOM     26  C   UNL     1      -6.639   5.653 -11.109  1.00  0.00     0.004 C 
ENDBRANCH  24  25
ENDBRANCH  23  24
ENDBRANCH  22  23
ENDBRANCH  21  22
ENDBRANCH  20  21
ENDBRANCH  19  20
ENDBRANCH  18  19
ENDBRANCH  17  18
ENDBRANCH  16  17
ENDBRANCH  15  16
ENDBRANCH   1  15
TORSDOF 22
ENDMDL
MODEL 2
REMARK VINA RESULT:    -5.087      2.292      6.744
REMARK INTER + INTRA:         -14.897
REMARK INTER:                 -10.953
REMARK INTRA:                  -3.944
REMARK UNBOUND:                -3.267
REMARK SMILES CCCCCCCCCCCCCCCCCCCCCCCC(=O)[O-]
REMARK SMILES IDX 13 1 14 2 15 3 16 4 17 5 18 6 19 7 20 8 21 9 22 10 23 11
REMARK SMILES IDX 24 12 25 13 26 14 12 15 11 16 10 17 9 18 8 19 7 20 6 21 5 22
REMARK SMILES IDX 4 23 3 24 2 25 1 26
REMARK H PARENT
REMARK Flexibility Score: inf
ROOT
ATOM      1  C   UNL     1      -3.929   9.721  -6.132  1.00  0.00     0.000 C 
ENDROOT
BRANCH   1   2
ATOM      2  C   UNL     1      -5.437   9.660  -5.811  1.00  0.00     0.000 C 
BRANCH   2   3
ATOM      3  C   UNL     1      -6.211  10.875  -6.348  1.00  0.00     0.000 C 
BRANCH   3   4
ATOM      4  C   UNL     1      -5.288  12.001  -6.850  1.00  0.00     0.000 C 
BRANCH   4   5
ATOM      5  C   UNL     1      -5.897  12.925  -7.925  1.00  0.00     0.000 C 
BRANCH   5   6
ATOM      6  C   UNL     1      -5.142  12.964  -9.268  1.00  0.00     0.000 C 
BRANCH   6   7
ATOM      7  C   UNL     1      -4.722  11.587  -9.816  1.00  0.00     0.000 C 
BRANCH   7   8
ATOM      8  C   UNL     1      -5.564  11.143 -11.020  1.00  0.00     0.000 C 
BRANCH   8   9
ATOM      9  C   UNL     1      -6.744  10.271 -10.569  1.00  0.00     0.000 C 
BRANCH   9  10
ATOM     10  C   UNL     1      -6.280   9.155  -9.625  1.00  0.00     0.006 C 
BRANCH  10  11
ATOM     11  C   UNL     1      -6.410   7.768 -10.268  1.00  0.00     0.053 C 
BRANCH  11  12
ATOM     12  C   UNL     1      -5.161   7.382 -11.002  1.00  0.00     0.041 C 
ATOM     13  O   UNL     1      -5.190   6.468 -11.867  1.00  0.00    -0.550 OA
ATOM     14  O   UNL     1      -3.959   8.007 -10.704  1.00  0.00    -0.550 OA
ENDBRANCH  11  12
ENDBRANCH  10  11
ENDBRANCH   9  10
ENDBRANCH   8   9
ENDBRANCH   7   8
ENDBRANCH   6   7
ENDBRANCH   5   6
ENDBRANCH   4   5
ENDBRANCH   3   4
ENDBRANCH   2   3
ENDBRANCH   1   2
BRANCH   1  15
ATOM     15  C   UNL     1      -2.990   9.389  -4.956  1.00  0.00     0.000 C 
BRANCH  15  16
ATOM     16  C   UNL     1      -2.498  10.602  -4.142  1.00  0.00     0.000 C 
BRANCH  16  17
ATOM     17  C   UNL     1      -2.350  11.896  -4.969  1.00  0.00     0.000 C 
BRANCH  17  18
ATOM     18  C   UNL     1      -0.912  12.444  -4.959  1.00  0.00    -0.000 C 
BRANCH  18  19
ATOM     19  C   UNL     1      -0.673  13.499  -6.057  1.00  0.00    -0.000 C 
BRANCH  19  20
ATOM     20  C   UNL     1      -1.539  13.326  -7.319  1.00  0.00    -0.000 C 
BRANCH  20  21
ATOM     21  C   UNL     1      -0.813  12.555  -8.435  1.00  0.00    -0.000 C 
BRANCH  21  22
ATOM     22  C   UNL     1      -1.370  11.140  -8.645  1.00  0.00    -0.000 C 
BRANCH  22  23
ATOM     23  C   UNL     1      -0.628  10.081  -7.806  1.00  0.00    -0.000 C 
BRANCH  23  24
ATOM     24  C   UNL     1       0.876  10.399  -7.656  1.00  0.00    -0.000 C 
BRANCH  24  25
ATOM     25  C   UNL     1       1.750   9.880  -8.811  1.00  0.00    -0.003 C 
ATOM     26  C   UNL     1       3.222  10.258  -8.676  1.00  0.00     0.004 C 
ENDBRANCH  24  25
ENDBRANCH  23  24
ENDBRANCH  22  23
ENDBRANCH  21  22
ENDBRANCH  20  21
ENDBRANCH  19  20
ENDBRANCH  18  19
ENDBRANCH  17  18
ENDBRANCH  16  17
ENDBRANCH  15  16
ENDBRANCH   1  15
TORSDOF 22
ENDMDL
MODEL 3
REMARK VINA RESULT:    -5.029      2.215      7.263
REMARK INTER + INTRA:         -14.764
REMARK INTER:                 -11.041
REMARK INTRA:                  -3.724
REMARK UNBOUND:                -3.267
REMARK SMILES CCCCCCCCCCCCCCCCCCCCCCCC(=O)[O-]
REMARK SMILES IDX 13 1 14 2 15 3 16 4 17 5 18 6 19 7 20 8 21 9 22 10 23 11
REMARK SMILES IDX 24 12 25 13 26 14 12 15 11 16 10 17 9 18 8 19 7 20 6 21 5 22
REMARK SMILES IDX 4 23 3 24 2 25 1 26
REMARK H PARENT
REMARK Flexibility Score: inf
ROOT
ATOM      1  C   UNL     1      -2.116  11.376  -9.311  1.00  0.00     0.000 C 
ENDROOT
BRANCH   1   2
ATOM      2  C   UNL     1      -2.759  10.088  -8.756  1.00  0.00     0.000 C 
BRANCH   2   3
ATOM      3  C   UNL     1      -3.209  10.229  -7.293  1.00  0.00     0.000 C 
BRANCH   3   4
ATOM      4  C   UNL     1      -4.723  10.009  -7.106  1.00  0.00     0.000 C 
BRANCH   4   5
ATOM      5  C   UNL     1      -5.476  11.158  -6.404  1.00  0.00     0.000 C 
BRANCH   5   6
ATOM      6  C   UNL     1      -6.524  11.887  -7.269  1.00  0.00     0.000 C 
BRANCH   6   7
ATOM      7  C   UNL     1      -5.970  13.044  -8.121  1.00  0.00     0.000 C 
BRANCH   7   8
ATOM      8  C   UNL     1      -5.808  12.669  -9.600  1.00  0.00     0.000 C 
BRANCH   8   9
ATOM      9  C   UNL     1      -6.675  11.453  -9.953  1.00  0.00     0.000 C 
BRANCH   9  10
ATOM     10  C   UNL     1      -5.858  10.382 -10.684  1.00  0.00     0.006 C 
BRANCH  10  11
ATOM     11  C   UNL     1      -6.371   8.966 -10.388  1.00  0.00     0.053 C 
BRANCH  11  12
ATOM     12  C   UNL     1      -5.437   7.920 -10.916  1.00  0.00     0.041 C 
ATOM     13  O   UNL     1      -4.285   8.239 -11.312  1.00  0.00    -0.550 OA
ATOM     14  O   UNL     1      -5.853   6.599 -11.005  1.00  0.00    -0.550 OA
ENDBRANCH  11  12
ENDBRANCH  10  11
ENDBRANCH   9  10
ENDBRANCH   8   9
ENDBRANCH   7   8
ENDBRANCH   6   7
ENDBRANCH   5   6
ENDBRANCH   4   5
ENDBRANCH   3   4
ENDBRANCH   2   3
ENDBRANCH   1   2
BRANCH   1  15
ATOM     15  C   UNL     1      -2.406  12.658  -8.506  1.00  0.00     0.000 C 
BRANCH  15  16
ATOM     16  C   UNL     1      -1.184  13.295  -7.817  1.00  0.00     0.000 C 
BRANCH  16  17
ATOM     17  C   UNL     1      -1.489  13.904  -6.432  1.00  0.00     0.000 C 
BRANCH  17  18
ATOM     18  C   UNL     1      -1.649  12.834  -5.338  1.00  0.00    -0.000 C 
BRANCH  18  19
ATOM     19  C   UNL     1      -0.703  13.063  -4.143  1.00  0.00    -0.000 C 
BRANCH  19  20
ATOM     20  C   UNL     1       0.769  13.310  -4.523  1.00  0.00    -0.000 C 
BRANCH  20  21
ATOM     21  C   UNL     1       1.500  12.020  -4.936  1.00  0.00    -0.000 C 
BRANCH  21  22
ATOM     22  C   UNL     1       1.823  11.970  -6.436  1.00  0.00    -0.000 C 
BRANCH  22  23
ATOM     23  C   UNL     1       1.069  10.842  -7.167  1.00  0.00    -0.000 C 
BRANCH  23  24
ATOM     24  C   UNL     1       1.623  10.587  -8.586  1.00  0.00    -0.000 C 
BRANCH  24  25
ATOM     25  C   UNL     1       2.936   9.787  -8.618  1.00  0.00    -0.003 C 
ATOM     26  C   UNL     1       3.477   9.563 -10.027  1.00  0.00     0.004 C 
ENDBRANCH  24  25
ENDBRANCH  23  24
ENDBRANCH  22  23
ENDBRANCH  21  22
ENDBRANCH  20  21
ENDBRANCH  19  20
ENDBRANCH  18  19
ENDBRANCH  17  18
ENDBRANCH  16  17
ENDBRANCH  15  16
ENDBRANCH   1  15
TORSDOF 22
ENDMDL
MODEL 4
REMARK VINA RESULT:    -5.005      2.457      7.073
REMARK INTER + INTRA:         -14.708
REMARK INTER:                 -10.750
REMARK INTRA:                  -3.958
REMARK UNBOUND:                -3.267
REMARK SMILES CCCCCCCCCCCCCCCCCCCCCCCC(=O)[O-]
REMARK SMILES IDX 13 1 14 2 15 3 16 4 17 5 18 6 19 7 20 8 21 9 22 10 23 11
REMARK SMILES IDX 24 12 25 13 26 14 12 15 11 16 10 17 9 18 8 19 7 20 6 21 5 22
REMARK SMILES IDX 4 23 3 24 2 25 1 26
REMARK H PARENT
REMARK Flexibility Score: inf
ROOT
ATOM      1  C   UNL     1      -2.827  11.291  -4.778  1.00  0.00     0.000 C 
ENDROOT
BRANCH   1   2
ATOM      2  C   UNL     1      -3.348   9.844  -4.908  1.00  0.00     0.000 C 
BRANCH   2   3
ATOM      3  C   UNL     1      -4.377   9.681  -6.039  1.00  0.00     0.000 C 
BRANCH   3   4
ATOM      4  C   UNL     1      -5.151  10.978  -6.340  1.00  0.00     0.000 C 
BRANCH   4   5
ATOM      5  C   UNL     1      -6.169  10.888  -7.496  1.00  0.00     0.000 C 
BRANCH   5   6
ATOM      6  C   UNL     1      -6.599  12.237  -8.105  1.00  0.00     0.000 C 
BRANCH   6   7
ATOM      7  C   UNL     1      -6.029  12.526  -9.507  1.00  0.00     0.000 C 
BRANCH   7   8
ATOM      8  C   UNL     1      -6.381  11.436 -10.528  1.00  0.00     0.000 C 
BRANCH   8   9
ATOM      9  C   UNL     1      -5.119  10.922 -11.235  1.00  0.00     0.000 C 
BRANCH   9  10
ATOM     10  C   UNL     1      -4.709   9.543 -10.705  1.00  0.00     0.006 C 
BRANCH  10  11
ATOM     11  C   UNL     1      -5.909   8.594 -10.581  1.00  0.00     0.053 C 
BRANCH  11  12
ATOM     12  C   UNL     1      -5.519   7.174 -10.858  1.00  0.00     0.041 C 
ATOM     13  O   UNL     1      -4.305   6.859 -10.970  1.00  0.00    -0.550 OA
ATOM     14  O   UNL     1      -6.498   6.206 -11.028  1.00  0.00    -0.550 OA
ENDBRANCH  11  12
ENDBRANCH  10  11
ENDBRANCH   9  10
ENDBRANCH   8   9
ENDBRANCH   7   8
ENDBRANCH   6   7
ENDBRANCH   5   6
ENDBRANCH   4   5
ENDBRANCH   3   4
ENDBRANCH   2   3
ENDBRANCH   1   2
BRANCH   1  15
ATOM     15  C   UNL     1      -1.443  11.436  -4.114  1.00  0.00     0.000 C 
BRANCH  15  16
ATOM     16  C   UNL     1      -0.475  12.411  -4.812  1.00  0.00     0.000 C 
BRANCH  16  17
ATOM     17  C   UNL     1       0.996  12.255  -4.374  1.00  0.00     0.000 C 
BRANCH  17  18
ATOM     18  C   UNL     1       1.933  11.930  -5.550  1.00  0.00    -0.000 C 
BRANCH  18  19
ATOM     19  C   UNL     1       1.210  11.966  -6.911  1.00  0.00    -0.000 C 
BRANCH  19  20
ATOM     20  C   UNL     1       1.781  11.004  -7.971  1.00  0.00    -0.000 C 
BRANCH  20  21
ATOM     21  C   UNL     1       0.740   9.987  -8.470  1.00  0.00    -0.000 C 
BRANCH  21  22
ATOM     22  C   UNL     1      -0.570  10.031  -7.670  1.00  0.00    -0.000 C 
BRANCH  22  23
ATOM     23  C   UNL     1      -1.807  10.215  -8.571  1.00  0.00    -0.000 C 
BRANCH  23  24
ATOM     24  C   UNL     1      -1.898  11.640  -9.161  1.00  0.00    -0.000 C 
BRANCH  24  25
ATOM     25  C   UNL     1      -2.722  12.623  -8.311  1.00  0.00    -0.003 C 
ATOM     26  C   UNL     1      -1.864  13.606  -7.518  1.00  0.00     0.004 C 
ENDBRANCH  24  25
ENDBRANCH  23  24
ENDBRANCH  22  23
ENDBRANCH  21  22
ENDBRANCH  20  21
ENDBRANCH  19  20
ENDBRANCH  18  19
ENDBRANCH  17  18
ENDBRANCH  16  17
ENDBRANCH  15  16
ENDBRANCH   1  15
TORSDOF 22
ENDMDL
MODEL 5
REMARK VINA RESULT:    -4.993      1.242      2.296
REMARK INTER + INTRA:         -14.681
REMARK INTER:                 -10.977
REMARK INTRA:                  -3.705
REMARK UNBOUND:                -3.267
REMARK SMILES CCCCCCCCCCCCCCCCCCCCCCCC(=O)[O-]
REMARK SMILES IDX 13 1 14 2 15 3 16 4 17 5 18 6 19 7 20 8 21 9 22 10 23 11
REMARK SMILES IDX 24 12 25 13 26 14 12 15 11 16 10 17 9 18 8 19 7 20 6 21 5 22
REMARK SMILES IDX 4 23 3 24 2 25 1 26
REMARK H PARENT
REMARK Flexibility Score: inf
ROOT
ATOM      1  C   UNL     1      -3.723  10.168  -6.691  1.00  0.00     0.000 C 
ENDROOT
BRANCH   1   2
ATOM      2  C   UNL     1      -2.780   9.875  -5.506  1.00  0.00     0.000 C 
BRANCH   2   3
ATOM      3  C   UNL     1      -2.427  11.134  -4.698  1.00  0.00     0.000 C 
BRANCH   3   4
ATOM      4  C   UNL     1      -0.933  11.500  -4.777  1.00  0.00     0.000 C 
BRANCH   4   5
ATOM      5  C   UNL     1      -0.613  12.816  -5.517  1.00  0.00     0.000 C 
BRANCH   5   6
ATOM      6  C   UNL     1      -1.772  13.410  -6.340  1.00  0.00     0.000 C 
BRANCH   6   7
ATOM      7  C   UNL     1      -1.582  13.348  -7.868  1.00  0.00     0.000 C 
BRANCH   7   8
ATOM      8  C   UNL     1      -0.441  12.411  -8.287  1.00  0.00     0.000 C 
BRANCH   8   9
ATOM      9  C   UNL     1      -0.990  11.053  -8.742  1.00  0.00     0.000 C 
BRANCH   9  10
ATOM     10  C   UNL     1       0.011   9.927  -8.458  1.00  0.00     0.006 C 
BRANCH  10  11
ATOM     11  C   UNL     1       1.205  10.415  -7.626  1.00  0.00     0.053 C 
BRANCH  11  12
ATOM     12  C   UNL     1       2.504  10.175  -8.334  1.00  0.00     0.041 C 
ATOM     13  O   UNL     1       3.582  10.602  -7.843  1.00  0.00    -0.550 OA
ATOM     14  O   UNL     1       2.519   9.513  -9.553  1.00  0.00    -0.550 OA
ENDBRANCH  11  12
ENDBRANCH  10  11
ENDBRANCH   9  10
ENDBRANCH   8   9
ENDBRANCH   7   8
ENDBRANCH   6   7
ENDBRANCH   5   6
ENDBRANCH   4   5
ENDBRANCH   3   4
ENDBRANCH   2   3
ENDBRANCH   1   2
BRANCH   1  15
ATOM     15  C   UNL     1      -5.094  10.762  -6.312  1.00  0.00     0.000 C 
BRANCH  15  16
ATOM     16  C   UNL     1      -5.270  12.263  -6.612  1.00  0.00     0.000 C 
BRANCH  16  17
ATOM     17  C   UNL     1      -6.600  12.612  -7.312  1.00  0.00     0.000 C 
BRANCH  17  18
ATOM     18  C   UNL     1      -6.441  12.793  -8.832  1.00  0.00    -0.000 C 
BRANCH  18  19
ATOM     19  C   UNL     1      -4.965  12.812  -9.275  1.00  0.00    -0.000 C 
BRANCH  19  20
ATOM     20  C   UNL     1      -4.501  11.551 -10.029  1.00  0.00    -0.000 C 
BRANCH  20  21
ATOM     21  C   UNL     1      -5.583  10.989 -10.967  1.00  0.00    -0.000 C 
BRANCH  21  22
ATOM     22  C   UNL     1      -6.310   9.772 -10.379  1.00  0.00    -0.000 C 
BRANCH  22  23
ATOM     23  C   UNL     1      -5.339   8.681  -9.889  1.00  0.00    -0.000 C 
BRANCH  23  24
ATOM     24  C   UNL     1      -4.596   7.989 -11.054  1.00  0.00    -0.000 C 
BRANCH  24  25
ATOM     25  C   UNL     1      -5.137   6.593 -11.407  1.00  0.00    -0.003 C 
ATOM     26  C   UNL     1      -6.527   6.319 -10.840  1.00  0.00     0.004 C 
ENDBRANCH  24  25
ENDBRANCH  23  24
ENDBRANCH  22  23
ENDBRANCH  21  22
ENDBRANCH  20  21
ENDBRANCH  19  20
ENDBRANCH  18  19
ENDBRANCH  17  18
ENDBRANCH  16  17
ENDBRANCH  15  16
ENDBRANCH   1  15
TORSDOF 22
ENDMDL
MODEL 6
REMARK VINA RESULT:    -4.979      1.436      2.823
REMARK INTER + INTRA:         -14.649
REMARK INTER:                 -10.310
REMARK INTRA:                  -4.338
REMARK UNBOUND:                -3.267
REMARK SMILES CCCCCCCCCCCCCCCCCCCCCCCC(=O)[O-]
REMARK SMILES IDX 13 1 14 2 15 3 16 4 17 5 18 6 19 7 20 8 21 9 22 10 23 11
REMARK SMILES IDX 24 12 25 13 26 14 12 15 11 16 10 17 9 18 8 19 7 20 6 21 5 22
REMARK SMILES IDX 4 23 3 24 2 25 1 26
REMARK H PARENT
REMARK Flexibility Score: inf
ROOT
ATOM      1  C   UNL     1      -3.338   9.703  -5.735  1.00  0.00     0.000 C 
ENDROOT
BRANCH   1   2
ATOM      2  C   UNL     1      -3.483  10.774  -4.633  1.00  0.00     0.000 C 
BRANCH   2   3
ATOM      3  C   UNL     1      -3.024  12.168  -5.092  1.00  0.00     0.000 C 
BRANCH   3   4
ATOM      4  C   UNL     1      -1.574  12.488  -4.682  1.00  0.00     0.000 C 
BRANCH   4   5
ATOM      5  C   UNL     1      -0.862  13.551  -5.545  1.00  0.00     0.000 C 
BRANCH   5   6
ATOM      6  C   UNL     1      -1.439  13.748  -6.960  1.00  0.00     0.000 C 
BRANCH   6   7
ATOM      7  C   UNL     1      -0.777  12.890  -8.055  1.00  0.00     0.000 C 
BRANCH   7   8
ATOM      8  C   UNL     1      -1.763  11.933  -8.738  1.00  0.00     0.000 C 
BRANCH   8   9
ATOM      9  C   UNL     1      -1.240  10.491  -8.699  1.00  0.00     0.000 C 
BRANCH   9  10
ATOM     10  C   UNL     1      -0.137  10.329  -7.647  1.00  0.00     0.006 C 
BRANCH  10  11
ATOM     11  C   UNL     1       1.153   9.754  -8.249  1.00  0.00     0.053 C 
BRANCH  11  12
ATOM     12  C   UNL     1       2.338  10.616  -7.937  1.00  0.00     0.041 C 
ATOM     13  O   UNL     1       2.286  11.451  -6.996  1.00  0.00    -0.550 OA
ATOM     14  O   UNL     1       3.487  10.524  -8.709  1.00  0.00    -0.550 OA
ENDBRANCH  11  12
ENDBRANCH  10  11
ENDBRANCH   9  10
ENDBRANCH   8   9
ENDBRANCH   7   8
ENDBRANCH   6   7
ENDBRANCH   5   6
ENDBRANCH   4   5
ENDBRANCH   3   4
ENDBRANCH   2   3
ENDBRANCH   1   2
BRANCH   1  15
ATOM     15  C   UNL     1      -4.488   9.650  -6.759  1.00  0.00     0.000 C 
BRANCH  15  16
ATOM     16  C   UNL     1      -5.900   9.507  -6.160  1.00  0.00     0.000 C 
BRANCH  16  17
ATOM     17  C   UNL     1      -6.922  10.522  -6.711  1.00  0.00     0.000 C 
BRANCH  17  18
ATOM     18  C   UNL     1      -6.675  11.951  -6.195  1.00  0.00    -0.000 C 
BRANCH  18  19
ATOM     19  C   UNL     1      -6.516  12.974  -7.337  1.00  0.00    -0.000 C 
BRANCH  19  20
ATOM     20  C   UNL     1      -5.118  13.008  -7.983  1.00  0.00    -0.000 C 
BRANCH  20  21
ATOM     21  C   UNL     1      -5.162  12.784  -9.504  1.00  0.00    -0.000 C 
BRANCH  21  22
ATOM     22  C   UNL     1      -6.335  11.896  -9.944  1.00  0.00    -0.000 C 
BRANCH  22  23
ATOM     23  C   UNL     1      -5.900  10.775 -10.908  1.00  0.00    -0.000 C 
BRANCH  23  24
ATOM     24  C   UNL     1      -4.380  10.504 -10.848  1.00  0.00    -0.000 C 
BRANCH  24  25
ATOM     25  C   UNL     1      -4.011   9.050 -10.506  1.00  0.00    -0.003 C 
ATOM     26  C   UNL     1      -4.996   8.027 -11.063  1.00  0.00     0.004 C 
ENDBRANCH  24  25
ENDBRANCH  23  24
ENDBRANCH  22  23
ENDBRANCH  21  22
ENDBRANCH  20  21
ENDBRANCH  19  20
ENDBRANCH  18  19
ENDBRANCH  17  18
ENDBRANCH  16  17
ENDBRANCH  15  16
ENDBRANCH   1  15
TORSDOF 22
ENDMDL
MODEL 7
REMARK VINA RESULT:    -4.953      2.874      5.235
REMARK INTER + INTRA:         -14.589
REMARK INTER:                 -10.877
REMARK INTRA:                  -3.712
REMARK UNBOUND:                -3.267
REMARK SMILES CCCCCCCCCCCCCCCCCCCCCCCC(=O)[O-]
REMARK SMILES IDX 13 1 14 2 15 3 16 4 17 5 18 6 19 7 20 8 21 9 22 10 23 11
REMARK SMILES IDX 24 12 25 13 26 14 12 15 11 16 10 17 9 18 8 19 7 20 6 21 5 22
REMARK SMILES IDX 4 23 3 24 2 25 1 26
REMARK H PARENT
REMARK Flexibility Score: inf
ROOT
ATOM      1  C   UNL     1       1.505  11.271  -7.976  1.00  0.00     0.000 C 
ENDROOT
BRANCH   1   2
ATOM      2  C   UNL     1       2.040  11.588  -6.563  1.00  0.00     0.000 C 
BRANCH   2   3
ATOM      3  C   UNL     1       0.926  11.986  -5.580  1.00  0.00     0.000 C 
BRANCH   3   4
ATOM      4  C   UNL     1       0.276  13.339  -5.923  1.00  0.00     0.000 C 
BRANCH   4   5
ATOM      5  C   UNL     1      -1.213  13.473  -5.542  1.00  0.00     0.000 C 
BRANCH   5   6
ATOM      6  C   UNL     1      -1.807  12.279  -4.769  1.00  0.00     0.000 C 
BRANCH   6   7
ATOM      7  C   UNL     1      -3.230  11.871  -5.198  1.00  0.00     0.000 C 
BRANCH   7   8
ATOM      8  C   UNL     1      -3.283  10.475  -5.832  1.00  0.00     0.000 C 
BRANCH   8   9
ATOM      9  C   UNL     1      -4.632  10.241  -6.524  1.00  0.00     0.000 C 
BRANCH   9  10
ATOM     10  C   UNL     1      -5.538   9.335  -5.681  1.00  0.00     0.006 C 
BRANCH  10  11
ATOM     11  C   UNL     1      -5.445   7.866  -6.113  1.00  0.00     0.053 C 
BRANCH  11  12
ATOM     12  C   UNL     1      -5.437   6.944  -4.932  1.00  0.00     0.041 C 
ATOM     13  O   UNL     1      -6.516   6.631  -4.364  1.00  0.00    -0.550 OA
ATOM     14  O   UNL     1      -4.235   6.460  -4.436  1.00  0.00    -0.550 OA
ENDBRANCH  11  12
ENDBRANCH  10  11
ENDBRANCH   9  10
ENDBRANCH   8   9
ENDBRANCH   7   8
ENDBRANCH   6   7
ENDBRANCH   5   6
ENDBRANCH   4   5
ENDBRANCH   3   4
ENDBRANCH   2   3
ENDBRANCH   1   2
BRANCH   1  15
ATOM     15  C   UNL     1       0.648   9.994  -8.085  1.00  0.00     0.000 C 
BRANCH  15  16
ATOM     16  C   UNL     1      -0.841  10.224  -8.407  1.00  0.00     0.000 C 
BRANCH  16  17
ATOM     17  C   UNL     1      -1.189  11.685  -8.760  1.00  0.00     0.000 C 
BRANCH  17  18
ATOM     18  C   UNL     1      -2.628  11.841  -9.285  1.00  0.00    -0.000 C 
BRANCH  18  19
ATOM     19  C   UNL     1      -3.200  10.524  -9.846  1.00  0.00    -0.000 C 
BRANCH  19  20
ATOM     20  C   UNL     1      -4.210  10.696 -10.995  1.00  0.00    -0.000 C 
BRANCH  20  21
ATOM     21  C   UNL     1      -5.553  11.279 -10.522  1.00  0.00    -0.000 C 
BRANCH  21  22
ATOM     22  C   UNL     1      -6.712  10.278 -10.634  1.00  0.00    -0.000 C 
BRANCH  22  23
ATOM     23  C   UNL     1      -6.858   9.399  -9.376  1.00  0.00    -0.000 C 
BRANCH  23  24
ATOM     24  C   UNL     1      -6.815   7.891  -9.704  1.00  0.00    -0.000 C 
BRANCH  24  25
ATOM     25  C   UNL     1      -5.400   7.338  -9.953  1.00  0.00    -0.003 C 
ATOM     26  C   UNL     1      -5.190   6.826 -11.375  1.00  0.00     0.004 C 
ENDBRANCH  24  25
ENDBRANCH  23  24
ENDBRANCH  22  23
ENDBRANCH  21  22
ENDBRANCH  20  21
ENDBRANCH  19  20
ENDBRANCH  18  19
ENDBRANCH  17  18
ENDBRANCH  16  17
ENDBRANCH  15  16
ENDBRANCH   1  15
TORSDOF 22
ENDMDL
MODEL 8
REMARK VINA RESULT:    -4.925      1.150      2.313
REMARK INTER + INTRA:         -14.526
REMARK INTER:                 -10.783
REMARK INTRA:                  -3.742
REMARK UNBOUND:                -3.267
REMARK SMILES CCCCCCCCCCCCCCCCCCCCCCCC(=O)[O-]
REMARK SMILES IDX 13 1 14 2 15 3 16 4 17 5 18 6 19 7 20 8 21 9 22 10 23 11
REMARK SMILES IDX 24 12 25 13 26 14 12 15 11 16 10 17 9 18 8 19 7 20 6 21 5 22
REMARK SMILES IDX 4 23 3 24 2 25 1 26
REMARK H PARENT
REMARK Flexibility Score: inf
ROOT
ATOM      1  C   UNL     1      -3.061  10.557  -9.372  1.00  0.00     0.000 C 
ENDROOT
BRANCH   1   2
ATOM      2  C   UNL     1      -1.865  11.505  -9.141  1.00  0.00     0.000 C 
BRANCH   2   3
ATOM      3  C   UNL     1      -1.963  12.277  -7.815  1.00  0.00     0.000 C 
BRANCH   3   4
ATOM      4  C   UNL     1      -1.932  11.356  -6.580  1.00  0.00     0.000 C 
BRANCH   4   5
ATOM      5  C   UNL     1      -1.962  12.078  -5.217  1.00  0.00     0.000 C 
BRANCH   5   6
ATOM      6  C   UNL     1      -0.684  11.936  -4.366  1.00  0.00     0.000 C 
BRANCH   6   7
ATOM      7  C   UNL     1       0.144  13.228  -4.220  1.00  0.00     0.000 C 
BRANCH   7   8
ATOM      8  C   UNL     1       1.145  13.425  -5.365  1.00  0.00     0.000 C 
BRANCH   8   9
ATOM      9  C   UNL     1       1.841  12.104  -5.716  1.00  0.00     0.000 C 
BRANCH   9  10
ATOM     10  C   UNL     1       1.654  11.755  -7.198  1.00  0.00     0.006 C 
BRANCH  10  11
ATOM     11  C   UNL     1       2.708  10.753  -7.690  1.00  0.00     0.053 C 
BRANCH  11  12
ATOM     12  C   UNL     1       2.178   9.899  -8.802  1.00  0.00     0.041 C 
ATOM     13  O   UNL     1       0.963   9.569  -8.826  1.00  0.00    -0.550 OA
ATOM     14  O   UNL     1       3.035   9.437  -9.791  1.00  0.00    -0.550 OA
ENDBRANCH  11  12
ENDBRANCH  10  11
ENDBRANCH   9  10
ENDBRANCH   8   9
ENDBRANCH   7   8
ENDBRANCH   6   7
ENDBRANCH   5   6
ENDBRANCH   4   5
ENDBRANCH   3   4
ENDBRANCH   2   3
ENDBRANCH   1   2
BRANCH   1  15
ATOM     15  C   UNL     1      -4.022  10.971 -10.503  1.00  0.00     0.000 C 
BRANCH  15  16
ATOM     16  C   UNL     1      -5.349  11.606 -10.044  1.00  0.00     0.000 C 
BRANCH  16  17
ATOM     17  C   UNL     1      -5.182  12.965  -9.334  1.00  0.00     0.000 C 
BRANCH  17  18
ATOM     18  C   UNL     1      -5.878  13.006  -7.962  1.00  0.00    -0.000 C 
BRANCH  18  19
ATOM     19  C   UNL     1      -6.357  11.616  -7.499  1.00  0.00    -0.000 C 
BRANCH  19  20
ATOM     20  C   UNL     1      -5.616  11.055  -6.271  1.00  0.00    -0.000 C 
BRANCH  20  21
ATOM     21  C   UNL     1      -5.067   9.636  -6.506  1.00  0.00    -0.000 C 
BRANCH  21  22
ATOM     22  C   UNL     1      -6.106   8.689  -7.124  1.00  0.00    -0.000 C 
BRANCH  22  23
ATOM     23  C   UNL     1      -5.589   7.995  -8.399  1.00  0.00    -0.000 C 
BRANCH  23  24
ATOM     24  C   UNL     1      -6.559   8.155  -9.590  1.00  0.00    -0.000 C 
BRANCH  24  25
ATOM     25  C   UNL     1      -6.528   6.987 -10.592  1.00  0.00    -0.003 C 
ATOM     26  C   UNL     1      -5.203   6.864 -11.339  1.00  0.00     0.004 C 
ENDBRANCH  24  25
ENDBRANCH  23  24
ENDBRANCH  22  23
ENDBRANCH  21  22
ENDBRANCH  20  21
ENDBRANCH  19  20
ENDBRANCH  18  19
ENDBRANCH  17  18
ENDBRANCH  16  17
ENDBRANCH  15  16
ENDBRANCH   1  15
TORSDOF 22
ENDMDL
MODEL 9
REMARK VINA RESULT:    -4.909      2.363      4.972
REMARK INTER + INTRA:         -14.489
REMARK INTER:                 -10.574
REMARK INTRA:                  -3.915
REMARK UNBOUND:                -3.267
REMARK SMILES CCCCCCCCCCCCCCCCCCCCCCCC(=O)[O-]
REMARK SMILES IDX 13 1 14 2 15 3 16 4 17 5 18 6 19 7 20 8 21 9 22 10 23 11
REMARK SMILES IDX 24 12 25 13 26 14 12 15 11 16 10 17 9 18 8 19 7 20 6 21 5 22
REMARK SMILES IDX 4 23 3 24 2 25 1 26
REMARK H PARENT
REMARK Flexibility Score: inf
ROOT
ATOM      1  C   UNL     1      -5.040  12.890  -9.432  1.00  0.00     0.000 C 
ENDROOT
BRANCH   1   2
ATOM      2  C   UNL     1      -4.509  12.733  -7.992  1.00  0.00     0.000 C 
BRANCH   2   3
ATOM      3  C   UNL     1      -2.976  12.629  -7.930  1.00  0.00     0.000 C 
BRANCH   3   4
ATOM      4  C   UNL     1      -2.373  11.902  -9.147  1.00  0.00     0.000 C 
BRANCH   4   5
ATOM      5  C   UNL     1      -1.970  10.432  -8.906  1.00  0.00     0.000 C 
BRANCH   5   6
ATOM      6  C   UNL     1      -1.020  10.194  -7.716  1.00  0.00     0.000 C 
BRANCH   6   7
ATOM      7  C   UNL     1       0.475  10.133  -8.082  1.00  0.00     0.000 C 
BRANCH   7   8
ATOM      8  C   UNL     1       1.158  11.506  -8.026  1.00  0.00     0.000 C 
BRANCH   8   9
ATOM      9  C   UNL     1       2.188  11.558  -6.890  1.00  0.00     0.000 C 
BRANCH   9  10
ATOM     10  C   UNL     1       1.518  11.885  -5.550  1.00  0.00     0.006 C 
BRANCH  10  11
ATOM     11  C   UNL     1       1.818  13.320  -5.093  1.00  0.00     0.053 C 
BRANCH  11  12
ATOM     12  C   UNL     1       0.596  14.185  -5.158  1.00  0.00     0.041 C 
ATOM     13  O   UNL     1      -0.360  13.878  -5.917  1.00  0.00    -0.550 OA
ATOM     14  O   UNL     1       0.530  15.350  -4.408  1.00  0.00    -0.550 OA
ENDBRANCH  11  12
ENDBRANCH  10  11
ENDBRANCH   9  10
ENDBRANCH   8   9
ENDBRANCH   7   8
ENDBRANCH   6   7
ENDBRANCH   5   6
ENDBRANCH   4   5
ENDBRANCH   3   4
ENDBRANCH   2   3
ENDBRANCH   1   2
BRANCH   1  15
ATOM     15  C   UNL     1      -6.390  12.203  -9.716  1.00  0.00     0.000 C 
BRANCH  15  16
ATOM     16  C   UNL     1      -6.376  11.164 -10.854  1.00  0.00     0.000 C 
BRANCH  16  17
ATOM     17  C   UNL     1      -4.964  10.681 -11.247  1.00  0.00     0.000 C 
BRANCH  17  18
ATOM     18  C   UNL     1      -4.739   9.191 -10.933  1.00  0.00    -0.000 C 
BRANCH  18  19
ATOM     19  C   UNL     1      -5.904   8.570 -10.138  1.00  0.00    -0.000 C 
BRANCH  19  20
ATOM     20  C   UNL     1      -5.547   8.135  -8.704  1.00  0.00    -0.000 C 
BRANCH  20  21
ATOM     21  C   UNL     1      -5.746   9.261  -7.675  1.00  0.00    -0.000 C 
BRANCH  21  22
ATOM     22  C   UNL     1      -4.679   9.258  -6.571  1.00  0.00    -0.000 C 
BRANCH  22  23
ATOM     23  C   UNL     1      -5.281   9.444  -5.165  1.00  0.00    -0.000 C 
BRANCH  23  24
ATOM     24  C   UNL     1      -4.266  10.042  -4.165  1.00  0.00    -0.000 C 
BRANCH  24  25
ATOM     25  C   UNL     1      -3.403  11.176  -4.744  1.00  0.00    -0.003 C 
ATOM     26  C   UNL     1      -1.938  11.099  -4.322  1.00  0.00     0.004 C 
ENDBRANCH  24  25
ENDBRANCH  23  24
ENDBRANCH  22  23
ENDBRANCH  21  22
ENDBRANCH  20  21
ENDBRANCH  19  20
ENDBRANCH  18  19
ENDBRANCH  17  18
ENDBRANCH  16  17
ENDBRANCH  15  16
ENDBRANCH   1  15
TORSDOF 22
ENDMDL
