MODEL 1
REMARK VINA RESULT:    -3.360      0.000      0.000
REMARK INTER + INTRA:         -11.134
REMARK INTER:                  -7.682
REMARK INTRA:                  -3.452
REMARK UNBOUND:                -3.452
REMARK SMILES CCCCCCCCCCCCCCCCCCCCCCCC(=O)[O-]
REMARK SMILES IDX 13 1 14 2 15 3 16 4 17 5 18 6 19 7 20 8 21 9 22 10 23 11
REMARK SMILES IDX 24 12 25 13 26 14 12 15 11 16 10 17 9 18 8 19 7 20 6 21 5 22
REMARK SMILES IDX 4 23 3 24 2 25 1 26
REMARK H PARENT
REMARK Flexibility Score: inf
ROOT
ATOM      1  C   UNL     1      64.521  32.080  60.847  1.00  0.00     0.000 C 
ENDROOT
BRANCH   1   2
ATOM      2  C   UNL     1      64.815  31.550  59.432  1.00  0.00     0.000 C 
BRANCH   2   3
ATOM      3  C   UNL     1      66.095  30.701  59.375  1.00  0.00     0.000 C 
BRANCH   3   4
ATOM      4  C   UNL     1      65.850  29.307  58.771  1.00  0.00     0.000 C 
BRANCH   4   5
ATOM      5  C   UNL     1      65.994  28.173  59.802  1.00  0.00     0.000 C 
BRANCH   5   6
ATOM      6  C   UNL     1      66.352  28.636  61.225  1.00  0.00     0.000 C 
BRANCH   6   7
ATOM      7  C   UNL     1      67.739  28.153  61.683  1.00  0.00     0.000 C 
BRANCH   7   8
ATOM      8  C   UNL     1      68.795  29.278  61.661  1.00  0.00     0.000 C 
BRANCH   8   9
ATOM      9  C   UNL     1      69.966  29.020  60.693  1.00  0.00     0.000 C 
BRANCH   9  10
ATOM     10  C   UNL     1      69.692  29.395  59.227  1.00  0.00     0.006 C 
BRANCH  10  11
ATOM     11  C   UNL     1      69.807  30.903  58.968  1.00  0.00     0.053 C 
BRANCH  11  12
ATOM     12  C   UNL     1      71.143  31.414  59.412  1.00  0.00     0.041 C 
ATOM     13  O   UNL     1      72.192  31.050  58.815  1.00  0.00    -0.550 OA
ATOM     14  O   UNL     1      71.230  32.285  60.495  1.00  0.00    -0.550 OA
ENDBRANCH  11  12
ENDBRANCH  10  11
ENDBRANCH   9  10
ENDBRANCH   8   9
ENDBRANCH   7   8
ENDBRANCH   6   7
ENDBRANCH   5   6
ENDBRANCH   4   5
ENDBRANCH   3   4
ENDBRANCH   2   3
ENDBRANCH   1   2
BRANCH   1  15
ATOM     15  C   UNL     1      63.744  33.405  60.837  1.00  0.00     0.000 C 
BRANCH  15  16
ATOM     16  C   UNL     1      62.534  33.371  59.886  1.00  0.00     0.000 C 
BRANCH  16  17
ATOM     17  C   UNL     1      61.236  32.943  60.590  1.00  0.00     0.000 C 
BRANCH  17  18
ATOM     18  C   UNL     1      61.005  31.425  60.540  1.00  0.00    -0.000 C 
BRANCH  18  19
ATOM     19  C   UNL     1      61.113  30.805  61.942  1.00  0.00    -0.000 C 
BRANCH  19  20
ATOM     20  C   UNL     1      62.111  29.633  62.012  1.00  0.00    -0.000 C 
BRANCH  20  21
ATOM     21  C   UNL     1      62.505  29.033  60.648  1.00  0.00    -0.000 C 
BRANCH  21  22
ATOM     22  C   UNL     1      62.413  27.490  60.588  1.00  0.00    -0.000 C 
BRANCH  22  23
ATOM     23  C   UNL     1      63.118  26.787  61.762  1.00  0.00    -0.000 C 
BRANCH  23  24
ATOM     24  C   UNL     1      62.683  25.326  61.990  1.00  0.00    -0.000 C 
BRANCH  24  25
ATOM     25  C   UNL     1      62.339  24.975  63.449  1.00  0.00    -0.003 C 
ATOM     26  C   UNL     1      60.922  25.388  63.846  1.00  0.00     0.004 C 
ENDBRANCH  24  25
ENDBRANCH  23  24
ENDBRANCH  22  23
ENDBRANCH  21  22
ENDBRANCH  20  21
ENDBRANCH  19  20
ENDBRANCH  18  19
ENDBRANCH  17  18
ENDBRANCH  16  17
ENDBRANCH  15  16
ENDBRANCH   1  15
TORSDOF 22
ENDMDL
MODEL 2
REMARK VINA RESULT:    -3.310     10.734     12.699
REMARK INTER + INTRA:         -11.019
REMARK INTER:                  -6.966
REMARK INTRA:                  -4.053
REMARK UNBOUND:                -3.452
REMARK SMILES CCCCCCCCCCCCCCCCCCCCCCCC(=O)[O-]
REMARK SMILES IDX 13 1 14 2 15 3 16 4 17 5 18 6 19 7 20 8 21 9 22 10 23 11
REMARK SMILES IDX 24 12 25 13 26 14 12 15 11 16 10 17 9 18 8 19 7 20 6 21 5 22
REMARK SMILES IDX 4 23 3 24 2 25 1 26
REMARK H PARENT
REMARK Flexibility Score: inf
ROOT
ATOM      1  C   UNL     1      54.629  29.342  50.848  1.00  0.00     0.000 C 
ENDROOT
BRANCH   1   2
ATOM      2  C   UNL     1      54.731  29.291  52.383  1.00  0.00     0.000 C 
BRANCH   2   3
ATOM      3  C   UNL     1      55.722  30.324  52.942  1.00  0.00     0.000 C 
BRANCH   3   4
ATOM      4  C   UNL     1      57.100  29.712  53.247  1.00  0.00     0.000 C 
BRANCH   4   5
ATOM      5  C   UNL     1      58.210  30.239  52.319  1.00  0.00     0.000 C 
BRANCH   5   6
ATOM      6  C   UNL     1      58.933  29.157  51.498  1.00  0.00     0.000 C 
BRANCH   6   7
ATOM      7  C   UNL     1      58.273  28.897  50.133  1.00  0.00     0.000 C 
BRANCH   7   8
ATOM      8  C   UNL     1      59.242  28.254  49.119  1.00  0.00     0.000 C 
BRANCH   8   9
ATOM      9  C   UNL     1      59.576  26.780  49.418  1.00  0.00     0.000 C 
BRANCH   9  10
ATOM     10  C   UNL     1      61.061  26.492  49.694  1.00  0.00     0.006 C 
BRANCH  10  11
ATOM     11  C   UNL     1      61.991  27.573  49.127  1.00  0.00     0.053 C 
BRANCH  11  12
ATOM     12  C   UNL     1      62.849  28.150  50.210  1.00  0.00     0.041 C 
ATOM     13  O   UNL     1      62.348  28.437  51.331  1.00  0.00    -0.550 OA
ATOM     14  O   UNL     1      64.202  28.382  49.977  1.00  0.00    -0.550 OA
ENDBRANCH  11  12
ENDBRANCH  10  11
ENDBRANCH   9  10
ENDBRANCH   8   9
ENDBRANCH   7   8
ENDBRANCH   6   7
ENDBRANCH   5   6
ENDBRANCH   4   5
ENDBRANCH   3   4
ENDBRANCH   2   3
ENDBRANCH   1   2
BRANCH   1  15
ATOM     15  C   UNL     1      53.208  29.058  50.336  1.00  0.00     0.000 C 
BRANCH  15  16
ATOM     16  C   UNL     1      53.141  27.798  49.453  1.00  0.00     0.000 C 
BRANCH  16  17
ATOM     17  C   UNL     1      53.715  26.553  50.150  1.00  0.00     0.000 C 
BRANCH  17  18
ATOM     18  C   UNL     1      55.018  26.057  49.504  1.00  0.00    -0.000 C 
BRANCH  18  19
ATOM     19  C   UNL     1      56.148  25.969  50.543  1.00  0.00    -0.000 C 
BRANCH  19  20
ATOM     20  C   UNL     1      55.635  25.765  51.981  1.00  0.00    -0.000 C 
BRANCH  20  21
ATOM     21  C   UNL     1      56.658  26.092  53.087  1.00  0.00    -0.000 C 
BRANCH  21  22
ATOM     22  C   UNL     1      58.123  25.778  52.704  1.00  0.00    -0.000 C 
BRANCH  22  23
ATOM     23  C   UNL     1      59.142  26.183  53.786  1.00  0.00    -0.000 C 
BRANCH  23  24
ATOM     24  C   UNL     1      60.609  26.201  53.313  1.00  0.00    -0.000 C 
BRANCH  24  25
ATOM     25  C   UNL     1      61.183  24.822  52.940  1.00  0.00    -0.003 C 
ATOM     26  C   UNL     1      61.801  24.089  54.131  1.00  0.00     0.004 C 
ENDBRANCH  24  25
ENDBRANCH  23  24
ENDBRANCH  22  23
ENDBRANCH  21  22
ENDBRANCH  20  21
ENDBRANCH  19  20
ENDBRANCH  18  19
ENDBRANCH  17  18
ENDBRANCH  16  17
ENDBRANCH  15  16
ENDBRANCH   1  15
TORSDOF 22
ENDMDL
MODEL 3
REMARK VINA RESULT:    -3.306     10.819     12.750
REMARK INTER + INTRA:         -11.009
REMARK INTER:                  -6.706
REMARK INTRA:                  -4.303
REMARK UNBOUND:                -3.452
REMARK SMILES CCCCCCCCCCCCCCCCCCCCCCCC(=O)[O-]
REMARK SMILES IDX 13 1 14 2 15 3 16 4 17 5 18 6 19 7 20 8 21 9 22 10 23 11
REMARK SMILES IDX 24 12 25 13 26 14 12 15 11 16 10 17 9 18 8 19 7 20 6 21 5 22
REMARK SMILES IDX 4 23 3 24 2 25 1 26
REMARK H PARENT
REMARK Flexibility Score: inf
ROOT
ATOM      1  C   UNL     1      60.382  26.177  50.850  1.00  0.00     0.000 C 
ENDROOT
BRANCH   1   2
ATOM      2  C   UNL     1      59.518  26.530  49.626  1.00  0.00     0.000 C 
BRANCH   2   3
ATOM      3  C   UNL     1      59.982  27.818  48.929  1.00  0.00     0.000 C 
BRANCH   3   4
ATOM      4  C   UNL     1      58.982  28.975  49.104  1.00  0.00     0.000 C 
BRANCH   4   5
ATOM      5  C   UNL     1      57.851  28.646  50.094  1.00  0.00     0.000 C 
BRANCH   5   6
ATOM      6  C   UNL     1      57.805  29.543  51.344  1.00  0.00     0.000 C 
BRANCH   6   7
ATOM      7  C   UNL     1      58.940  29.244  52.340  1.00  0.00     0.000 C 
BRANCH   7   8
ATOM      8  C   UNL     1      59.960  30.397  52.438  1.00  0.00     0.000 C 
BRANCH   8   9
ATOM      9  C   UNL     1      61.431  29.938  52.386  1.00  0.00     0.000 C 
BRANCH   9  10
ATOM     10  C   UNL     1      62.020  29.807  50.972  1.00  0.00     0.006 C 
BRANCH  10  11
ATOM     11  C   UNL     1      61.840  31.079  50.132  1.00  0.00     0.053 C 
BRANCH  11  12
ATOM     12  C   UNL     1      63.071  31.357  49.326  1.00  0.00     0.041 C 
ATOM     13  O   UNL     1      63.339  32.534  48.963  1.00  0.00    -0.550 OA
ATOM     14  O   UNL     1      63.919  30.312  48.966  1.00  0.00    -0.550 OA
ENDBRANCH  11  12
ENDBRANCH  10  11
ENDBRANCH   9  10
ENDBRANCH   8   9
ENDBRANCH   7   8
ENDBRANCH   6   7
ENDBRANCH   5   6
ENDBRANCH   4   5
ENDBRANCH   3   4
ENDBRANCH   2   3
ENDBRANCH   1   2
BRANCH   1  15
ATOM     15  C   UNL     1      59.544  25.804  52.082  1.00  0.00     0.000 C 
BRANCH  15  16
ATOM     16  C   UNL     1      58.261  25.038  51.712  1.00  0.00     0.000 C 
BRANCH  16  17
ATOM     17  C   UNL     1      56.986  25.737  52.214  1.00  0.00     0.000 C 
BRANCH  17  18
ATOM     18  C   UNL     1      55.947  25.949  51.103  1.00  0.00    -0.000 C 
BRANCH  18  19
ATOM     19  C   UNL     1      54.520  25.749  51.639  1.00  0.00    -0.000 C 
BRANCH  19  20
ATOM     20  C   UNL     1      53.488  26.684  50.980  1.00  0.00    -0.000 C 
BRANCH  20  21
ATOM     21  C   UNL     1      54.067  27.652  49.928  1.00  0.00    -0.000 C 
BRANCH  21  22
ATOM     22  C   UNL     1      54.243  29.102  50.435  1.00  0.00    -0.000 C 
BRANCH  22  23
ATOM     23  C   UNL     1      53.404  29.422  51.686  1.00  0.00    -0.000 C 
BRANCH  23  24
ATOM     24  C   UNL     1      54.179  30.128  52.816  1.00  0.00    -0.000 C 
BRANCH  24  25
ATOM     25  C   UNL     1      55.097  29.208  53.642  1.00  0.00    -0.003 C 
ATOM     26  C   UNL     1      54.330  28.125  54.402  1.00  0.00     0.004 C 
ENDBRANCH  24  25
ENDBRANCH  23  24
ENDBRANCH  22  23
ENDBRANCH  21  22
ENDBRANCH  20  21
ENDBRANCH  19  20
ENDBRANCH  18  19
ENDBRANCH  17  18
ENDBRANCH  16  17
ENDBRANCH  15  16
ENDBRANCH   1  15
TORSDOF 22
ENDMDL
MODEL 4
REMARK VINA RESULT:    -3.251      1.580      5.238
REMARK INTER + INTRA:         -10.885
REMARK INTER:                  -7.769
REMARK INTRA:                  -3.115
REMARK UNBOUND:                -3.452
REMARK SMILES CCCCCCCCCCCCCCCCCCCCCCCC(=O)[O-]
REMARK SMILES IDX 13 1 14 2 15 3 16 4 17 5 18 6 19 7 20 8 21 9 22 10 23 11
REMARK SMILES IDX 24 12 25 13 26 14 12 15 11 16 10 17 9 18 8 19 7 20 6 21 5 22
REMARK SMILES IDX 4 23 3 24 2 25 1 26
REMARK H PARENT
REMARK Flexibility Score: inf
ROOT
ATOM      1  C   UNL     1      64.255  27.425  60.435  1.00  0.00     0.000 C 
ENDROOT
BRANCH   1   2
ATOM      2  C   UNL     1      65.729  27.606  60.840  1.00  0.00     0.000 C 
BRANCH   2   3
ATOM      3  C   UNL     1      66.052  29.049  61.259  1.00  0.00     0.000 C 
BRANCH   3   4
ATOM      4  C   UNL     1      65.025  30.062  60.721  1.00  0.00     0.000 C 
BRANCH   4   5
ATOM      5  C   UNL     1      65.571  30.909  59.557  1.00  0.00     0.000 C 
BRANCH   5   6
ATOM      6  C   UNL     1      65.130  30.444  58.158  1.00  0.00     0.000 C 
BRANCH   6   7
ATOM      7  C   UNL     1      66.316  30.122  57.231  1.00  0.00     0.000 C 
BRANCH   7   8
ATOM      8  C   UNL     1      67.276  29.078  57.837  1.00  0.00     0.000 C 
BRANCH   8   9
ATOM      9  C   UNL     1      68.761  29.488  57.787  1.00  0.00     0.000 C 
BRANCH   9  10
ATOM     10  C   UNL     1      69.225  30.387  58.945  1.00  0.00     0.006 C 
BRANCH  10  11
ATOM     11  C   UNL     1      70.154  31.518  58.483  1.00  0.00     0.053 C 
BRANCH  11  12
ATOM     12  C   UNL     1      70.860  32.131  59.653  1.00  0.00     0.041 C 
ATOM     13  O   UNL     1      70.990  33.382  59.731  1.00  0.00    -0.550 OA
ATOM     14  O   UNL     1      71.385  31.317  60.655  1.00  0.00    -0.550 OA
ENDBRANCH  11  12
ENDBRANCH  10  11
ENDBRANCH   9  10
ENDBRANCH   8   9
ENDBRANCH   7   8
ENDBRANCH   6   7
ENDBRANCH   5   6
ENDBRANCH   4   5
ENDBRANCH   3   4
ENDBRANCH   2   3
ENDBRANCH   1   2
BRANCH   1  15
ATOM     15  C   UNL     1      63.433  26.680  61.498  1.00  0.00     0.000 C 
BRANCH  15  16
ATOM     16  C   UNL     1      62.224  27.498  61.987  1.00  0.00     0.000 C 
BRANCH  16  17
ATOM     17  C   UNL     1      61.300  27.936  60.839  1.00  0.00     0.000 C 
BRANCH  17  18
ATOM     18  C   UNL     1      60.612  29.283  61.109  1.00  0.00    -0.000 C 
BRANCH  18  19
ATOM     19  C   UNL     1      61.593  30.284  61.740  1.00  0.00    -0.000 C 
BRANCH  19  20
ATOM     20  C   UNL     1      61.399  31.726  61.233  1.00  0.00    -0.000 C 
BRANCH  20  21
ATOM     21  C   UNL     1      61.975  32.004  59.830  1.00  0.00    -0.000 C 
BRANCH  21  22
ATOM     22  C   UNL     1      62.721  33.354  59.712  1.00  0.00    -0.000 C 
BRANCH  22  23
ATOM     23  C   UNL     1      61.974  34.529  60.371  1.00  0.00    -0.000 C 
BRANCH  23  24
ATOM     24  C   UNL     1      62.870  35.487  61.180  1.00  0.00    -0.000 C 
BRANCH  24  25
ATOM     25  C   UNL     1      64.253  34.919  61.549  1.00  0.00    -0.003 C 
ATOM     26  C   UNL     1      65.308  36.005  61.766  1.00  0.00     0.004 C 
ENDBRANCH  24  25
ENDBRANCH  23  24
ENDBRANCH  22  23
ENDBRANCH  21  22
ENDBRANCH  20  21
ENDBRANCH  19  20
ENDBRANCH  18  19
ENDBRANCH  17  18
ENDBRANCH  16  17
ENDBRANCH  15  16
ENDBRANCH   1  15
TORSDOF 22
ENDMDL
MODEL 5
REMARK VINA RESULT:    -3.241      3.040      6.034
REMARK INTER + INTRA:         -10.862
REMARK INTER:                  -6.731
REMARK INTRA:                  -4.130
REMARK UNBOUND:                -3.452
REMARK SMILES CCCCCCCCCCCCCCCCCCCCCCCC(=O)[O-]
REMARK SMILES IDX 13 1 14 2 15 3 16 4 17 5 18 6 19 7 20 8 21 9 22 10 23 11
REMARK SMILES IDX 24 12 25 13 26 14 12 15 11 16 10 17 9 18 8 19 7 20 6 21 5 22
REMARK SMILES IDX 4 23 3 24 2 25 1 26
REMARK H PARENT
REMARK Flexibility Score: inf
ROOT
ATOM      1  C   UNL     1      61.346  34.582  57.336  1.00  0.00     0.000 C 
ENDROOT
BRANCH   1   2
ATOM      2  C   UNL     1      59.890  34.146  57.095  1.00  0.00     0.000 C 
BRANCH   2   3
ATOM      3  C   UNL     1      59.509  32.892  57.897  1.00  0.00     0.000 C 
BRANCH   3   4
ATOM      4  C   UNL     1      60.725  32.002  58.211  1.00  0.00     0.000 C 
BRANCH   4   5
ATOM      5  C   UNL     1      60.750  31.512  59.671  1.00  0.00     0.000 C 
BRANCH   5   6
ATOM      6  C   UNL     1      60.529  30.000  59.847  1.00  0.00     0.000 C 
BRANCH   6   7
ATOM      7  C   UNL     1      61.701  29.300  60.559  1.00  0.00     0.000 C 
BRANCH   7   8
ATOM      8  C   UNL     1      62.269  30.136  61.724  1.00  0.00     0.000 C 
BRANCH   8   9
ATOM      9  C   UNL     1      63.791  30.370  61.644  1.00  0.00     0.000 C 
BRANCH   9  10
ATOM     10  C   UNL     1      64.604  29.176  61.117  1.00  0.00     0.006 C 
BRANCH  10  11
ATOM     11  C   UNL     1      66.045  29.555  60.749  1.00  0.00     0.053 C 
BRANCH  11  12
ATOM     12  C   UNL     1      67.005  28.520  61.248  1.00  0.00     0.041 C 
ATOM     13  O   UNL     1      67.963  28.853  61.998  1.00  0.00    -0.550 OA
ATOM     14  O   UNL     1      66.849  27.187  60.875  1.00  0.00    -0.550 OA
ENDBRANCH  11  12
ENDBRANCH  10  11
ENDBRANCH   9  10
ENDBRANCH   8   9
ENDBRANCH   7   8
ENDBRANCH   6   7
ENDBRANCH   5   6
ENDBRANCH   4   5
ENDBRANCH   3   4
ENDBRANCH   2   3
ENDBRANCH   1   2
BRANCH   1  15
ATOM     15  C   UNL     1      61.458  36.027  57.846  1.00  0.00     0.000 C 
BRANCH  15  16
ATOM     16  C   UNL     1      60.312  36.405  58.801  1.00  0.00     0.000 C 
BRANCH  16  17
ATOM     17  C   UNL     1      60.593  35.999  60.257  1.00  0.00     0.000 C 
BRANCH  17  18
ATOM     18  C   UNL     1      61.731  36.813  60.892  1.00  0.00    -0.000 C 
BRANCH  18  19
ATOM     19  C   UNL     1      62.921  35.907  61.250  1.00  0.00    -0.000 C 
BRANCH  19  20
ATOM     20  C   UNL     1      62.693  34.430  60.876  1.00  0.00    -0.000 C 
BRANCH  20  21
ATOM     21  C   UNL     1      63.979  33.621  60.614  1.00  0.00    -0.000 C 
BRANCH  21  22
ATOM     22  C   UNL     1      64.500  33.719  59.161  1.00  0.00    -0.000 C 
BRANCH  22  23
ATOM     23  C   UNL     1      64.961  32.369  58.582  1.00  0.00    -0.000 C 
BRANCH  23  24
ATOM     24  C   UNL     1      63.932  31.679  57.664  1.00  0.00    -0.000 C 
BRANCH  24  25
ATOM     25  C   UNL     1      63.948  30.140  57.719  1.00  0.00    -0.003 C 
ATOM     26  C   UNL     1      63.247  29.491  56.526  1.00  0.00     0.004 C 
ENDBRANCH  24  25
ENDBRANCH  23  24
ENDBRANCH  22  23
ENDBRANCH  21  22
ENDBRANCH  20  21
ENDBRANCH  19  20
ENDBRANCH  18  19
ENDBRANCH  17  18
ENDBRANCH  16  17
ENDBRANCH  15  16
ENDBRANCH   1  15
TORSDOF 22
ENDMDL
MODEL 6
REMARK VINA RESULT:    -3.238     10.595     12.571
REMARK INTER + INTRA:         -10.854
REMARK INTER:                  -6.419
REMARK INTRA:                  -4.435
REMARK UNBOUND:                -3.452
REMARK SMILES CCCCCCCCCCCCCCCCCCCCCCCC(=O)[O-]
REMARK SMILES IDX 13 1 14 2 15 3 16 4 17 5 18 6 19 7 20 8 21 9 22 10 23 11
REMARK SMILES IDX 24 12 25 13 26 14 12 15 11 16 10 17 9 18 8 19 7 20 6 21 5 22
REMARK SMILES IDX 4 23 3 24 2 25 1 26
REMARK H PARENT
REMARK Flexibility Score: inf
ROOT
ATOM      1  C   UNL     1      58.589  26.025  52.872  1.00  0.00     0.000 C 
ENDROOT
BRANCH   1   2
ATOM      2  C   UNL     1      58.210  27.116  53.889  1.00  0.00     0.000 C 
BRANCH   2   3
ATOM      3  C   UNL     1      58.836  28.478  53.554  1.00  0.00     0.000 C 
BRANCH   3   4
ATOM      4  C   UNL     1      57.814  29.467  52.964  1.00  0.00     0.000 C 
BRANCH   4   5
ATOM      5  C   UNL     1      57.954  29.635  51.440  1.00  0.00     0.000 C 
BRANCH   5   6
ATOM      6  C   UNL     1      59.320  29.220  50.867  1.00  0.00     0.000 C 
BRANCH   6   7
ATOM      7  C   UNL     1      59.263  28.869  49.370  1.00  0.00     0.000 C 
BRANCH   7   8
ATOM      8  C   UNL     1      59.879  27.489  49.061  1.00  0.00     0.000 C 
BRANCH   8   9
ATOM      9  C   UNL     1      60.773  26.935  50.188  1.00  0.00     0.000 C 
BRANCH   9  10
ATOM     10  C   UNL     1      62.226  26.642  49.780  1.00  0.00     0.006 C 
BRANCH  10  11
ATOM     11  C   UNL     1      62.810  27.712  48.849  1.00  0.00     0.053 C 
BRANCH  11  12
ATOM     12  C   UNL     1      63.428  28.821  49.642  1.00  0.00     0.041 C 
ATOM     13  O   UNL     1      63.017  30.005  49.504  1.00  0.00    -0.550 OA
ATOM     14  O   UNL     1      64.467  28.549  50.528  1.00  0.00    -0.550 OA
ENDBRANCH  11  12
ENDBRANCH  10  11
ENDBRANCH   9  10
ENDBRANCH   8   9
ENDBRANCH   7   8
ENDBRANCH   6   7
ENDBRANCH   5   6
ENDBRANCH   4   5
ENDBRANCH   3   4
ENDBRANCH   2   3
ENDBRANCH   1   2
BRANCH   1  15
ATOM     15  C   UNL     1      57.363  25.337  52.252  1.00  0.00     0.000 C 
BRANCH  15  16
ATOM     16  C   UNL     1      57.279  25.544  50.729  1.00  0.00     0.000 C 
BRANCH  16  17
ATOM     17  C   UNL     1      56.364  26.716  50.338  1.00  0.00     0.000 C 
BRANCH  17  18
ATOM     18  C   UNL     1      55.082  26.258  49.626  1.00  0.00    -0.000 C 
BRANCH  18  19
ATOM     19  C   UNL     1      53.962  27.299  49.786  1.00  0.00    -0.000 C 
BRANCH  19  20
ATOM     20  C   UNL     1      54.462  28.649  50.334  1.00  0.00    -0.000 C 
BRANCH  20  21
ATOM     21  C   UNL     1      53.784  29.113  51.639  1.00  0.00    -0.000 C 
BRANCH  21  22
ATOM     22  C   UNL     1      53.453  27.963  52.620  1.00  0.00    -0.000 C 
BRANCH  22  23
ATOM     23  C   UNL     1      54.646  27.542  53.497  1.00  0.00    -0.000 C 
BRANCH  23  24
ATOM     24  C   UNL     1      54.386  27.619  55.015  1.00  0.00    -0.000 C 
BRANCH  24  25
ATOM     25  C   UNL     1      55.263  28.634  55.769  1.00  0.00    -0.003 C 
ATOM     26  C   UNL     1      55.081  30.069  55.273  1.00  0.00     0.004 C 
ENDBRANCH  24  25
ENDBRANCH  23  24
ENDBRANCH  22  23
ENDBRANCH  21  22
ENDBRANCH  20  21
ENDBRANCH  19  20
ENDBRANCH  18  19
ENDBRANCH  17  18
ENDBRANCH  16  17
ENDBRANCH  15  16
ENDBRANCH   1  15
TORSDOF 22
ENDMDL
MODEL 7
REMARK VINA RESULT:    -3.233      4.099      7.699
REMARK INTER + INTRA:         -10.842
REMARK INTER:                  -6.392
REMARK INTRA:                  -4.451
REMARK UNBOUND:                -3.452
REMARK SMILES CCCCCCCCCCCCCCCCCCCCCCCC(=O)[O-]
REMARK SMILES IDX 13 1 14 2 15 3 16 4 17 5 18 6 19 7 20 8 21 9 22 10 23 11
REMARK SMILES IDX 24 12 25 13 26 14 12 15 11 16 10 17 9 18 8 19 7 20 6 21 5 22
REMARK SMILES IDX 4 23 3 24 2 25 1 26
REMARK H PARENT
REMARK Flexibility Score: inf
ROOT
ATOM      1  C   UNL     1      64.948  31.940  58.658  1.00  0.00     0.000 C 
ENDROOT
BRANCH   1   2
ATOM      2  C   UNL     1      64.453  33.296  59.194  1.00  0.00     0.000 C 
BRANCH   2   3
ATOM      3  C   UNL     1      64.151  33.260  60.700  1.00  0.00     0.000 C 
BRANCH   3   4
ATOM      4  C   UNL     1      64.490  34.589  61.399  1.00  0.00     0.000 C 
BRANCH   4   5
ATOM      5  C   UNL     1      63.903  35.815  60.676  1.00  0.00     0.000 C 
BRANCH   5   6
ATOM      6  C   UNL     1      63.091  36.765  61.573  1.00  0.00     0.000 C 
BRANCH   6   7
ATOM      7  C   UNL     1      61.635  36.937  61.105  1.00  0.00     0.000 C 
BRANCH   7   8
ATOM      8  C   UNL     1      61.146  35.752  60.247  1.00  0.00     0.000 C 
BRANCH   8   9
ATOM      9  C   UNL     1      59.963  36.095  59.320  1.00  0.00     0.000 C 
BRANCH   9  10
ATOM     10  C   UNL     1      60.246  35.929  57.818  1.00  0.00     0.006 C 
BRANCH  10  11
ATOM     11  C   UNL     1      61.691  35.498  57.529  1.00  0.00     0.053 C 
BRANCH  11  12
ATOM     12  C   UNL     1      61.741  34.579  56.348  1.00  0.00     0.041 C 
ATOM     13  O   UNL     1      62.665  33.728  56.245  1.00  0.00    -0.550 OA
ATOM     14  O   UNL     1      60.770  34.670  55.353  1.00  0.00    -0.550 OA
ENDBRANCH  11  12
ENDBRANCH  10  11
ENDBRANCH   9  10
ENDBRANCH   8   9
ENDBRANCH   7   8
ENDBRANCH   6   7
ENDBRANCH   5   6
ENDBRANCH   4   5
ENDBRANCH   3   4
ENDBRANCH   2   3
ENDBRANCH   1   2
BRANCH   1  15
ATOM     15  C   UNL     1      65.269  30.939  59.779  1.00  0.00     0.000 C 
BRANCH  15  16
ATOM     16  C   UNL     1      64.841  29.503  59.426  1.00  0.00     0.000 C 
BRANCH  16  17
ATOM     17  C   UNL     1      63.519  29.096  60.097  1.00  0.00     0.000 C 
BRANCH  17  18
ATOM     18  C   UNL     1      63.538  29.295  61.619  1.00  0.00    -0.000 C 
BRANCH  18  19
ATOM     19  C   UNL     1      62.297  30.072  62.088  1.00  0.00    -0.000 C 
BRANCH  19  20
ATOM     20  C   UNL     1      61.290  30.346  60.956  1.00  0.00    -0.000 C 
BRANCH  20  21
ATOM     21  C   UNL     1      60.838  31.815  60.831  1.00  0.00    -0.000 C 
BRANCH  21  22
ATOM     22  C   UNL     1      60.950  32.390  59.399  1.00  0.00    -0.000 C 
BRANCH  22  23
ATOM     23  C   UNL     1      61.129  31.309  58.316  1.00  0.00    -0.000 C 
BRANCH  23  24
ATOM     24  C   UNL     1      59.920  31.135  57.376  1.00  0.00    -0.000 C 
BRANCH  24  25
ATOM     25  C   UNL     1      58.957  32.336  57.335  1.00  0.00    -0.003 C 
ATOM     26  C   UNL     1      57.553  31.994  57.832  1.00  0.00     0.004 C 
ENDBRANCH  24  25
ENDBRANCH  23  24
ENDBRANCH  22  23
ENDBRANCH  21  22
ENDBRANCH  20  21
ENDBRANCH  19  20
ENDBRANCH  18  19
ENDBRANCH  17  18
ENDBRANCH  16  17
ENDBRANCH  15  16
ENDBRANCH   1  15
TORSDOF 22
ENDMDL
MODEL 8
REMARK VINA RESULT:    -3.230     10.061     11.624
REMARK INTER + INTRA:         -10.837
REMARK INTER:                  -6.438
REMARK INTRA:                  -4.399
REMARK UNBOUND:                -3.452
REMARK SMILES CCCCCCCCCCCCCCCCCCCCCCCC(=O)[O-]
REMARK SMILES IDX 13 1 14 2 15 3 16 4 17 5 18 6 19 7 20 8 21 9 22 10 23 11
REMARK SMILES IDX 24 12 25 13 26 14 12 15 11 16 10 17 9 18 8 19 7 20 6 21 5 22
REMARK SMILES IDX 4 23 3 24 2 25 1 26
REMARK H PARENT
REMARK Flexibility Score: inf
ROOT
ATOM      1  C   UNL     1      58.513  29.263  50.977  1.00  0.00     0.000 C 
ENDROOT
BRANCH   1   2
ATOM      2  C   UNL     1      59.901  28.812  50.490  1.00  0.00     0.000 C 
BRANCH   2   3
ATOM      3  C   UNL     1      59.829  27.956  49.216  1.00  0.00     0.000 C 
BRANCH   3   4
ATOM      4  C   UNL     1      60.244  26.495  49.464  1.00  0.00     0.000 C 
BRANCH   4   5
ATOM      5  C   UNL     1      61.702  26.357  49.939  1.00  0.00     0.000 C 
BRANCH   5   6
ATOM      6  C   UNL     1      62.727  27.157  49.116  1.00  0.00     0.000 C 
BRANCH   6   7
ATOM      7  C   UNL     1      63.992  27.515  49.916  1.00  0.00     0.000 C 
BRANCH   7   8
ATOM      8  C   UNL     1      63.949  28.949  50.483  1.00  0.00     0.000 C 
BRANCH   8   9
ATOM      9  C   UNL     1      63.379  29.993  49.502  1.00  0.00     0.000 C 
BRANCH   9  10
ATOM     10  C   UNL     1      62.587  31.136  50.158  1.00  0.00     0.006 C 
BRANCH  10  11
ATOM     11  C   UNL     1      62.368  32.326  49.214  1.00  0.00     0.053 C 
BRANCH  11  12
ATOM     12  C   UNL     1      62.642  33.617  49.921  1.00  0.00     0.041 C 
ATOM     13  O   UNL     1      63.651  34.307  49.613  1.00  0.00    -0.550 OA
ATOM     14  O   UNL     1      61.787  34.055  50.930  1.00  0.00    -0.550 OA
ENDBRANCH  11  12
ENDBRANCH  10  11
ENDBRANCH   9  10
ENDBRANCH   8   9
ENDBRANCH   7   8
ENDBRANCH   6   7
ENDBRANCH   5   6
ENDBRANCH   4   5
ENDBRANCH   3   4
ENDBRANCH   2   3
ENDBRANCH   1   2
BRANCH   1  15
ATOM     15  C   UNL     1      57.394  28.932  49.977  1.00  0.00     0.000 C 
BRANCH  15  16
ATOM     16  C   UNL     1      56.108  28.449  50.671  1.00  0.00     0.000 C 
BRANCH  16  17
ATOM     17  C   UNL     1      55.648  27.068  50.174  1.00  0.00     0.000 C 
BRANCH  17  18
ATOM     18  C   UNL     1      56.733  25.991  50.320  1.00  0.00    -0.000 C 
BRANCH  18  19
ATOM     19  C   UNL     1      56.850  25.522  51.779  1.00  0.00    -0.000 C 
BRANCH  19  20
ATOM     20  C   UNL     1      58.197  25.892  52.429  1.00  0.00    -0.000 C 
BRANCH  20  21
ATOM     21  C   UNL     1      58.089  26.760  53.699  1.00  0.00    -0.000 C 
BRANCH  21  22
ATOM     22  C   UNL     1      59.442  27.319  54.197  1.00  0.00    -0.000 C 
BRANCH  22  23
ATOM     23  C   UNL     1      60.651  26.810  53.392  1.00  0.00    -0.000 C 
BRANCH  23  24
ATOM     24  C   UNL     1      61.851  27.777  53.354  1.00  0.00    -0.000 C 
BRANCH  24  25
ATOM     25  C   UNL     1      63.216  27.123  53.638  1.00  0.00    -0.003 C 
ATOM     26  C   UNL     1      63.253  25.636  53.284  1.00  0.00     0.004 C 
ENDBRANCH  24  25
ENDBRANCH  23  24
ENDBRANCH  22  23
ENDBRANCH  21  22
ENDBRANCH  20  21
ENDBRANCH  19  20
ENDBRANCH  18  19
ENDBRANCH  17  18
ENDBRANCH  16  17
ENDBRANCH  15  16
ENDBRANCH   1  15
TORSDOF 22
ENDMDL
MODEL 9
REMARK VINA RESULT:    -3.193     10.591     13.287
REMARK INTER + INTRA:         -10.752
REMARK INTER:                  -6.874
REMARK INTRA:                  -3.878
REMARK UNBOUND:                -3.452
REMARK SMILES CCCCCCCCCCCCCCCCCCCCCCCC(=O)[O-]
REMARK SMILES IDX 13 1 14 2 15 3 16 4 17 5 18 6 19 7 20 8 21 9 22 10 23 11
REMARK SMILES IDX 24 12 25 13 26 14 12 15 11 16 10 17 9 18 8 19 7 20 6 21 5 22
REMARK SMILES IDX 4 23 3 24 2 25 1 26
REMARK H PARENT
REMARK Flexibility Score: inf
ROOT
ATOM      1  C   UNL     1      56.371  26.594  49.987  1.00  0.00     0.000 C 
ENDROOT
BRANCH   1   2
ATOM      2  C   UNL     1      54.986  26.681  50.652  1.00  0.00     0.000 C 
BRANCH   2   3
ATOM      3  C   UNL     1      53.862  26.949  49.639  1.00  0.00     0.000 C 
BRANCH   3   4
ATOM      4  C   UNL     1      53.160  28.297  49.883  1.00  0.00     0.000 C 
BRANCH   4   5
ATOM      5  C   UNL     1      54.116  29.387  50.400  1.00  0.00     0.000 C 
BRANCH   5   6
ATOM      6  C   UNL     1      53.463  30.438  51.315  1.00  0.00     0.000 C 
BRANCH   6   7
ATOM      7  C   UNL     1      54.272  30.705  52.597  1.00  0.00     0.000 C 
BRANCH   7   8
ATOM      8  C   UNL     1      54.988  29.442  53.119  1.00  0.00     0.000 C 
BRANCH   8   9
ATOM      9  C   UNL     1      56.465  29.671  53.498  1.00  0.00     0.000 C 
BRANCH   9  10
ATOM     10  C   UNL     1      56.964  31.114  53.322  1.00  0.00     0.006 C 
BRANCH  10  11
ATOM     11  C   UNL     1      58.443  31.186  52.917  1.00  0.00     0.053 C 
BRANCH  11  12
ATOM     12  C   UNL     1      59.087  32.408  53.494  1.00  0.00     0.041 C 
ATOM     13  O   UNL     1      58.880  32.729  54.695  1.00  0.00    -0.550 OA
ATOM     14  O   UNL     1      59.912  33.202  52.699  1.00  0.00    -0.550 OA
ENDBRANCH  11  12
ENDBRANCH  10  11
ENDBRANCH   9  10
ENDBRANCH   8   9
ENDBRANCH   7   8
ENDBRANCH   6   7
ENDBRANCH   5   6
ENDBRANCH   4   5
ENDBRANCH   3   4
ENDBRANCH   2   3
ENDBRANCH   1   2
BRANCH   1  15
ATOM     15  C   UNL     1      57.452  27.365  50.760  1.00  0.00     0.000 C 
BRANCH  15  16
ATOM     16  C   UNL     1      57.744  28.745  50.144  1.00  0.00     0.000 C 
BRANCH  16  17
ATOM     17  C   UNL     1      58.942  28.725  49.180  1.00  0.00     0.000 C 
BRANCH  17  18
ATOM     18  C   UNL     1      59.708  27.394  49.212  1.00  0.00    -0.000 C 
BRANCH  18  19
ATOM     19  C   UNL     1      61.224  27.633  49.288  1.00  0.00    -0.000 C 
BRANCH  19  20
ATOM     20  C   UNL     1      61.988  26.481  49.967  1.00  0.00    -0.000 C 
BRANCH  20  21
ATOM     21  C   UNL     1      62.195  26.645  51.486  1.00  0.00    -0.000 C 
BRANCH  21  22
ATOM     22  C   UNL     1      62.114  28.109  51.978  1.00  0.00    -0.000 C 
BRANCH  22  23
ATOM     23  C   UNL     1      60.861  28.403  52.825  1.00  0.00    -0.000 C 
BRANCH  23  24
ATOM     24  C   UNL     1      60.004  27.165  53.156  1.00  0.00    -0.000 C 
BRANCH  24  25
ATOM     25  C   UNL     1      59.170  27.284  54.445  1.00  0.00    -0.003 C 
ATOM     26  C   UNL     1      57.898  26.437  54.415  1.00  0.00     0.004 C 
ENDBRANCH  24  25
ENDBRANCH  23  24
ENDBRANCH  22  23
ENDBRANCH  21  22
ENDBRANCH  20  21
ENDBRANCH  19  20
ENDBRANCH  18  19
ENDBRANCH  17  18
ENDBRANCH  16  17
ENDBRANCH  15  16
ENDBRANCH   1  15
TORSDOF 22
ENDMDL
