MODEL 1
REMARK VINA RESULT:    -5.418      0.000      0.000
REMARK INTER + INTRA:          -6.655
REMARK INTER:                  -6.368
REMARK INTRA:                  -0.287
REMARK UNBOUND:                -0.287
REMARK SMILES O=c1c(O)c(-c2ccc(O)cc2)oc2cc(O)cc(O)c12
REMARK SMILES IDX 5 1 3 2 2 3 1 4 21 5 19 6 18 7 16 8 15 9 14 10 13 11 6 12
REMARK SMILES IDX 7 13 8 14 9 15 12 16 11 17 10 18 4 20 20 22 17 24
REMARK H PARENT 10 19 4 21 20 23 17 25
REMARK Flexibility Score: inf
ROOT
ATOM      1  C   UNL     1      -7.312  22.895  -8.692  1.00  0.00     0.180 A 
ATOM      2  C   UNL     1      -7.552  21.649  -9.300  1.00  0.00     0.208 A 
ATOM      3  C   UNL     1      -6.618  20.615  -9.119  1.00  0.00     0.238 A 
ATOM      4  O   UNL     1      -6.827  19.490  -9.650  1.00  0.00    -0.285 OA
ATOM      5  C   UNL     1      -5.458  20.850  -8.354  1.00  0.00     0.111 A 
ATOM      6  C   UNL     1      -4.467  19.864  -8.126  1.00  0.00     0.134 A 
ATOM      7  C   UNL     1      -3.336  20.179  -7.359  1.00  0.00     0.093 A 
ATOM      8  C   UNL     1      -3.176  21.460  -6.818  1.00  0.00     0.123 A 
ATOM      9  C   UNL     1      -4.150  22.434  -7.039  1.00  0.00     0.094 A 
ATOM     10  C   UNL     1      -5.286  22.140  -7.799  1.00  0.00     0.146 A 
ATOM     11  O   UNL     1      -6.200  23.085  -7.988  1.00  0.00    -0.452 OA
ENDROOT
BRANCH   1  12
ATOM     12  C   UNL     1      -8.257  24.028  -8.820  1.00  0.00     0.021 A 
ATOM     13  C   UNL     1      -9.266  24.199  -7.858  1.00  0.00     0.016 A 
ATOM     14  C   UNL     1     -10.183  25.249  -7.971  1.00  0.00     0.047 A 
ATOM     15  C   UNL     1     -10.112  26.130  -9.058  1.00  0.00     0.115 A 
ATOM     16  C   UNL     1      -8.205  24.906  -9.918  1.00  0.00     0.016 A 
ATOM     17  C   UNL     1      -9.124  25.953 -10.031  1.00  0.00     0.047 A 
BRANCH  15  18
ATOM     18  O   UNL     1     -11.020  27.180  -9.181  1.00  0.00    -0.508 OA
ATOM     19  H   UNL     1     -11.979  27.091  -8.867  1.00  0.00     0.293 HD
ENDBRANCH  15  18
ENDBRANCH   1  12
BRANCH   2  20
ATOM     20  O   UNL     1      -8.685  21.456 -10.095  1.00  0.00    -0.502 OA
ATOM     21  H   UNL     1      -9.199  20.583 -10.106  1.00  0.00     0.293 HD
ENDBRANCH   2  20
BRANCH   6  22
ATOM     22  O   UNL     1      -4.598  18.579  -8.654  1.00  0.00    -0.507 OA
ATOM     23  H   UNL     1      -5.299  18.359  -9.353  1.00  0.00     0.293 HD
ENDBRANCH   6  22
BRANCH   8  24
ATOM     24  O   UNL     1      -2.051  21.773  -6.058  1.00  0.00    -0.508 OA
ATOM     25  H   UNL     1      -1.183  22.066  -6.491  1.00  0.00     0.293 HD
ENDBRANCH   8  24
TORSDOF 5
ENDMDL
MODEL 2
REMARK VINA RESULT:    -5.306      1.900      6.843
REMARK INTER + INTRA:          -6.523
REMARK INTER:                  -6.314
REMARK INTRA:                  -0.209
REMARK UNBOUND:                -0.287
REMARK SMILES O=c1c(O)c(-c2ccc(O)cc2)oc2cc(O)cc(O)c12
REMARK SMILES IDX 5 1 3 2 2 3 1 4 21 5 19 6 18 7 16 8 15 9 14 10 13 11 6 12
REMARK SMILES IDX 7 13 8 14 9 15 12 16 11 17 10 18 4 20 20 22 17 24
REMARK H PARENT 10 19 4 21 20 23 17 25
REMARK Flexibility Score: inf
ROOT
ATOM      1  C   UNL     1      -7.421  23.358  -9.332  1.00  0.00     0.180 A 
ATOM      2  C   UNL     1      -8.703  23.548  -8.784  1.00  0.00     0.208 A 
ATOM      3  C   UNL     1      -9.383  24.748  -9.047  1.00  0.00     0.238 A 
ATOM      4  O   UNL     1     -10.537  24.925  -8.570  1.00  0.00    -0.285 OA
ATOM      5  C   UNL     1      -8.764  25.741  -9.833  1.00  0.00     0.111 A 
ATOM      6  C   UNL     1      -9.378  26.979 -10.142  1.00  0.00     0.134 A 
ATOM      7  C   UNL     1      -8.692  27.920 -10.924  1.00  0.00     0.093 A 
ATOM      8  C   UNL     1      -7.405  27.648 -11.401  1.00  0.00     0.123 A 
ATOM      9  C   UNL     1      -6.796  26.429 -11.100  1.00  0.00     0.094 A 
ATOM     10  C   UNL     1      -7.463  25.477 -10.324  1.00  0.00     0.146 A 
ATOM     11  O   UNL     1      -6.862  24.323 -10.057  1.00  0.00    -0.452 OA
ENDROOT
BRANCH   1  12
ATOM     12  C   UNL     1      -6.649  22.113  -9.116  1.00  0.00     0.021 A 
ATOM     13  C   UNL     1      -5.469  22.154  -8.355  1.00  0.00     0.016 A 
ATOM     14  C   UNL     1      -4.713  20.995  -8.157  1.00  0.00     0.047 A 
ATOM     15  C   UNL     1      -5.118  19.784  -8.731  1.00  0.00     0.115 A 
ATOM     16  C   UNL     1      -7.039  20.897  -9.706  1.00  0.00     0.016 A 
ATOM     17  C   UNL     1      -6.280  19.739  -9.507  1.00  0.00     0.047 A 
BRANCH  15  18
ATOM     18  O   UNL     1      -4.373  18.622  -8.540  1.00  0.00    -0.508 OA
ATOM     19  H   UNL     1      -3.811  18.484  -7.707  1.00  0.00     0.293 HD
ENDBRANCH  15  18
ENDBRANCH   1  12
BRANCH   2  20
ATOM     20  O   UNL     1      -9.275  22.569  -7.967  1.00  0.00    -0.502 OA
ATOM     21  H   UNL     1      -8.787  22.169  -7.174  1.00  0.00     0.293 HD
ENDBRANCH   2  20
BRANCH   6  22
ATOM     22  O   UNL     1     -10.660  27.280  -9.679  1.00  0.00    -0.507 OA
ATOM     23  H   UNL     1     -10.820  27.997  -8.981  1.00  0.00     0.293 HD
ENDBRANCH   6  22
BRANCH   8  24
ATOM     24  O   UNL     1      -6.723  28.583 -12.176  1.00  0.00    -0.508 OA
ATOM     25  H   UNL     1      -7.207  29.345 -12.637  1.00  0.00     0.293 HD
ENDBRANCH   8  24
TORSDOF 5
ENDMDL
MODEL 3
REMARK VINA RESULT:    -5.190      1.528      2.171
REMARK INTER + INTRA:          -6.387
REMARK INTER:                  -6.195
REMARK INTRA:                  -0.192
REMARK UNBOUND:                -0.287
REMARK SMILES O=c1c(O)c(-c2ccc(O)cc2)oc2cc(O)cc(O)c12
REMARK SMILES IDX 5 1 3 2 2 3 1 4 21 5 19 6 18 7 16 8 15 9 14 10 13 11 6 12
REMARK SMILES IDX 7 13 8 14 9 15 12 16 11 17 10 18 4 20 20 22 17 24
REMARK H PARENT 10 19 4 21 20 23 17 25
REMARK Flexibility Score: inf
ROOT
ATOM      1  C   UNL     1      -7.881  24.111  -9.655  1.00  0.00     0.180 A 
ATOM      2  C   UNL     1      -8.509  22.851  -9.661  1.00  0.00     0.208 A 
ATOM      3  C   UNL     1      -7.733  21.705  -9.424  1.00  0.00     0.238 A 
ATOM      4  O   UNL     1      -8.287  20.572  -9.416  1.00  0.00    -0.285 OA
ATOM      5  C   UNL     1      -6.347  21.835  -9.206  1.00  0.00     0.111 A 
ATOM      6  C   UNL     1      -5.494  20.731  -8.964  1.00  0.00     0.134 A 
ATOM      7  C   UNL     1      -4.122  20.943  -8.765  1.00  0.00     0.093 A 
ATOM      8  C   UNL     1      -3.587  22.236  -8.805  1.00  0.00     0.123 A 
ATOM      9  C   UNL     1      -4.424  23.326  -9.043  1.00  0.00     0.094 A 
ATOM     10  C   UNL     1      -5.795  23.137  -9.241  1.00  0.00     0.146 A 
ATOM     11  O   UNL     1      -6.568  24.194  -9.460  1.00  0.00    -0.452 OA
ENDROOT
BRANCH   1  12
ATOM     12  C   UNL     1      -8.634  25.367  -9.878  1.00  0.00     0.021 A 
ATOM     13  C   UNL     1      -8.368  26.138 -11.021  1.00  0.00     0.016 A 
ATOM     14  C   UNL     1      -9.051  27.339 -11.240  1.00  0.00     0.047 A 
ATOM     15  C   UNL     1      -9.996  27.790 -10.311  1.00  0.00     0.115 A 
ATOM     16  C   UNL     1      -9.571  25.836  -8.939  1.00  0.00     0.016 A 
ATOM     17  C   UNL     1     -10.251  27.038  -9.160  1.00  0.00     0.047 A 
BRANCH  15  18
ATOM     18  O   UNL     1     -10.684  28.984 -10.519  1.00  0.00    -0.508 OA
ATOM     19  H   UNL     1     -10.790  29.669  -9.780  1.00  0.00     0.293 HD
ENDBRANCH  15  18
ENDBRANCH   1  12
BRANCH   2  20
ATOM     20  O   UNL     1      -9.877  22.744  -9.929  1.00  0.00    -0.502 OA
ATOM     21  H   UNL     1     -10.396  21.888  -9.774  1.00  0.00     0.293 HD
ENDBRANCH   2  20
BRANCH   6  22
ATOM     22  O   UNL     1      -5.998  19.431  -8.920  1.00  0.00    -0.507 OA
ATOM     23  H   UNL     1      -6.767  19.177  -8.311  1.00  0.00     0.293 HD
ENDBRANCH   6  22
BRANCH   8  24
ATOM     24  O   UNL     1      -2.224  22.446  -8.609  1.00  0.00    -0.508 OA
ATOM     25  H   UNL     1      -1.882  23.203  -8.029  1.00  0.00     0.293 HD
ENDBRANCH   8  24
TORSDOF 5
ENDMDL
MODEL 4
REMARK VINA RESULT:    -4.861      3.388      6.494
REMARK INTER + INTRA:          -6.000
REMARK INTER:                  -5.702
REMARK INTRA:                  -0.298
REMARK UNBOUND:                -0.287
REMARK SMILES O=c1c(O)c(-c2ccc(O)cc2)oc2cc(O)cc(O)c12
REMARK SMILES IDX 5 1 3 2 2 3 1 4 21 5 19 6 18 7 16 8 15 9 14 10 13 11 6 12
REMARK SMILES IDX 7 13 8 14 9 15 12 16 11 17 10 18 4 20 20 22 17 24
REMARK H PARENT 10 19 4 21 20 23 17 25
REMARK Flexibility Score: inf
ROOT
ATOM      1  C   UNL     1      -3.673  22.936  -9.380  1.00  0.00     0.180 A 
ATOM      2  C   UNL     1      -3.743  22.272  -8.141  1.00  0.00     0.208 A 
ATOM      3  C   UNL     1      -4.972  21.733  -7.729  1.00  0.00     0.238 A 
ATOM      4  O   UNL     1      -5.044  21.126  -6.625  1.00  0.00    -0.285 OA
ATOM      5  C   UNL     1      -6.109  21.883  -8.549  1.00  0.00     0.111 A 
ATOM      6  C   UNL     1      -7.384  21.373  -8.206  1.00  0.00     0.134 A 
ATOM      7  C   UNL     1      -8.469  21.571  -9.072  1.00  0.00     0.093 A 
ATOM      8  C   UNL     1      -8.303  22.271 -10.273  1.00  0.00     0.123 A 
ATOM      9  C   UNL     1      -7.047  22.774 -10.616  1.00  0.00     0.094 A 
ATOM     10  C   UNL     1      -5.953  22.585  -9.767  1.00  0.00     0.146 A 
ATOM     11  O   UNL     1      -4.769  23.071 -10.121  1.00  0.00    -0.452 OA
ENDROOT
BRANCH   1  12
ATOM     12  C   UNL     1      -2.410  23.515  -9.892  1.00  0.00     0.021 A 
ATOM     13  C   UNL     1      -2.142  24.879  -9.690  1.00  0.00     0.016 A 
ATOM     14  C   UNL     1      -0.966  25.451 -10.185  1.00  0.00     0.047 A 
ATOM     15  C   UNL     1      -0.051  24.670 -10.901  1.00  0.00     0.115 A 
ATOM     16  C   UNL     1      -1.495  22.741 -10.629  1.00  0.00     0.016 A 
ATOM     17  C   UNL     1      -0.320  23.317 -11.124  1.00  0.00     0.047 A 
BRANCH  15  18
ATOM     18  O   UNL     1       1.125  25.229 -11.398  1.00  0.00    -0.508 OA
ATOM     19  H   UNL     1       1.111  26.050 -11.993  1.00  0.00     0.293 HD
ENDBRANCH  15  18
ENDBRANCH   1  12
BRANCH   2  20
ATOM     20  O   UNL     1      -2.613  22.180  -7.323  1.00  0.00    -0.502 OA
ATOM     21  H   UNL     1      -2.384  22.884  -6.631  1.00  0.00     0.293 HD
ENDBRANCH   2  20
BRANCH   6  22
ATOM     22  O   UNL     1      -7.581  20.673  -7.014  1.00  0.00    -0.507 OA
ATOM     23  H   UNL     1      -8.493  20.323  -6.746  1.00  0.00     0.293 HD
ENDBRANCH   6  22
BRANCH   8  24
ATOM     24  O   UNL     1      -9.380  22.469 -11.134  1.00  0.00    -0.508 OA
ATOM     25  H   UNL     1      -9.810  21.699 -11.633  1.00  0.00     0.293 HD
ENDBRANCH   8  24
TORSDOF 5
ENDMDL
MODEL 5
REMARK VINA RESULT:    -4.846      2.457      6.284
REMARK INTER + INTRA:          -5.983
REMARK INTER:                  -5.685
REMARK INTRA:                  -0.298
REMARK UNBOUND:                -0.287
REMARK SMILES O=c1c(O)c(-c2ccc(O)cc2)oc2cc(O)cc(O)c12
REMARK SMILES IDX 5 1 3 2 2 3 1 4 21 5 19 6 18 7 16 8 15 9 14 10 13 11 6 12
REMARK SMILES IDX 7 13 8 14 9 15 12 16 11 17 10 18 4 20 20 22 17 24
REMARK H PARENT 10 19 4 21 20 23 17 25
REMARK Flexibility Score: inf
ROOT
ATOM      1  C   UNL     1      -4.193  22.494  -9.024  1.00  0.00     0.180 A 
ATOM      2  C   UNL     1      -4.498  21.120  -8.976  1.00  0.00     0.208 A 
ATOM      3  C   UNL     1      -5.833  20.715  -9.137  1.00  0.00     0.238 A 
ATOM      4  O   UNL     1      -6.116  19.487  -9.107  1.00  0.00    -0.285 OA
ATOM      5  C   UNL     1      -6.838  21.686  -9.323  1.00  0.00     0.111 A 
ATOM      6  C   UNL     1      -8.206  21.362  -9.490  1.00  0.00     0.134 A 
ATOM      7  C   UNL     1      -9.147  22.388  -9.661  1.00  0.00     0.093 A 
ATOM      8  C   UNL     1      -8.747  23.729  -9.667  1.00  0.00     0.123 A 
ATOM      9  C   UNL     1      -7.400  24.052  -9.504  1.00  0.00     0.094 A 
ATOM     10  C   UNL     1      -6.445  23.045  -9.334  1.00  0.00     0.146 A 
ATOM     11  O   UNL     1      -5.169  23.382  -9.187  1.00  0.00    -0.452 OA
ENDROOT
BRANCH   1  12
ATOM     12  C   UNL     1      -2.808  22.998  -8.881  1.00  0.00     0.021 A 
ATOM     13  C   UNL     1      -2.330  23.355  -7.610  1.00  0.00     0.016 A 
ATOM     14  C   UNL     1      -1.034  23.855  -7.454  1.00  0.00     0.047 A 
ATOM     15  C   UNL     1      -0.204  24.018  -8.571  1.00  0.00     0.115 A 
ATOM     16  C   UNL     1      -1.976  23.183 -10.000  1.00  0.00     0.016 A 
ATOM     17  C   UNL     1      -0.680  23.684  -9.842  1.00  0.00     0.047 A 
BRANCH  15  18
ATOM     18  O   UNL     1       1.090  24.514  -8.429  1.00  0.00    -0.508 OA
ATOM     19  H   UNL     1       1.280  25.350  -7.889  1.00  0.00     0.293 HD
ENDBRANCH  15  18
ENDBRANCH   1  12
BRANCH   2  20
ATOM     20  O   UNL     1      -3.490  20.180  -8.740  1.00  0.00    -0.502 OA
ATOM     21  H   UNL     1      -2.640  20.409  -8.240  1.00  0.00     0.293 HD
ENDBRANCH   2  20
BRANCH   6  22
ATOM     22  O   UNL     1      -8.635  20.034  -9.486  1.00  0.00    -0.507 OA
ATOM     23  H   UNL     1      -9.590  19.782  -9.715  1.00  0.00     0.293 HD
ENDBRANCH   6  22
BRANCH   8  24
ATOM     24  O   UNL     1      -9.682  24.747  -9.836  1.00  0.00    -0.508 OA
ATOM     25  H   UNL     1     -10.235  25.094  -9.061  1.00  0.00     0.293 HD
ENDBRANCH   8  24
TORSDOF 5
ENDMDL
MODEL 6
REMARK VINA RESULT:    -4.840      2.230      2.908
REMARK INTER + INTRA:          -5.976
REMARK INTER:                  -5.678
REMARK INTRA:                  -0.298
REMARK UNBOUND:                -0.287
REMARK SMILES O=c1c(O)c(-c2ccc(O)cc2)oc2cc(O)cc(O)c12
REMARK SMILES IDX 5 1 3 2 2 3 1 4 21 5 19 6 18 7 16 8 15 9 14 10 13 11 6 12
REMARK SMILES IDX 7 13 8 14 9 15 12 16 11 17 10 18 4 20 20 22 17 24
REMARK H PARENT 10 19 4 21 20 23 17 25
REMARK Flexibility Score: inf
ROOT
ATOM      1  C   UNL     1      -8.461  23.103  -6.732  1.00  0.00     0.180 A 
ATOM      2  C   UNL     1      -8.986  22.229  -7.702  1.00  0.00     0.208 A 
ATOM      3  C   UNL     1      -8.127  21.305  -8.319  1.00  0.00     0.238 A 
ATOM      4  O   UNL     1      -8.589  20.509  -9.182  1.00  0.00    -0.285 OA
ATOM      5  C   UNL     1      -6.761  21.284  -7.972  1.00  0.00     0.111 A 
ATOM      6  C   UNL     1      -5.829  20.388  -8.548  1.00  0.00     0.134 A 
ATOM      7  C   UNL     1      -4.483  20.437  -8.155  1.00  0.00     0.093 A 
ATOM      8  C   UNL     1      -4.053  21.364  -7.199  1.00  0.00     0.123 A 
ATOM      9  C   UNL     1      -4.969  22.248  -6.628  1.00  0.00     0.094 A 
ATOM     10  C   UNL     1      -6.314  22.215  -7.004  1.00  0.00     0.146 A 
ATOM     11  O   UNL     1      -7.164  23.065  -6.440  1.00  0.00    -0.452 OA
ENDROOT
BRANCH   1  12
ATOM     12  C   UNL     1      -9.306  24.091  -6.024  1.00  0.00     0.021 A 
ATOM     13  C   UNL     1      -9.419  25.396  -6.533  1.00  0.00     0.016 A 
ATOM     14  C   UNL     1     -10.193  26.351  -5.869  1.00  0.00     0.047 A 
ATOM     15  C   UNL     1     -10.852  26.019  -4.678  1.00  0.00     0.115 A 
ATOM     16  C   UNL     1      -9.955  23.771  -4.818  1.00  0.00     0.016 A 
ATOM     17  C   UNL     1     -10.728  24.729  -4.154  1.00  0.00     0.047 A 
BRANCH  15  18
ATOM     18  O   UNL     1     -11.628  26.963  -4.008  1.00  0.00    -0.508 OA
ATOM     19  H   UNL     1     -11.952  26.805  -3.060  1.00  0.00     0.293 HD
ENDBRANCH  15  18
ENDBRANCH   1  12
BRANCH   2  20
ATOM     20  O   UNL     1     -10.334  22.302  -8.066  1.00  0.00    -0.502 OA
ATOM     21  H   UNL     1     -10.646  22.781  -8.902  1.00  0.00     0.293 HD
ENDBRANCH   2  20
BRANCH   6  22
ATOM     22  O   UNL     1      -6.228  19.454  -9.505  1.00  0.00    -0.507 OA
ATOM     23  H   UNL     1      -5.575  19.066 -10.176  1.00  0.00     0.293 HD
ENDBRANCH   6  22
BRANCH   8  24
ATOM     24  O   UNL     1      -2.716  21.413  -6.810  1.00  0.00    -0.508 OA
ATOM     25  H   UNL     1      -2.246  20.602  -6.424  1.00  0.00     0.293 HD
ENDBRANCH   8  24
TORSDOF 5
ENDMDL
MODEL 7
REMARK VINA RESULT:    -4.828      1.998      7.054
REMARK INTER + INTRA:          -5.961
REMARK INTER:                  -5.807
REMARK INTRA:                  -0.154
REMARK UNBOUND:                -0.287
REMARK SMILES O=c1c(O)c(-c2ccc(O)cc2)oc2cc(O)cc(O)c12
REMARK SMILES IDX 5 1 3 2 2 3 1 4 21 5 19 6 18 7 16 8 15 9 14 10 13 11 6 12
REMARK SMILES IDX 7 13 8 14 9 15 12 16 11 17 10 18 4 20 20 22 17 24
REMARK H PARENT 10 19 4 21 20 23 17 25
REMARK Flexibility Score: inf
ROOT
ATOM      1  C   UNL     1      -6.018  23.410  -9.135  1.00  0.00     0.180 A 
ATOM      2  C   UNL     1      -5.188  24.447  -9.601  1.00  0.00     0.208 A 
ATOM      3  C   UNL     1      -5.755  25.705  -9.863  1.00  0.00     0.238 A 
ATOM      4  O   UNL     1      -5.018  26.644 -10.270  1.00  0.00    -0.285 OA
ATOM      5  C   UNL     1      -7.138  25.898  -9.674  1.00  0.00     0.111 A 
ATOM      6  C   UNL     1      -7.788  27.132  -9.918  1.00  0.00     0.134 A 
ATOM      7  C   UNL     1      -9.171  27.242  -9.715  1.00  0.00     0.093 A 
ATOM      8  C   UNL     1      -9.917  26.142  -9.274  1.00  0.00     0.123 A 
ATOM      9  C   UNL     1      -9.280  24.924  -9.032  1.00  0.00     0.094 A 
ATOM     10  C   UNL     1      -7.902  24.794  -9.226  1.00  0.00     0.146 A 
ATOM     11  O   UNL     1      -7.322  23.625  -8.983  1.00  0.00    -0.452 OA
ENDROOT
BRANCH   1  12
ATOM     12  C   UNL     1      -5.492  22.063  -8.819  1.00  0.00     0.021 A 
ATOM     13  C   UNL     1      -5.969  20.950  -9.531  1.00  0.00     0.016 A 
ATOM     14  C   UNL     1      -5.503  19.665  -9.235  1.00  0.00     0.047 A 
ATOM     15  C   UNL     1      -4.566  19.476  -8.211  1.00  0.00     0.115 A 
ATOM     16  C   UNL     1      -4.565  21.862  -7.780  1.00  0.00     0.016 A 
ATOM     17  C   UNL     1      -4.102  20.576  -7.484  1.00  0.00     0.047 A 
BRANCH  15  18
ATOM     18  O   UNL     1      -4.093  18.201  -7.907  1.00  0.00    -0.508 OA
ATOM     19  H   UNL     1      -3.175  18.060  -7.501  1.00  0.00     0.293 HD
ENDBRANCH  15  18
ENDBRANCH   1  12
BRANCH   2  20
ATOM     20  O   UNL     1      -3.828  24.216  -9.827  1.00  0.00    -0.502 OA
ATOM     21  H   UNL     1      -3.282  24.776 -10.471  1.00  0.00     0.293 HD
ENDBRANCH   2  20
BRANCH   6  22
ATOM     22  O   UNL     1      -7.072  28.246 -10.359  1.00  0.00    -0.507 OA
ATOM     23  H   UNL     1      -6.059  28.251 -10.389  1.00  0.00     0.293 HD
ENDBRANCH   6  22
BRANCH   8  24
ATOM     24  O   UNL     1     -11.291  26.250  -9.074  1.00  0.00    -0.508 OA
ATOM     25  H   UNL     1     -11.694  26.242  -8.144  1.00  0.00     0.293 HD
ENDBRANCH   8  24
TORSDOF 5
ENDMDL
MODEL 8
REMARK VINA RESULT:    -4.763      2.639      6.633
REMARK INTER + INTRA:          -5.885
REMARK INTER:                  -5.671
REMARK INTRA:                  -0.214
REMARK UNBOUND:                -0.287
REMARK SMILES O=c1c(O)c(-c2ccc(O)cc2)oc2cc(O)cc(O)c12
REMARK SMILES IDX 5 1 3 2 2 3 1 4 21 5 19 6 18 7 16 8 15 9 14 10 13 11 6 12
REMARK SMILES IDX 7 13 8 14 9 15 12 16 11 17 10 18 4 20 20 22 17 24
REMARK H PARENT 10 19 4 21 20 23 17 25
REMARK Flexibility Score: inf
ROOT
ATOM      1  C   UNL     1      -5.876  21.979  -6.635  1.00  0.00     0.180 A 
ATOM      2  C   UNL     1      -6.838  21.778  -5.627  1.00  0.00     0.208 A 
ATOM      3  C   UNL     1      -8.194  21.716  -5.986  1.00  0.00     0.238 A 
ATOM      4  O   UNL     1      -9.064  21.525  -5.093  1.00  0.00    -0.285 OA
ATOM      5  C   UNL     1      -8.565  21.873  -7.337  1.00  0.00     0.111 A 
ATOM      6  C   UNL     1      -9.908  21.827  -7.782  1.00  0.00     0.134 A 
ATOM      7  C   UNL     1     -10.197  22.002  -9.143  1.00  0.00     0.093 A 
ATOM      8  C   UNL     1      -9.169  22.223 -10.067  1.00  0.00     0.123 A 
ATOM      9  C   UNL     1      -7.843  22.269  -9.633  1.00  0.00     0.094 A 
ATOM     10  C   UNL     1      -7.534  22.095  -8.281  1.00  0.00     0.146 A 
ATOM     11  O   UNL     1      -6.264  22.138  -7.897  1.00  0.00    -0.452 OA
ENDROOT
BRANCH   1  12
ATOM     12  C   UNL     1      -4.426  22.038  -6.339  1.00  0.00     0.021 A 
ATOM     13  C   UNL     1      -3.742  20.861  -5.994  1.00  0.00     0.016 A 
ATOM     14  C   UNL     1      -2.378  20.897  -5.689  1.00  0.00     0.047 A 
ATOM     15  C   UNL     1      -1.685  22.113  -5.709  1.00  0.00     0.115 A 
ATOM     16  C   UNL     1      -3.727  23.259  -6.339  1.00  0.00     0.016 A 
ATOM     17  C   UNL     1      -2.363  23.292  -6.032  1.00  0.00     0.047 A 
BRANCH  15  18
ATOM     18  O   UNL     1      -0.325  22.162  -5.408  1.00  0.00    -0.508 OA
ATOM     19  H   UNL     1       0.047  21.733  -4.568  1.00  0.00     0.293 HD
ENDBRANCH  15  18
ENDBRANCH   1  12
BRANCH   2  20
ATOM     20  O   UNL     1      -6.449  21.675  -4.289  1.00  0.00    -0.502 OA
ATOM     21  H   UNL     1      -6.761  20.921  -3.689  1.00  0.00     0.293 HD
ENDBRANCH   2  20
BRANCH   6  22
ATOM     22  O   UNL     1     -10.955  21.610  -6.884  1.00  0.00    -0.507 OA
ATOM     23  H   UNL     1     -11.305  22.348  -6.286  1.00  0.00     0.293 HD
ENDBRANCH   6  22
BRANCH   8  24
ATOM     24  O   UNL     1      -9.455  22.399 -11.419  1.00  0.00    -0.508 OA
ATOM     25  H   UNL     1     -10.409  22.418 -11.761  1.00  0.00     0.293 HD
ENDBRANCH   8  24
TORSDOF 5
ENDMDL
MODEL 9
REMARK VINA RESULT:    -4.748      2.663      6.464
REMARK INTER + INTRA:          -5.868
REMARK INTER:                  -5.667
REMARK INTRA:                  -0.200
REMARK UNBOUND:                -0.287
REMARK SMILES O=c1c(O)c(-c2ccc(O)cc2)oc2cc(O)cc(O)c12
REMARK SMILES IDX 5 1 3 2 2 3 1 4 21 5 19 6 18 7 16 8 15 9 14 10 13 11 6 12
REMARK SMILES IDX 7 13 8 14 9 15 12 16 11 17 10 18 4 20 20 22 17 24
REMARK H PARENT 10 19 4 21 20 23 17 25
REMARK Flexibility Score: inf
ROOT
ATOM      1  C   UNL     1      -4.988  22.084  -7.641  1.00  0.00     0.180 A 
ATOM      2  C   UNL     1      -4.955  22.325  -9.027  1.00  0.00     0.208 A 
ATOM      3  C   UNL     1      -6.164  22.352  -9.740  1.00  0.00     0.238 A 
ATOM      4  O   UNL     1      -6.147  22.578 -10.981  1.00  0.00    -0.285 OA
ATOM      5  C   UNL     1      -7.378  22.120  -9.063  1.00  0.00     0.111 A 
ATOM      6  C   UNL     1      -8.639  22.127  -9.707  1.00  0.00     0.134 A 
ATOM      7  C   UNL     1      -9.801  21.878  -8.963  1.00  0.00     0.093 A 
ATOM      8  C   UNL     1      -9.728  21.622  -7.590  1.00  0.00     0.123 A 
ATOM      9  C   UNL     1      -8.487  21.615  -6.950  1.00  0.00     0.094 A 
ATOM     10  C   UNL     1      -7.317  21.863  -7.672  1.00  0.00     0.146 A 
ATOM     11  O   UNL     1      -6.151  21.855  -7.037  1.00  0.00    -0.452 OA
ENDROOT
BRANCH   1  12
ATOM     12  C   UNL     1      -3.758  22.059  -6.816  1.00  0.00     0.021 A 
ATOM     13  C   UNL     1      -3.352  20.855  -6.217  1.00  0.00     0.016 A 
ATOM     14  C   UNL     1      -2.207  20.813  -5.417  1.00  0.00     0.047 A 
ATOM     15  C   UNL     1      -1.462  21.977  -5.193  1.00  0.00     0.115 A 
ATOM     16  C   UNL     1      -3.015  23.228  -6.571  1.00  0.00     0.016 A 
ATOM     17  C   UNL     1      -1.871  23.184  -5.769  1.00  0.00     0.047 A 
BRANCH  15  18
ATOM     18  O   UNL     1      -0.318  21.947  -4.398  1.00  0.00    -0.508 OA
ATOM     19  H   UNL     1      -0.064  21.123  -3.866  1.00  0.00     0.293 HD
ENDBRANCH  15  18
ENDBRANCH   1  12
BRANCH   2  20
ATOM     20  O   UNL     1      -3.734  22.503  -9.685  1.00  0.00    -0.502 OA
ATOM     21  H   UNL     1      -3.074  23.224  -9.420  1.00  0.00     0.293 HD
ENDBRANCH   2  20
BRANCH   6  22
ATOM     22  O   UNL     1      -8.744  22.377 -11.076  1.00  0.00    -0.507 OA
ATOM     23  H   UNL     1      -9.591  22.172 -11.592  1.00  0.00     0.293 HD
ENDBRANCH   6  22
BRANCH   8  24
ATOM     24  O   UNL     1     -10.882  21.373  -6.851  1.00  0.00    -0.508 OA
ATOM     25  H   UNL     1     -11.433  22.128  -6.458  1.00  0.00     0.293 HD
ENDBRANCH   8  24
TORSDOF 5
ENDMDL
