MODEL 1
REMARK VINA RESULT:    -5.743      0.000      0.000
REMARK INTER + INTRA:         -20.028
REMARK INTER:                 -14.471
REMARK INTRA:                  -5.556
REMARK UNBOUND:                -5.556
REMARK SMILES CCCCCCCCCCCCCCCCCCCCCCCCCCCC(=O)[O-]
REMARK SMILES IDX 15 1 16 2 17 3 18 4 19 5 20 6 21 7 22 8 23 9 24 10 25 11
REMARK SMILES IDX 26 12 27 13 28 14 29 15 30 16 14 17 13 18 12 19 11 20 10 21
REMARK SMILES IDX 9 22 8 23 7 24 6 25 5 26 4 27 3 28 2 29 1 30
REMARK H PARENT
REMARK Flexibility Score: inf
ROOT
ATOM      1  C   UNL     1      48.195  12.301  -4.746  1.00  0.00     0.000 C 
ENDROOT
BRANCH   1   2
ATOM      2  C   UNL     1      49.309  11.245  -4.720  1.00  0.00     0.000 C 
BRANCH   2   3
ATOM      3  C   UNL     1      50.375  11.466  -5.811  1.00  0.00     0.000 C 
BRANCH   3   4
ATOM      4  C   UNL     1      50.326  10.474  -6.990  1.00  0.00     0.000 C 
BRANCH   4   5
ATOM      5  C   UNL     1      49.468   9.233  -6.694  1.00  0.00     0.000 C 
BRANCH   5   6
ATOM      6  C   UNL     1      48.688   8.748  -7.929  1.00  0.00     0.000 C 
BRANCH   6   7
ATOM      7  C   UNL     1      47.603   7.690  -7.640  1.00  0.00     0.000 C 
BRANCH   7   8
ATOM      8  C   UNL     1      46.447   8.167  -6.736  1.00  0.00     0.000 C 
BRANCH   8   9
ATOM      9  C   UNL     1      46.346   7.448  -5.380  1.00  0.00     0.000 C 
BRANCH   9  10
ATOM     10  C   UNL     1      47.119   8.167  -4.264  1.00  0.00     0.000 C 
BRANCH  10  11
ATOM     11  C   UNL     1      46.171   8.625  -3.146  1.00  0.00     0.000 C 
BRANCH  11  12
ATOM     12  C   UNL     1      45.090   7.579  -2.816  1.00  0.00     0.006 C 
BRANCH  12  13
ATOM     13  C   UNL     1      45.550   6.479  -1.847  1.00  0.00     0.053 C 
BRANCH  13  14
ATOM     14  C   UNL     1      46.115   7.045  -0.581  1.00  0.00     0.041 C 
ATOM     15  O   UNL     1      47.232   6.650  -0.156  1.00  0.00    -0.550 OA
ATOM     16  O   UNL     1      45.391   7.979   0.148  1.00  0.00    -0.550 OA
ENDBRANCH  13  14
ENDBRANCH  12  13
ENDBRANCH  11  12
ENDBRANCH  10  11
ENDBRANCH   9  10
ENDBRANCH   8   9
ENDBRANCH   7   8
ENDBRANCH   6   7
ENDBRANCH   5   6
ENDBRANCH   4   5
ENDBRANCH   3   4
ENDBRANCH   2   3
ENDBRANCH   1   2
BRANCH   1  17
ATOM     17  C   UNL     1      46.898  11.732  -5.342  1.00  0.00     0.000 C 
BRANCH  17  18
ATOM     18  C   UNL     1      45.994  12.836  -5.933  1.00  0.00     0.000 C 
BRANCH  18  19
ATOM     19  C   UNL     1      46.300  13.170  -7.402  1.00  0.00     0.000 C 
BRANCH  19  20
ATOM     20  C   UNL     1      47.107  12.069  -8.114  1.00  0.00     0.000 C 
BRANCH  20  21
ATOM     21  C   UNL     1      46.972  12.120  -9.651  1.00  0.00     0.000 C 
BRANCH  21  22
ATOM     22  C   UNL     1      46.532  10.789 -10.292  1.00  0.00    -0.000 C 
BRANCH  22  23
ATOM     23  C   UNL     1      45.397  10.049  -9.564  1.00  0.00    -0.000 C 
BRANCH  23  24
ATOM     24  C   UNL     1      44.025  10.719  -9.754  1.00  0.00    -0.000 C 
BRANCH  24  25
ATOM     25  C   UNL     1      43.380  11.140  -8.421  1.00  0.00    -0.000 C 
BRANCH  25  26
ATOM     26  C   UNL     1      43.917  10.406  -7.174  1.00  0.00    -0.000 C 
BRANCH  26  27
ATOM     27  C   UNL     1      42.949   9.388  -6.536  1.00  0.00    -0.000 C 
BRANCH  27  28
ATOM     28  C   UNL     1      42.636   9.631  -5.049  1.00  0.00    -0.000 C 
BRANCH  28  29
ATOM     29  C   UNL     1      43.361  10.861  -4.485  1.00  0.00    -0.003 C 
ATOM     30  C   UNL     1      43.250  10.915  -2.963  1.00  0.00     0.004 C 
ENDBRANCH  28  29
ENDBRANCH  27  28
ENDBRANCH  26  27
ENDBRANCH  25  26
ENDBRANCH  24  25
ENDBRANCH  23  24
ENDBRANCH  22  23
ENDBRANCH  21  22
ENDBRANCH  20  21
ENDBRANCH  19  20
ENDBRANCH  18  19
ENDBRANCH  17  18
ENDBRANCH   1  17
TORSDOF 26
ENDMDL
MODEL 2
REMARK VINA RESULT:    -5.667      1.500      3.783
REMARK INTER + INTRA:         -19.838
REMARK INTER:                 -14.645
REMARK INTRA:                  -5.193
REMARK UNBOUND:                -5.556
REMARK SMILES CCCCCCCCCCCCCCCCCCCCCCCCCCCC(=O)[O-]
REMARK SMILES IDX 15 1 16 2 17 3 18 4 19 5 20 6 21 7 22 8 23 9 24 10 25 11
REMARK SMILES IDX 26 12 27 13 28 14 29 15 30 16 14 17 13 18 12 19 11 20 10 21
REMARK SMILES IDX 9 22 8 23 7 24 6 25 5 26 4 27 3 28 2 29 1 30
REMARK H PARENT
REMARK Flexibility Score: inf
ROOT
ATOM      1  C   UNL     1      47.319  11.926  -5.336  1.00  0.00     0.000 C 
ENDROOT
BRANCH   1   2
ATOM      2  C   UNL     1      46.506  10.635  -5.505  1.00  0.00     0.000 C 
BRANCH   2   3
ATOM      3  C   UNL     1      46.616   9.689  -4.292  1.00  0.00     0.000 C 
BRANCH   3   4
ATOM      4  C   UNL     1      47.099   8.261  -4.613  1.00  0.00     0.000 C 
BRANCH   4   5
ATOM      5  C   UNL     1      46.281   7.588  -5.727  1.00  0.00     0.000 C 
BRANCH   5   6
ATOM      6  C   UNL     1      45.889   6.141  -5.379  1.00  0.00     0.000 C 
BRANCH   6   7
ATOM      7  C   UNL     1      44.451   5.964  -4.850  1.00  0.00     0.000 C 
BRANCH   7   8
ATOM      8  C   UNL     1      43.531   7.188  -5.033  1.00  0.00     0.000 C 
BRANCH   8   9
ATOM      9  C   UNL     1      43.192   7.944  -3.737  1.00  0.00     0.000 C 
BRANCH   9  10
ATOM     10  C   UNL     1      44.046   7.493  -2.542  1.00  0.00     0.000 C 
BRANCH  10  11
ATOM     11  C   UNL     1      44.369   8.677  -1.619  1.00  0.00     0.000 C 
BRANCH  11  12
ATOM     12  C   UNL     1      45.276   8.283  -0.440  1.00  0.00     0.006 C 
BRANCH  12  13
ATOM     13  C   UNL     1      46.312   7.198  -0.774  1.00  0.00     0.053 C 
BRANCH  13  14
ATOM     14  C   UNL     1      47.012   6.694   0.451  1.00  0.00     0.041 C 
ATOM     15  O   UNL     1      47.709   5.648   0.394  1.00  0.00    -0.550 OA
ATOM     16  O   UNL     1      46.863   7.358   1.661  1.00  0.00    -0.550 OA
ENDBRANCH  13  14
ENDBRANCH  12  13
ENDBRANCH  11  12
ENDBRANCH  10  11
ENDBRANCH   9  10
ENDBRANCH   8   9
ENDBRANCH   7   8
ENDBRANCH   6   7
ENDBRANCH   5   6
ENDBRANCH   4   5
ENDBRANCH   3   4
ENDBRANCH   2   3
ENDBRANCH   1   2
BRANCH   1  17
ATOM     17  C   UNL     1      48.501  11.723  -4.376  1.00  0.00     0.000 C 
BRANCH  17  18
ATOM     18  C   UNL     1      49.837  11.537  -5.128  1.00  0.00     0.000 C 
BRANCH  18  19
ATOM     19  C   UNL     1      50.182  10.069  -5.428  1.00  0.00     0.000 C 
BRANCH  19  20
ATOM     20  C   UNL     1      50.390   9.794  -6.928  1.00  0.00     0.000 C 
BRANCH  20  21
ATOM     21  C   UNL     1      49.232   8.995  -7.562  1.00  0.00     0.000 C 
BRANCH  21  22
ATOM     22  C   UNL     1      48.313   9.829  -8.475  1.00  0.00    -0.000 C 
BRANCH  22  23
ATOM     23  C   UNL     1      48.761  11.281  -8.714  1.00  0.00    -0.000 C 
BRANCH  23  24
ATOM     24  C   UNL     1      48.232  11.863 -10.036  1.00  0.00    -0.000 C 
BRANCH  24  25
ATOM     25  C   UNL     1      46.696  11.946 -10.076  1.00  0.00    -0.000 C 
BRANCH  25  26
ATOM     26  C   UNL     1      46.050  12.705  -8.898  1.00  0.00    -0.000 C 
BRANCH  26  27
ATOM     27  C   UNL     1      44.780  12.056  -8.307  1.00  0.00    -0.000 C 
BRANCH  27  28
ATOM     28  C   UNL     1      44.161  10.939  -9.167  1.00  0.00    -0.000 C 
BRANCH  28  29
ATOM     29  C   UNL     1      44.504   9.535  -8.649  1.00  0.00    -0.003 C 
ATOM     30  C   UNL     1      45.187   8.702  -9.731  1.00  0.00     0.004 C 
ENDBRANCH  28  29
ENDBRANCH  27  28
ENDBRANCH  26  27
ENDBRANCH  25  26
ENDBRANCH  24  25
ENDBRANCH  23  24
ENDBRANCH  22  23
ENDBRANCH  21  22
ENDBRANCH  20  21
ENDBRANCH  19  20
ENDBRANCH  18  19
ENDBRANCH  17  18
ENDBRANCH   1  17
TORSDOF 26
ENDMDL
MODEL 3
REMARK VINA RESULT:    -5.658      2.152      5.445
REMARK INTER + INTRA:         -19.815
REMARK INTER:                 -14.819
REMARK INTRA:                  -4.997
REMARK UNBOUND:                -5.556
REMARK SMILES CCCCCCCCCCCCCCCCCCCCCCCCCCCC(=O)[O-]
REMARK SMILES IDX 15 1 16 2 17 3 18 4 19 5 20 6 21 7 22 8 23 9 24 10 25 11
REMARK SMILES IDX 26 12 27 13 28 14 29 15 30 16 14 17 13 18 12 19 11 20 10 21
REMARK SMILES IDX 9 22 8 23 7 24 6 25 5 26 4 27 3 28 2 29 1 30
REMARK H PARENT
REMARK Flexibility Score: inf
ROOT
ATOM      1  C   UNL     1      44.029  10.073  -8.780  1.00  0.00     0.000 C 
ENDROOT
BRANCH   1   2
ATOM      2  C   UNL     1      44.791   9.289  -9.858  1.00  0.00     0.000 C 
BRANCH   2   3
ATOM      3  C   UNL     1      46.000   8.512  -9.298  1.00  0.00     0.000 C 
BRANCH   3   4
ATOM      4  C   UNL     1      46.450   8.925  -7.884  1.00  0.00     0.000 C 
BRANCH   4   5
ATOM      5  C   UNL     1      46.547   7.735  -6.915  1.00  0.00     0.000 C 
BRANCH   5   6
ATOM      6  C   UNL     1      45.445   7.758  -5.841  1.00  0.00     0.000 C 
BRANCH   6   7
ATOM      7  C   UNL     1      45.284   6.447  -5.044  1.00  0.00     0.000 C 
BRANCH   7   8
ATOM      8  C   UNL     1      44.814   6.620  -3.585  1.00  0.00     0.000 C 
BRANCH   8   9
ATOM      9  C   UNL     1      45.854   7.245  -2.639  1.00  0.00     0.000 C 
BRANCH   9  10
ATOM     10  C   UNL     1      45.570   8.723  -2.333  1.00  0.00     0.000 C 
BRANCH  10  11
ATOM     11  C   UNL     1      44.062   9.010  -2.353  1.00  0.00     0.000 C 
BRANCH  11  12
ATOM     12  C   UNL     1      43.731  10.424  -2.865  1.00  0.00     0.006 C 
BRANCH  12  13
ATOM     13  C   UNL     1      42.290  10.591  -3.373  1.00  0.00     0.053 C 
BRANCH  13  14
ATOM     14  C   UNL     1      41.833   9.405  -4.165  1.00  0.00     0.041 C 
ATOM     15  O   UNL     1      42.274   9.214  -5.328  1.00  0.00    -0.550 OA
ATOM     16  O   UNL     1      40.892   8.533  -3.633  1.00  0.00    -0.550 OA
ENDBRANCH  13  14
ENDBRANCH  12  13
ENDBRANCH  11  12
ENDBRANCH  10  11
ENDBRANCH   9  10
ENDBRANCH   8   9
ENDBRANCH   7   8
ENDBRANCH   6   7
ENDBRANCH   5   6
ENDBRANCH   4   5
ENDBRANCH   3   4
ENDBRANCH   2   3
ENDBRANCH   1   2
BRANCH   1  17
ATOM     17  C   UNL     1      44.015  11.578  -9.086  1.00  0.00     0.000 C 
BRANCH  17  18
ATOM     18  C   UNL     1      45.406  12.100  -9.507  1.00  0.00     0.000 C 
BRANCH  18  19
ATOM     19  C   UNL     1      46.331  12.431  -8.325  1.00  0.00     0.000 C 
BRANCH  19  20
ATOM     20  C   UNL     1      45.767  13.534  -7.410  1.00  0.00     0.000 C 
BRANCH  20  21
ATOM     21  C   UNL     1      45.839  13.171  -5.912  1.00  0.00     0.000 C 
BRANCH  21  22
ATOM     22  C   UNL     1      45.750  11.660  -5.622  1.00  0.00    -0.000 C 
BRANCH  22  23
ATOM     23  C   UNL     1      46.958  11.057  -4.885  1.00  0.00    -0.000 C 
BRANCH  23  24
ATOM     24  C   UNL     1      48.140  12.035  -4.769  1.00  0.00    -0.000 C 
BRANCH  24  25
ATOM     25  C   UNL     1      49.498  11.317  -4.671  1.00  0.00    -0.000 C 
BRANCH  25  26
ATOM     26  C   UNL     1      49.564   9.943  -5.371  1.00  0.00    -0.000 C 
BRANCH  26  27
ATOM     27  C   UNL     1      50.292   9.927  -6.732  1.00  0.00    -0.000 C 
BRANCH  27  28
ATOM     28  C   UNL     1      49.524  10.593  -7.888  1.00  0.00    -0.000 C 
BRANCH  28  29
ATOM     29  C   UNL     1      50.028  12.010  -8.195  1.00  0.00    -0.003 C 
ATOM     30  C   UNL     1      49.849  12.349  -9.673  1.00  0.00     0.004 C 
ENDBRANCH  28  29
ENDBRANCH  27  28
ENDBRANCH  26  27
ENDBRANCH  25  26
ENDBRANCH  24  25
ENDBRANCH  23  24
ENDBRANCH  22  23
ENDBRANCH  21  22
ENDBRANCH  20  21
ENDBRANCH  19  20
ENDBRANCH  18  19
ENDBRANCH  17  18
ENDBRANCH   1  17
TORSDOF 26
ENDMDL
MODEL 4
REMARK VINA RESULT:    -5.649      3.092      5.966
REMARK INTER + INTRA:         -19.793
REMARK INTER:                 -14.192
REMARK INTRA:                  -5.601
REMARK UNBOUND:                -5.556
REMARK SMILES CCCCCCCCCCCCCCCCCCCCCCCCCCCC(=O)[O-]
REMARK SMILES IDX 15 1 16 2 17 3 18 4 19 5 20 6 21 7 22 8 23 9 24 10 25 11
REMARK SMILES IDX 26 12 27 13 28 14 29 15 30 16 14 17 13 18 12 19 11 20 10 21
REMARK SMILES IDX 9 22 8 23 7 24 6 25 5 26 4 27 3 28 2 29 1 30
REMARK H PARENT
REMARK Flexibility Score: inf
ROOT
ATOM      1  C   UNL     1      47.236   8.638  -4.533  1.00  0.00     0.000 C 
ENDROOT
BRANCH   1   2
ATOM      2  C   UNL     1      46.004   8.064  -5.246  1.00  0.00     0.000 C 
BRANCH   2   3
ATOM      3  C   UNL     1      45.411   6.834  -4.531  1.00  0.00     0.000 C 
BRANCH   3   4
ATOM      4  C   UNL     1      45.473   6.874  -2.992  1.00  0.00     0.000 C 
BRANCH   4   5
ATOM      5  C   UNL     1      44.229   7.517  -2.358  1.00  0.00     0.000 C 
BRANCH   5   6
ATOM      6  C   UNL     1      44.517   8.915  -1.782  1.00  0.00     0.000 C 
BRANCH   6   7
ATOM      7  C   UNL     1      43.886  10.086  -2.563  1.00  0.00     0.000 C 
BRANCH   7   8
ATOM      8  C   UNL     1      42.687   9.707  -3.456  1.00  0.00     0.000 C 
BRANCH   8   9
ATOM      9  C   UNL     1      42.863  10.031  -4.950  1.00  0.00     0.000 C 
BRANCH   9  10
ATOM     10  C   UNL     1      42.118   9.048  -5.866  1.00  0.00     0.000 C 
BRANCH  10  11
ATOM     11  C   UNL     1      41.846   7.721  -5.143  1.00  0.00     0.000 C 
BRANCH  11  12
ATOM     12  C   UNL     1      40.353   7.346  -5.129  1.00  0.00     0.006 C 
BRANCH  12  13
ATOM     13  C   UNL     1      39.398   8.549  -5.170  1.00  0.00     0.053 C 
BRANCH  13  14
ATOM     14  C   UNL     1      38.303   8.362  -6.174  1.00  0.00     0.041 C 
ATOM     15  O   UNL     1      37.983   9.306  -6.943  1.00  0.00    -0.550 OA
ATOM     16  O   UNL     1      37.611   7.160  -6.234  1.00  0.00    -0.550 OA
ENDBRANCH  13  14
ENDBRANCH  12  13
ENDBRANCH  11  12
ENDBRANCH  10  11
ENDBRANCH   9  10
ENDBRANCH   8   9
ENDBRANCH   7   8
ENDBRANCH   6   7
ENDBRANCH   5   6
ENDBRANCH   4   5
ENDBRANCH   3   4
ENDBRANCH   2   3
ENDBRANCH   1   2
BRANCH   1  17
ATOM     17  C   UNL     1      47.101  10.153  -4.313  1.00  0.00     0.000 C 
BRANCH  17  18
ATOM     18  C   UNL     1      46.376  10.850  -5.484  1.00  0.00     0.000 C 
BRANCH  18  19
ATOM     19  C   UNL     1      46.494  12.383  -5.465  1.00  0.00     0.000 C 
BRANCH  19  20
ATOM     20  C   UNL     1      45.951  13.045  -6.744  1.00  0.00     0.000 C 
BRANCH  20  21
ATOM     21  C   UNL     1      45.285  12.040  -7.708  1.00  0.00     0.000 C 
BRANCH  21  22
ATOM     22  C   UNL     1      45.745  12.169  -9.173  1.00  0.00    -0.000 C 
BRANCH  22  23
ATOM     23  C   UNL     1      45.882  10.844  -9.942  1.00  0.00    -0.000 C 
BRANCH  23  24
ATOM     24  C   UNL     1      45.426   9.625  -9.123  1.00  0.00    -0.000 C 
BRANCH  24  25
ATOM     25  C   UNL     1      46.593   8.697  -8.739  1.00  0.00    -0.000 C 
BRANCH  25  26
ATOM     26  C   UNL     1      47.979   9.374  -8.693  1.00  0.00    -0.000 C 
BRANCH  26  27
ATOM     27  C   UNL     1      48.943   8.839  -7.612  1.00  0.00    -0.000 C 
BRANCH  27  28
ATOM     28  C   UNL     1      50.119   9.772  -7.270  1.00  0.00    -0.000 C 
BRANCH  28  29
ATOM     29  C   UNL     1      49.666  11.206  -6.961  1.00  0.00    -0.003 C 
ATOM     30  C   UNL     1      50.225  11.682  -5.622  1.00  0.00     0.004 C 
ENDBRANCH  28  29
ENDBRANCH  27  28
ENDBRANCH  26  27
ENDBRANCH  25  26
ENDBRANCH  24  25
ENDBRANCH  23  24
ENDBRANCH  22  23
ENDBRANCH  21  22
ENDBRANCH  20  21
ENDBRANCH  19  20
ENDBRANCH  18  19
ENDBRANCH  17  18
ENDBRANCH   1  17
TORSDOF 26
ENDMDL
MODEL 5
REMARK VINA RESULT:    -5.621     11.867     16.768
REMARK INTER + INTRA:         -19.720
REMARK INTER:                 -14.727
REMARK INTRA:                  -4.993
REMARK UNBOUND:                -5.556
REMARK SMILES CCCCCCCCCCCCCCCCCCCCCCCCCCCC(=O)[O-]
REMARK SMILES IDX 15 1 16 2 17 3 18 4 19 5 20 6 21 7 22 8 23 9 24 10 25 11
REMARK SMILES IDX 26 12 27 13 28 14 29 15 30 16 14 17 13 18 12 19 11 20 10 21
REMARK SMILES IDX 9 22 8 23 7 24 6 25 5 26 4 27 3 28 2 29 1 30
REMARK H PARENT
REMARK Flexibility Score: inf
ROOT
ATOM      1  C   UNL     1      34.383   0.666   3.015  1.00  0.00     0.000 C 
ENDROOT
BRANCH   1   2
ATOM      2  C   UNL     1      34.298   1.824   4.020  1.00  0.00     0.000 C 
BRANCH   2   3
ATOM      3  C   UNL     1      34.898   3.137   3.480  1.00  0.00     0.000 C 
BRANCH   3   4
ATOM      4  C   UNL     1      36.346   3.037   2.965  1.00  0.00     0.000 C 
BRANCH   4   5
ATOM      5  C   UNL     1      36.754   4.232   2.087  1.00  0.00     0.000 C 
BRANCH   5   6
ATOM      6  C   UNL     1      36.581   5.580   2.808  1.00  0.00     0.000 C 
BRANCH   6   7
ATOM      7  C   UNL     1      37.881   6.387   3.004  1.00  0.00     0.000 C 
BRANCH   7   8
ATOM      8  C   UNL     1      39.151   5.733   2.424  1.00  0.00     0.000 C 
BRANCH   8   9
ATOM      9  C   UNL     1      40.168   5.249   3.472  1.00  0.00     0.000 C 
BRANCH   9  10
ATOM     10  C   UNL     1      40.007   3.761   3.817  1.00  0.00     0.000 C 
BRANCH  10  11
ATOM     11  C   UNL     1      41.284   2.977   3.481  1.00  0.00     0.000 C 
BRANCH  11  12
ATOM     12  C   UNL     1      41.411   2.662   1.979  1.00  0.00     0.006 C 
BRANCH  12  13
ATOM     13  C   UNL     1      40.085   2.297   1.295  1.00  0.00     0.053 C 
BRANCH  13  14
ATOM     14  C   UNL     1      40.275   1.954  -0.151  1.00  0.00     0.041 C 
ATOM     15  O   UNL     1      41.306   1.335  -0.523  1.00  0.00    -0.550 OA
ATOM     16  O   UNL     1      39.332   2.351  -1.090  1.00  0.00    -0.550 OA
ENDBRANCH  13  14
ENDBRANCH  12  13
ENDBRANCH  11  12
ENDBRANCH  10  11
ENDBRANCH   9  10
ENDBRANCH   8   9
ENDBRANCH   7   8
ENDBRANCH   6   7
ENDBRANCH   5   6
ENDBRANCH   4   5
ENDBRANCH   3   4
ENDBRANCH   2   3
ENDBRANCH   1   2
BRANCH   1  17
ATOM     17  C   UNL     1      34.611  -0.677   3.726  1.00  0.00     0.000 C 
BRANCH  17  18
ATOM     18  C   UNL     1      36.111  -0.989   3.916  1.00  0.00     0.000 C 
BRANCH  18  19
ATOM     19  C   UNL     1      36.621  -0.746   5.346  1.00  0.00     0.000 C 
BRANCH  19  20
ATOM     20  C   UNL     1      37.414   0.565   5.488  1.00  0.00     0.000 C 
BRANCH  20  21
ATOM     21  C   UNL     1      37.092   1.327   6.791  1.00  0.00     0.000 C 
BRANCH  21  22
ATOM     22  C   UNL     1      37.888   2.634   6.974  1.00  0.00    -0.000 C 
BRANCH  22  23
ATOM     23  C   UNL     1      37.182   3.911   6.487  1.00  0.00    -0.000 C 
BRANCH  23  24
ATOM     24  C   UNL     1      36.787   4.854   7.636  1.00  0.00    -0.000 C 
BRANCH  24  25
ATOM     25  C   UNL     1      35.369   4.579   8.169  1.00  0.00    -0.000 C 
BRANCH  25  26
ATOM     26  C   UNL     1      34.331   4.191   7.096  1.00  0.00    -0.000 C 
BRANCH  26  27
ATOM     27  C   UNL     1      33.494   2.932   7.409  1.00  0.00    -0.000 C 
BRANCH  27  28
ATOM     28  C   UNL     1      34.036   2.059   8.555  1.00  0.00    -0.000 C 
BRANCH  28  29
ATOM     29  C   UNL     1      33.444   0.642   8.550  1.00  0.00    -0.003 C 
ATOM     30  C   UNL     1      33.448   0.051   7.142  1.00  0.00     0.004 C 
ENDBRANCH  28  29
ENDBRANCH  27  28
ENDBRANCH  26  27
ENDBRANCH  25  26
ENDBRANCH  24  25
ENDBRANCH  23  24
ENDBRANCH  22  23
ENDBRANCH  21  22
ENDBRANCH  20  21
ENDBRANCH  19  20
ENDBRANCH  18  19
ENDBRANCH  17  18
ENDBRANCH   1  17
TORSDOF 26
ENDMDL
MODEL 6
REMARK VINA RESULT:    -5.617     11.604     16.386
REMARK INTER + INTRA:         -19.712
REMARK INTER:                 -13.939
REMARK INTRA:                  -5.773
REMARK UNBOUND:                -5.556
REMARK SMILES CCCCCCCCCCCCCCCCCCCCCCCCCCCC(=O)[O-]
REMARK SMILES IDX 15 1 16 2 17 3 18 4 19 5 20 6 21 7 22 8 23 9 24 10 25 11
REMARK SMILES IDX 26 12 27 13 28 14 29 15 30 16 14 17 13 18 12 19 11 20 10 21
REMARK SMILES IDX 9 22 8 23 7 24 6 25 5 26 4 27 3 28 2 29 1 30
REMARK H PARENT
REMARK Flexibility Score: inf
ROOT
ATOM      1  C   UNL     1      33.904   2.980   3.337  1.00  0.00     0.000 C 
ENDROOT
BRANCH   1   2
ATOM      2  C   UNL     1      35.432   2.985   3.496  1.00  0.00     0.000 C 
BRANCH   2   3
ATOM      3  C   UNL     1      36.097   4.242   2.902  1.00  0.00     0.000 C 
BRANCH   3   4
ATOM      4  C   UNL     1      36.224   5.437   3.866  1.00  0.00     0.000 C 
BRANCH   4   5
ATOM      5  C   UNL     1      37.681   5.877   4.085  1.00  0.00     0.000 C 
BRANCH   5   6
ATOM      6  C   UNL     1      38.456   6.032   2.764  1.00  0.00     0.000 C 
BRANCH   6   7
ATOM      7  C   UNL     1      39.869   5.413   2.761  1.00  0.00     0.000 C 
BRANCH   7   8
ATOM      8  C   UNL     1      40.107   4.318   3.820  1.00  0.00     0.000 C 
BRANCH   8   9
ATOM      9  C   UNL     1      40.322   2.904   3.253  1.00  0.00     0.000 C 
BRANCH   9  10
ATOM     10  C   UNL     1      39.014   2.109   3.121  1.00  0.00     0.000 C 
BRANCH  10  11
ATOM     11  C   UNL     1      38.817   1.610   1.682  1.00  0.00     0.000 C 
BRANCH  11  12
ATOM     12  C   UNL     1      38.845   2.751   0.648  1.00  0.00     0.006 C 
BRANCH  12  13
ATOM     13  C   UNL     1      39.659   2.438  -0.617  1.00  0.00     0.053 C 
BRANCH  13  14
ATOM     14  C   UNL     1      40.859   1.594  -0.317  1.00  0.00     0.041 C 
ATOM     15  O   UNL     1      40.869   0.375  -0.633  1.00  0.00    -0.550 OA
ATOM     16  O   UNL     1      41.950   2.143   0.343  1.00  0.00    -0.550 OA
ENDBRANCH  13  14
ENDBRANCH  12  13
ENDBRANCH  11  12
ENDBRANCH  10  11
ENDBRANCH   9  10
ENDBRANCH   8   9
ENDBRANCH   7   8
ENDBRANCH   6   7
ENDBRANCH   5   6
ENDBRANCH   4   5
ENDBRANCH   3   4
ENDBRANCH   2   3
ENDBRANCH   1   2
BRANCH   1  17
ATOM     17  C   UNL     1      33.202   3.332   4.658  1.00  0.00     0.000 C 
BRANCH  17  18
ATOM     18  C   UNL     1      33.576   2.355   5.795  1.00  0.00     0.000 C 
BRANCH  18  19
ATOM     19  C   UNL     1      33.925   3.050   7.121  1.00  0.00     0.000 C 
BRANCH  19  20
ATOM     20  C   UNL     1      33.873   4.585   7.029  1.00  0.00     0.000 C 
BRANCH  20  21
ATOM     21  C   UNL     1      35.151   5.265   7.565  1.00  0.00     0.000 C 
BRANCH  21  22
ATOM     22  C   UNL     1      36.215   4.284   8.096  1.00  0.00    -0.000 C 
BRANCH  22  23
ATOM     23  C   UNL     1      37.484   4.157   7.236  1.00  0.00    -0.000 C 
BRANCH  23  24
ATOM     24  C   UNL     1      37.515   2.867   6.399  1.00  0.00    -0.000 C 
BRANCH  24  25
ATOM     25  C   UNL     1      38.537   1.842   6.922  1.00  0.00    -0.000 C 
BRANCH  25  26
ATOM     26  C   UNL     1      38.003   0.402   7.071  1.00  0.00    -0.000 C 
BRANCH  26  27
ATOM     27  C   UNL     1      36.588   0.159   6.503  1.00  0.00    -0.000 C 
BRANCH  27  28
ATOM     28  C   UNL     1      36.550  -0.384   5.063  1.00  0.00    -0.000 C 
BRANCH  28  29
ATOM     29  C   UNL     1      35.123  -0.689   4.584  1.00  0.00    -0.003 C 
ATOM     30  C   UNL     1      35.011  -0.550   3.068  1.00  0.00     0.004 C 
ENDBRANCH  28  29
ENDBRANCH  27  28
ENDBRANCH  26  27
ENDBRANCH  25  26
ENDBRANCH  24  25
ENDBRANCH  23  24
ENDBRANCH  22  23
ENDBRANCH  21  22
ENDBRANCH  20  21
ENDBRANCH  19  20
ENDBRANCH  18  19
ENDBRANCH  17  18
ENDBRANCH   1  17
TORSDOF 26
ENDMDL
MODEL 7
REMARK VINA RESULT:    -5.585     12.071     17.112
REMARK INTER + INTRA:         -19.631
REMARK INTER:                 -14.283
REMARK INTRA:                  -5.348
REMARK UNBOUND:                -5.556
REMARK SMILES CCCCCCCCCCCCCCCCCCCCCCCCCCCC(=O)[O-]
REMARK SMILES IDX 15 1 16 2 17 3 18 4 19 5 20 6 21 7 22 8 23 9 24 10 25 11
REMARK SMILES IDX 26 12 27 13 28 14 29 15 30 16 14 17 13 18 12 19 11 20 10 21
REMARK SMILES IDX 9 22 8 23 7 24 6 25 5 26 4 27 3 28 2 29 1 30
REMARK H PARENT
REMARK Flexibility Score: inf
ROOT
ATOM      1  C   UNL     1      35.868   0.089   3.277  1.00  0.00     0.000 C 
ENDROOT
BRANCH   1   2
ATOM      2  C   UNL     1      34.481   0.701   3.032  1.00  0.00     0.000 C 
BRANCH   2   3
ATOM      3  C   UNL     1      34.377   2.167   3.496  1.00  0.00     0.000 C 
BRANCH   3   4
ATOM      4  C   UNL     1      35.679   2.984   3.394  1.00  0.00     0.000 C 
BRANCH   4   5
ATOM      5  C   UNL     1      35.435   4.459   3.036  1.00  0.00     0.000 C 
BRANCH   5   6
ATOM      6  C   UNL     1      36.130   4.871   1.727  1.00  0.00     0.000 C 
BRANCH   6   7
ATOM      7  C   UNL     1      37.174   5.998   1.869  1.00  0.00     0.000 C 
BRANCH   7   8
ATOM      8  C   UNL     1      37.580   6.335   3.318  1.00  0.00     0.000 C 
BRANCH   8   9
ATOM      9  C   UNL     1      39.094   6.488   3.548  1.00  0.00     0.000 C 
BRANCH   9  10
ATOM     10  C   UNL     1      39.918   5.403   2.838  1.00  0.00     0.000 C 
BRANCH  10  11
ATOM     11  C   UNL     1      39.890   4.087   3.627  1.00  0.00     0.000 C 
BRANCH  11  12
ATOM     12  C   UNL     1      39.424   2.891   2.776  1.00  0.00     0.006 C 
BRANCH  12  13
ATOM     13  C   UNL     1      39.645   3.066   1.266  1.00  0.00     0.053 C 
BRANCH  13  14
ATOM     14  C   UNL     1      40.822   2.280   0.776  1.00  0.00     0.041 C 
ATOM     15  O   UNL     1      41.939   2.393   1.346  1.00  0.00    -0.550 OA
ATOM     16  O   UNL     1      40.694   1.452  -0.332  1.00  0.00    -0.550 OA
ENDBRANCH  13  14
ENDBRANCH  12  13
ENDBRANCH  11  12
ENDBRANCH  10  11
ENDBRANCH   9  10
ENDBRANCH   8   9
ENDBRANCH   7   8
ENDBRANCH   6   7
ENDBRANCH   5   6
ENDBRANCH   4   5
ENDBRANCH   3   4
ENDBRANCH   2   3
ENDBRANCH   1   2
BRANCH   1  17
ATOM     17  C   UNL     1      35.800  -1.069   4.284  1.00  0.00     0.000 C 
BRANCH  17  18
ATOM     18  C   UNL     1      34.444  -1.121   5.021  1.00  0.00     0.000 C 
BRANCH  18  19
ATOM     19  C   UNL     1      34.515  -0.662   6.487  1.00  0.00     0.000 C 
BRANCH  19  20
ATOM     20  C   UNL     1      33.438   0.378   6.846  1.00  0.00     0.000 C 
BRANCH  20  21
ATOM     21  C   UNL     1      33.570   0.910   8.288  1.00  0.00     0.000 C 
BRANCH  21  22
ATOM     22  C   UNL     1      33.866   2.420   8.381  1.00  0.00    -0.000 C 
BRANCH  22  23
ATOM     23  C   UNL     1      33.741   3.199   7.060  1.00  0.00    -0.000 C 
BRANCH  23  24
ATOM     24  C   UNL     1      34.403   4.587   7.118  1.00  0.00    -0.000 C 
BRANCH  24  25
ATOM     25  C   UNL     1      35.348   4.745   8.322  1.00  0.00    -0.000 C 
BRANCH  25  26
ATOM     26  C   UNL     1      36.848   4.567   8.005  1.00  0.00    -0.000 C 
BRANCH  26  27
ATOM     27  C   UNL     1      37.180   4.249   6.532  1.00  0.00    -0.000 C 
BRANCH  27  28
ATOM     28  C   UNL     1      37.840   2.879   6.294  1.00  0.00    -0.000 C 
BRANCH  28  29
ATOM     29  C   UNL     1      37.167   1.753   7.091  1.00  0.00    -0.003 C 
ATOM     30  C   UNL     1      37.958   0.451   6.979  1.00  0.00     0.004 C 
ENDBRANCH  28  29
ENDBRANCH  27  28
ENDBRANCH  26  27
ENDBRANCH  25  26
ENDBRANCH  24  25
ENDBRANCH  23  24
ENDBRANCH  22  23
ENDBRANCH  21  22
ENDBRANCH  20  21
ENDBRANCH  19  20
ENDBRANCH  18  19
ENDBRANCH  17  18
ENDBRANCH   1  17
TORSDOF 26
ENDMDL
MODEL 8
REMARK VINA RESULT:    -5.575      1.378      4.845
REMARK INTER + INTRA:         -19.606
REMARK INTER:                 -13.821
REMARK INTRA:                  -5.784
REMARK UNBOUND:                -5.556
REMARK SMILES CCCCCCCCCCCCCCCCCCCCCCCCCCCC(=O)[O-]
REMARK SMILES IDX 15 1 16 2 17 3 18 4 19 5 20 6 21 7 22 8 23 9 24 10 25 11
REMARK SMILES IDX 26 12 27 13 28 14 29 15 30 16 14 17 13 18 12 19 11 20 10 21
REMARK SMILES IDX 9 22 8 23 7 24 6 25 5 26 4 27 3 28 2 29 1 30
REMARK H PARENT
REMARK Flexibility Score: inf
ROOT
ATOM      1  C   UNL     1      45.906  13.095  -7.942  1.00  0.00     0.000 C 
ENDROOT
BRANCH   1   2
ATOM      2  C   UNL     1      46.603  12.139  -6.964  1.00  0.00     0.000 C 
BRANCH   2   3
ATOM      3  C   UNL     1      46.245  12.415  -5.490  1.00  0.00     0.000 C 
BRANCH   3   4
ATOM      4  C   UNL     1      45.457  11.296  -4.783  1.00  0.00     0.000 C 
BRANCH   4   5
ATOM      5  C   UNL     1      44.947  10.217  -5.753  1.00  0.00     0.000 C 
BRANCH   5   6
ATOM      6  C   UNL     1      43.410  10.143  -5.797  1.00  0.00     0.000 C 
BRANCH   6   7
ATOM      7  C   UNL     1      42.835   8.754  -6.144  1.00  0.00     0.000 C 
BRANCH   7   8
ATOM      8  C   UNL     1      42.580   7.830  -4.937  1.00  0.00     0.000 C 
BRANCH   8   9
ATOM      9  C   UNL     1      43.353   6.500  -4.963  1.00  0.00     0.000 C 
BRANCH   9  10
ATOM     10  C   UNL     1      44.858   6.689  -5.202  1.00  0.00     0.000 C 
BRANCH  10  11
ATOM     11  C   UNL     1      45.661   6.371  -3.932  1.00  0.00     0.000 C 
BRANCH  11  12
ATOM     12  C   UNL     1      45.870   7.604  -3.035  1.00  0.00     0.006 C 
BRANCH  12  13
ATOM     13  C   UNL     1      45.029   7.601  -1.749  1.00  0.00     0.053 C 
BRANCH  13  14
ATOM     14  C   UNL     1      45.851   7.271  -0.542  1.00  0.00     0.041 C 
ATOM     15  O   UNL     1      45.853   8.044   0.452  1.00  0.00    -0.550 OA
ATOM     16  O   UNL     1      46.644   6.131  -0.529  1.00  0.00    -0.550 OA
ENDBRANCH  13  14
ENDBRANCH  12  13
ENDBRANCH  11  12
ENDBRANCH  10  11
ENDBRANCH   9  10
ENDBRANCH   8   9
ENDBRANCH   7   8
ENDBRANCH   6   7
ENDBRANCH   5   6
ENDBRANCH   4   5
ENDBRANCH   3   4
ENDBRANCH   2   3
ENDBRANCH   1   2
BRANCH   1  17
ATOM     17  C   UNL     1      45.500  12.374  -9.237  1.00  0.00     0.000 C 
BRANCH  17  18
ATOM     18  C   UNL     1      44.134  11.667  -9.107  1.00  0.00     0.000 C 
BRANCH  18  19
ATOM     19  C   UNL     1      44.133  10.218  -9.621  1.00  0.00     0.000 C 
BRANCH  19  20
ATOM     20  C   UNL     1      45.542   9.697  -9.957  1.00  0.00     0.000 C 
BRANCH  20  21
ATOM     21  C   UNL     1      46.070   8.676  -8.926  1.00  0.00     0.000 C 
BRANCH  21  22
ATOM     22  C   UNL     1      47.473   9.000  -8.376  1.00  0.00    -0.000 C 
BRANCH  22  23
ATOM     23  C   UNL     1      47.962   8.089  -7.238  1.00  0.00    -0.000 C 
BRANCH  23  24
ATOM     24  C   UNL     1      48.090   8.824  -5.893  1.00  0.00    -0.000 C 
BRANCH  24  25
ATOM     25  C   UNL     1      49.529   9.288  -5.603  1.00  0.00    -0.000 C 
BRANCH  25  26
ATOM     26  C   UNL     1      49.653  10.717  -5.032  1.00  0.00    -0.000 C 
BRANCH  26  27
ATOM     27  C   UNL     1      50.196  11.777  -6.014  1.00  0.00    -0.000 C 
BRANCH  27  28
ATOM     28  C   UNL     1      50.245  11.335  -7.488  1.00  0.00    -0.000 C 
BRANCH  28  29
ATOM     29  C   UNL     1      49.983  12.493  -8.461  1.00  0.00    -0.003 C 
ATOM     30  C   UNL     1      49.221  12.012  -9.694  1.00  0.00     0.004 C 
ENDBRANCH  28  29
ENDBRANCH  27  28
ENDBRANCH  26  27
ENDBRANCH  25  26
ENDBRANCH  24  25
ENDBRANCH  23  24
ENDBRANCH  22  23
ENDBRANCH  21  22
ENDBRANCH  20  21
ENDBRANCH  19  20
ENDBRANCH  18  19
ENDBRANCH  17  18
ENDBRANCH   1  17
TORSDOF 26
ENDMDL
MODEL 9
REMARK VINA RESULT:    -5.532      1.322      4.408
REMARK INTER + INTRA:         -19.496
REMARK INTER:                 -13.940
REMARK INTRA:                  -5.556
REMARK UNBOUND:                -5.556
REMARK SMILES CCCCCCCCCCCCCCCCCCCCCCCCCCCC(=O)[O-]
REMARK SMILES IDX 15 1 16 2 17 3 18 4 19 5 20 6 21 7 22 8 23 9 24 10 25 11
REMARK SMILES IDX 26 12 27 13 28 14 29 15 30 16 14 17 13 18 12 19 11 20 10 21
REMARK SMILES IDX 9 22 8 23 7 24 6 25 5 26 4 27 3 28 2 29 1 30
REMARK H PARENT
REMARK Flexibility Score: inf
ROOT
ATOM      1  C   UNL     1      48.589  11.178  -4.360  1.00  0.00     0.000 C 
ENDROOT
BRANCH   1   2
ATOM      2  C   UNL     1      47.903  12.382  -5.022  1.00  0.00     0.000 C 
BRANCH   2   3
ATOM      3  C   UNL     1      46.598  12.007  -5.752  1.00  0.00     0.000 C 
BRANCH   3   4
ATOM      4  C   UNL     1      45.808  10.840  -5.130  1.00  0.00     0.000 C 
BRANCH   4   5
ATOM      5  C   UNL     1      44.404  11.250  -4.657  1.00  0.00     0.000 C 
BRANCH   5   6
ATOM      6  C   UNL     1      43.339  10.185  -4.973  1.00  0.00     0.000 C 
BRANCH   6   7
ATOM      7  C   UNL     1      42.575   9.643  -3.748  1.00  0.00     0.000 C 
BRANCH   7   8
ATOM      8  C   UNL     1      42.473   8.106  -3.666  1.00  0.00     0.000 C 
BRANCH   8   9
ATOM      9  C   UNL     1      43.315   7.345  -4.705  1.00  0.00     0.000 C 
BRANCH   9  10
ATOM     10  C   UNL     1      44.527   6.632  -4.085  1.00  0.00     0.000 C 
BRANCH  10  11
ATOM     11  C   UNL     1      45.832   7.357  -4.442  1.00  0.00     0.000 C 
BRANCH  11  12
ATOM     12  C   UNL     1      46.616   7.817  -3.199  1.00  0.00     0.006 C 
BRANCH  12  13
ATOM     13  C   UNL     1      45.760   8.523  -2.136  1.00  0.00     0.053 C 
BRANCH  13  14
ATOM     14  C   UNL     1      45.718   7.758  -0.850  1.00  0.00     0.041 C 
ATOM     15  O   UNL     1      45.253   8.294   0.190  1.00  0.00    -0.550 OA
ATOM     16  O   UNL     1      46.226   6.467  -0.790  1.00  0.00    -0.550 OA
ENDBRANCH  13  14
ENDBRANCH  12  13
ENDBRANCH  11  12
ENDBRANCH  10  11
ENDBRANCH   9  10
ENDBRANCH   8   9
ENDBRANCH   7   8
ENDBRANCH   6   7
ENDBRANCH   5   6
ENDBRANCH   4   5
ENDBRANCH   3   4
ENDBRANCH   2   3
ENDBRANCH   1   2
BRANCH   1  17
ATOM     17  C   UNL     1      50.002  10.960  -4.923  1.00  0.00     0.000 C 
BRANCH  17  18
ATOM     18  C   UNL     1      50.192   9.534  -5.485  1.00  0.00     0.000 C 
BRANCH  18  19
ATOM     19  C   UNL     1      48.916   8.931  -6.096  1.00  0.00     0.000 C 
BRANCH  19  20
ATOM     20  C   UNL     1      49.148   8.315  -7.487  1.00  0.00     0.000 C 
BRANCH  20  21
ATOM     21  C   UNL     1      48.090   8.748  -8.524  1.00  0.00     0.000 C 
BRANCH  21  22
ATOM     22  C   UNL     1      46.634   8.620  -8.033  1.00  0.00    -0.000 C 
BRANCH  22  23
ATOM     23  C   UNL     1      45.554   8.941  -9.080  1.00  0.00    -0.000 C 
BRANCH  23  24
ATOM     24  C   UNL     1      44.382   9.754  -8.503  1.00  0.00    -0.000 C 
BRANCH  24  25
ATOM     25  C   UNL     1      44.523  11.265  -8.760  1.00  0.00    -0.000 C 
BRANCH  25  26
ATOM     26  C   UNL     1      45.483  11.646  -9.907  1.00  0.00    -0.000 C 
BRANCH  26  27
ATOM     27  C   UNL     1      46.872  12.156  -9.467  1.00  0.00    -0.000 C 
BRANCH  27  28
ATOM     28  C   UNL     1      48.040  11.727 -10.374  1.00  0.00    -0.000 C 
BRANCH  28  29
ATOM     29  C   UNL     1      49.391  12.276  -9.898  1.00  0.00    -0.003 C 
ATOM     30  C   UNL     1      49.507  12.208  -8.377  1.00  0.00     0.004 C 
ENDBRANCH  28  29
ENDBRANCH  27  28
ENDBRANCH  26  27
ENDBRANCH  25  26
ENDBRANCH  24  25
ENDBRANCH  23  24
ENDBRANCH  22  23
ENDBRANCH  21  22
ENDBRANCH  20  21
ENDBRANCH  19  20
ENDBRANCH  18  19
ENDBRANCH  17  18
ENDBRANCH   1  17
TORSDOF 26
ENDMDL
