MODEL 1
REMARK VINA RESULT:    -4.576      0.000      0.000
REMARK INTER + INTRA:         -17.103
REMARK INTER:                 -12.066
REMARK INTRA:                  -5.037
REMARK UNBOUND:                -5.037
REMARK SMILES CCCCCCCCCCCCCCCCCCCCCCCCCCCCCC(=O)[O-]
REMARK SMILES IDX 16 1 17 2 18 3 19 4 20 5 21 6 22 7 23 8 24 9 25 10 26 11
REMARK SMILES IDX 27 12 28 13 29 14 30 15 31 16 32 17 15 18 14 19 13 20 12 21
REMARK SMILES IDX 11 22 10 23 9 24 8 25 7 26 6 27 5 28 4 29 3 30 2 31 1 32
REMARK H PARENT
REMARK Flexibility Score: inf
ROOT
ATOM      1  C   UNL     1      49.300  -1.441  74.956  1.00  0.00     0.000 C 
ENDROOT
BRANCH   1   2
ATOM      2  C   UNL     1      48.868  -0.195  74.164  1.00  0.00     0.000 C 
BRANCH   2   3
ATOM      3  C   UNL     1      48.783  -0.454  72.643  1.00  0.00     0.000 C 
BRANCH   3   4
ATOM      4  C   UNL     1      50.115  -0.903  72.015  1.00  0.00     0.000 C 
BRANCH   4   5
ATOM      5  C   UNL     1      51.337  -0.055  72.411  1.00  0.00     0.000 C 
BRANCH   5   6
ATOM      6  C   UNL     1      52.689  -0.798  72.387  1.00  0.00     0.000 C 
BRANCH   6   7
ATOM      7  C   UNL     1      52.653  -2.235  72.935  1.00  0.00     0.000 C 
BRANCH   7   8
ATOM      8  C   UNL     1      52.950  -2.310  74.439  1.00  0.00     0.000 C 
BRANCH   8   9
ATOM      9  C   UNL     1      52.163  -3.454  75.096  1.00  0.00     0.000 C 
BRANCH   9  10
ATOM     10  C   UNL     1      51.762  -4.549  74.094  1.00  0.00     0.000 C 
BRANCH  10  11
ATOM     11  C   UNL     1      50.239  -4.764  74.037  1.00  0.00     0.000 C 
BRANCH  11  12
ATOM     12  C   UNL     1      49.634  -4.344  72.687  1.00  0.00     0.000 C 
BRANCH  12  13
ATOM     13  C   UNL     1      48.095  -4.333  72.707  1.00  0.00     0.006 C 
BRANCH  13  14
ATOM     14  C   UNL     1      47.533  -4.570  74.116  1.00  0.00     0.053 C 
BRANCH  14  15
ATOM     15  C   UNL     1      46.661  -5.788  74.170  1.00  0.00     0.041 C 
ATOM     16  O   UNL     1      45.556  -5.803  73.567  1.00  0.00    -0.550 OA
ATOM     17  O   UNL     1      47.071  -6.908  74.884  1.00  0.00    -0.550 OA
ENDBRANCH  14  15
ENDBRANCH  13  14
ENDBRANCH  12  13
ENDBRANCH  11  12
ENDBRANCH  10  11
ENDBRANCH   9  10
ENDBRANCH   8   9
ENDBRANCH   7   8
ENDBRANCH   6   7
ENDBRANCH   5   6
ENDBRANCH   4   5
ENDBRANCH   3   4
ENDBRANCH   2   3
ENDBRANCH   1   2
BRANCH   1  18
ATOM     18  C   UNL     1      48.793  -1.407  76.414  1.00  0.00     0.000 C 
BRANCH  18  19
ATOM     19  C   UNL     1      49.065  -2.707  77.190  1.00  0.00     0.000 C 
BRANCH  19  20
ATOM     20  C   UNL     1      47.779  -3.394  77.671  1.00  0.00     0.000 C 
BRANCH  20  21
ATOM     21  C   UNL     1      47.311  -2.808  79.011  1.00  0.00     0.000 C 
BRANCH  21  22
ATOM     22  C   UNL     1      47.238  -3.863  80.128  1.00  0.00     0.000 C 
BRANCH  22  23
ATOM     23  C   UNL     1      48.168  -3.604  81.328  1.00  0.00     0.000 C 
BRANCH  23  24
ATOM     24  C   UNL     1      49.229  -2.512  81.069  1.00  0.00    -0.000 C 
BRANCH  24  25
ATOM     25  C   UNL     1      50.485  -2.701  81.939  1.00  0.00    -0.000 C 
BRANCH  25  26
ATOM     26  C   UNL     1      51.611  -3.442  81.203  1.00  0.00    -0.000 C 
BRANCH  26  27
ATOM     27  C   UNL     1      51.198  -3.878  79.785  1.00  0.00    -0.000 C 
BRANCH  27  28
ATOM     28  C   UNL     1      51.334  -5.397  79.571  1.00  0.00    -0.000 C 
BRANCH  28  29
ATOM     29  C   UNL     1      50.230  -6.012  78.691  1.00  0.00    -0.000 C 
BRANCH  29  30
ATOM     30  C   UNL     1      49.170  -6.771  79.513  1.00  0.00    -0.000 C 
BRANCH  30  31
ATOM     31  C   UNL     1      49.080  -8.255  79.128  1.00  0.00    -0.003 C 
ATOM     32  C   UNL     1      50.403  -8.807  78.596  1.00  0.00     0.004 C 
ENDBRANCH  30  31
ENDBRANCH  29  30
ENDBRANCH  28  29
ENDBRANCH  27  28
ENDBRANCH  26  27
ENDBRANCH  25  26
ENDBRANCH  24  25
ENDBRANCH  23  24
ENDBRANCH  22  23
ENDBRANCH  21  22
ENDBRANCH  20  21
ENDBRANCH  19  20
ENDBRANCH  18  19
ENDBRANCH   1  18
TORSDOF 28
ENDMDL
MODEL 2
REMARK VINA RESULT:    -4.431      3.279      7.821
REMARK INTER + INTRA:         -16.720
REMARK INTER:                 -11.818
REMARK INTRA:                  -4.902
REMARK UNBOUND:                -5.037
REMARK SMILES CCCCCCCCCCCCCCCCCCCCCCCCCCCCCC(=O)[O-]
REMARK SMILES IDX 16 1 17 2 18 3 19 4 20 5 21 6 22 7 23 8 24 9 25 10 26 11
REMARK SMILES IDX 27 12 28 13 29 14 30 15 31 16 32 17 15 18 14 19 13 20 12 21
REMARK SMILES IDX 11 22 10 23 9 24 8 25 7 26 6 27 5 28 4 29 3 30 2 31 1 32
REMARK H PARENT
REMARK Flexibility Score: inf
ROOT
ATOM      1  C   UNL     1      49.973  -4.733  73.863  1.00  0.00     0.000 C 
ENDROOT
BRANCH   1   2
ATOM      2  C   UNL     1      49.058  -4.560  72.638  1.00  0.00     0.000 C 
BRANCH   2   3
ATOM      3  C   UNL     1      47.558  -4.653  72.996  1.00  0.00     0.000 C 
BRANCH   3   4
ATOM      4  C   UNL     1      46.874  -5.933  72.479  1.00  0.00     0.000 C 
BRANCH   4   5
ATOM      5  C   UNL     1      47.083  -7.179  73.357  1.00  0.00     0.000 C 
BRANCH   5   6
ATOM      6  C   UNL     1      46.689  -7.012  74.840  1.00  0.00     0.000 C 
BRANCH   6   7
ATOM      7  C   UNL     1      47.859  -7.075  75.837  1.00  0.00     0.000 C 
BRANCH   7   8
ATOM      8  C   UNL     1      49.016  -7.957  75.349  1.00  0.00     0.000 C 
BRANCH   8   9
ATOM      9  C   UNL     1      50.243  -7.803  76.259  1.00  0.00     0.000 C 
BRANCH   9  10
ATOM     10  C   UNL     1      50.015  -6.794  77.397  1.00  0.00     0.000 C 
BRANCH  10  11
ATOM     11  C   UNL     1      50.199  -7.425  78.788  1.00  0.00     0.000 C 
BRANCH  11  12
ATOM     12  C   UNL     1      48.878  -7.531  79.568  1.00  0.00     0.000 C 
BRANCH  12  13
ATOM     13  C   UNL     1      48.129  -8.845  79.286  1.00  0.00     0.006 C 
BRANCH  13  14
ATOM     14  C   UNL     1      49.078 -10.050  79.228  1.00  0.00     0.053 C 
BRANCH  14  15
ATOM     15  C   UNL     1      48.505 -11.244  79.932  1.00  0.00     0.041 C 
ATOM     16  O   UNL     1      48.999 -12.387  79.745  1.00  0.00    -0.550 OA
ATOM     17  O   UNL     1      47.428 -11.092  80.797  1.00  0.00    -0.550 OA
ENDBRANCH  14  15
ENDBRANCH  13  14
ENDBRANCH  12  13
ENDBRANCH  11  12
ENDBRANCH  10  11
ENDBRANCH   9  10
ENDBRANCH   8   9
ENDBRANCH   7   8
ENDBRANCH   6   7
ENDBRANCH   5   6
ENDBRANCH   4   5
ENDBRANCH   3   4
ENDBRANCH   2   3
ENDBRANCH   1   2
BRANCH   1  18
ATOM     18  C   UNL     1      49.794  -3.591  74.886  1.00  0.00     0.000 C 
BRANCH  18  19
ATOM     19  C   UNL     1      50.954  -3.477  75.890  1.00  0.00     0.000 C 
BRANCH  19  20
ATOM     20  C   UNL     1      52.074  -4.492  75.623  1.00  0.00     0.000 C 
BRANCH  20  21
ATOM     21  C   UNL     1      53.336  -3.792  75.098  1.00  0.00     0.000 C 
BRANCH  21  22
ATOM     22  C   UNL     1      53.656  -4.160  73.639  1.00  0.00     0.000 C 
BRANCH  22  23
ATOM     23  C   UNL     1      53.440  -3.023  72.621  1.00  0.00     0.000 C 
BRANCH  23  24
ATOM     24  C   UNL     1      52.875  -1.728  73.244  1.00  0.00    -0.000 C 
BRANCH  24  25
ATOM     25  C   UNL     1      52.525  -0.673  72.179  1.00  0.00    -0.000 C 
BRANCH  25  26
ATOM     26  C   UNL     1      51.113  -0.095  72.358  1.00  0.00    -0.000 C 
BRANCH  26  27
ATOM     27  C   UNL     1      50.021  -1.034  71.813  1.00  0.00    -0.000 C 
BRANCH  27  28
ATOM     28  C   UNL     1      48.666  -0.837  72.518  1.00  0.00    -0.000 C 
BRANCH  28  29
ATOM     29  C   UNL     1      48.751  -0.053  73.841  1.00  0.00    -0.000 C 
BRANCH  29  30
ATOM     30  C   UNL     1      48.066   1.324  73.759  1.00  0.00    -0.000 C 
BRANCH  30  31
ATOM     31  C   UNL     1      48.610   2.314  74.801  1.00  0.00    -0.003 C 
ATOM     32  C   UNL     1      49.808   3.111  74.286  1.00  0.00     0.004 C 
ENDBRANCH  30  31
ENDBRANCH  29  30
ENDBRANCH  28  29
ENDBRANCH  27  28
ENDBRANCH  26  27
ENDBRANCH  25  26
ENDBRANCH  24  25
ENDBRANCH  23  24
ENDBRANCH  22  23
ENDBRANCH  21  22
ENDBRANCH  20  21
ENDBRANCH  19  20
ENDBRANCH  18  19
ENDBRANCH   1  18
TORSDOF 28
ENDMDL
MODEL 3
REMARK VINA RESULT:    -4.393      2.081      4.432
REMARK INTER + INTRA:         -16.620
REMARK INTER:                 -11.282
REMARK INTRA:                  -5.339
REMARK UNBOUND:                -5.037
REMARK SMILES CCCCCCCCCCCCCCCCCCCCCCCCCCCCCC(=O)[O-]
REMARK SMILES IDX 16 1 17 2 18 3 19 4 20 5 21 6 22 7 23 8 24 9 25 10 26 11
REMARK SMILES IDX 27 12 28 13 29 14 30 15 31 16 32 17 15 18 14 19 13 20 12 21
REMARK SMILES IDX 11 22 10 23 9 24 8 25 7 26 6 27 5 28 4 29 3 30 2 31 1 32
REMARK H PARENT
REMARK Flexibility Score: inf
ROOT
ATOM      1  C   UNL     1      49.878  -2.874  72.349  1.00  0.00     0.000 C 
ENDROOT
BRANCH   1   2
ATOM      2  C   UNL     1      48.754  -1.823  72.359  1.00  0.00     0.000 C 
BRANCH   2   3
ATOM      3  C   UNL     1      49.284  -0.385  72.552  1.00  0.00     0.000 C 
BRANCH   3   4
ATOM      4  C   UNL     1      50.717  -0.321  73.115  1.00  0.00     0.000 C 
BRANCH   4   5
ATOM      5  C   UNL     1      51.772   0.228  72.139  1.00  0.00     0.000 C 
BRANCH   5   6
ATOM      6  C   UNL     1      53.079  -0.590  72.055  1.00  0.00     0.000 C 
BRANCH   6   7
ATOM      7  C   UNL     1      53.289  -1.602  73.194  1.00  0.00     0.000 C 
BRANCH   7   8
ATOM      8  C   UNL     1      53.377  -3.052  72.697  1.00  0.00     0.000 C 
BRANCH   8   9
ATOM      9  C   UNL     1      53.263  -4.039  73.869  1.00  0.00     0.000 C 
BRANCH   9  10
ATOM     10  C   UNL     1      52.755  -3.373  75.158  1.00  0.00     0.000 C 
BRANCH  10  11
ATOM     11  C   UNL     1      51.350  -3.858  75.556  1.00  0.00     0.000 C 
BRANCH  11  12
ATOM     12  C   UNL     1      50.591  -2.830  76.412  1.00  0.00     0.000 C 
BRANCH  12  13
ATOM     13  C   UNL     1      49.107  -2.716  76.020  1.00  0.00     0.006 C 
BRANCH  13  14
ATOM     14  C   UNL     1      48.596  -1.271  76.105  1.00  0.00     0.053 C 
BRANCH  14  15
ATOM     15  C   UNL     1      47.610  -1.093  77.220  1.00  0.00     0.041 C 
ATOM     16  O   UNL     1      47.072   0.028  77.418  1.00  0.00    -0.550 OA
ATOM     17  O   UNL     1      47.283  -2.167  78.039  1.00  0.00    -0.550 OA
ENDBRANCH  14  15
ENDBRANCH  13  14
ENDBRANCH  12  13
ENDBRANCH  11  12
ENDBRANCH  10  11
ENDBRANCH   9  10
ENDBRANCH   8   9
ENDBRANCH   7   8
ENDBRANCH   6   7
ENDBRANCH   5   6
ENDBRANCH   4   5
ENDBRANCH   3   4
ENDBRANCH   2   3
ENDBRANCH   1   2
BRANCH   1  18
ATOM     18  C   UNL     1      49.332  -4.308  72.525  1.00  0.00     0.000 C 
BRANCH  18  19
ATOM     19  C   UNL     1      47.857  -4.355  72.959  1.00  0.00     0.000 C 
BRANCH  19  20
ATOM     20  C   UNL     1      47.255  -5.764  72.867  1.00  0.00     0.000 C 
BRANCH  20  21
ATOM     21  C   UNL     1      46.370  -6.064  74.086  1.00  0.00     0.000 C 
BRANCH  21  22
ATOM     22  C   UNL     1      47.045  -7.015  75.090  1.00  0.00     0.000 C 
BRANCH  22  23
ATOM     23  C   UNL     1      48.464  -6.599  75.524  1.00  0.00     0.000 C 
BRANCH  23  24
ATOM     24  C   UNL     1      48.563  -6.177  77.006  1.00  0.00    -0.000 C 
BRANCH  24  25
ATOM     25  C   UNL     1      49.106  -7.306  77.900  1.00  0.00    -0.000 C 
BRANCH  25  26
ATOM     26  C   UNL     1      49.580  -6.802  79.271  1.00  0.00    -0.000 C 
BRANCH  26  27
ATOM     27  C   UNL     1      49.495  -5.269  79.395  1.00  0.00    -0.000 C 
BRANCH  27  28
ATOM     28  C   UNL     1      50.875  -4.614  79.590  1.00  0.00    -0.000 C 
BRANCH  28  29
ATOM     29  C   UNL     1      50.913  -3.537  80.690  1.00  0.00    -0.000 C 
BRANCH  29  30
ATOM     30  C   UNL     1      49.914  -2.393  80.433  1.00  0.00    -0.000 C 
BRANCH  30  31
ATOM     31  C   UNL     1      50.519  -1.263  79.585  1.00  0.00    -0.003 C 
ATOM     32  C   UNL     1      51.970  -0.960  79.958  1.00  0.00     0.004 C 
ENDBRANCH  30  31
ENDBRANCH  29  30
ENDBRANCH  28  29
ENDBRANCH  27  28
ENDBRANCH  26  27
ENDBRANCH  25  26
ENDBRANCH  24  25
ENDBRANCH  23  24
ENDBRANCH  22  23
ENDBRANCH  21  22
ENDBRANCH  20  21
ENDBRANCH  19  20
ENDBRANCH  18  19
ENDBRANCH   1  18
TORSDOF 28
ENDMDL
MODEL 4
REMARK VINA RESULT:    -4.354      2.742      7.340
REMARK INTER + INTRA:         -16.518
REMARK INTER:                 -10.306
REMARK INTRA:                  -6.211
REMARK UNBOUND:                -5.037
REMARK SMILES CCCCCCCCCCCCCCCCCCCCCCCCCCCCCC(=O)[O-]
REMARK SMILES IDX 16 1 17 2 18 3 19 4 20 5 21 6 22 7 23 8 24 9 25 10 26 11
REMARK SMILES IDX 27 12 28 13 29 14 30 15 31 16 32 17 15 18 14 19 13 20 12 21
REMARK SMILES IDX 11 22 10 23 9 24 8 25 7 26 6 27 5 28 4 29 3 30 2 31 1 32
REMARK H PARENT
REMARK Flexibility Score: inf
ROOT
ATOM      1  C   UNL     1      48.721  -3.493  76.551  1.00  0.00     0.000 C 
ENDROOT
BRANCH   1   2
ATOM      2  C   UNL     1      47.581  -2.463  76.637  1.00  0.00     0.000 C 
BRANCH   2   3
ATOM      3  C   UNL     1      48.068  -1.014  76.411  1.00  0.00     0.000 C 
BRANCH   3   4
ATOM      4  C   UNL     1      48.257  -0.213  77.713  1.00  0.00     0.000 C 
BRANCH   4   5
ATOM      5  C   UNL     1      47.402  -0.692  78.899  1.00  0.00     0.000 C 
BRANCH   5   6
ATOM      6  C   UNL     1      48.187  -1.356  80.050  1.00  0.00     0.000 C 
BRANCH   6   7
ATOM      7  C   UNL     1      49.667  -1.648  79.747  1.00  0.00     0.000 C 
BRANCH   7   8
ATOM      8  C   UNL     1      50.062  -3.102  80.039  1.00  0.00     0.000 C 
BRANCH   8   9
ATOM      9  C   UNL     1      48.858  -3.902  80.557  1.00  0.00     0.000 C 
BRANCH   9  10
ATOM     10  C   UNL     1      48.664  -5.232  79.811  1.00  0.00     0.000 C 
BRANCH  10  11
ATOM     11  C   UNL     1      49.993  -5.830  79.320  1.00  0.00     0.000 C 
BRANCH  11  12
ATOM     12  C   UNL     1      49.903  -7.344  79.069  1.00  0.00     0.000 C 
BRANCH  12  13
ATOM     13  C   UNL     1      51.279  -7.985  78.812  1.00  0.00     0.006 C 
BRANCH  13  14
ATOM     14  C   UNL     1      52.418  -6.960  78.897  1.00  0.00     0.053 C 
BRANCH  14  15
ATOM     15  C   UNL     1      53.636  -7.535  79.555  1.00  0.00     0.041 C 
ATOM     16  O   UNL     1      53.903  -7.252  80.753  1.00  0.00    -0.550 OA
ATOM     17  O   UNL     1      54.476  -8.386  78.846  1.00  0.00    -0.550 OA
ENDBRANCH  14  15
ENDBRANCH  13  14
ENDBRANCH  12  13
ENDBRANCH  11  12
ENDBRANCH  10  11
ENDBRANCH   9  10
ENDBRANCH   8   9
ENDBRANCH   7   8
ENDBRANCH   6   7
ENDBRANCH   5   6
ENDBRANCH   4   5
ENDBRANCH   3   4
ENDBRANCH   2   3
ENDBRANCH   1   2
BRANCH   1  18
ATOM     18  C   UNL     1      50.071  -2.836  76.192  1.00  0.00     0.000 C 
BRANCH  18  19
ATOM     19  C   UNL     1      51.289  -3.719  76.513  1.00  0.00     0.000 C 
BRANCH  19  20
ATOM     20  C   UNL     1      52.101  -4.090  75.264  1.00  0.00     0.000 C 
BRANCH  20  21
ATOM     21  C   UNL     1      51.473  -5.286  74.536  1.00  0.00     0.000 C 
BRANCH  21  22
ATOM     22  C   UNL     1      51.134  -6.448  75.485  1.00  0.00     0.000 C 
BRANCH  22  23
ATOM     23  C   UNL     1      49.724  -7.044  75.304  1.00  0.00     0.000 C 
BRANCH  23  24
ATOM     24  C   UNL     1      48.996  -6.547  74.037  1.00  0.00    -0.000 C 
BRANCH  24  25
ATOM     25  C   UNL     1      47.575  -6.039  74.342  1.00  0.00    -0.000 C 
BRANCH  25  26
ATOM     26  C   UNL     1      47.165  -4.854  73.453  1.00  0.00    -0.000 C 
BRANCH  26  27
ATOM     27  C   UNL     1      48.342  -4.309  72.622  1.00  0.00    -0.000 C 
BRANCH  27  28
ATOM     28  C   UNL     1      48.654  -2.834  72.938  1.00  0.00    -0.000 C 
BRANCH  28  29
ATOM     29  C   UNL     1      50.025  -2.355  72.425  1.00  0.00    -0.000 C 
BRANCH  29  30
ATOM     30  C   UNL     1      50.083  -0.828  72.228  1.00  0.00    -0.000 C 
BRANCH  30  31
ATOM     31  C   UNL     1      51.506  -0.270  72.382  1.00  0.00    -0.003 C 
ATOM     32  C   UNL     1      52.536  -1.357  72.687  1.00  0.00     0.004 C 
ENDBRANCH  30  31
ENDBRANCH  29  30
ENDBRANCH  28  29
ENDBRANCH  27  28
ENDBRANCH  26  27
ENDBRANCH  25  26
ENDBRANCH  24  25
ENDBRANCH  23  24
ENDBRANCH  22  23
ENDBRANCH  21  22
ENDBRANCH  20  21
ENDBRANCH  19  20
ENDBRANCH  18  19
ENDBRANCH   1  18
TORSDOF 28
ENDMDL
MODEL 5
REMARK VINA RESULT:    -4.339      2.996      7.003
REMARK INTER + INTRA:         -16.479
REMARK INTER:                 -10.836
REMARK INTRA:                  -5.643
REMARK UNBOUND:                -5.037
REMARK SMILES CCCCCCCCCCCCCCCCCCCCCCCCCCCCCC(=O)[O-]
REMARK SMILES IDX 16 1 17 2 18 3 19 4 20 5 21 6 22 7 23 8 24 9 25 10 26 11
REMARK SMILES IDX 27 12 28 13 29 14 30 15 31 16 32 17 15 18 14 19 13 20 12 21
REMARK SMILES IDX 11 22 10 23 9 24 8 25 7 26 6 27 5 28 4 29 3 30 2 31 1 32
REMARK H PARENT
REMARK Flexibility Score: inf
ROOT
ATOM      1  C   UNL     1      50.636  -0.616  73.040  1.00  0.00     0.000 C 
ENDROOT
BRANCH   1   2
ATOM      2  C   UNL     1      49.481  -1.096  72.143  1.00  0.00     0.000 C 
BRANCH   2   3
ATOM      3  C   UNL     1      48.826  -2.396  72.658  1.00  0.00     0.000 C 
BRANCH   3   4
ATOM      4  C   UNL     1      49.610  -3.672  72.297  1.00  0.00     0.000 C 
BRANCH   4   5
ATOM      5  C   UNL     1      49.005  -4.979  72.839  1.00  0.00     0.000 C 
BRANCH   5   6
ATOM      6  C   UNL     1      47.670  -4.821  73.597  1.00  0.00     0.000 C 
BRANCH   6   7
ATOM      7  C   UNL     1      47.372  -5.922  74.629  1.00  0.00     0.000 C 
BRANCH   7   8
ATOM      8  C   UNL     1      47.691  -5.496  76.068  1.00  0.00     0.000 C 
BRANCH   8   9
ATOM      9  C   UNL     1      48.648  -6.496  76.735  1.00  0.00     0.000 C 
BRANCH   9  10
ATOM     10  C   UNL     1      49.193  -5.988  78.080  1.00  0.00     0.000 C 
BRANCH  10  11
ATOM     11  C   UNL     1      49.582  -7.136  79.027  1.00  0.00     0.000 C 
BRANCH  11  12
ATOM     12  C   UNL     1      50.937  -7.766  78.667  1.00  0.00     0.000 C 
BRANCH  12  13
ATOM     13  C   UNL     1      51.954  -6.731  78.154  1.00  0.00     0.006 C 
BRANCH  13  14
ATOM     14  C   UNL     1      52.393  -7.016  76.711  1.00  0.00     0.053 C 
BRANCH  14  15
ATOM     15  C   UNL     1      53.869  -7.262  76.616  1.00  0.00     0.041 C 
ATOM     16  O   UNL     1      54.434  -8.044  77.425  1.00  0.00    -0.550 OA
ATOM     17  O   UNL     1      54.619  -6.629  75.632  1.00  0.00    -0.550 OA
ENDBRANCH  14  15
ENDBRANCH  13  14
ENDBRANCH  12  13
ENDBRANCH  11  12
ENDBRANCH  10  11
ENDBRANCH   9  10
ENDBRANCH   8   9
ENDBRANCH   7   8
ENDBRANCH   6   7
ENDBRANCH   5   6
ENDBRANCH   4   5
ENDBRANCH   3   4
ENDBRANCH   2   3
ENDBRANCH   1   2
BRANCH   1  18
ATOM     18  C   UNL     1      51.782   0.016  72.222  1.00  0.00     0.000 C 
BRANCH  18  19
ATOM     19  C   UNL     1      53.048  -0.857  72.160  1.00  0.00     0.000 C 
BRANCH  19  20
ATOM     20  C   UNL     1      53.178  -1.803  73.362  1.00  0.00     0.000 C 
BRANCH  20  21
ATOM     21  C   UNL     1      53.249  -3.267  72.904  1.00  0.00     0.000 C 
BRANCH  21  22
ATOM     22  C   UNL     1      52.682  -4.244  73.948  1.00  0.00     0.000 C 
BRANCH  22  23
ATOM     23  C   UNL     1      52.378  -3.620  75.324  1.00  0.00     0.000 C 
BRANCH  23  24
ATOM     24  C   UNL     1      50.882  -3.653  75.706  1.00  0.00    -0.000 C 
BRANCH  24  25
ATOM     25  C   UNL     1      50.439  -2.373  76.437  1.00  0.00    -0.000 C 
BRANCH  25  26
ATOM     26  C   UNL     1      48.987  -2.446  76.934  1.00  0.00    -0.000 C 
BRANCH  26  27
ATOM     27  C   UNL     1      48.030  -1.592  76.081  1.00  0.00    -0.000 C 
BRANCH  27  28
ATOM     28  C   UNL     1      48.601  -0.195  75.774  1.00  0.00    -0.000 C 
BRANCH  28  29
ATOM     29  C   UNL     1      47.534   0.866  75.447  1.00  0.00    -0.000 C 
BRANCH  29  30
ATOM     30  C   UNL     1      47.694   1.450  74.031  1.00  0.00    -0.000 C 
BRANCH  30  31
ATOM     31  C   UNL     1      48.289   2.867  74.043  1.00  0.00    -0.003 C 
ATOM     32  C   UNL     1      49.815   2.864  74.124  1.00  0.00     0.004 C 
ENDBRANCH  30  31
ENDBRANCH  29  30
ENDBRANCH  28  29
ENDBRANCH  27  28
ENDBRANCH  26  27
ENDBRANCH  25  26
ENDBRANCH  24  25
ENDBRANCH  23  24
ENDBRANCH  22  23
ENDBRANCH  21  22
ENDBRANCH  20  21
ENDBRANCH  19  20
ENDBRANCH  18  19
ENDBRANCH   1  18
TORSDOF 28
ENDMDL
MODEL 6
REMARK VINA RESULT:    -4.301      2.115      7.328
REMARK INTER + INTRA:         -16.379
REMARK INTER:                 -10.782
REMARK INTRA:                  -5.596
REMARK UNBOUND:                -5.037
REMARK SMILES CCCCCCCCCCCCCCCCCCCCCCCCCCCCCC(=O)[O-]
REMARK SMILES IDX 16 1 17 2 18 3 19 4 20 5 21 6 22 7 23 8 24 9 25 10 26 11
REMARK SMILES IDX 27 12 28 13 29 14 30 15 31 16 32 17 15 18 14 19 13 20 12 21
REMARK SMILES IDX 11 22 10 23 9 24 8 25 7 26 6 27 5 28 4 29 3 30 2 31 1 32
REMARK H PARENT
REMARK Flexibility Score: inf
ROOT
ATOM      1  C   UNL     1      50.693  -7.278  78.715  1.00  0.00     0.000 C 
ENDROOT
BRANCH   1   2
ATOM      2  C   UNL     1      49.330  -6.985  79.367  1.00  0.00     0.000 C 
BRANCH   2   3
ATOM      3  C   UNL     1      48.968  -5.484  79.344  1.00  0.00     0.000 C 
BRANCH   3   4
ATOM      4  C   UNL     1      48.013  -5.059  80.476  1.00  0.00     0.000 C 
BRANCH   4   5
ATOM      5  C   UNL     1      47.482  -3.618  80.369  1.00  0.00     0.000 C 
BRANCH   5   6
ATOM      6  C   UNL     1      47.948  -2.660  81.486  1.00  0.00     0.000 C 
BRANCH   6   7
ATOM      7  C   UNL     1      49.419  -2.819  81.910  1.00  0.00     0.000 C 
BRANCH   7   8
ATOM      8  C   UNL     1      50.361  -1.856  81.175  1.00  0.00     0.000 C 
BRANCH   8   9
ATOM      9  C   UNL     1      51.113  -2.580  80.048  1.00  0.00     0.000 C 
BRANCH   9  10
ATOM     10  C   UNL     1      50.953  -1.885  78.686  1.00  0.00     0.000 C 
BRANCH  10  11
ATOM     11  C   UNL     1      49.500  -1.461  78.409  1.00  0.00     0.000 C 
BRANCH  11  12
ATOM     12  C   UNL     1      49.079  -1.713  76.952  1.00  0.00     0.000 C 
BRANCH  12  13
ATOM     13  C   UNL     1      47.654  -2.284  76.839  1.00  0.00     0.006 C 
BRANCH  13  14
ATOM     14  C   UNL     1      46.611  -1.188  76.579  1.00  0.00     0.053 C 
BRANCH  14  15
ATOM     15  C   UNL     1      45.447  -1.293  77.518  1.00  0.00     0.041 C 
ATOM     16  O   UNL     1      45.603  -1.074  78.747  1.00  0.00    -0.550 OA
ATOM     17  O   UNL     1      44.189  -1.631  77.033  1.00  0.00    -0.550 OA
ENDBRANCH  14  15
ENDBRANCH  13  14
ENDBRANCH  12  13
ENDBRANCH  11  12
ENDBRANCH  10  11
ENDBRANCH   9  10
ENDBRANCH   8   9
ENDBRANCH   7   8
ENDBRANCH   6   7
ENDBRANCH   5   6
ENDBRANCH   4   5
ENDBRANCH   3   4
ENDBRANCH   2   3
ENDBRANCH   1   2
BRANCH   1  18
ATOM     18  C   UNL     1      51.523  -5.993  78.504  1.00  0.00     0.000 C 
BRANCH  18  19
ATOM     19  C   UNL     1      51.887  -5.731  77.033  1.00  0.00     0.000 C 
BRANCH  19  20
ATOM     20  C   UNL     1      50.983  -4.680  76.374  1.00  0.00     0.000 C 
BRANCH  20  21
ATOM     21  C   UNL     1      51.790  -3.772  75.434  1.00  0.00     0.000 C 
BRANCH  21  22
ATOM     22  C   UNL     1      52.682  -4.566  74.463  1.00  0.00     0.000 C 
BRANCH  22  23
ATOM     23  C   UNL     1      53.798  -3.745  73.790  1.00  0.00     0.000 C 
BRANCH  23  24
ATOM     24  C   UNL     1      53.315  -2.900  72.591  1.00  0.00    -0.000 C 
BRANCH  24  25
ATOM     25  C   UNL     1      53.051  -1.434  72.978  1.00  0.00    -0.000 C 
BRANCH  25  26
ATOM     26  C   UNL     1      51.699  -0.918  72.463  1.00  0.00    -0.000 C 
BRANCH  26  27
ATOM     27  C   UNL     1      50.647  -0.809  73.583  1.00  0.00    -0.000 C 
BRANCH  27  28
ATOM     28  C   UNL     1      49.435  -1.729  73.346  1.00  0.00    -0.000 C 
BRANCH  28  29
ATOM     29  C   UNL     1      49.650  -2.787  72.247  1.00  0.00    -0.000 C 
BRANCH  29  30
ATOM     30  C   UNL     1      49.291  -4.209  72.717  1.00  0.00    -0.000 C 
BRANCH  30  31
ATOM     31  C   UNL     1      48.274  -4.209  73.868  1.00  0.00    -0.003 C 
ATOM     32  C   UNL     1      46.987  -4.955  73.517  1.00  0.00     0.004 C 
ENDBRANCH  30  31
ENDBRANCH  29  30
ENDBRANCH  28  29
ENDBRANCH  27  28
ENDBRANCH  26  27
ENDBRANCH  25  26
ENDBRANCH  24  25
ENDBRANCH  23  24
ENDBRANCH  22  23
ENDBRANCH  21  22
ENDBRANCH  20  21
ENDBRANCH  19  20
ENDBRANCH  18  19
ENDBRANCH   1  18
TORSDOF 28
ENDMDL
MODEL 7
REMARK VINA RESULT:    -4.298      1.755      3.826
REMARK INTER + INTRA:         -16.369
REMARK INTER:                 -11.751
REMARK INTRA:                  -4.618
REMARK UNBOUND:                -5.037
REMARK SMILES CCCCCCCCCCCCCCCCCCCCCCCCCCCCCC(=O)[O-]
REMARK SMILES IDX 16 1 17 2 18 3 19 4 20 5 21 6 22 7 23 8 24 9 25 10 26 11
REMARK SMILES IDX 27 12 28 13 29 14 30 15 31 16 32 17 15 18 14 19 13 20 12 21
REMARK SMILES IDX 11 22 10 23 9 24 8 25 7 26 6 27 5 28 4 29 3 30 2 31 1 32
REMARK H PARENT
REMARK Flexibility Score: inf
ROOT
ATOM      1  C   UNL     1      51.905  -3.913  75.423  1.00  0.00     0.000 C 
ENDROOT
BRANCH   1   2
ATOM      2  C   UNL     1      52.910  -2.891  74.863  1.00  0.00     0.000 C 
BRANCH   2   3
ATOM      3  C   UNL     1      53.540  -3.343  73.528  1.00  0.00     0.000 C 
BRANCH   3   4
ATOM      4  C   UNL     1      53.451  -2.287  72.410  1.00  0.00     0.000 C 
BRANCH   4   5
ATOM      5  C   UNL     1      52.826  -0.946  72.834  1.00  0.00     0.000 C 
BRANCH   5   6
ATOM      6  C   UNL     1      51.422  -0.663  72.258  1.00  0.00     0.000 C 
BRANCH   6   7
ATOM      7  C   UNL     1      50.264  -0.819  73.259  1.00  0.00     0.000 C 
BRANCH   7   8
ATOM      8  C   UNL     1      49.254  -1.897  72.842  1.00  0.00     0.000 C 
BRANCH   8   9
ATOM      9  C   UNL     1      49.968  -3.102  72.214  1.00  0.00     0.000 C 
BRANCH   9  10
ATOM     10  C   UNL     1      49.305  -4.440  72.578  1.00  0.00     0.000 C 
BRANCH  10  11
ATOM     11  C   UNL     1      47.820  -4.280  72.947  1.00  0.00     0.000 C 
BRANCH  11  12
ATOM     12  C   UNL     1      47.211  -5.569  73.521  1.00  0.00     0.000 C 
BRANCH  12  13
ATOM     13  C   UNL     1      46.423  -6.371  72.469  1.00  0.00     0.006 C 
BRANCH  13  14
ATOM     14  C   UNL     1      47.155  -7.655  72.055  1.00  0.00     0.053 C 
BRANCH  14  15
ATOM     15  C   UNL     1      46.224  -8.828  71.984  1.00  0.00     0.041 C 
ATOM     16  O   UNL     1      45.284  -8.943  72.814  1.00  0.00    -0.550 OA
ATOM     17  O   UNL     1      46.393  -9.794  70.998  1.00  0.00    -0.550 OA
ENDBRANCH  14  15
ENDBRANCH  13  14
ENDBRANCH  12  13
ENDBRANCH  11  12
ENDBRANCH  10  11
ENDBRANCH   9  10
ENDBRANCH   8   9
ENDBRANCH   7   8
ENDBRANCH   6   7
ENDBRANCH   5   6
ENDBRANCH   4   5
ENDBRANCH   3   4
ENDBRANCH   2   3
ENDBRANCH   1   2
BRANCH   1  18
ATOM     18  C   UNL     1      50.772  -3.236  76.222  1.00  0.00     0.000 C 
BRANCH  18  19
ATOM     19  C   UNL     1      49.452  -4.026  76.208  1.00  0.00     0.000 C 
BRANCH  19  20
ATOM     20  C   UNL     1      48.261  -3.204  76.720  1.00  0.00     0.000 C 
BRANCH  20  21
ATOM     21  C   UNL     1      47.547  -3.929  77.870  1.00  0.00     0.000 C 
BRANCH  21  22
ATOM     22  C   UNL     1      47.877  -3.326  79.247  1.00  0.00     0.000 C 
BRANCH  22  23
ATOM     23  C   UNL     1      48.570  -4.291  80.229  1.00  0.00     0.000 C 
BRANCH  23  24
ATOM     24  C   UNL     1      49.305  -5.460  79.539  1.00  0.00    -0.000 C 
BRANCH  24  25
ATOM     25  C   UNL     1      50.820  -5.213  79.429  1.00  0.00    -0.000 C 
BRANCH  25  26
ATOM     26  C   UNL     1      51.268  -3.941  80.166  1.00  0.00    -0.000 C 
BRANCH  26  27
ATOM     27  C   UNL     1      52.406  -4.212  81.168  1.00  0.00    -0.000 C 
BRANCH  27  28
ATOM     28  C   UNL     1      53.066  -2.917  81.676  1.00  0.00    -0.000 C 
BRANCH  28  29
ATOM     29  C   UNL     1      52.113  -1.979  82.442  1.00  0.00    -0.000 C 
BRANCH  29  30
ATOM     30  C   UNL     1      51.227  -2.732  83.451  1.00  0.00    -0.000 C 
BRANCH  30  31
ATOM     31  C   UNL     1      49.731  -2.443  83.250  1.00  0.00    -0.003 C 
ATOM     32  C   UNL     1      49.478  -1.329  82.235  1.00  0.00     0.004 C 
ENDBRANCH  30  31
ENDBRANCH  29  30
ENDBRANCH  28  29
ENDBRANCH  27  28
ENDBRANCH  26  27
ENDBRANCH  25  26
ENDBRANCH  24  25
ENDBRANCH  23  24
ENDBRANCH  22  23
ENDBRANCH  21  22
ENDBRANCH  20  21
ENDBRANCH  19  20
ENDBRANCH  18  19
ENDBRANCH   1  18
TORSDOF 28
ENDMDL
MODEL 8
REMARK VINA RESULT:    -4.284      2.186      6.376
REMARK INTER + INTRA:         -16.334
REMARK INTER:                 -11.851
REMARK INTRA:                  -4.483
REMARK UNBOUND:                -5.037
REMARK SMILES CCCCCCCCCCCCCCCCCCCCCCCCCCCCCC(=O)[O-]
REMARK SMILES IDX 16 1 17 2 18 3 19 4 20 5 21 6 22 7 23 8 24 9 25 10 26 11
REMARK SMILES IDX 27 12 28 13 29 14 30 15 31 16 32 17 15 18 14 19 13 20 12 21
REMARK SMILES IDX 11 22 10 23 9 24 8 25 7 26 6 27 5 28 4 29 3 30 2 31 1 32
REMARK H PARENT
REMARK Flexibility Score: inf
ROOT
ATOM      1  C   UNL     1      49.612  -2.297  81.637  1.00  0.00     0.000 C 
ENDROOT
BRANCH   1   2
ATOM      2  C   UNL     1      48.397  -3.124  82.093  1.00  0.00     0.000 C 
BRANCH   2   3
ATOM      3  C   UNL     1      47.669  -3.813  80.918  1.00  0.00     0.000 C 
BRANCH   3   4
ATOM      4  C   UNL     1      47.180  -2.837  79.832  1.00  0.00     0.000 C 
BRANCH   4   5
ATOM      5  C   UNL     1      47.504  -3.259  78.387  1.00  0.00     0.000 C 
BRANCH   5   6
ATOM      6  C   UNL     1      48.759  -2.601  77.775  1.00  0.00     0.000 C 
BRANCH   6   7
ATOM      7  C   UNL     1      48.669  -1.077  77.585  1.00  0.00     0.000 C 
BRANCH   7   8
ATOM      8  C   UNL     1      48.058  -0.677  76.235  1.00  0.00     0.000 C 
BRANCH   8   9
ATOM      9  C   UNL     1      48.936  -1.161  75.072  1.00  0.00     0.000 C 
BRANCH   9  10
ATOM     10  C   UNL     1      48.864  -0.233  73.848  1.00  0.00     0.000 C 
BRANCH  10  11
ATOM     11  C   UNL     1      48.783  -1.013  72.524  1.00  0.00     0.000 C 
BRANCH  11  12
ATOM     12  C   UNL     1      50.164  -1.248  71.892  1.00  0.00     0.000 C 
BRANCH  12  13
ATOM     13  C   UNL     1      51.212  -0.223  72.361  1.00  0.00     0.006 C 
BRANCH  13  14
ATOM     14  C   UNL     1      52.640  -0.781  72.285  1.00  0.00     0.053 C 
BRANCH  14  15
ATOM     15  C   UNL     1      52.797  -2.021  73.112  1.00  0.00     0.041 C 
ATOM     16  O   UNL     1      53.353  -3.041  72.625  1.00  0.00    -0.550 OA
ATOM     17  O   UNL     1      52.331  -2.051  74.421  1.00  0.00    -0.550 OA
ENDBRANCH  14  15
ENDBRANCH  13  14
ENDBRANCH  12  13
ENDBRANCH  11  12
ENDBRANCH  10  11
ENDBRANCH   9  10
ENDBRANCH   8   9
ENDBRANCH   7   8
ENDBRANCH   6   7
ENDBRANCH   5   6
ENDBRANCH   4   5
ENDBRANCH   3   4
ENDBRANCH   2   3
ENDBRANCH   1   2
BRANCH   1  18
ATOM     18  C   UNL     1      50.867  -3.173  81.434  1.00  0.00     0.000 C 
BRANCH  18  19
ATOM     19  C   UNL     1      51.115  -3.562  79.967  1.00  0.00     0.000 C 
BRANCH  19  20
ATOM     20  C   UNL     1      51.561  -5.022  79.805  1.00  0.00     0.000 C 
BRANCH  20  21
ATOM     21  C   UNL     1      50.708  -5.743  78.751  1.00  0.00     0.000 C 
BRANCH  21  22
ATOM     22  C   UNL     1      49.435  -6.371  79.345  1.00  0.00     0.000 C 
BRANCH  22  23
ATOM     23  C   UNL     1      49.356  -7.906  79.232  1.00  0.00     0.000 C 
BRANCH  23  24
ATOM     24  C   UNL     1      49.519  -8.434  77.790  1.00  0.00    -0.000 C 
BRANCH  24  25
ATOM     25  C   UNL     1      48.215  -8.329  76.980  1.00  0.00    -0.000 C 
BRANCH  25  26
ATOM     26  C   UNL     1      48.356  -7.429  75.743  1.00  0.00    -0.000 C 
BRANCH  26  27
ATOM     27  C   UNL     1      47.823  -6.006  75.989  1.00  0.00    -0.000 C 
BRANCH  27  28
ATOM     28  C   UNL     1      48.589  -4.941  75.182  1.00  0.00    -0.000 C 
BRANCH  28  29
ATOM     29  C   UNL     1      47.801  -4.361  73.992  1.00  0.00    -0.000 C 
BRANCH  29  30
ATOM     30  C   UNL     1      47.967  -5.196  72.708  1.00  0.00    -0.000 C 
BRANCH  30  31
ATOM     31  C   UNL     1      46.692  -5.971  72.342  1.00  0.00    -0.003 C 
ATOM     32  C   UNL     1      46.926  -7.479  72.249  1.00  0.00     0.004 C 
ENDBRANCH  30  31
ENDBRANCH  29  30
ENDBRANCH  28  29
ENDBRANCH  27  28
ENDBRANCH  26  27
ENDBRANCH  25  26
ENDBRANCH  24  25
ENDBRANCH  23  24
ENDBRANCH  22  23
ENDBRANCH  21  22
ENDBRANCH  20  21
ENDBRANCH  19  20
ENDBRANCH  18  19
ENDBRANCH   1  18
TORSDOF 28
ENDMDL
MODEL 9
REMARK VINA RESULT:    -4.247      2.118      6.807
REMARK INTER + INTRA:         -16.236
REMARK INTER:                 -10.471
REMARK INTRA:                  -5.765
REMARK UNBOUND:                -5.037
REMARK SMILES CCCCCCCCCCCCCCCCCCCCCCCCCCCCCC(=O)[O-]
REMARK SMILES IDX 16 1 17 2 18 3 19 4 20 5 21 6 22 7 23 8 24 9 25 10 26 11
REMARK SMILES IDX 27 12 28 13 29 14 30 15 31 16 32 17 15 18 14 19 13 20 12 21
REMARK SMILES IDX 11 22 10 23 9 24 8 25 7 26 6 27 5 28 4 29 3 30 2 31 1 32
REMARK H PARENT
REMARK Flexibility Score: inf
ROOT
ATOM      1  C   UNL     1      50.137  -3.576  75.927  1.00  0.00     0.000 C 
ENDROOT
BRANCH   1   2
ATOM      2  C   UNL     1      49.527  -2.219  76.319  1.00  0.00     0.000 C 
BRANCH   2   3
ATOM      3  C   UNL     1      48.232  -2.365  77.148  1.00  0.00     0.000 C 
BRANCH   3   4
ATOM      4  C   UNL     1      48.476  -2.749  78.620  1.00  0.00     0.000 C 
BRANCH   4   5
ATOM      5  C   UNL     1      48.042  -4.177  78.997  1.00  0.00     0.000 C 
BRANCH   5   6
ATOM      6  C   UNL     1      49.131  -5.038  79.672  1.00  0.00     0.000 C 
BRANCH   6   7
ATOM      7  C   UNL     1      50.529  -4.398  79.726  1.00  0.00     0.000 C 
BRANCH   7   8
ATOM      8  C   UNL     1      51.658  -5.403  79.463  1.00  0.00     0.000 C 
BRANCH   8   9
ATOM      9  C   UNL     1      51.118  -6.665  78.774  1.00  0.00     0.000 C 
BRANCH   9  10
ATOM     10  C   UNL     1      51.536  -6.759  77.297  1.00  0.00     0.000 C 
BRANCH  10  11
ATOM     11  C   UNL     1      50.526  -7.553  76.450  1.00  0.00     0.000 C 
BRANCH  11  12
ATOM     12  C   UNL     1      49.081  -7.063  76.641  1.00  0.00     0.000 C 
BRANCH  12  13
ATOM     13  C   UNL     1      48.094  -8.216  76.898  1.00  0.00     0.006 C 
BRANCH  13  14
ATOM     14  C   UNL     1      48.785  -9.442  77.512  1.00  0.00     0.053 C 
BRANCH  14  15
ATOM     15  C   UNL     1      48.509  -9.560  78.980  1.00  0.00     0.041 C 
ATOM     16  O   UNL     1      48.489 -10.691  79.533  1.00  0.00    -0.550 OA
ATOM     17  O   UNL     1      48.276  -8.419  79.739  1.00  0.00    -0.550 OA
ENDBRANCH  14  15
ENDBRANCH  13  14
ENDBRANCH  12  13
ENDBRANCH  11  12
ENDBRANCH  10  11
ENDBRANCH   9  10
ENDBRANCH   8   9
ENDBRANCH   7   8
ENDBRANCH   6   7
ENDBRANCH   5   6
ENDBRANCH   4   5
ENDBRANCH   3   4
ENDBRANCH   2   3
ENDBRANCH   1   2
BRANCH   1  18
ATOM     18  C   UNL     1      51.654  -3.475  75.660  1.00  0.00     0.000 C 
BRANCH  18  19
ATOM     19  C   UNL     1      52.131  -4.345  74.485  1.00  0.00     0.000 C 
BRANCH  19  20
ATOM     20  C   UNL     1      53.144  -3.625  73.583  1.00  0.00     0.000 C 
BRANCH  20  21
ATOM     21  C   UNL     1      53.098  -2.107  73.809  1.00  0.00     0.000 C 
BRANCH  21  22
ATOM     22  C   UNL     1      52.488  -1.348  72.619  1.00  0.00     0.000 C 
BRANCH  22  23
ATOM     23  C   UNL     1      51.250  -0.495  72.959  1.00  0.00     0.000 C 
BRANCH  23  24
ATOM     24  C   UNL     1      50.022  -0.798  72.074  1.00  0.00    -0.000 C 
BRANCH  24  25
ATOM     25  C   UNL     1      49.052  -1.790  72.741  1.00  0.00    -0.000 C 
BRANCH  25  26
ATOM     26  C   UNL     1      49.321  -3.247  72.334  1.00  0.00    -0.000 C 
BRANCH  26  27
ATOM     27  C   UNL     1      48.168  -4.189  72.727  1.00  0.00    -0.000 C 
BRANCH  27  28
ATOM     28  C   UNL     1      48.667  -5.507  73.346  1.00  0.00    -0.000 C 
BRANCH  28  29
ATOM     29  C   UNL     1      48.107  -6.774  72.672  1.00  0.00    -0.000 C 
BRANCH  29  30
ATOM     30  C   UNL     1      46.580  -6.714  72.473  1.00  0.00    -0.000 C 
BRANCH  30  31
ATOM     31  C   UNL     1      45.819  -6.599  73.803  1.00  0.00    -0.003 C 
ATOM     32  C   UNL     1      45.297  -7.946  74.300  1.00  0.00     0.004 C 
ENDBRANCH  30  31
ENDBRANCH  29  30
ENDBRANCH  28  29
ENDBRANCH  27  28
ENDBRANCH  26  27
ENDBRANCH  25  26
ENDBRANCH  24  25
ENDBRANCH  23  24
ENDBRANCH  22  23
ENDBRANCH  21  22
ENDBRANCH  20  21
ENDBRANCH  19  20
ENDBRANCH  18  19
ENDBRANCH   1  18
TORSDOF 28
ENDMDL
