MODEL 1
REMARK VINA RESULT:    -4.438      0.000      0.000
REMARK INTER + INTRA:          -8.237
REMARK INTER:                  -6.124
REMARK INTRA:                  -2.114
REMARK UNBOUND:                -2.114
REMARK SMILES CC[C@@H](CC[C@@H](C)[C@@H]1CC[C@@H]2C3=CC[C@@H]4C[C@@H](O)CC[C@@]4(C)[C@@H]3CC[C@@]21C)C(C)C
REMARK SMILES IDX 5 1 4 2 3 3 2 4 1 5 28 6 29 7 30 8 6 9 7 10 8 11 9 12 26 13
REMARK SMILES IDX 10 14 11 15 25 16 27 17 12 18 24 19 23 20 13 21 21 22 14 23
REMARK SMILES IDX 15 24 20 25 22 26 16 27 19 28 17 29 18 30
REMARK H PARENT 18 31
REMARK Flexibility Score: inf
ROOT
ATOM      1  C   UNL     1      -1.213   6.796  -5.678  1.00  0.00     0.004 C 
ENDROOT
BRANCH   1   2
ATOM      2  C   UNL     1      -1.946   6.027  -6.808  1.00  0.00     0.004 C 
BRANCH   2   3
ATOM      3  C   UNL     1      -3.161   5.133  -6.409  1.00  0.00    -0.009 C 
BRANCH   3   4
ATOM      4  C   UNL     1      -3.422   5.139  -4.872  1.00  0.00     0.000 C 
ATOM      5  C   UNL     1      -4.724   5.840  -4.484  1.00  0.00     0.004 C 
ENDBRANCH   3   4
BRANCH   3   6
ATOM      6  C   UNL     1      -3.147   3.723  -7.109  1.00  0.00    -0.014 C 
ATOM      7  C   UNL     1      -2.080   3.543  -8.205  1.00  0.00     0.007 C 
ATOM      8  C   UNL     1      -3.030   2.572  -6.090  1.00  0.00     0.007 C 
ENDBRANCH   3   6
ENDBRANCH   2   3
ENDBRANCH   1   2
BRANCH   1   9
ATOM      9  C   UNL     1       0.116   6.151  -5.174  1.00  0.00    -0.011 C 
ATOM     10  C   UNL     1       0.466   6.611  -3.746  1.00  0.00     0.008 C 
BRANCH   9  11
ATOM     11  C   UNL     1       0.243   4.589  -5.331  1.00  0.00    -0.002 C 
ATOM     12  C   UNL     1      -0.190   3.814  -4.099  1.00  0.00     0.005 C 
ATOM     13  C   UNL     1       1.560   3.877  -5.828  1.00  0.00    -0.023 C 
ATOM     14  C   UNL     1       0.168   2.384  -4.414  1.00  0.00     0.009 C 
ATOM     15  C   UNL     1       1.505   2.430  -5.192  1.00  0.00     0.021 C 
ATOM     16  C   UNL     1       2.838   4.628  -5.380  1.00  0.00     0.008 C 
ATOM     17  C   UNL     1       1.540   3.766  -7.378  1.00  0.00     0.012 C 
ATOM     18  C   UNL     1       2.763   2.057  -4.373  1.00  0.00    -0.067 C 
ATOM     19  C   UNL     1       4.113   3.831  -5.658  1.00  0.00     0.009 C 
ATOM     20  C   UNL     1       4.133   2.441  -4.961  1.00  0.00     0.021 C 
ATOM     21  C   UNL     1       2.708   1.130  -3.379  1.00  0.00    -0.027 C 
ATOM     22  C   UNL     1       5.335   2.272  -3.957  1.00  0.00    -0.023 C 
ATOM     23  C   UNL     1       3.884   0.768  -2.514  1.00  0.00     0.031 C 
ATOM     24  C   UNL     1       5.193   0.869  -3.294  1.00  0.00     0.002 C 
ATOM     25  C   UNL     1       6.677   2.284  -4.749  1.00  0.00     0.010 C 
ATOM     26  C   UNL     1       5.309   3.427  -2.905  1.00  0.00     0.012 C 
ATOM     27  C   UNL     1       6.398   0.484  -2.412  1.00  0.00     0.036 C 
ATOM     28  C   UNL     1       7.890   1.887  -3.892  1.00  0.00     0.032 C 
ATOM     29  C   UNL     1       7.706   0.518  -3.220  1.00  0.00     0.114 C 
BRANCH  29  30
ATOM     30  O   UNL     1       7.706  -0.494  -4.197  1.00  0.00    -0.393 OA
ATOM     31  H   UNL     1       7.221  -1.269  -3.803  1.00  0.00     0.210 HD
ENDBRANCH  29  30
ENDBRANCH   9  11
ENDBRANCH   1   9
TORSDOF 7
ENDMDL
MODEL 2
REMARK VINA RESULT:    -4.429      3.252      9.042
REMARK INTER + INTRA:          -8.226
REMARK INTER:                  -7.149
REMARK INTRA:                  -1.076
REMARK UNBOUND:                -2.114
REMARK SMILES CC[C@@H](CC[C@@H](C)[C@@H]1CC[C@@H]2C3=CC[C@@H]4C[C@@H](O)CC[C@@]4(C)[C@@H]3CC[C@@]21C)C(C)C
REMARK SMILES IDX 5 1 4 2 3 3 2 4 1 5 28 6 29 7 30 8 6 9 7 10 8 11 9 12 26 13
REMARK SMILES IDX 10 14 11 15 25 16 27 17 12 18 24 19 23 20 13 21 21 22 14 23
REMARK SMILES IDX 15 24 20 25 22 26 16 27 19 28 17 29 18 30
REMARK H PARENT 18 31
REMARK Flexibility Score: inf
ROOT
ATOM      1  C   UNL     1       3.891   2.548  -4.416  1.00  0.00     0.004 C 
ENDROOT
BRANCH   1   2
ATOM      2  C   UNL     1       3.356   1.457  -3.452  1.00  0.00     0.004 C 
BRANCH   2   3
ATOM      3  C   UNL     1       4.373   0.408  -2.905  1.00  0.00    -0.009 C 
BRANCH   3   4
ATOM      4  C   UNL     1       4.723   0.648  -1.405  1.00  0.00     0.000 C 
ATOM      5  C   UNL     1       4.861  -0.646  -0.604  1.00  0.00     0.004 C 
ENDBRANCH   3   4
BRANCH   3   6
ATOM      6  C   UNL     1       5.588   0.162  -3.876  1.00  0.00    -0.014 C 
ATOM      7  C   UNL     1       6.929   0.765  -3.419  1.00  0.00     0.007 C 
ATOM      8  C   UNL     1       5.782  -1.336  -4.190  1.00  0.00     0.007 C 
ENDBRANCH   3   6
ENDBRANCH   2   3
ENDBRANCH   1   2
BRANCH   1   9
ATOM      9  C   UNL     1       2.817   3.518  -5.000  1.00  0.00    -0.011 C 
ATOM     10  C   UNL     1       3.459   4.641  -5.837  1.00  0.00     0.008 C 
BRANCH   9  11
ATOM     11  C   UNL     1       1.602   2.853  -5.752  1.00  0.00    -0.002 C 
ATOM     12  C   UNL     1       1.509   3.234  -7.219  1.00  0.00     0.005 C 
ATOM     13  C   UNL     1       0.121   2.908  -5.213  1.00  0.00    -0.023 C 
ATOM     14  C   UNL     1       0.208   2.628  -7.678  1.00  0.00     0.009 C 
ATOM     15  C   UNL     1      -0.786   2.783  -6.502  1.00  0.00     0.021 C 
ATOM     16  C   UNL     1      -0.179   4.225  -4.454  1.00  0.00     0.008 C 
ATOM     17  C   UNL     1      -0.138   1.698  -4.274  1.00  0.00     0.012 C 
ATOM     18  C   UNL     1      -1.822   3.922  -6.654  1.00  0.00    -0.067 C 
ATOM     19  C   UNL     1      -1.664   4.387  -4.128  1.00  0.00     0.009 C 
ATOM     20  C   UNL     1      -2.575   4.370  -5.388  1.00  0.00     0.021 C 
ATOM     21  C   UNL     1      -2.315   4.268  -7.873  1.00  0.00    -0.027 C 
ATOM     22  C   UNL     1      -3.404   5.698  -5.568  1.00  0.00    -0.023 C 
ATOM     23  C   UNL     1      -3.281   5.402  -8.087  1.00  0.00     0.031 C 
ATOM     24  C   UNL     1      -4.215   5.563  -6.891  1.00  0.00     0.002 C 
ATOM     25  C   UNL     1      -4.427   5.831  -4.401  1.00  0.00     0.010 C 
ATOM     26  C   UNL     1      -2.436   6.923  -5.593  1.00  0.00     0.012 C 
ATOM     27  C   UNL     1      -5.215   6.715  -7.117  1.00  0.00     0.036 C 
ATOM     28  C   UNL     1      -5.444   6.965  -4.612  1.00  0.00     0.032 C 
ATOM     29  C   UNL     1      -6.201   6.828  -5.942  1.00  0.00     0.114 C 
BRANCH  29  30
ATOM     30  O   UNL     1      -7.040   5.699  -5.895  1.00  0.00    -0.393 OA
ATOM     31  H   UNL     1      -7.717   5.820  -6.615  1.00  0.00     0.210 HD
ENDBRANCH  29  30
ENDBRANCH   9  11
ENDBRANCH   1   9
TORSDOF 7
ENDMDL
MODEL 3
REMARK VINA RESULT:    -4.368      3.150      8.633
REMARK INTER + INTRA:          -8.141
REMARK INTER:                  -6.632
REMARK INTRA:                  -1.510
REMARK UNBOUND:                -2.114
REMARK SMILES CC[C@@H](CC[C@@H](C)[C@@H]1CC[C@@H]2C3=CC[C@@H]4C[C@@H](O)CC[C@@]4(C)[C@@H]3CC[C@@]21C)C(C)C
REMARK SMILES IDX 5 1 4 2 3 3 2 4 1 5 28 6 29 7 30 8 6 9 7 10 8 11 9 12 26 13
REMARK SMILES IDX 10 14 11 15 25 16 27 17 12 18 24 19 23 20 13 21 21 22 14 23
REMARK SMILES IDX 15 24 20 25 22 26 16 27 19 28 17 29 18 30
REMARK H PARENT 18 31
REMARK Flexibility Score: inf
ROOT
ATOM      1  C   UNL     1       4.040   3.367  -5.898  1.00  0.00     0.004 C 
ENDROOT
BRANCH   1   2
ATOM      2  C   UNL     1       4.053   3.815  -4.412  1.00  0.00     0.004 C 
BRANCH   2   3
ATOM      3  C   UNL     1       4.492   2.768  -3.342  1.00  0.00    -0.009 C 
BRANCH   3   4
ATOM      4  C   UNL     1       5.729   3.243  -2.520  1.00  0.00     0.000 C 
ATOM      5  C   UNL     1       5.640   2.886  -1.037  1.00  0.00     0.004 C 
ENDBRANCH   3   4
BRANCH   3   6
ATOM      6  C   UNL     1       4.546   1.298  -3.902  1.00  0.00    -0.014 C 
ATOM      7  C   UNL     1       5.957   0.692  -4.025  1.00  0.00     0.007 C 
ATOM      8  C   UNL     1       3.647   0.339  -3.096  1.00  0.00     0.007 C 
ENDBRANCH   3   6
ENDBRANCH   2   3
ENDBRANCH   1   2
BRANCH   1   9
ATOM      9  C   UNL     1       2.845   3.895  -6.751  1.00  0.00    -0.011 C 
ATOM     10  C   UNL     1       3.272   4.204  -8.199  1.00  0.00     0.008 C 
BRANCH   9  11
ATOM     11  C   UNL     1       1.517   3.048  -6.703  1.00  0.00    -0.002 C 
ATOM     12  C   UNL     1       0.748   3.043  -8.012  1.00  0.00     0.005 C 
ATOM     13  C   UNL     1       0.424   3.223  -5.579  1.00  0.00    -0.023 C 
ATOM     14  C   UNL     1      -0.536   2.326  -7.685  1.00  0.00     0.009 C 
ATOM     15  C   UNL     1      -0.930   2.765  -6.255  1.00  0.00     0.021 C 
ATOM     16  C   UNL     1       0.323   4.686  -5.081  1.00  0.00     0.008 C 
ATOM     17  C   UNL     1       0.751   2.289  -4.382  1.00  0.00     0.012 C 
ATOM     18  C   UNL     1      -2.061   3.817  -6.171  1.00  0.00    -0.067 C 
ATOM     19  C   UNL     1      -0.880   4.911  -4.163  1.00  0.00     0.009 C 
ATOM     20  C   UNL     1      -2.238   4.564  -4.837  1.00  0.00     0.021 C 
ATOM     21  C   UNL     1      -3.075   3.837  -7.077  1.00  0.00    -0.027 C 
ATOM     22  C   UNL     1      -3.220   5.794  -4.912  1.00  0.00    -0.023 C 
ATOM     23  C   UNL     1      -4.170   4.868  -7.078  1.00  0.00     0.031 C 
ATOM     24  C   UNL     1      -4.503   5.318  -5.658  1.00  0.00     0.002 C 
ATOM     25  C   UNL     1      -3.641   6.209  -3.471  1.00  0.00     0.010 C 
ATOM     26  C   UNL     1      -2.519   6.983  -5.643  1.00  0.00     0.012 C 
ATOM     27  C   UNL     1      -5.636   6.365  -5.656  1.00  0.00     0.036 C 
ATOM     28  C   UNL     1      -4.780   7.241  -3.445  1.00  0.00     0.032 C 
ATOM     29  C   UNL     1      -6.017   6.763  -4.221  1.00  0.00     0.114 C 
BRANCH  29  30
ATOM     30  O   UNL     1      -6.606   5.674  -3.550  1.00  0.00    -0.393 OA
ATOM     31  H   UNL     1      -5.870   5.035  -3.347  1.00  0.00     0.210 HD
ENDBRANCH  29  30
ENDBRANCH   9  11
ENDBRANCH   1   9
TORSDOF 7
ENDMDL
MODEL 4
REMARK VINA RESULT:    -4.317      3.979      9.176
REMARK INTER + INTRA:          -8.071
REMARK INTER:                  -6.060
REMARK INTRA:                  -2.011
REMARK UNBOUND:                -2.114
REMARK SMILES CC[C@@H](CC[C@@H](C)[C@@H]1CC[C@@H]2C3=CC[C@@H]4C[C@@H](O)CC[C@@]4(C)[C@@H]3CC[C@@]21C)C(C)C
REMARK SMILES IDX 5 1 4 2 3 3 2 4 1 5 28 6 29 7 30 8 6 9 7 10 8 11 9 12 26 13
REMARK SMILES IDX 10 14 11 15 25 16 27 17 12 18 24 19 23 20 13 21 21 22 14 23
REMARK SMILES IDX 15 24 20 25 22 26 16 27 19 28 17 29 18 30
REMARK H PARENT 18 31
REMARK Flexibility Score: inf
ROOT
ATOM      1  C   UNL     1       0.268   2.922  -7.920  1.00  0.00     0.004 C 
ENDROOT
BRANCH   1   2
ATOM      2  C   UNL     1       1.359   3.002  -6.820  1.00  0.00     0.004 C 
BRANCH   2   3
ATOM      3  C   UNL     1       0.999   3.731  -5.490  1.00  0.00    -0.009 C 
BRANCH   3   4
ATOM      4  C   UNL     1       1.692   5.122  -5.369  1.00  0.00     0.000 C 
ATOM      5  C   UNL     1       1.136   5.977  -4.230  1.00  0.00     0.004 C 
ENDBRANCH   3   4
BRANCH   3   6
ATOM      6  C   UNL     1       1.087   2.794  -4.228  1.00  0.00    -0.014 C 
ATOM      7  C   UNL     1      -0.023   1.732  -4.117  1.00  0.00     0.007 C 
ATOM      8  C   UNL     1       2.463   2.109  -4.112  1.00  0.00     0.007 C 
ENDBRANCH   3   6
ENDBRANCH   2   3
ENDBRANCH   1   2
BRANCH   1   9
ATOM      9  C   UNL     1      -0.603   4.204  -8.102  1.00  0.00    -0.011 C 
ATOM     10  C   UNL     1      -0.232   4.967  -9.387  1.00  0.00     0.008 C 
BRANCH   9  11
ATOM     11  C   UNL     1      -2.162   4.020  -7.961  1.00  0.00    -0.002 C 
ATOM     12  C   UNL     1      -2.969   4.970  -8.828  1.00  0.00     0.005 C 
ATOM     13  C   UNL     1      -2.904   3.994  -6.569  1.00  0.00    -0.023 C 
ATOM     14  C   UNL     1      -4.397   4.730  -8.411  1.00  0.00     0.009 C 
ATOM     15  C   UNL     1      -4.372   4.490  -6.883  1.00  0.00     0.021 C 
ATOM     16  C   UNL     1      -2.224   4.913  -5.524  1.00  0.00     0.008 C 
ATOM     17  C   UNL     1      -2.950   2.539  -6.028  1.00  0.00     0.012 C 
ATOM     18  C   UNL     1      -4.829   5.687  -6.015  1.00  0.00    -0.067 C 
ATOM     19  C   UNL     1      -3.059   5.072  -4.252  1.00  0.00     0.009 C 
ATOM     20  C   UNL     1      -4.476   5.655  -4.518  1.00  0.00     0.021 C 
ATOM     21  C   UNL     1      -5.794   6.543  -6.447  1.00  0.00    -0.027 C 
ATOM     22  C   UNL     1      -4.734   7.014  -3.765  1.00  0.00    -0.023 C 
ATOM     23  C   UNL     1      -6.238   7.754  -5.673  1.00  0.00     0.031 C 
ATOM     24  C   UNL     1      -6.156   7.506  -4.169  1.00  0.00     0.002 C 
ATOM     25  C   UNL     1      -4.743   6.761  -2.227  1.00  0.00     0.010 C 
ATOM     26  C   UNL     1      -3.624   8.045  -4.145  1.00  0.00     0.012 C 
ATOM     27  C   UNL     1      -6.626   8.741  -3.373  1.00  0.00     0.036 C 
ATOM     28  C   UNL     1      -5.223   7.975  -1.416  1.00  0.00     0.032 C 
ATOM     29  C   UNL     1      -6.610   8.463  -1.862  1.00  0.00     0.114 C 
BRANCH  29  30
ATOM     30  O   UNL     1      -7.581   7.499  -1.530  1.00  0.00    -0.393 OA
ATOM     31  H   UNL     1      -7.492   7.331  -0.553  1.00  0.00     0.210 HD
ENDBRANCH  29  30
ENDBRANCH   9  11
ENDBRANCH   1   9
TORSDOF 7
ENDMDL
MODEL 5
REMARK VINA RESULT:    -4.159      6.359     10.467
REMARK INTER + INTRA:          -7.854
REMARK INTER:                  -6.702
REMARK INTRA:                  -1.152
REMARK UNBOUND:                -2.114
REMARK SMILES CC[C@@H](CC[C@@H](C)[C@@H]1CC[C@@H]2C3=CC[C@@H]4C[C@@H](O)CC[C@@]4(C)[C@@H]3CC[C@@]21C)C(C)C
REMARK SMILES IDX 5 1 4 2 3 3 2 4 1 5 28 6 29 7 30 8 6 9 7 10 8 11 9 12 26 13
REMARK SMILES IDX 10 14 11 15 25 16 27 17 12 18 24 19 23 20 13 21 21 22 14 23
REMARK SMILES IDX 15 24 20 25 22 26 16 27 19 28 17 29 18 30
REMARK H PARENT 18 31
REMARK Flexibility Score: inf
ROOT
ATOM      1  C   UNL     1       4.767  -0.540  -0.674  1.00  0.00     0.004 C 
ENDROOT
BRANCH   1   2
ATOM      2  C   UNL     1       4.882   0.770  -1.497  1.00  0.00     0.004 C 
BRANCH   2   3
ATOM      3  C   UNL     1       4.622   0.690  -3.033  1.00  0.00    -0.009 C 
BRANCH   3   4
ATOM      4  C   UNL     1       3.279  -0.025  -3.371  1.00  0.00     0.000 C 
ATOM      5  C   UNL     1       2.082   0.925  -3.407  1.00  0.00     0.004 C 
ENDBRANCH   3   4
BRANCH   3   6
ATOM      6  C   UNL     1       5.885   0.227  -3.849  1.00  0.00    -0.014 C 
ATOM      7  C   UNL     1       7.243   0.511  -3.180  1.00  0.00     0.007 C 
ATOM      8  C   UNL     1       5.809  -1.265  -4.235  1.00  0.00     0.007 C 
ENDBRANCH   3   6
ENDBRANCH   2   3
ENDBRANCH   1   2
BRANCH   1   9
ATOM      9  C   UNL     1       6.086  -1.035  -0.005  1.00  0.00    -0.011 C 
ATOM     10  C   UNL     1       6.312  -0.373   1.367  1.00  0.00     0.008 C 
BRANCH   9  11
ATOM     11  C   UNL     1       6.299  -2.596   0.058  1.00  0.00    -0.002 C 
ATOM     12  C   UNL     1       6.274  -3.271  -1.302  1.00  0.00     0.005 C 
ATOM     13  C   UNL     1       5.467  -3.542   1.007  1.00  0.00    -0.023 C 
ATOM     14  C   UNL     1       6.329  -4.743  -0.987  1.00  0.00     0.009 C 
ATOM     15  C   UNL     1       5.477  -4.950   0.288  1.00  0.00     0.021 C 
ATOM     16  C   UNL     1       4.017  -3.038   1.214  1.00  0.00     0.008 C 
ATOM     17  C   UNL     1       6.177  -3.655   2.385  1.00  0.00     0.012 C 
ATOM     18  C   UNL     1       4.068  -5.546   0.056  1.00  0.00    -0.067 C 
ATOM     19  C   UNL     1       3.141  -4.059   1.941  1.00  0.00     0.009 C 
ATOM     20  C   UNL     1       3.049  -5.425   1.203  1.00  0.00     0.021 C 
ATOM     21  C   UNL     1       3.837  -6.442  -0.940  1.00  0.00    -0.027 C 
ATOM     22  C   UNL     1       1.575  -5.809   0.798  1.00  0.00    -0.023 C 
ATOM     23  C   UNL     1       2.480  -7.011  -1.248  1.00  0.00     0.031 C 
ATOM     24  C   UNL     1       1.644  -7.158   0.021  1.00  0.00     0.002 C 
ATOM     25  C   UNL     1       0.731  -6.050   2.085  1.00  0.00     0.010 C 
ATOM     26  C   UNL     1       0.951  -4.664  -0.062  1.00  0.00     0.012 C 
ATOM     27  C   UNL     1       0.257  -7.756  -0.291  1.00  0.00     0.036 C 
ATOM     28  C   UNL     1      -0.650  -6.661   1.798  1.00  0.00     0.032 C 
ATOM     29  C   UNL     1      -0.555  -7.968   0.998  1.00  0.00     0.114 C 
BRANCH  29  30
ATOM     30  O   UNL     1       0.038  -8.968   1.792  1.00  0.00    -0.393 OA
ATOM     31  H   UNL     1      -0.669  -9.293   2.413  1.00  0.00     0.210 HD
ENDBRANCH  29  30
ENDBRANCH   9  11
ENDBRANCH   1   9
TORSDOF 7
ENDMDL
MODEL 6
REMARK VINA RESULT:    -4.120      2.446      4.250
REMARK INTER + INTRA:          -7.800
REMARK INTER:                  -5.583
REMARK INTRA:                  -2.216
REMARK UNBOUND:                -2.114
REMARK SMILES CC[C@@H](CC[C@@H](C)[C@@H]1CC[C@@H]2C3=CC[C@@H]4C[C@@H](O)CC[C@@]4(C)[C@@H]3CC[C@@]21C)C(C)C
REMARK SMILES IDX 5 1 4 2 3 3 2 4 1 5 28 6 29 7 30 8 6 9 7 10 8 11 9 12 26 13
REMARK SMILES IDX 10 14 11 15 25 16 27 17 12 18 24 19 23 20 13 21 21 22 14 23
REMARK SMILES IDX 15 24 20 25 22 26 16 27 19 28 17 29 18 30
REMARK H PARENT 18 31
REMARK Flexibility Score: inf
ROOT
ATOM      1  C   UNL     1      -2.778   6.029  -7.200  1.00  0.00     0.004 C 
ENDROOT
BRANCH   1   2
ATOM      2  C   UNL     1      -3.149   7.132  -6.174  1.00  0.00     0.004 C 
BRANCH   2   3
ATOM      3  C   UNL     1      -2.122   7.450  -5.044  1.00  0.00    -0.009 C 
BRANCH   3   4
ATOM      4  C   UNL     1      -0.689   6.941  -5.385  1.00  0.00     0.000 C 
ATOM      5  C   UNL     1      -0.025   6.189  -4.232  1.00  0.00     0.004 C 
ENDBRANCH   3   4
BRANCH   3   6
ATOM      6  C   UNL     1      -2.661   7.107  -3.605  1.00  0.00    -0.014 C 
ATOM      7  C   UNL     1      -2.801   8.307  -2.651  1.00  0.00     0.007 C 
ATOM      8  C   UNL     1      -3.997   6.337  -3.656  1.00  0.00     0.007 C 
ENDBRANCH   3   6
ENDBRANCH   2   3
ENDBRANCH   1   2
BRANCH   1   9
ATOM      9  C   UNL     1      -3.437   4.635  -6.962  1.00  0.00    -0.011 C 
ATOM     10  C   UNL     1      -4.362   4.236  -8.127  1.00  0.00     0.008 C 
BRANCH   9  11
ATOM     11  C   UNL     1      -2.469   3.459  -6.557  1.00  0.00    -0.002 C 
ATOM     12  C   UNL     1      -2.100   3.453  -5.084  1.00  0.00     0.005 C 
ATOM     13  C   UNL     1      -1.126   3.145  -7.323  1.00  0.00    -0.023 C 
ATOM     14  C   UNL     1      -1.060   2.368  -4.966  1.00  0.00     0.009 C 
ATOM     15  C   UNL     1      -0.199   2.447  -6.249  1.00  0.00     0.021 C 
ATOM     16  C   UNL     1      -0.456   4.425  -7.882  1.00  0.00     0.008 C 
ATOM     17  C   UNL     1      -1.409   2.158  -8.489  1.00  0.00     0.012 C 
ATOM     18  C   UNL     1       1.184   3.121  -6.081  1.00  0.00    -0.067 C 
ATOM     19  C   UNL     1       0.950   4.161  -8.423  1.00  0.00     0.009 C 
ATOM     20  C   UNL     1       1.916   3.568  -7.359  1.00  0.00     0.021 C 
ATOM     21  C   UNL     1       1.887   3.006  -4.923  1.00  0.00    -0.027 C 
ATOM     22  C   UNL     1       3.176   4.476  -7.096  1.00  0.00    -0.023 C 
ATOM     23  C   UNL     1       3.209   3.684  -4.683  1.00  0.00     0.031 C 
ATOM     24  C   UNL     1       4.015   3.792  -5.975  1.00  0.00     0.002 C 
ATOM     25  C   UNL     1       4.058   4.523  -8.380  1.00  0.00     0.010 C 
ATOM     26  C   UNL     1       2.714   5.913  -6.694  1.00  0.00     0.012 C 
ATOM     27  C   UNL     1       5.376   4.474  -5.727  1.00  0.00     0.036 C 
ATOM     28  C   UNL     1       5.426   5.185  -8.151  1.00  0.00     0.032 C 
ATOM     29  C   UNL     1       6.215   4.516  -7.015  1.00  0.00     0.114 C 
BRANCH  29  30
ATOM     30  O   UNL     1       6.589   3.215  -7.400  1.00  0.00    -0.393 OA
ATOM     31  H   UNL     1       5.890   2.602  -7.044  1.00  0.00     0.210 HD
ENDBRANCH  29  30
ENDBRANCH   9  11
ENDBRANCH   1   9
TORSDOF 7
ENDMDL
MODEL 7
REMARK VINA RESULT:    -4.114      3.694      8.275
REMARK INTER + INTRA:          -7.791
REMARK INTER:                  -5.500
REMARK INTRA:                  -2.291
REMARK UNBOUND:                -2.114
REMARK SMILES CC[C@@H](CC[C@@H](C)[C@@H]1CC[C@@H]2C3=CC[C@@H]4C[C@@H](O)CC[C@@]4(C)[C@@H]3CC[C@@]21C)C(C)C
REMARK SMILES IDX 5 1 4 2 3 3 2 4 1 5 28 6 29 7 30 8 6 9 7 10 8 11 9 12 26 13
REMARK SMILES IDX 10 14 11 15 25 16 27 17 12 18 24 19 23 20 13 21 21 22 14 23
REMARK SMILES IDX 15 24 20 25 22 26 16 27 19 28 17 29 18 30
REMARK H PARENT 18 31
REMARK Flexibility Score: inf
ROOT
ATOM      1  C   UNL     1       2.486   4.879  -4.888  1.00  0.00     0.004 C 
ENDROOT
BRANCH   1   2
ATOM      2  C   UNL     1       3.312   5.863  -5.758  1.00  0.00     0.004 C 
BRANCH   2   3
ATOM      3  C   UNL     1       2.547   6.717  -6.815  1.00  0.00    -0.009 C 
BRANCH   3   4
ATOM      4  C   UNL     1       1.024   6.826  -6.501  1.00  0.00     0.000 C 
ATOM      5  C   UNL     1       0.139   6.616  -7.729  1.00  0.00     0.004 C 
ENDBRANCH   3   4
BRANCH   3   6
ATOM      6  C   UNL     1       2.931   6.353  -8.298  1.00  0.00    -0.014 C 
ATOM      7  C   UNL     1       3.436   7.528  -9.155  1.00  0.00     0.007 C 
ATOM      8  C   UNL     1       3.950   5.198  -8.364  1.00  0.00     0.007 C 
ENDBRANCH   3   6
ENDBRANCH   2   3
ENDBRANCH   1   2
BRANCH   1   9
ATOM      9  C   UNL     1       2.562   3.379  -5.308  1.00  0.00    -0.011 C 
ATOM     10  C   UNL     1       3.099   2.494  -4.167  1.00  0.00     0.008 C 
BRANCH   9  11
ATOM     11  C   UNL     1       1.266   2.765  -5.962  1.00  0.00    -0.002 C 
ATOM     12  C   UNL     1       1.053   3.186  -7.406  1.00  0.00     0.005 C 
ATOM     13  C   UNL     1      -0.159   2.845  -5.291  1.00  0.00    -0.023 C 
ATOM     14  C   UNL     1      -0.301   2.626  -7.760  1.00  0.00     0.009 C 
ATOM     15  C   UNL     1      -1.180   2.777  -6.496  1.00  0.00     0.021 C 
ATOM     16  C   UNL     1      -0.352   4.150  -4.478  1.00  0.00     0.008 C 
ATOM     17  C   UNL     1      -0.368   1.619  -4.361  1.00  0.00     0.012 C 
ATOM     18  C   UNL     1      -2.193   3.947  -6.527  1.00  0.00    -0.067 C 
ATOM     19  C   UNL     1      -1.797   4.343  -4.016  1.00  0.00     0.009 C 
ATOM     20  C   UNL     1      -2.817   4.382  -5.189  1.00  0.00     0.021 C 
ATOM     21  C   UNL     1      -2.784   4.337  -7.689  1.00  0.00    -0.027 C 
ATOM     22  C   UNL     1      -3.621   5.735  -5.263  1.00  0.00    -0.023 C 
ATOM     23  C   UNL     1      -3.731   5.501  -7.789  1.00  0.00     0.031 C 
ATOM     24  C   UNL     1      -4.550   5.656  -6.511  1.00  0.00     0.002 C 
ATOM     25  C   UNL     1      -4.531   5.866  -4.006  1.00  0.00     0.010 C 
ATOM     26  C   UNL     1      -2.624   6.935  -5.346  1.00  0.00     0.012 C 
ATOM     27  C   UNL     1      -5.533   6.840  -6.618  1.00  0.00     0.036 C 
ATOM     28  C   UNL     1      -5.530   7.031  -4.098  1.00  0.00     0.032 C 
ATOM     29  C   UNL     1      -6.406   6.948  -5.357  1.00  0.00     0.114 C 
BRANCH  29  30
ATOM     30  O   UNL     1      -7.270   5.841  -5.261  1.00  0.00    -0.393 OA
ATOM     31  H   UNL     1      -7.968   6.083  -4.594  1.00  0.00     0.210 HD
ENDBRANCH  29  30
ENDBRANCH   9  11
ENDBRANCH   1   9
TORSDOF 7
ENDMDL
MODEL 8
REMARK VINA RESULT:    -4.071      1.965      4.251
REMARK INTER + INTRA:          -7.732
REMARK INTER:                  -5.787
REMARK INTRA:                  -1.945
REMARK UNBOUND:                -2.114
REMARK SMILES CC[C@@H](CC[C@@H](C)[C@@H]1CC[C@@H]2C3=CC[C@@H]4C[C@@H](O)CC[C@@]4(C)[C@@H]3CC[C@@]21C)C(C)C
REMARK SMILES IDX 5 1 4 2 3 3 2 4 1 5 28 6 29 7 30 8 6 9 7 10 8 11 9 12 26 13
REMARK SMILES IDX 10 14 11 15 25 16 27 17 12 18 24 19 23 20 13 21 21 22 14 23
REMARK SMILES IDX 15 24 20 25 22 26 16 27 19 28 17 29 18 30
REMARK H PARENT 18 31
REMARK Flexibility Score: inf
ROOT
ATOM      1  C   UNL     1       1.890   5.428  -7.187  1.00  0.00     0.004 C 
ENDROOT
BRANCH   1   2
ATOM      2  C   UNL     1       0.593   5.152  -6.382  1.00  0.00     0.004 C 
BRANCH   2   3
ATOM      3  C   UNL     1       0.214   3.666  -6.100  1.00  0.00    -0.009 C 
BRANCH   3   4
ATOM      4  C   UNL     1      -0.784   3.098  -7.155  1.00  0.00     0.000 C 
ATOM      5  C   UNL     1      -0.107   2.249  -8.230  1.00  0.00     0.004 C 
ENDBRANCH   3   4
BRANCH   3   6
ATOM      6  C   UNL     1      -0.135   3.393  -4.590  1.00  0.00    -0.014 C 
ATOM      7  C   UNL     1      -1.532   3.858  -4.142  1.00  0.00     0.007 C 
ATOM      8  C   UNL     1       0.055   1.910  -4.211  1.00  0.00     0.007 C 
ENDBRANCH   3   6
ENDBRANCH   2   3
ENDBRANCH   1   2
BRANCH   1   9
ATOM      9  C   UNL     1       2.860   4.216  -7.341  1.00  0.00    -0.011 C 
ATOM     10  C   UNL     1       3.042   3.815  -8.817  1.00  0.00     0.008 C 
BRANCH   9  11
ATOM     11  C   UNL     1       4.242   4.321  -6.591  1.00  0.00    -0.002 C 
ATOM     12  C   UNL     1       5.403   3.720  -7.363  1.00  0.00     0.005 C 
ATOM     13  C   UNL     1       4.451   3.855  -5.098  1.00  0.00    -0.023 C 
ATOM     14  C   UNL     1       6.562   3.784  -6.402  1.00  0.00     0.009 C 
ATOM     15  C   UNL     1       5.984   3.481  -4.999  1.00  0.00     0.021 C 
ATOM     16  C   UNL     1       3.562   2.640  -4.733  1.00  0.00     0.008 C 
ATOM     17  C   UNL     1       4.138   5.033  -4.135  1.00  0.00     0.012 C 
ATOM     18  C   UNL     1       6.248   2.053  -4.466  1.00  0.00    -0.067 C 
ATOM     19  C   UNL     1       3.919   2.042  -3.371  1.00  0.00     0.009 C 
ATOM     20  C   UNL     1       5.398   1.570  -3.278  1.00  0.00     0.021 C 
ATOM     21  C   UNL     1       7.394   1.388  -4.771  1.00  0.00    -0.027 C 
ATOM     22  C   UNL     1       5.536   0.031  -2.969  1.00  0.00    -0.023 C 
ATOM     23  C   UNL     1       7.681  -0.021  -4.328  1.00  0.00     0.031 C 
ATOM     24  C   UNL     1       7.057  -0.307  -2.965  1.00  0.00     0.002 C 
ATOM     25  C   UNL     1       4.984  -0.263  -1.543  1.00  0.00     0.010 C 
ATOM     26  C   UNL     1       4.752  -0.792  -4.042  1.00  0.00     0.012 C 
ATOM     27  C   UNL     1       7.362  -1.747  -2.503  1.00  0.00     0.036 C 
ATOM     28  C   UNL     1       5.292  -1.689  -1.056  1.00  0.00     0.032 C 
ATOM     29  C   UNL     1       6.793  -2.008  -1.099  1.00  0.00     0.114 C 
BRANCH  29  30
ATOM     30  O   UNL     1       7.471  -1.229  -0.142  1.00  0.00    -0.393 OA
ATOM     31  H   UNL     1       7.191  -0.286  -0.294  1.00  0.00     0.210 HD
ENDBRANCH  29  30
ENDBRANCH   9  11
ENDBRANCH   1   9
TORSDOF 7
ENDMDL
MODEL 9
REMARK VINA RESULT:    -4.055      4.244      9.817
REMARK INTER + INTRA:          -7.709
REMARK INTER:                  -5.542
REMARK INTRA:                  -2.168
REMARK UNBOUND:                -2.114
REMARK SMILES CC[C@@H](CC[C@@H](C)[C@@H]1CC[C@@H]2C3=CC[C@@H]4C[C@@H](O)CC[C@@]4(C)[C@@H]3CC[C@@]21C)C(C)C
REMARK SMILES IDX 5 1 4 2 3 3 2 4 1 5 28 6 29 7 30 8 6 9 7 10 8 11 9 12 26 13
REMARK SMILES IDX 10 14 11 15 25 16 27 17 12 18 24 19 23 20 13 21 21 22 14 23
REMARK SMILES IDX 15 24 20 25 22 26 16 27 19 28 17 29 18 30
REMARK H PARENT 18 31
REMARK Flexibility Score: inf
ROOT
ATOM      1  C   UNL     1       1.061   5.970  -4.558  1.00  0.00     0.004 C 
ENDROOT
BRANCH   1   2
ATOM      2  C   UNL     1       2.027   4.937  -5.196  1.00  0.00     0.004 C 
BRANCH   2   3
ATOM      3  C   UNL     1       1.540   3.459  -5.307  1.00  0.00    -0.009 C 
BRANCH   3   4
ATOM      4  C   UNL     1       2.299   2.510  -4.329  1.00  0.00     0.000 C 
ATOM      5  C   UNL     1       1.405   1.427  -3.725  1.00  0.00     0.004 C 
ENDBRANCH   3   4
BRANCH   3   6
ATOM      6  C   UNL     1       1.402   2.964  -6.795  1.00  0.00    -0.014 C 
ATOM      7  C   UNL     1       0.003   2.460  -7.194  1.00  0.00     0.007 C 
ATOM      8  C   UNL     1       1.867   4.032  -7.805  1.00  0.00     0.007 C 
ENDBRANCH   3   6
ENDBRANCH   2   3
ENDBRANCH   1   2
BRANCH   1   9
ATOM      9  C   UNL     1      -0.004   6.582  -5.520  1.00  0.00    -0.011 C 
ATOM     10  C   UNL     1       0.653   7.348  -6.684  1.00  0.00     0.008 C 
BRANCH   9  11
ATOM     11  C   UNL     1      -1.136   5.610  -6.026  1.00  0.00    -0.002 C 
ATOM     12  C   UNL     1      -1.735   6.013  -7.361  1.00  0.00     0.005 C 
ATOM     13  C   UNL     1      -2.363   5.178  -5.134  1.00  0.00    -0.023 C 
ATOM     14  C   UNL     1      -2.882   5.057  -7.558  1.00  0.00     0.009 C 
ATOM     15  C   UNL     1      -3.515   4.840  -6.163  1.00  0.00     0.021 C 
ATOM     16  C   UNL     1      -2.805   6.299  -4.160  1.00  0.00     0.008 C 
ATOM     17  C   UNL     1      -1.997   3.903  -4.324  1.00  0.00     0.012 C 
ATOM     18  C   UNL     1      -4.833   5.608  -5.904  1.00  0.00    -0.067 C 
ATOM     19  C   UNL     1      -4.125   5.977  -3.458  1.00  0.00     0.009 C 
ATOM     20  C   UNL     1      -5.303   5.740  -4.445  1.00  0.00     0.021 C 
ATOM     21  C   UNL     1      -5.721   5.842  -6.908  1.00  0.00    -0.027 C 
ATOM     22  C   UNL     1      -6.493   6.752  -4.240  1.00  0.00    -0.023 C 
ATOM     23  C   UNL     1      -6.989   6.630  -6.728  1.00  0.00     0.031 C 
ATOM     24  C   UNL     1      -7.564   6.436  -5.327  1.00  0.00     0.002 C 
ATOM     25  C   UNL     1      -7.149   6.506  -2.848  1.00  0.00     0.010 C 
ATOM     26  C   UNL     1      -5.961   8.217  -4.345  1.00  0.00     0.012 C 
ATOM     27  C   UNL     1      -8.873   7.231  -5.146  1.00  0.00     0.036 C 
ATOM     28  C   UNL     1      -8.464   7.277  -2.653  1.00  0.00     0.032 C 
ATOM     29  C   UNL     1      -9.486   6.977  -3.759  1.00  0.00     0.114 C 
BRANCH  29  30
ATOM     30  O   UNL     1      -9.922   5.643  -3.653  1.00  0.00    -0.393 OA
ATOM     31  H   UNL     1      -9.229   5.160  -3.125  1.00  0.00     0.210 HD
ENDBRANCH  29  30
ENDBRANCH   9  11
ENDBRANCH   1   9
TORSDOF 7
ENDMDL
