MODEL 1
REMARK VINA RESULT:    -4.992      0.000      0.000
REMARK INTER + INTRA:          -6.003
REMARK INTER:                  -5.867
REMARK INTRA:                  -0.136
REMARK UNBOUND:                -0.136
REMARK SMILES O=C([O-])C=Cc1ccc(O)c(O)c1
REMARK SMILES IDX 6 1 13 2 7 3 11 4 8 5 9 6 5 7 4 8 2 9 1 10 3 11 12 12 10 14
REMARK H PARENT 12 13 10 15
REMARK Flexibility Score: inf
ROOT
ATOM      1  C   UNL     1      43.880  10.579  10.812  1.00  0.00    -0.022 A 
ATOM      2  C   UNL     1      43.966  10.726   9.413  1.00  0.00     0.058 A 
ATOM      3  C   UNL     1      43.904  11.731  11.616  1.00  0.00     0.012 A 
ATOM      4  C   UNL     1      44.045  12.001   8.833  1.00  0.00     0.157 A 
ATOM      5  C   UNL     1      43.981  13.001  11.039  1.00  0.00     0.051 A 
ATOM      6  C   UNL     1      44.049  13.140   9.647  1.00  0.00     0.157 A 
ENDROOT
BRANCH   1   7
ATOM      7  C   UNL     1      43.807   9.253  11.474  1.00  0.00     0.010 C 
ATOM      8  C   UNL     1      42.779   8.859  12.236  1.00  0.00     0.025 C 
BRANCH   8   9
ATOM      9  C   UNL     1      42.754   7.538  12.885  1.00  0.00     0.064 C 
ATOM     10  O   UNL     1      43.834   6.998  13.239  1.00  0.00    -0.545 OA
ATOM     11  O   UNL     1      41.552   6.876  13.119  1.00  0.00    -0.545 OA
ENDBRANCH   8   9
ENDBRANCH   1   7
BRANCH   4  12
ATOM     12  O   UNL     1      44.125  12.144   7.449  1.00  0.00    -0.504 OA
ATOM     13  H   UNL     1      44.588  11.452   6.870  1.00  0.00     0.293 HD
ENDBRANCH   4  12
BRANCH   6  14
ATOM     14  O   UNL     1      44.125  14.405   9.066  1.00  0.00    -0.504 OA
ATOM     15  H   UNL     1      45.016  14.847   8.875  1.00  0.00     0.293 HD
ENDBRANCH   6  14
TORSDOF 4
ENDMDL
MODEL 2
REMARK VINA RESULT:    -4.755      3.265      4.240
REMARK INTER + INTRA:          -5.725
REMARK INTER:                  -5.602
REMARK INTRA:                  -0.124
REMARK UNBOUND:                -0.136
REMARK SMILES O=C([O-])C=Cc1ccc(O)c(O)c1
REMARK SMILES IDX 6 1 13 2 7 3 11 4 8 5 9 6 5 7 4 8 2 9 1 10 3 11 12 12 10 14
REMARK H PARENT 12 13 10 15
REMARK Flexibility Score: inf
ROOT
ATOM      1  C   UNL     1      42.739  10.774   9.957  1.00  0.00    -0.022 A 
ATOM      2  C   UNL     1      42.276  10.507  11.262  1.00  0.00     0.058 A 
ATOM      3  C   UNL     1      43.652  11.823   9.764  1.00  0.00     0.012 A 
ATOM      4  C   UNL     1      42.741  11.261  12.350  1.00  0.00     0.157 A 
ATOM      5  C   UNL     1      44.116  12.572  10.848  1.00  0.00     0.051 A 
ATOM      6  C   UNL     1      43.664  12.292  12.144  1.00  0.00     0.157 A 
ENDROOT
BRANCH   1   7
ATOM      7  C   UNL     1      42.270  10.014   8.772  1.00  0.00     0.010 C 
ATOM      8  C   UNL     1      41.453   8.955   8.844  1.00  0.00     0.025 C 
BRANCH   8   9
ATOM      9  C   UNL     1      41.022   8.222   7.642  1.00  0.00     0.064 C 
ATOM     10  O   UNL     1      41.886   7.703   6.888  1.00  0.00    -0.545 OA
ATOM     11  O   UNL     1      39.673   8.091   7.327  1.00  0.00    -0.545 OA
ENDBRANCH   8   9
ENDBRANCH   1   7
BRANCH   4  12
ATOM     12  O   UNL     1      42.284  10.994  13.640  1.00  0.00    -0.504 OA
ATOM     13  H   UNL     1      42.655  11.485  14.446  1.00  0.00     0.293 HD
ENDBRANCH   4  12
BRANCH   6  14
ATOM     14  O   UNL     1      44.125  13.036  13.229  1.00  0.00    -0.504 OA
ATOM     15  H   UNL     1      44.313  14.029  13.149  1.00  0.00     0.293 HD
ENDBRANCH   6  14
TORSDOF 4
ENDMDL
MODEL 3
REMARK VINA RESULT:    -3.912      2.910      5.759
REMARK INTER + INTRA:          -4.735
REMARK INTER:                  -4.611
REMARK INTRA:                  -0.124
REMARK UNBOUND:                -0.136
REMARK SMILES O=C([O-])C=Cc1ccc(O)c(O)c1
REMARK SMILES IDX 6 1 13 2 7 3 11 4 8 5 9 6 5 7 4 8 2 9 1 10 3 11 12 12 10 14
REMARK H PARENT 12 13 10 15
REMARK Flexibility Score: inf
ROOT
ATOM      1  C   UNL     1      42.264  10.269   9.096  1.00  0.00    -0.022 A 
ATOM      2  C   UNL     1      42.246   9.132   9.928  1.00  0.00     0.058 A 
ATOM      3  C   UNL     1      41.535  10.242   7.896  1.00  0.00     0.012 A 
ATOM      4  C   UNL     1      41.492   8.003   9.574  1.00  0.00     0.157 A 
ATOM      5  C   UNL     1      40.782   9.119   7.545  1.00  0.00     0.051 A 
ATOM      6  C   UNL     1      40.756   7.998   8.384  1.00  0.00     0.157 A 
ENDROOT
BRANCH   1   7
ATOM      7  C   UNL     1      43.055  11.482   9.419  1.00  0.00     0.010 C 
ATOM      8  C   UNL     1      42.911  12.185  10.551  1.00  0.00     0.025 C 
BRANCH   8   9
ATOM      9  C   UNL     1      43.709  13.391  10.824  1.00  0.00     0.064 C 
ATOM     10  O   UNL     1      44.125  13.609  11.992  1.00  0.00    -0.545 OA
ATOM     11  O   UNL     1      44.014  14.295   9.812  1.00  0.00    -0.545 OA
ENDBRANCH   8   9
ENDBRANCH   1   7
BRANCH   4  12
ATOM     12  O   UNL     1      41.472   6.880  10.400  1.00  0.00    -0.504 OA
ATOM     13  H   UNL     1      40.690   6.688  11.017  1.00  0.00     0.293 HD
ENDBRANCH   4  12
BRANCH   6  14
ATOM     14  O   UNL     1      40.005   6.875   8.038  1.00  0.00    -0.504 OA
ATOM     15  H   UNL     1      39.972   6.056   8.634  1.00  0.00     0.293 HD
ENDBRANCH   6  14
TORSDOF 4
ENDMDL
MODEL 4
REMARK VINA RESULT:    -3.618      1.366      5.845
REMARK INTER + INTRA:          -4.389
REMARK INTER:                  -4.263
REMARK INTRA:                  -0.126
REMARK UNBOUND:                -0.136
REMARK SMILES O=C([O-])C=Cc1ccc(O)c(O)c1
REMARK SMILES IDX 6 1 13 2 7 3 11 4 8 5 9 6 5 7 4 8 2 9 1 10 3 11 12 12 10 14
REMARK H PARENT 12 13 10 15
REMARK Flexibility Score: inf
ROOT
ATOM      1  C   UNL     1      42.844  10.490  12.096  1.00  0.00    -0.022 A 
ATOM      2  C   UNL     1      42.734   9.311  11.332  1.00  0.00     0.058 A 
ATOM      3  C   UNL     1      42.518  10.446  13.461  1.00  0.00     0.012 A 
ATOM      4  C   UNL     1      42.331   8.109  11.933  1.00  0.00     0.157 A 
ATOM      5  C   UNL     1      42.119   9.249  14.060  1.00  0.00     0.051 A 
ATOM      6  C   UNL     1      42.027   8.077  13.299  1.00  0.00     0.157 A 
ENDROOT
BRANCH   1   7
ATOM      7  C   UNL     1      43.253  11.789  11.506  1.00  0.00     0.010 C 
ATOM      8  C   UNL     1      43.504  11.967  10.202  1.00  0.00     0.025 C 
BRANCH   8   9
ATOM      9  C   UNL     1      43.920  13.271   9.660  1.00  0.00     0.064 C 
ATOM     10  O   UNL     1      44.098  14.240  10.443  1.00  0.00    -0.545 OA
ATOM     11  O   UNL     1      44.125  13.449   8.296  1.00  0.00    -0.545 OA
ENDBRANCH   8   9
ENDBRANCH   1   7
BRANCH   4  12
ATOM     12  O   UNL     1      42.227   6.942  11.177  1.00  0.00    -0.504 OA
ATOM     13  H   UNL     1      43.047   6.415  10.898  1.00  0.00     0.293 HD
ENDBRANCH   4  12
BRANCH   6  14
ATOM     14  O   UNL     1      41.630   6.879  13.892  1.00  0.00    -0.504 OA
ATOM     15  H   UNL     1      40.902   6.303  13.486  1.00  0.00     0.293 HD
ENDBRANCH   6  14
TORSDOF 4
ENDMDL
MODEL 5
REMARK VINA RESULT:    -3.610      1.853      5.732
REMARK INTER + INTRA:          -4.379
REMARK INTER:                  -4.241
REMARK INTRA:                  -0.138
REMARK UNBOUND:                -0.136
REMARK SMILES O=C([O-])C=Cc1ccc(O)c(O)c1
REMARK SMILES IDX 6 1 13 2 7 3 11 4 8 5 9 6 5 7 4 8 2 9 1 10 3 11 12 12 10 14
REMARK H PARENT 12 13 10 15
REMARK Flexibility Score: inf
ROOT
ATOM      1  C   UNL     1      43.104  10.606  11.693  1.00  0.00    -0.022 A 
ATOM      2  C   UNL     1      43.450   9.453  10.959  1.00  0.00     0.058 A 
ATOM      3  C   UNL     1      42.861  10.484  13.071  1.00  0.00     0.012 A 
ATOM      4  C   UNL     1      43.576   8.212  11.601  1.00  0.00     0.157 A 
ATOM      5  C   UNL     1      42.988   9.249  13.710  1.00  0.00     0.051 A 
ATOM      6  C   UNL     1      43.349   8.111  12.978  1.00  0.00     0.157 A 
ENDROOT
BRANCH   1   7
ATOM      7  C   UNL     1      42.946  11.938  11.059  1.00  0.00     0.010 C 
ATOM      8  C   UNL     1      41.821  12.663  11.123  1.00  0.00     0.025 C 
BRANCH   8   9
ATOM      9  C   UNL     1      41.703  13.976  10.468  1.00  0.00     0.064 C 
ATOM     10  O   UNL     1      40.586  14.555  10.434  1.00  0.00    -0.545 OA
ATOM     11  O   UNL     1      42.809  14.591   9.889  1.00  0.00    -0.545 OA
ENDBRANCH   8   9
ENDBRANCH   1   7
BRANCH   4  12
ATOM     12  O   UNL     1      43.922   7.073  10.875  1.00  0.00    -0.504 OA
ATOM     13  H   UNL     1      44.791   6.580  11.045  1.00  0.00     0.293 HD
ENDBRANCH   4  12
BRANCH   6  14
ATOM     14  O   UNL     1      43.478   6.875  13.612  1.00  0.00    -0.504 OA
ATOM     15  H   UNL     1      42.674   6.388  13.991  1.00  0.00     0.293 HD
ENDBRANCH   6  14
TORSDOF 4
ENDMDL
MODEL 6
REMARK VINA RESULT:    -3.272      1.807      6.002
REMARK INTER + INTRA:          -3.982
REMARK INTER:                  -3.857
REMARK INTRA:                  -0.125
REMARK UNBOUND:                -0.136
REMARK SMILES O=C([O-])C=Cc1ccc(O)c(O)c1
REMARK SMILES IDX 6 1 13 2 7 3 11 4 8 5 9 6 5 7 4 8 2 9 1 10 3 11 12 12 10 14
REMARK H PARENT 12 13 10 15
REMARK Flexibility Score: inf
ROOT
ATOM      1  C   UNL     1      43.029  10.662  11.611  1.00  0.00    -0.022 A 
ATOM      2  C   UNL     1      42.304  10.319  12.770  1.00  0.00     0.058 A 
ATOM      3  C   UNL     1      43.931   9.729  11.075  1.00  0.00     0.012 A 
ATOM      4  C   UNL     1      42.462   9.056  13.361  1.00  0.00     0.157 A 
ATOM      5  C   UNL     1      44.087   8.471  11.662  1.00  0.00     0.051 A 
ATOM      6  C   UNL     1      43.351   8.130  12.804  1.00  0.00     0.157 A 
ENDROOT
BRANCH   1   7
ATOM      7  C   UNL     1      42.908  11.988  10.956  1.00  0.00     0.010 C 
ATOM      8  C   UNL     1      41.837  12.783  11.081  1.00  0.00     0.025 C 
BRANCH   8   9
ATOM      9  C   UNL     1      41.753  14.087  10.402  1.00  0.00     0.064 C 
ATOM     10  O   UNL     1      42.801  14.629   9.966  1.00  0.00    -0.545 OA
ATOM     11  O   UNL     1      40.530  14.729  10.231  1.00  0.00    -0.545 OA
ENDBRANCH   8   9
ENDBRANCH   1   7
BRANCH   4  12
ATOM     12  O   UNL     1      41.741   8.717  14.505  1.00  0.00    -0.504 OA
ATOM     13  H   UNL     1      42.093   8.040  15.172  1.00  0.00     0.293 HD
ENDBRANCH   4  12
BRANCH   6  14
ATOM     14  O   UNL     1      43.503   6.875  13.393  1.00  0.00    -0.504 OA
ATOM     15  H   UNL     1      42.908   6.095  13.139  1.00  0.00     0.293 HD
ENDBRANCH   6  14
TORSDOF 4
ENDMDL
MODEL 7
REMARK VINA RESULT:    -2.291      1.522      2.032
REMARK INTER + INTRA:          -2.830
REMARK INTER:                  -2.697
REMARK INTRA:                  -0.133
REMARK UNBOUND:                -0.136
REMARK SMILES O=C([O-])C=Cc1ccc(O)c(O)c1
REMARK SMILES IDX 6 1 13 2 7 3 11 4 8 5 9 6 5 7 4 8 2 9 1 10 3 11 12 12 10 14
REMARK H PARENT 12 13 10 15
REMARK Flexibility Score: inf
ROOT
ATOM      1  C   UNL     1      43.296   9.434  10.673  1.00  0.00    -0.022 A 
ATOM      2  C   UNL     1      43.628   8.837   9.440  1.00  0.00     0.058 A 
ATOM      3  C   UNL     1      43.169  10.831  10.736  1.00  0.00     0.012 A 
ATOM      4  C   UNL     1      43.801   9.624   8.292  1.00  0.00     0.157 A 
ATOM      5  C   UNL     1      43.339  11.615   9.592  1.00  0.00     0.051 A 
ATOM      6  C   UNL     1      43.653  11.014   8.367  1.00  0.00     0.157 A 
ENDROOT
BRANCH   1   7
ATOM      7  C   UNL     1      43.115   8.648  11.919  1.00  0.00     0.010 C 
ATOM      8  C   UNL     1      41.926   8.437  12.498  1.00  0.00     0.025 C 
BRANCH   8   9
ATOM      9  C   UNL     1      41.793   7.661  13.742  1.00  0.00     0.064 C 
ATOM     10  O   UNL     1      42.717   6.880  14.088  1.00  0.00    -0.545 OA
ATOM     11  O   UNL     1      40.663   7.779  14.544  1.00  0.00    -0.545 OA
ENDBRANCH   8   9
ENDBRANCH   1   7
BRANCH   4  12
ATOM     12  O   UNL     1      44.125   9.032   7.072  1.00  0.00    -0.504 OA
ATOM     13  H   UNL     1      43.603   9.236   6.227  1.00  0.00     0.293 HD
ENDBRANCH   4  12
BRANCH   6  14
ATOM     14  O   UNL     1      43.823  11.791   7.222  1.00  0.00    -0.504 OA
ATOM     15  H   UNL     1      43.908  12.799   7.274  1.00  0.00     0.293 HD
ENDBRANCH   6  14
TORSDOF 4
ENDMDL
