MODEL 1
REMARK VINA RESULT:    -4.177      0.000      0.000
REMARK INTER + INTRA:         -17.234
REMARK INTER:                 -11.014
REMARK INTRA:                  -6.220
REMARK UNBOUND:                -6.220
REMARK SMILES CCCCCCCCCCCCCCCCCCCCCCCCCCCCCC(=O)[O-]
REMARK SMILES IDX 16 1 17 2 18 3 19 4 20 5 21 6 22 7 23 8 24 9 25 10 26 11
REMARK SMILES IDX 27 12 28 13 29 14 30 15 31 16 32 17 15 18 14 19 13 20 12 21
REMARK SMILES IDX 11 22 10 23 9 24 8 25 7 26 6 27 5 28 4 29 3 30 2 31 1 32
REMARK H PARENT
REMARK Flexibility Score: inf
ROOT
ATOM      1  C   UNL     1      55.295  39.105  49.413  1.00  0.00     0.000 C 
ENDROOT
BRANCH   1   2
ATOM      2  C   UNL     1      54.837  38.739  47.992  1.00  0.00     0.000 C 
BRANCH   2   3
ATOM      3  C   UNL     1      54.584  39.980  47.114  1.00  0.00     0.000 C 
BRANCH   3   4
ATOM      4  C   UNL     1      53.133  40.112  46.619  1.00  0.00     0.000 C 
BRANCH   4   5
ATOM      5  C   UNL     1      52.149  40.504  47.733  1.00  0.00     0.000 C 
BRANCH   5   6
ATOM      6  C   UNL     1      52.215  42.003  48.075  1.00  0.00     0.000 C 
BRANCH   6   7
ATOM      7  C   UNL     1      51.907  42.889  46.855  1.00  0.00     0.000 C 
BRANCH   7   8
ATOM      8  C   UNL     1      52.513  44.298  46.976  1.00  0.00     0.000 C 
BRANCH   8   9
ATOM      9  C   UNL     1      53.196  44.533  48.335  1.00  0.00     0.000 C 
BRANCH   9  10
ATOM     10  C   UNL     1      54.697  44.838  48.198  1.00  0.00     0.000 C 
BRANCH  10  11
ATOM     11  C   UNL     1      55.538  43.580  47.924  1.00  0.00     0.000 C 
BRANCH  11  12
ATOM     12  C   UNL     1      55.745  42.766  49.209  1.00  0.00     0.000 C 
BRANCH  12  13
ATOM     13  C   UNL     1      57.224  42.437  49.472  1.00  0.00     0.006 C 
BRANCH  13  14
ATOM     14  C   UNL     1      57.794  41.431  48.462  1.00  0.00     0.053 C 
BRANCH  14  15
ATOM     15  C   UNL     1      59.004  41.991  47.779  1.00  0.00     0.041 C 
ATOM     16  O   UNL     1      59.043  43.208  47.457  1.00  0.00    -0.550 OA
ATOM     17  O   UNL     1      60.092  41.170  47.505  1.00  0.00    -0.550 OA
ENDBRANCH  14  15
ENDBRANCH  13  14
ENDBRANCH  12  13
ENDBRANCH  11  12
ENDBRANCH  10  11
ENDBRANCH   9  10
ENDBRANCH   8   9
ENDBRANCH   7   8
ENDBRANCH   6   7
ENDBRANCH   5   6
ENDBRANCH   4   5
ENDBRANCH   3   4
ENDBRANCH   2   3
ENDBRANCH   1   2
BRANCH   1  18
ATOM     18  C   UNL     1      54.751  38.109  50.446  1.00  0.00     0.000 C 
BRANCH  18  19
ATOM     19  C   UNL     1      53.410  38.590  51.019  1.00  0.00     0.000 C 
BRANCH  19  20
ATOM     20  C   UNL     1      53.296  40.126  51.068  1.00  0.00     0.000 C 
BRANCH  20  21
ATOM     21  C   UNL     1      51.923  40.658  51.520  1.00  0.00     0.000 C 
BRANCH  21  22
ATOM     22  C   UNL     1      52.025  41.954  52.342  1.00  0.00     0.000 C 
BRANCH  22  23
ATOM     23  C   UNL     1      52.915  43.009  51.665  1.00  0.00     0.000 C 
BRANCH  23  24
ATOM     24  C   UNL     1      54.210  43.311  52.454  1.00  0.00    -0.000 C 
BRANCH  24  25
ATOM     25  C   UNL     1      54.282  42.516  53.766  1.00  0.00    -0.000 C 
BRANCH  25  26
ATOM     26  C   UNL     1      55.680  41.891  53.982  1.00  0.00    -0.000 C 
BRANCH  26  27
ATOM     27  C   UNL     1      56.209  41.161  52.733  1.00  0.00    -0.000 C 
BRANCH  27  28
ATOM     28  C   UNL     1      57.416  40.244  53.027  1.00  0.00    -0.000 C 
BRANCH  28  29
ATOM     29  C   UNL     1      57.041  38.779  53.323  1.00  0.00    -0.000 C 
BRANCH  29  30
ATOM     30  C   UNL     1      57.832  37.747  52.494  1.00  0.00    -0.000 C 
BRANCH  30  31
ATOM     31  C   UNL     1      58.392  38.346  51.197  1.00  0.00    -0.003 C 
ATOM     32  C   UNL     1      59.050  37.275  50.333  1.00  0.00     0.004 C 
ENDBRANCH  30  31
ENDBRANCH  29  30
ENDBRANCH  28  29
ENDBRANCH  27  28
ENDBRANCH  26  27
ENDBRANCH  25  26
ENDBRANCH  24  25
ENDBRANCH  23  24
ENDBRANCH  22  23
ENDBRANCH  21  22
ENDBRANCH  20  21
ENDBRANCH  19  20
ENDBRANCH  18  19
ENDBRANCH   1  18
TORSDOF 28
ENDMDL
MODEL 2
REMARK VINA RESULT:    -4.122      1.076      2.370
REMARK INTER + INTRA:         -17.089
REMARK INTER:                 -10.830
REMARK INTRA:                  -6.259
REMARK UNBOUND:                -6.220
REMARK SMILES CCCCCCCCCCCCCCCCCCCCCCCCCCCCCC(=O)[O-]
REMARK SMILES IDX 16 1 17 2 18 3 19 4 20 5 21 6 22 7 23 8 24 9 25 10 26 11
REMARK SMILES IDX 27 12 28 13 29 14 30 15 31 16 32 17 15 18 14 19 13 20 12 21
REMARK SMILES IDX 11 22 10 23 9 24 8 25 7 26 6 27 5 28 4 29 3 30 2 31 1 32
REMARK H PARENT
REMARK Flexibility Score: inf
ROOT
ATOM      1  C   UNL     1      53.344  38.736  51.129  1.00  0.00     0.000 C 
ENDROOT
BRANCH   1   2
ATOM      2  C   UNL     1      54.580  38.117  50.458  1.00  0.00     0.000 C 
BRANCH   2   3
ATOM      3  C   UNL     1      55.242  39.069  49.442  1.00  0.00     0.000 C 
BRANCH   3   4
ATOM      4  C   UNL     1      54.895  38.760  47.975  1.00  0.00     0.000 C 
BRANCH   4   5
ATOM      5  C   UNL     1      54.376  39.986  47.207  1.00  0.00     0.000 C 
BRANCH   5   6
ATOM      6  C   UNL     1      52.859  39.925  46.960  1.00  0.00     0.000 C 
BRANCH   6   7
ATOM      7  C   UNL     1      52.067  40.733  48.002  1.00  0.00     0.000 C 
BRANCH   7   8
ATOM      8  C   UNL     1      52.141  42.250  47.759  1.00  0.00     0.000 C 
BRANCH   8   9
ATOM      9  C   UNL     1      52.685  43.018  48.977  1.00  0.00     0.000 C 
BRANCH   9  10
ATOM     10  C   UNL     1      53.476  44.275  48.580  1.00  0.00     0.000 C 
BRANCH  10  11
ATOM     11  C   UNL     1      54.929  44.248  49.082  1.00  0.00     0.000 C 
BRANCH  11  12
ATOM     12  C   UNL     1      55.392  42.808  49.347  1.00  0.00     0.000 C 
BRANCH  12  13
ATOM     13  C   UNL     1      56.920  42.691  49.476  1.00  0.00     0.006 C 
BRANCH  13  14
ATOM     14  C   UNL     1      57.522  41.691  48.477  1.00  0.00     0.053 C 
BRANCH  14  15
ATOM     15  C   UNL     1      58.686  40.969  49.085  1.00  0.00     0.041 C 
ATOM     16  O   UNL     1      59.671  41.615  49.529  1.00  0.00    -0.550 OA
ATOM     17  O   UNL     1      58.676  39.581  49.169  1.00  0.00    -0.550 OA
ENDBRANCH  14  15
ENDBRANCH  13  14
ENDBRANCH  12  13
ENDBRANCH  11  12
ENDBRANCH  10  11
ENDBRANCH   9  10
ENDBRANCH   8   9
ENDBRANCH   7   8
ENDBRANCH   6   7
ENDBRANCH   5   6
ENDBRANCH   4   5
ENDBRANCH   3   4
ENDBRANCH   2   3
ENDBRANCH   1   2
BRANCH   1  18
ATOM     18  C   UNL     1      53.512  40.251  51.312  1.00  0.00     0.000 C 
BRANCH  18  19
ATOM     19  C   UNL     1      52.226  40.882  51.867  1.00  0.00     0.000 C 
BRANCH  19  20
ATOM     20  C   UNL     1      52.481  42.214  52.597  1.00  0.00     0.000 C 
BRANCH  20  21
ATOM     21  C   UNL     1      53.889  42.359  53.205  1.00  0.00     0.000 C 
BRANCH  21  22
ATOM     22  C   UNL     1      54.588  43.665  52.789  1.00  0.00     0.000 C 
BRANCH  22  23
ATOM     23  C   UNL     1      56.046  43.729  53.270  1.00  0.00     0.000 C 
BRANCH  23  24
ATOM     24  C   UNL     1      56.549  42.395  53.870  1.00  0.00    -0.000 C 
BRANCH  24  25
ATOM     25  C   UNL     1      57.594  41.718  52.971  1.00  0.00    -0.000 C 
BRANCH  25  26
ATOM     26  C   UNL     1      57.039  40.434  52.313  1.00  0.00    -0.000 C 
BRANCH  26  27
ATOM     27  C   UNL     1      56.508  39.416  53.341  1.00  0.00    -0.000 C 
BRANCH  27  28
ATOM     28  C   UNL     1      57.397  38.160  53.471  1.00  0.00    -0.000 C 
BRANCH  28  29
ATOM     29  C   UNL     1      57.700  37.458  52.134  1.00  0.00    -0.000 C 
BRANCH  29  30
ATOM     30  C   UNL     1      59.194  37.154  51.906  1.00  0.00    -0.000 C 
BRANCH  30  31
ATOM     31  C   UNL     1      59.418  35.785  51.249  1.00  0.00    -0.003 C 
ATOM     32  C   UNL     1      59.800  35.934  49.780  1.00  0.00     0.004 C 
ENDBRANCH  30  31
ENDBRANCH  29  30
ENDBRANCH  28  29
ENDBRANCH  27  28
ENDBRANCH  26  27
ENDBRANCH  25  26
ENDBRANCH  24  25
ENDBRANCH  23  24
ENDBRANCH  22  23
ENDBRANCH  21  22
ENDBRANCH  20  21
ENDBRANCH  19  20
ENDBRANCH  18  19
ENDBRANCH   1  18
TORSDOF 28
ENDMDL
MODEL 3
REMARK VINA RESULT:    -4.087      3.200      5.941
REMARK INTER + INTRA:         -16.998
REMARK INTER:                 -11.071
REMARK INTRA:                  -5.927
REMARK UNBOUND:                -6.220
REMARK SMILES CCCCCCCCCCCCCCCCCCCCCCCCCCCCCC(=O)[O-]
REMARK SMILES IDX 16 1 17 2 18 3 19 4 20 5 21 6 22 7 23 8 24 9 25 10 26 11
REMARK SMILES IDX 27 12 28 13 29 14 30 15 31 16 32 17 15 18 14 19 13 20 12 21
REMARK SMILES IDX 11 22 10 23 9 24 8 25 7 26 6 27 5 28 4 29 3 30 2 31 1 32
REMARK H PARENT
REMARK Flexibility Score: inf
ROOT
ATOM      1  C   UNL     1      54.950  39.578  48.559  1.00  0.00     0.000 C 
ENDROOT
BRANCH   1   2
ATOM      2  C   UNL     1      54.826  38.483  49.631  1.00  0.00     0.000 C 
BRANCH   2   3
ATOM      3  C   UNL     1      53.805  38.844  50.730  1.00  0.00     0.000 C 
BRANCH   3   4
ATOM      4  C   UNL     1      53.542  40.353  50.869  1.00  0.00     0.000 C 
BRANCH   4   5
ATOM      5  C   UNL     1      52.183  40.671  51.514  1.00  0.00     0.000 C 
BRANCH   5   6
ATOM      6  C   UNL     1      52.213  41.971  52.337  1.00  0.00     0.000 C 
BRANCH   6   7
ATOM      7  C   UNL     1      53.579  42.202  53.007  1.00  0.00     0.000 C 
BRANCH   7   8
ATOM      8  C   UNL     1      53.715  41.465  54.350  1.00  0.00     0.000 C 
BRANCH   8   9
ATOM      9  C   UNL     1      54.732  40.312  54.290  1.00  0.00     0.000 C 
BRANCH   9  10
ATOM     10  C   UNL     1      56.177  40.783  54.525  1.00  0.00     0.000 C 
BRANCH  10  11
ATOM     11  C   UNL     1      56.900  39.968  55.609  1.00  0.00     0.000 C 
BRANCH  11  12
ATOM     12  C   UNL     1      55.954  38.943  56.249  1.00  0.00     0.000 C 
BRANCH  12  13
ATOM     13  C   UNL     1      56.700  37.735  56.841  1.00  0.00     0.006 C 
BRANCH  13  14
ATOM     14  C   UNL     1      57.826  37.230  55.927  1.00  0.00     0.053 C 
BRANCH  14  15
ATOM     15  C   UNL     1      58.106  35.780  56.182  1.00  0.00     0.041 C 
ATOM     16  O   UNL     1      59.161  35.252  55.743  1.00  0.00    -0.550 OA
ATOM     17  O   UNL     1      57.204  35.015  56.914  1.00  0.00    -0.550 OA
ENDBRANCH  14  15
ENDBRANCH  13  14
ENDBRANCH  12  13
ENDBRANCH  11  12
ENDBRANCH  10  11
ENDBRANCH   9  10
ENDBRANCH   8   9
ENDBRANCH   7   8
ENDBRANCH   6   7
ENDBRANCH   5   6
ENDBRANCH   4   5
ENDBRANCH   3   4
ENDBRANCH   2   3
ENDBRANCH   1   2
BRANCH   1  18
ATOM     18  C   UNL     1      54.397  39.098  47.210  1.00  0.00     0.000 C 
BRANCH  18  19
ATOM     19  C   UNL     1      53.396  40.113  46.635  1.00  0.00     0.000 C 
BRANCH  19  20
ATOM     20  C   UNL     1      52.258  40.452  47.616  1.00  0.00     0.000 C 
BRANCH  20  21
ATOM     21  C   UNL     1      51.961  41.957  47.764  1.00  0.00     0.000 C 
BRANCH  21  22
ATOM     22  C   UNL     1      53.229  42.797  47.995  1.00  0.00     0.000 C 
BRANCH  22  23
ATOM     23  C   UNL     1      53.136  43.664  49.260  1.00  0.00     0.000 C 
BRANCH  23  24
ATOM     24  C   UNL     1      54.516  44.120  49.789  1.00  0.00    -0.000 C 
BRANCH  24  25
ATOM     25  C   UNL     1      55.591  43.040  49.596  1.00  0.00    -0.000 C 
BRANCH  25  26
ATOM     26  C   UNL     1      56.398  42.795  50.892  1.00  0.00    -0.000 C 
BRANCH  26  27
ATOM     27  C   UNL     1      57.100  41.424  50.910  1.00  0.00    -0.000 C 
BRANCH  27  28
ATOM     28  C   UNL     1      58.001  41.184  49.678  1.00  0.00    -0.000 C 
BRANCH  28  29
ATOM     29  C   UNL     1      58.470  39.726  49.511  1.00  0.00    -0.000 C 
BRANCH  29  30
ATOM     30  C   UNL     1      58.931  39.058  50.822  1.00  0.00    -0.000 C 
BRANCH  30  31
ATOM     31  C   UNL     1      58.121  37.797  51.151  1.00  0.00    -0.003 C 
ATOM     32  C   UNL     1      57.237  38.012  52.375  1.00  0.00     0.004 C 
ENDBRANCH  30  31
ENDBRANCH  29  30
ENDBRANCH  28  29
ENDBRANCH  27  28
ENDBRANCH  26  27
ENDBRANCH  25  26
ENDBRANCH  24  25
ENDBRANCH  23  24
ENDBRANCH  22  23
ENDBRANCH  21  22
ENDBRANCH  20  21
ENDBRANCH  19  20
ENDBRANCH  18  19
ENDBRANCH   1  18
TORSDOF 28
ENDMDL
MODEL 4
REMARK VINA RESULT:    -4.077      3.692      5.635
REMARK INTER + INTRA:         -16.971
REMARK INTER:                 -12.462
REMARK INTRA:                  -4.509
REMARK UNBOUND:                -6.220
REMARK SMILES CCCCCCCCCCCCCCCCCCCCCCCCCCCCCC(=O)[O-]
REMARK SMILES IDX 16 1 17 2 18 3 19 4 20 5 21 6 22 7 23 8 24 9 25 10 26 11
REMARK SMILES IDX 27 12 28 13 29 14 30 15 31 16 32 17 15 18 14 19 13 20 12 21
REMARK SMILES IDX 11 22 10 23 9 24 8 25 7 26 6 27 5 28 4 29 3 30 2 31 1 32
REMARK H PARENT
REMARK Flexibility Score: inf
ROOT
ATOM      1  C   UNL     1      52.834  39.522  50.029  1.00  0.00     0.000 C 
ENDROOT
BRANCH   1   2
ATOM      2  C   UNL     1      52.066  40.126  48.843  1.00  0.00     0.000 C 
BRANCH   2   3
ATOM      3  C   UNL     1      52.867  40.066  47.527  1.00  0.00     0.000 C 
BRANCH   3   4
ATOM      4  C   UNL     1      52.961  41.412  46.788  1.00  0.00     0.000 C 
BRANCH   4   5
ATOM      5  C   UNL     1      52.088  42.509  47.420  1.00  0.00     0.000 C 
BRANCH   5   6
ATOM      6  C   UNL     1      52.254  43.868  46.717  1.00  0.00     0.000 C 
BRANCH   6   7
ATOM      7  C   UNL     1      53.139  44.834  47.523  1.00  0.00     0.000 C 
BRANCH   7   8
ATOM      8  C   UNL     1      53.511  44.283  48.910  1.00  0.00     0.000 C 
BRANCH   8   9
ATOM      9  C   UNL     1      54.896  44.759  49.383  1.00  0.00     0.000 C 
BRANCH   9  10
ATOM     10  C   UNL     1      55.844  43.592  49.708  1.00  0.00     0.000 C 
BRANCH  10  11
ATOM     11  C   UNL     1      55.229  42.219  49.392  1.00  0.00     0.000 C 
BRANCH  11  12
ATOM     12  C   UNL     1      56.259  41.098  49.590  1.00  0.00     0.000 C 
BRANCH  12  13
ATOM     13  C   UNL     1      56.670  40.922  51.062  1.00  0.00     0.006 C 
BRANCH  13  14
ATOM     14  C   UNL     1      56.023  39.690  51.713  1.00  0.00     0.053 C 
BRANCH  14  15
ATOM     15  C   UNL     1      57.069  38.779  52.278  1.00  0.00     0.041 C 
ATOM     16  O   UNL     1      57.006  38.411  53.481  1.00  0.00    -0.550 OA
ATOM     17  O   UNL     1      58.110  38.328  51.473  1.00  0.00    -0.550 OA
ENDBRANCH  14  15
ENDBRANCH  13  14
ENDBRANCH  12  13
ENDBRANCH  11  12
ENDBRANCH  10  11
ENDBRANCH   9  10
ENDBRANCH   8   9
ENDBRANCH   7   8
ENDBRANCH   6   7
ENDBRANCH   5   6
ENDBRANCH   4   5
ENDBRANCH   3   4
ENDBRANCH   2   3
ENDBRANCH   1   2
BRANCH   1  18
ATOM     18  C   UNL     1      52.444  40.203  51.348  1.00  0.00     0.000 C 
BRANCH  18  19
ATOM     19  C   UNL     1      52.001  41.654  51.105  1.00  0.00     0.000 C 
BRANCH  19  20
ATOM     20  C   UNL     1      52.301  42.579  52.300  1.00  0.00     0.000 C 
BRANCH  20  21
ATOM     21  C   UNL     1      53.793  42.905  52.505  1.00  0.00     0.000 C 
BRANCH  21  22
ATOM     22  C   UNL     1      54.243  42.748  53.968  1.00  0.00     0.000 C 
BRANCH  22  23
ATOM     23  C   UNL     1      54.038  41.319  54.494  1.00  0.00     0.000 C 
BRANCH  23  24
ATOM     24  C   UNL     1      55.215  40.814  55.361  1.00  0.00    -0.000 C 
BRANCH  24  25
ATOM     25  C   UNL     1      54.729  40.103  56.633  1.00  0.00    -0.000 C 
BRANCH  25  26
ATOM     26  C   UNL     1      53.217  40.326  56.873  1.00  0.00    -0.000 C 
BRANCH  26  27
ATOM     27  C   UNL     1      52.766  39.899  58.283  1.00  0.00    -0.000 C 
BRANCH  27  28
ATOM     28  C   UNL     1      51.372  39.236  58.302  1.00  0.00    -0.000 C 
BRANCH  28  29
ATOM     29  C   UNL     1      50.295  40.047  59.048  1.00  0.00    -0.000 C 
BRANCH  29  30
ATOM     30  C   UNL     1      48.863  39.502  58.875  1.00  0.00    -0.000 C 
BRANCH  30  31
ATOM     31  C   UNL     1      47.797  40.584  59.092  1.00  0.00    -0.003 C 
ATOM     32  C   UNL     1      48.394  41.982  58.964  1.00  0.00     0.004 C 
ENDBRANCH  30  31
ENDBRANCH  29  30
ENDBRANCH  28  29
ENDBRANCH  27  28
ENDBRANCH  26  27
ENDBRANCH  25  26
ENDBRANCH  24  25
ENDBRANCH  23  24
ENDBRANCH  22  23
ENDBRANCH  21  22
ENDBRANCH  20  21
ENDBRANCH  19  20
ENDBRANCH  18  19
ENDBRANCH   1  18
TORSDOF 28
ENDMDL
MODEL 5
REMARK VINA RESULT:    -4.070      1.300      2.185
REMARK INTER + INTRA:         -16.952
REMARK INTER:                 -10.586
REMARK INTRA:                  -6.366
REMARK UNBOUND:                -6.220
REMARK SMILES CCCCCCCCCCCCCCCCCCCCCCCCCCCCCC(=O)[O-]
REMARK SMILES IDX 16 1 17 2 18 3 19 4 20 5 21 6 22 7 23 8 24 9 25 10 26 11
REMARK SMILES IDX 27 12 28 13 29 14 30 15 31 16 32 17 15 18 14 19 13 20 12 21
REMARK SMILES IDX 11 22 10 23 9 24 8 25 7 26 6 27 5 28 4 29 3 30 2 31 1 32
REMARK H PARENT
REMARK Flexibility Score: inf
ROOT
ATOM      1  C   UNL     1      55.243  39.206  49.451  1.00  0.00     0.000 C 
ENDROOT
BRANCH   1   2
ATOM      2  C   UNL     1      54.947  38.832  47.990  1.00  0.00     0.000 C 
BRANCH   2   3
ATOM      3  C   UNL     1      54.466  40.037  47.156  1.00  0.00     0.000 C 
BRANCH   3   4
ATOM      4  C   UNL     1      52.995  39.947  46.716  1.00  0.00     0.000 C 
BRANCH   4   5
ATOM      5  C   UNL     1      52.011  40.412  47.802  1.00  0.00     0.000 C 
BRANCH   5   6
ATOM      6  C   UNL     1      52.206  41.892  48.177  1.00  0.00     0.000 C 
BRANCH   6   7
ATOM      7  C   UNL     1      51.926  42.832  46.992  1.00  0.00     0.000 C 
BRANCH   7   8
ATOM      8  C   UNL     1      52.607  44.202  47.145  1.00  0.00     0.000 C 
BRANCH   8   9
ATOM      9  C   UNL     1      53.125  44.448  48.573  1.00  0.00     0.000 C 
BRANCH   9  10
ATOM     10  C   UNL     1      54.642  44.696  48.619  1.00  0.00     0.000 C 
BRANCH  10  11
ATOM     11  C   UNL     1      55.462  43.426  48.340  1.00  0.00     0.000 C 
BRANCH  11  12
ATOM     12  C   UNL     1      56.237  43.551  47.021  1.00  0.00     0.000 C 
BRANCH  12  13
ATOM     13  C   UNL     1      57.296  42.449  46.848  1.00  0.00     0.006 C 
BRANCH  13  14
ATOM     14  C   UNL     1      57.620  41.728  48.166  1.00  0.00     0.053 C 
BRANCH  14  15
ATOM     15  C   UNL     1      59.075  41.858  48.498  1.00  0.00     0.041 C 
ATOM     16  O   UNL     1      59.499  42.880  49.099  1.00  0.00    -0.550 OA
ATOM     17  O   UNL     1      59.961  40.844  48.150  1.00  0.00    -0.550 OA
ENDBRANCH  14  15
ENDBRANCH  13  14
ENDBRANCH  12  13
ENDBRANCH  11  12
ENDBRANCH  10  11
ENDBRANCH   9  10
ENDBRANCH   8   9
ENDBRANCH   7   8
ENDBRANCH   6   7
ENDBRANCH   5   6
ENDBRANCH   4   5
ENDBRANCH   3   4
ENDBRANCH   2   3
ENDBRANCH   1   2
BRANCH   1  18
ATOM     18  C   UNL     1      54.656  38.171  50.419  1.00  0.00     0.000 C 
BRANCH  18  19
ATOM     19  C   UNL     1      53.384  38.708  51.092  1.00  0.00     0.000 C 
BRANCH  19  20
ATOM     20  C   UNL     1      53.357  40.245  51.179  1.00  0.00     0.000 C 
BRANCH  20  21
ATOM     21  C   UNL     1      52.057  40.837  51.760  1.00  0.00     0.000 C 
BRANCH  21  22
ATOM     22  C   UNL     1      52.250  42.249  52.338  1.00  0.00     0.000 C 
BRANCH  22  23
ATOM     23  C   UNL     1      53.523  42.930  51.812  1.00  0.00     0.000 C 
BRANCH  23  24
ATOM     24  C   UNL     1      54.487  43.373  52.936  1.00  0.00    -0.000 C 
BRANCH  24  25
ATOM     25  C   UNL     1      55.924  43.554  52.424  1.00  0.00    -0.000 C 
BRANCH  25  26
ATOM     26  C   UNL     1      56.392  42.339  51.588  1.00  0.00    -0.000 C 
BRANCH  26  27
ATOM     27  C   UNL     1      57.301  41.382  52.383  1.00  0.00    -0.000 C 
BRANCH  27  28
ATOM     28  C   UNL     1      56.580  40.096  52.841  1.00  0.00    -0.000 C 
BRANCH  28  29
ATOM     29  C   UNL     1      56.982  39.611  54.248  1.00  0.00    -0.000 C 
BRANCH  29  30
ATOM     30  C   UNL     1      55.825  39.608  55.268  1.00  0.00    -0.000 C 
BRANCH  30  31
ATOM     31  C   UNL     1      54.595  40.371  54.757  1.00  0.00    -0.003 C 
ATOM     32  C   UNL     1      53.681  40.778  55.908  1.00  0.00     0.004 C 
ENDBRANCH  30  31
ENDBRANCH  29  30
ENDBRANCH  28  29
ENDBRANCH  27  28
ENDBRANCH  26  27
ENDBRANCH  25  26
ENDBRANCH  24  25
ENDBRANCH  23  24
ENDBRANCH  22  23
ENDBRANCH  21  22
ENDBRANCH  20  21
ENDBRANCH  19  20
ENDBRANCH  18  19
ENDBRANCH   1  18
TORSDOF 28
ENDMDL
MODEL 6
REMARK VINA RESULT:    -4.038      4.611      7.996
REMARK INTER + INTRA:         -16.869
REMARK INTER:                 -11.690
REMARK INTRA:                  -5.179
REMARK UNBOUND:                -6.220
REMARK SMILES CCCCCCCCCCCCCCCCCCCCCCCCCCCCCC(=O)[O-]
REMARK SMILES IDX 16 1 17 2 18 3 19 4 20 5 21 6 22 7 23 8 24 9 25 10 26 11
REMARK SMILES IDX 27 12 28 13 29 14 30 15 31 16 32 17 15 18 14 19 13 20 12 21
REMARK SMILES IDX 11 22 10 23 9 24 8 25 7 26 6 27 5 28 4 29 3 30 2 31 1 32
REMARK H PARENT
REMARK Flexibility Score: inf
ROOT
ATOM      1  C   UNL     1      53.227  42.625  49.659  1.00  0.00     0.000 C 
ENDROOT
BRANCH   1   2
ATOM      2  C   UNL     1      52.499  43.364  50.793  1.00  0.00     0.000 C 
BRANCH   2   3
ATOM      3  C   UNL     1      52.127  42.433  51.963  1.00  0.00     0.000 C 
BRANCH   3   4
ATOM      4  C   UNL     1      52.579  40.975  51.772  1.00  0.00     0.000 C 
BRANCH   4   5
ATOM      5  C   UNL     1      53.705  40.561  52.733  1.00  0.00     0.000 C 
BRANCH   5   6
ATOM      6  C   UNL     1      53.686  41.369  54.043  1.00  0.00     0.000 C 
BRANCH   6   7
ATOM      7  C   UNL     1      55.077  41.453  54.694  1.00  0.00     0.000 C 
BRANCH   7   8
ATOM      8  C   UNL     1      55.961  40.237  54.367  1.00  0.00     0.000 C 
BRANCH   8   9
ATOM      9  C   UNL     1      55.923  39.165  55.470  1.00  0.00     0.000 C 
BRANCH   9  10
ATOM     10  C   UNL     1      55.623  39.754  56.858  1.00  0.00     0.000 C 
BRANCH  10  11
ATOM     11  C   UNL     1      54.568  38.948  57.632  1.00  0.00     0.000 C 
BRANCH  11  12
ATOM     12  C   UNL     1      53.652  39.877  58.441  1.00  0.00     0.000 C 
BRANCH  12  13
ATOM     13  C   UNL     1      52.275  40.072  57.785  1.00  0.00     0.006 C 
BRANCH  13  14
ATOM     14  C   UNL     1      51.130  40.106  58.809  1.00  0.00     0.053 C 
BRANCH  14  15
ATOM     15  C   UNL     1      49.938  39.357  58.297  1.00  0.00     0.041 C 
ATOM     16  O   UNL     1      50.092  38.296  57.636  1.00  0.00    -0.550 OA
ATOM     17  O   UNL     1      48.656  39.827  58.560  1.00  0.00    -0.550 OA
ENDBRANCH  14  15
ENDBRANCH  13  14
ENDBRANCH  12  13
ENDBRANCH  11  12
ENDBRANCH  10  11
ENDBRANCH   9  10
ENDBRANCH   8   9
ENDBRANCH   7   8
ENDBRANCH   6   7
ENDBRANCH   5   6
ENDBRANCH   4   5
ENDBRANCH   3   4
ENDBRANCH   2   3
ENDBRANCH   1   2
BRANCH   1  18
ATOM     18  C   UNL     1      52.651  43.006  48.288  1.00  0.00     0.000 C 
BRANCH  18  19
ATOM     19  C   UNL     1      51.952  41.804  47.634  1.00  0.00     0.000 C 
BRANCH  19  20
ATOM     20  C   UNL     1      52.529  40.452  48.096  1.00  0.00     0.000 C 
BRANCH  20  21
ATOM     21  C   UNL     1      53.392  39.725  47.047  1.00  0.00     0.000 C 
BRANCH  21  22
ATOM     22  C   UNL     1      54.609  39.014  47.663  1.00  0.00     0.000 C 
BRANCH  22  23
ATOM     23  C   UNL     1      54.834  39.404  49.132  1.00  0.00     0.000 C 
BRANCH  23  24
ATOM     24  C   UNL     1      54.736  38.206  50.104  1.00  0.00    -0.000 C 
BRANCH  24  25
ATOM     25  C   UNL     1      55.955  38.118  51.035  1.00  0.00    -0.000 C 
BRANCH  25  26
ATOM     26  C   UNL     1      57.191  38.822  50.429  1.00  0.00    -0.000 C 
BRANCH  26  27
ATOM     27  C   UNL     1      58.079  39.494  51.494  1.00  0.00    -0.000 C 
BRANCH  27  28
ATOM     28  C   UNL     1      58.590  40.888  51.070  1.00  0.00    -0.000 C 
BRANCH  28  29
ATOM     29  C   UNL     1      57.901  42.062  51.793  1.00  0.00    -0.000 C 
BRANCH  29  30
ATOM     30  C   UNL     1      56.512  42.422  51.228  1.00  0.00    -0.000 C 
BRANCH  30  31
ATOM     31  C   UNL     1      56.229  43.929  51.295  1.00  0.00    -0.003 C 
ATOM     32  C   UNL     1      55.610  44.315  52.634  1.00  0.00     0.004 C 
ENDBRANCH  30  31
ENDBRANCH  29  30
ENDBRANCH  28  29
ENDBRANCH  27  28
ENDBRANCH  26  27
ENDBRANCH  25  26
ENDBRANCH  24  25
ENDBRANCH  23  24
ENDBRANCH  22  23
ENDBRANCH  21  22
ENDBRANCH  20  21
ENDBRANCH  19  20
ENDBRANCH  18  19
ENDBRANCH   1  18
TORSDOF 28
ENDMDL
MODEL 7
REMARK VINA RESULT:    -4.037      5.103      8.583
REMARK INTER + INTRA:         -16.866
REMARK INTER:                 -12.286
REMARK INTRA:                  -4.580
REMARK UNBOUND:                -6.220
REMARK SMILES CCCCCCCCCCCCCCCCCCCCCCCCCCCCCC(=O)[O-]
REMARK SMILES IDX 16 1 17 2 18 3 19 4 20 5 21 6 22 7 23 8 24 9 25 10 26 11
REMARK SMILES IDX 27 12 28 13 29 14 30 15 31 16 32 17 15 18 14 19 13 20 12 21
REMARK SMILES IDX 11 22 10 23 9 24 8 25 7 26 6 27 5 28 4 29 3 30 2 31 1 32
REMARK H PARENT
REMARK Flexibility Score: inf
ROOT
ATOM      1  C   UNL     1      52.133  40.742  52.068  1.00  0.00     0.000 C 
ENDROOT
BRANCH   1   2
ATOM      2  C   UNL     1      52.622  41.877  52.981  1.00  0.00     0.000 C 
BRANCH   2   3
ATOM      3  C   UNL     1      54.138  41.807  53.252  1.00  0.00     0.000 C 
BRANCH   3   4
ATOM      4  C   UNL     1      54.560  40.634  54.155  1.00  0.00     0.000 C 
BRANCH   4   5
ATOM      5  C   UNL     1      56.061  40.638  54.487  1.00  0.00     0.000 C 
BRANCH   5   6
ATOM      6  C   UNL     1      56.554  39.270  54.989  1.00  0.00     0.000 C 
BRANCH   6   7
ATOM      7  C   UNL     1      56.591  39.193  56.525  1.00  0.00     0.000 C 
BRANCH   7   8
ATOM      8  C   UNL     1      55.545  38.221  57.097  1.00  0.00     0.000 C 
BRANCH   8   9
ATOM      9  C   UNL     1      54.646  38.878  58.158  1.00  0.00     0.000 C 
BRANCH   9  10
ATOM     10  C   UNL     1      54.127  40.258  57.724  1.00  0.00     0.000 C 
BRANCH  10  11
ATOM     11  C   UNL     1      52.616  40.265  57.440  1.00  0.00     0.000 C 
BRANCH  11  12
ATOM     12  C   UNL     1      51.902  39.169  58.244  1.00  0.00     0.000 C 
BRANCH  12  13
ATOM     13  C   UNL     1      50.385  39.139  57.989  1.00  0.00     0.006 C 
BRANCH  13  14
ATOM     14  C   UNL     1      49.566  39.360  59.270  1.00  0.00     0.053 C 
BRANCH  14  15
ATOM     15  C   UNL     1      48.829  40.663  59.211  1.00  0.00     0.041 C 
ATOM     16  O   UNL     1      47.570  40.680  59.235  1.00  0.00    -0.550 OA
ATOM     17  O   UNL     1      49.534  41.859  59.138  1.00  0.00    -0.550 OA
ENDBRANCH  14  15
ENDBRANCH  13  14
ENDBRANCH  12  13
ENDBRANCH  11  12
ENDBRANCH  10  11
ENDBRANCH   9  10
ENDBRANCH   8   9
ENDBRANCH   7   8
ENDBRANCH   6   7
ENDBRANCH   5   6
ENDBRANCH   4   5
ENDBRANCH   3   4
ENDBRANCH   2   3
ENDBRANCH   1   2
BRANCH   1  18
ATOM     18  C   UNL     1      52.244  41.133  50.588  1.00  0.00     0.000 C 
BRANCH  18  19
ATOM     19  C   UNL     1      51.935  39.933  49.679  1.00  0.00     0.000 C 
BRANCH  19  20
ATOM     20  C   UNL     1      51.798  40.325  48.196  1.00  0.00     0.000 C 
BRANCH  20  21
ATOM     21  C   UNL     1      53.118  40.320  47.401  1.00  0.00     0.000 C 
BRANCH  21  22
ATOM     22  C   UNL     1      53.314  41.592  46.559  1.00  0.00     0.000 C 
BRANCH  22  23
ATOM     23  C   UNL     1      52.499  42.780  47.094  1.00  0.00     0.000 C 
BRANCH  23  24
ATOM     24  C   UNL     1      53.379  43.907  47.684  1.00  0.00    -0.000 C 
BRANCH  24  25
ATOM     25  C   UNL     1      53.148  44.088  49.191  1.00  0.00    -0.000 C 
BRANCH  25  26
ATOM     26  C   UNL     1      54.459  43.928  49.996  1.00  0.00    -0.000 C 
BRANCH  26  27
ATOM     27  C   UNL     1      55.486  43.021  49.291  1.00  0.00    -0.000 C 
BRANCH  27  28
ATOM     28  C   UNL     1      56.036  41.901  50.202  1.00  0.00    -0.000 C 
BRANCH  28  29
ATOM     29  C   UNL     1      55.712  40.475  49.717  1.00  0.00    -0.000 C 
BRANCH  29  30
ATOM     30  C   UNL     1      55.435  39.471  50.855  1.00  0.00    -0.000 C 
BRANCH  30  31
ATOM     31  C   UNL     1      56.001  38.077  50.553  1.00  0.00    -0.003 C 
ATOM     32  C   UNL     1      57.415  37.925  51.104  1.00  0.00     0.004 C 
ENDBRANCH  30  31
ENDBRANCH  29  30
ENDBRANCH  28  29
ENDBRANCH  27  28
ENDBRANCH  26  27
ENDBRANCH  25  26
ENDBRANCH  24  25
ENDBRANCH  23  24
ENDBRANCH  22  23
ENDBRANCH  21  22
ENDBRANCH  20  21
ENDBRANCH  19  20
ENDBRANCH  18  19
ENDBRANCH   1  18
TORSDOF 28
ENDMDL
MODEL 8
REMARK VINA RESULT:    -4.031      2.852      6.238
REMARK INTER + INTRA:         -16.849
REMARK INTER:                 -10.386
REMARK INTRA:                  -6.463
REMARK UNBOUND:                -6.220
REMARK SMILES CCCCCCCCCCCCCCCCCCCCCCCCCCCCCC(=O)[O-]
REMARK SMILES IDX 16 1 17 2 18 3 19 4 20 5 21 6 22 7 23 8 24 9 25 10 26 11
REMARK SMILES IDX 27 12 28 13 29 14 30 15 31 16 32 17 15 18 14 19 13 20 12 21
REMARK SMILES IDX 11 22 10 23 9 24 8 25 7 26 6 27 5 28 4 29 3 30 2 31 1 32
REMARK H PARENT
REMARK Flexibility Score: inf
ROOT
ATOM      1  C   UNL     1      57.258  38.786  50.818  1.00  0.00     0.000 C 
ENDROOT
BRANCH   1   2
ATOM      2  C   UNL     1      55.937  38.303  51.438  1.00  0.00     0.000 C 
BRANCH   2   3
ATOM      3  C   UNL     1      54.850  38.032  50.378  1.00  0.00     0.000 C 
BRANCH   3   4
ATOM      4  C   UNL     1      53.532  38.787  50.625  1.00  0.00     0.000 C 
BRANCH   4   5
ATOM      5  C   UNL     1      53.734  40.136  51.335  1.00  0.00     0.000 C 
BRANCH   5   6
ATOM      6  C   UNL     1      52.455  40.628  52.034  1.00  0.00     0.000 C 
BRANCH   6   7
ATOM      7  C   UNL     1      52.534  42.119  52.407  1.00  0.00     0.000 C 
BRANCH   7   8
ATOM      8  C   UNL     1      52.645  43.034  51.175  1.00  0.00     0.000 C 
BRANCH   8   9
ATOM      9  C   UNL     1      54.091  43.484  50.903  1.00  0.00     0.000 C 
BRANCH   9  10
ATOM     10  C   UNL     1      54.918  43.634  52.192  1.00  0.00     0.000 C 
BRANCH  10  11
ATOM     11  C   UNL     1      56.387  43.222  52.008  1.00  0.00     0.000 C 
BRANCH  11  12
ATOM     12  C   UNL     1      56.715  41.973  52.837  1.00  0.00     0.000 C 
BRANCH  12  13
ATOM     13  C   UNL     1      55.698  41.724  53.964  1.00  0.00     0.006 C 
BRANCH  13  14
ATOM     14  C   UNL     1      55.736  40.281  54.487  1.00  0.00     0.053 C 
BRANCH  14  15
ATOM     15  C   UNL     1      54.819  40.117  55.660  1.00  0.00     0.041 C 
ATOM     16  O   UNL     1      55.088  39.282  56.563  1.00  0.00    -0.550 OA
ATOM     17  O   UNL     1      53.670  40.894  55.759  1.00  0.00    -0.550 OA
ENDBRANCH  14  15
ENDBRANCH  13  14
ENDBRANCH  12  13
ENDBRANCH  11  12
ENDBRANCH  10  11
ENDBRANCH   9  10
ENDBRANCH   8   9
ENDBRANCH   7   8
ENDBRANCH   6   7
ENDBRANCH   5   6
ENDBRANCH   4   5
ENDBRANCH   3   4
ENDBRANCH   2   3
ENDBRANCH   1   2
BRANCH   1  18
ATOM     18  C   UNL     1      57.029  39.397  49.430  1.00  0.00     0.000 C 
BRANCH  18  19
ATOM     19  C   UNL     1      57.733  40.758  49.307  1.00  0.00     0.000 C 
BRANCH  19  20
ATOM     20  C   UNL     1      56.812  41.860  48.752  1.00  0.00     0.000 C 
BRANCH  20  21
ATOM     21  C   UNL     1      57.123  42.295  47.307  1.00  0.00     0.000 C 
BRANCH  21  22
ATOM     22  C   UNL     1      56.694  43.743  47.012  1.00  0.00     0.000 C 
BRANCH  22  23
ATOM     23  C   UNL     1      56.537  44.579  48.292  1.00  0.00     0.000 C 
BRANCH  23  24
ATOM     24  C   UNL     1      55.335  45.551  48.241  1.00  0.00    -0.000 C 
BRANCH  24  25
ATOM     25  C   UNL     1      54.361  45.202  47.106  1.00  0.00    -0.000 C 
BRANCH  25  26
ATOM     26  C   UNL     1      52.900  45.122  47.607  1.00  0.00    -0.000 C 
BRANCH  26  27
ATOM     27  C   UNL     1      51.927  44.600  46.533  1.00  0.00    -0.000 C 
BRANCH  27  28
ATOM     28  C   UNL     1      51.965  43.064  46.371  1.00  0.00    -0.000 C 
BRANCH  28  29
ATOM     29  C   UNL     1      52.044  42.289  47.701  1.00  0.00    -0.000 C 
BRANCH  29  30
ATOM     30  C   UNL     1      53.358  41.506  47.895  1.00  0.00    -0.000 C 
BRANCH  30  31
ATOM     31  C   UNL     1      53.834  40.835  46.599  1.00  0.00    -0.003 C 
ATOM     32  C   UNL     1      54.291  39.402  46.856  1.00  0.00     0.004 C 
ENDBRANCH  30  31
ENDBRANCH  29  30
ENDBRANCH  28  29
ENDBRANCH  27  28
ENDBRANCH  26  27
ENDBRANCH  25  26
ENDBRANCH  24  25
ENDBRANCH  23  24
ENDBRANCH  22  23
ENDBRANCH  21  22
ENDBRANCH  20  21
ENDBRANCH  19  20
ENDBRANCH  18  19
ENDBRANCH   1  18
TORSDOF 28
ENDMDL
MODEL 9
REMARK VINA RESULT:    -3.994      3.218      7.813
REMARK INTER + INTRA:         -16.751
REMARK INTER:                 -11.487
REMARK INTRA:                  -5.264
REMARK UNBOUND:                -6.220
REMARK SMILES CCCCCCCCCCCCCCCCCCCCCCCCCCCCCC(=O)[O-]
REMARK SMILES IDX 16 1 17 2 18 3 19 4 20 5 21 6 22 7 23 8 24 9 25 10 26 11
REMARK SMILES IDX 27 12 28 13 29 14 30 15 31 16 32 17 15 18 14 19 13 20 12 21
REMARK SMILES IDX 11 22 10 23 9 24 8 25 7 26 6 27 5 28 4 29 3 30 2 31 1 32
REMARK H PARENT
REMARK Flexibility Score: inf
ROOT
ATOM      1  C   UNL     1      53.275  40.521  52.014  1.00  0.00     0.000 C 
ENDROOT
BRANCH   1   2
ATOM      2  C   UNL     1      52.957  39.531  50.882  1.00  0.00     0.000 C 
BRANCH   2   3
ATOM      3  C   UNL     1      53.727  38.203  51.024  1.00  0.00     0.000 C 
BRANCH   3   4
ATOM      4  C   UNL     1      55.138  38.229  50.411  1.00  0.00     0.000 C 
BRANCH   4   5
ATOM      5  C   UNL     1      56.254  38.295  51.467  1.00  0.00     0.000 C 
BRANCH   5   6
ATOM      6  C   UNL     1      57.415  39.209  51.038  1.00  0.00     0.000 C 
BRANCH   6   7
ATOM      7  C   UNL     1      58.186  38.642  49.833  1.00  0.00     0.000 C 
BRANCH   7   8
ATOM      8  C   UNL     1      59.515  37.981  50.236  1.00  0.00     0.000 C 
BRANCH   8   9
ATOM      9  C   UNL     1      59.435  36.445  50.240  1.00  0.00     0.000 C 
BRANCH   9  10
ATOM     10  C   UNL     1      58.984  35.879  51.597  1.00  0.00     0.000 C 
BRANCH  10  11
ATOM     11  C   UNL     1      59.597  36.631  52.789  1.00  0.00     0.000 C 
BRANCH  11  12
ATOM     12  C   UNL     1      58.903  36.238  54.102  1.00  0.00     0.000 C 
BRANCH  12  13
ATOM     13  C   UNL     1      58.255  37.439  54.812  1.00  0.00     0.006 C 
BRANCH  13  14
ATOM     14  C   UNL     1      58.305  37.317  56.343  1.00  0.00     0.053 C 
BRANCH  14  15
ATOM     15  C   UNL     1      57.057  36.674  56.865  1.00  0.00     0.041 C 
ATOM     16  O   UNL     1      57.029  35.436  57.094  1.00  0.00    -0.550 OA
ATOM     17  O   UNL     1      55.925  37.446  57.107  1.00  0.00    -0.550 OA
ENDBRANCH  14  15
ENDBRANCH  13  14
ENDBRANCH  12  13
ENDBRANCH  11  12
ENDBRANCH  10  11
ENDBRANCH   9  10
ENDBRANCH   8   9
ENDBRANCH   7   8
ENDBRANCH   6   7
ENDBRANCH   5   6
ENDBRANCH   4   5
ENDBRANCH   3   4
ENDBRANCH   2   3
ENDBRANCH   1   2
BRANCH   1  18
ATOM     18  C   UNL     1      52.746  41.925  51.688  1.00  0.00     0.000 C 
BRANCH  18  19
ATOM     19  C   UNL     1      53.899  42.935  51.586  1.00  0.00     0.000 C 
BRANCH  19  20
ATOM     20  C   UNL     1      55.271  42.260  51.404  1.00  0.00     0.000 C 
BRANCH  20  21
ATOM     21  C   UNL     1      55.945  42.523  50.043  1.00  0.00     0.000 C 
BRANCH  21  22
ATOM     22  C   UNL     1      55.581  41.469  48.983  1.00  0.00     0.000 C 
BRANCH  22  23
ATOM     23  C   UNL     1      56.018  41.884  47.570  1.00  0.00     0.000 C 
BRANCH  23  24
ATOM     24  C   UNL     1      55.216  41.178  46.452  1.00  0.00    -0.000 C 
BRANCH  24  25
ATOM     25  C   UNL     1      54.466  39.944  46.974  1.00  0.00    -0.000 C 
BRANCH  25  26
ATOM     26  C   UNL     1      52.952  40.020  46.669  1.00  0.00    -0.000 C 
BRANCH  26  27
ATOM     27  C   UNL     1      52.122  40.500  47.876  1.00  0.00    -0.000 C 
BRANCH  27  28
ATOM     28  C   UNL     1      52.196  42.026  48.098  1.00  0.00    -0.000 C 
BRANCH  28  29
ATOM     29  C   UNL     1      51.919  42.864  46.835  1.00  0.00    -0.000 C 
BRANCH  29  30
ATOM     30  C   UNL     1      52.707  44.188  46.773  1.00  0.00    -0.000 C 
BRANCH  30  31
ATOM     31  C   UNL     1      52.987  44.767  48.166  1.00  0.00    -0.003 C 
ATOM     32  C   UNL     1      54.443  45.198  48.303  1.00  0.00     0.004 C 
ENDBRANCH  30  31
ENDBRANCH  29  30
ENDBRANCH  28  29
ENDBRANCH  27  28
ENDBRANCH  26  27
ENDBRANCH  25  26
ENDBRANCH  24  25
ENDBRANCH  23  24
ENDBRANCH  22  23
ENDBRANCH  21  22
ENDBRANCH  20  21
ENDBRANCH  19  20
ENDBRANCH  18  19
ENDBRANCH   1  18
TORSDOF 28
ENDMDL
