MODEL 1
REMARK VINA RESULT:    -8.088      0.000      0.000
REMARK INTER + INTRA:         -10.001
REMARK INTER:                  -9.743
REMARK INTRA:                  -0.258
REMARK UNBOUND:                -0.258
REMARK SMILES O=c1c(O)c(-c2ccc(O)c(O)c2)oc2cc(O)cc(O)c12
REMARK SMILES IDX 5 1 3 2 2 3 1 4 22 5 20 6 19 7 17 8 16 9 15 10 14 11 6 12
REMARK SMILES IDX 7 13 8 14 9 15 13 16 11 17 10 18 12 20 4 22 21 24 18 26
REMARK H PARENT 10 19 12 21 4 23 21 25 18 27
REMARK Flexibility Score: inf
ROOT
ATOM      1  C   UNL     1      33.045  73.647  31.210  1.00  0.00     0.180 A 
ATOM      2  C   UNL     1      33.230  74.214  32.482  1.00  0.00     0.208 A 
ATOM      3  C   UNL     1      33.856  75.468  32.584  1.00  0.00     0.238 A 
ATOM      4  O   UNL     1      34.068  75.946  33.728  1.00  0.00    -0.285 OA
ATOM      5  C   UNL     1      34.272  76.144  31.412  1.00  0.00     0.111 A 
ATOM      6  C   UNL     1      34.878  77.436  31.395  1.00  0.00     0.134 A 
ATOM      7  C   UNL     1      35.369  77.953  30.189  1.00  0.00     0.093 A 
ATOM      8  C   UNL     1      35.215  77.255  28.991  1.00  0.00     0.123 A 
ATOM      9  C   UNL     1      34.570  76.017  28.988  1.00  0.00     0.094 A 
ATOM     10  C   UNL     1      34.103  75.460  30.180  1.00  0.00     0.146 A 
ATOM     11  O   UNL     1      33.505  74.275  30.135  1.00  0.00    -0.452 OA
ENDROOT
BRANCH   1  12
ATOM     12  C   UNL     1      32.371  72.341  31.021  1.00  0.00     0.025 A 
ATOM     13  C   UNL     1      33.069  71.157  31.304  1.00  0.00     0.016 A 
ATOM     14  C   UNL     1      32.460  69.913  31.113  1.00  0.00     0.051 A 
ATOM     15  C   UNL     1      31.151  69.837  30.621  1.00  0.00     0.157 A 
ATOM     16  C   UNL     1      31.064  72.259  30.507  1.00  0.00     0.062 A 
ATOM     17  C   UNL     1      30.453  71.012  30.314  1.00  0.00     0.158 A 
BRANCH  15  18
ATOM     18  O   UNL     1      30.539  68.599  30.431  1.00  0.00    -0.504 OA
ATOM     19  H   UNL     1      30.064  68.121  31.188  1.00  0.00     0.293 HD
ENDBRANCH  15  18
BRANCH  17  20
ATOM     20  O   UNL     1      29.156  70.931  29.811  1.00  0.00    -0.504 OA
ATOM     21  H   UNL     1      28.348  71.113  30.396  1.00  0.00     0.293 HD
ENDBRANCH  17  20
ENDBRANCH   1  12
BRANCH   2  22
ATOM     22  O   UNL     1      32.831  73.519  33.628  1.00  0.00    -0.502 OA
ATOM     23  H   UNL     1      33.093  73.813  34.562  1.00  0.00     0.293 HD
ENDBRANCH   2  22
BRANCH   6  24
ATOM     24  O   UNL     1      34.999  78.257  32.520  1.00  0.00    -0.507 OA
ATOM     25  H   UNL     1      34.736  79.231  32.552  1.00  0.00     0.293 HD
ENDBRANCH   6  24
BRANCH   8  26
ATOM     26  O   UNL     1      35.701  77.806  27.807  1.00  0.00    -0.508 OA
ATOM     27  H   UNL     1      36.662  78.117  27.724  1.00  0.00     0.293 HD
ENDBRANCH   8  26
TORSDOF 6
ENDMDL
MODEL 2
REMARK VINA RESULT:    -8.065      1.656      3.286
REMARK INTER + INTRA:          -9.973
REMARK INTER:                  -9.661
REMARK INTRA:                  -0.312
REMARK UNBOUND:                -0.258
REMARK SMILES O=c1c(O)c(-c2ccc(O)c(O)c2)oc2cc(O)cc(O)c12
REMARK SMILES IDX 5 1 3 2 2 3 1 4 22 5 20 6 19 7 17 8 16 9 15 10 14 11 6 12
REMARK SMILES IDX 7 13 8 14 9 15 13 16 11 17 10 18 12 20 4 22 21 24 18 26
REMARK H PARENT 10 19 12 21 4 23 21 25 18 27
REMARK Flexibility Score: inf
ROOT
ATOM      1  C   UNL     1      33.374  73.121  31.576  1.00  0.00     0.180 A 
ATOM      2  C   UNL     1      34.141  73.791  30.608  1.00  0.00     0.208 A 
ATOM      3  C   UNL     1      34.901  74.907  30.994  1.00  0.00     0.238 A 
ATOM      4  O   UNL     1      35.542  75.536  30.112  1.00  0.00    -0.285 OA
ATOM      5  C   UNL     1      34.896  75.329  32.346  1.00  0.00     0.111 A 
ATOM      6  C   UNL     1      35.660  76.421  32.856  1.00  0.00     0.134 A 
ATOM      7  C   UNL     1      35.478  76.831  34.182  1.00  0.00     0.093 A 
ATOM      8  C   UNL     1      34.611  76.147  35.034  1.00  0.00     0.123 A 
ATOM      9  C   UNL     1      33.904  75.041  34.562  1.00  0.00     0.094 A 
ATOM     10  C   UNL     1      34.037  74.631  33.233  1.00  0.00     0.146 A 
ATOM     11  O   UNL     1      33.339  73.580  32.821  1.00  0.00    -0.452 OA
ENDROOT
BRANCH   1  12
ATOM     12  C   UNL     1      32.567  71.922  31.250  1.00  0.00     0.025 A 
ATOM     13  C   UNL     1      33.127  70.646  31.419  1.00  0.00     0.016 A 
ATOM     14  C   UNL     1      32.392  69.502  31.099  1.00  0.00     0.051 A 
ATOM     15  C   UNL     1      31.092  69.618  30.591  1.00  0.00     0.157 A 
ATOM     16  C   UNL     1      31.269  72.034  30.719  1.00  0.00     0.062 A 
ATOM     17  C   UNL     1      30.531  70.887  30.397  1.00  0.00     0.158 A 
BRANCH  15  18
ATOM     18  O   UNL     1      30.354  68.479  30.272  1.00  0.00    -0.504 OA
ATOM     19  H   UNL     1      30.787  67.671  29.842  1.00  0.00     0.293 HD
ENDBRANCH  15  18
BRANCH  17  20
ATOM     20  O   UNL     1      29.242  70.998  29.877  1.00  0.00    -0.504 OA
ATOM     21  H   UNL     1      28.427  71.010  30.479  1.00  0.00     0.293 HD
ENDBRANCH  17  20
ENDBRANCH   1  12
BRANCH   2  22
ATOM     22  O   UNL     1      34.114  73.371  29.274  1.00  0.00    -0.502 OA
ATOM     23  H   UNL     1      33.333  73.564  28.658  1.00  0.00     0.293 HD
ENDBRANCH   2  22
BRANCH   6  24
ATOM     24  O   UNL     1      36.622  77.115  32.115  1.00  0.00    -0.507 OA
ATOM     25  H   UNL     1      37.498  76.725  31.803  1.00  0.00     0.293 HD
ENDBRANCH   6  24
BRANCH   8  26
ATOM     26  O   UNL     1      34.467  76.573  36.354  1.00  0.00    -0.508 OA
ATOM     27  H   UNL     1      34.884  77.437  36.679  1.00  0.00     0.293 HD
ENDBRANCH   8  26
TORSDOF 6
ENDMDL
MODEL 3
REMARK VINA RESULT:    -7.774      1.553      2.923
REMARK INTER + INTRA:          -9.623
REMARK INTER:                  -9.714
REMARK INTRA:                   0.092
REMARK UNBOUND:                -0.258
REMARK SMILES O=c1c(O)c(-c2ccc(O)c(O)c2)oc2cc(O)cc(O)c12
REMARK SMILES IDX 5 1 3 2 2 3 1 4 22 5 20 6 19 7 17 8 16 9 15 10 14 11 6 12
REMARK SMILES IDX 7 13 8 14 9 15 13 16 11 17 10 18 12 20 4 22 21 24 18 26
REMARK H PARENT 10 19 12 21 4 23 21 25 18 27
REMARK Flexibility Score: inf
ROOT
ATOM      1  C   UNL     1      33.171  73.709  29.699  1.00  0.00     0.180 A 
ATOM      2  C   UNL     1      32.931  74.484  28.552  1.00  0.00     0.208 A 
ATOM      3  C   UNL     1      33.646  75.681  28.377  1.00  0.00     0.238 A 
ATOM      4  O   UNL     1      33.387  76.397  27.376  1.00  0.00    -0.285 OA
ATOM      5  C   UNL     1      34.604  76.076  29.342  1.00  0.00     0.111 A 
ATOM      6  C   UNL     1      35.414  77.248  29.245  1.00  0.00     0.134 A 
ATOM      7  C   UNL     1      36.234  77.610  30.320  1.00  0.00     0.093 A 
ATOM      8  C   UNL     1      36.323  76.811  31.460  1.00  0.00     0.123 A 
ATOM      9  C   UNL     1      35.580  75.633  31.539  1.00  0.00     0.094 A 
ATOM     10  C   UNL     1      34.725  75.263  30.498  1.00  0.00     0.146 A 
ATOM     11  O   UNL     1      34.028  74.140  30.618  1.00  0.00    -0.452 OA
ENDROOT
BRANCH   1  12
ATOM     12  C   UNL     1      32.476  72.424  29.942  1.00  0.00     0.025 A 
ATOM     13  C   UNL     1      33.218  71.299  30.332  1.00  0.00     0.016 A 
ATOM     14  C   UNL     1      32.586  70.072  30.546  1.00  0.00     0.051 A 
ATOM     15  C   UNL     1      31.203  69.949  30.357  1.00  0.00     0.157 A 
ATOM     16  C   UNL     1      31.091  72.290  29.733  1.00  0.00     0.062 A 
ATOM     17  C   UNL     1      30.455  71.059  29.947  1.00  0.00     0.158 A 
BRANCH  15  18
ATOM     18  O   UNL     1      30.567  68.727  30.572  1.00  0.00    -0.504 OA
ATOM     19  H   UNL     1      30.321  68.415  31.504  1.00  0.00     0.293 HD
ENDBRANCH  15  18
BRANCH  17  20
ATOM     20  O   UNL     1      29.081  70.929  29.746  1.00  0.00    -0.504 OA
ATOM     21  H   UNL     1      28.707  70.488  28.914  1.00  0.00     0.293 HD
ENDBRANCH  17  20
ENDBRANCH   1  12
BRANCH   2  22
ATOM     22  O   UNL     1      31.965  74.086  27.623  1.00  0.00    -0.502 OA
ATOM     23  H   UNL     1      32.013  73.199  27.134  1.00  0.00     0.293 HD
ENDBRANCH   2  22
BRANCH   6  24
ATOM     24  O   UNL     1      35.470  78.067  28.113  1.00  0.00    -0.507 OA
ATOM     25  H   UNL     1      35.490  77.733  27.162  1.00  0.00     0.293 HD
ENDBRANCH   6  24
BRANCH   8  26
ATOM     26  O   UNL     1      37.162  77.194  32.504  1.00  0.00    -0.508 OA
ATOM     27  H   UNL     1      37.108  76.754  33.415  1.00  0.00     0.293 HD
ENDBRANCH   8  26
TORSDOF 6
ENDMDL
MODEL 4
REMARK VINA RESULT:    -7.529      2.305      6.686
REMARK INTER + INTRA:          -9.328
REMARK INTER:                  -9.295
REMARK INTRA:                  -0.034
REMARK UNBOUND:                -0.258
REMARK SMILES O=c1c(O)c(-c2ccc(O)c(O)c2)oc2cc(O)cc(O)c12
REMARK SMILES IDX 5 1 3 2 2 3 1 4 22 5 20 6 19 7 17 8 16 9 15 10 14 11 6 12
REMARK SMILES IDX 7 13 8 14 9 15 13 16 11 17 10 18 12 20 4 22 21 24 18 26
REMARK H PARENT 10 19 12 21 4 23 21 25 18 27
REMARK Flexibility Score: inf
ROOT
ATOM      1  C   UNL     1      33.697  73.538  31.786  1.00  0.00     0.180 A 
ATOM      2  C   UNL     1      33.034  74.491  30.993  1.00  0.00     0.208 A 
ATOM      3  C   UNL     1      31.918  74.092  30.239  1.00  0.00     0.238 A 
ATOM      4  O   UNL     1      31.363  74.936  29.489  1.00  0.00    -0.285 OA
ATOM      5  C   UNL     1      31.470  72.750  30.301  1.00  0.00     0.111 A 
ATOM      6  C   UNL     1      30.326  72.246  29.612  1.00  0.00     0.134 A 
ATOM      7  C   UNL     1      30.051  70.873  29.642  1.00  0.00     0.093 A 
ATOM      8  C   UNL     1      30.839  69.998  30.389  1.00  0.00     0.123 A 
ATOM      9  C   UNL     1      31.924  70.489  31.115  1.00  0.00     0.094 A 
ATOM     10  C   UNL     1      32.245  71.848  31.075  1.00  0.00     0.146 A 
ATOM     11  O   UNL     1      33.292  72.274  31.772  1.00  0.00    -0.452 OA
ENDROOT
BRANCH   1  12
ATOM     12  C   UNL     1      34.864  73.889  32.627  1.00  0.00     0.025 A 
ATOM     13  C   UNL     1      36.016  73.089  32.578  1.00  0.00     0.016 A 
ATOM     14  C   UNL     1      37.121  73.388  33.378  1.00  0.00     0.051 A 
ATOM     15  C   UNL     1      37.084  74.484  34.251  1.00  0.00     0.157 A 
ATOM     16  C   UNL     1      34.824  74.975  33.520  1.00  0.00     0.062 A 
ATOM     17  C   UNL     1      35.932  75.276  34.325  1.00  0.00     0.158 A 
BRANCH  15  18
ATOM     18  O   UNL     1      38.186  74.788  35.050  1.00  0.00    -0.504 OA
ATOM     19  H   UNL     1      38.158  75.541  35.726  1.00  0.00     0.293 HD
ENDBRANCH  15  18
BRANCH  17  20
ATOM     20  O   UNL     1      35.894  76.357  35.204  1.00  0.00    -0.504 OA
ATOM     21  H   UNL     1      36.200  77.281  34.922  1.00  0.00     0.293 HD
ENDBRANCH  17  20
ENDBRANCH   1  12
BRANCH   2  22
ATOM     22  O   UNL     1      33.507  75.805  30.929  1.00  0.00    -0.502 OA
ATOM     23  H   UNL     1      34.309  76.069  30.370  1.00  0.00     0.293 HD
ENDBRANCH   2  22
BRANCH   6  24
ATOM     24  O   UNL     1      29.421  73.048  28.910  1.00  0.00    -0.507 OA
ATOM     25  H   UNL     1      28.739  73.655  29.339  1.00  0.00     0.293 HD
ENDBRANCH   6  24
BRANCH   8  26
ATOM     26  O   UNL     1      30.527  68.640  30.409  1.00  0.00    -0.508 OA
ATOM     27  H   UNL     1      31.230  67.932  30.232  1.00  0.00     0.293 HD
ENDBRANCH   8  26
TORSDOF 6
ENDMDL
MODEL 5
REMARK VINA RESULT:    -7.510      1.611      3.227
REMARK INTER + INTRA:          -9.305
REMARK INTER:                  -8.993
REMARK INTRA:                  -0.312
REMARK UNBOUND:                -0.258
REMARK SMILES O=c1c(O)c(-c2ccc(O)c(O)c2)oc2cc(O)cc(O)c12
REMARK SMILES IDX 5 1 3 2 2 3 1 4 22 5 20 6 19 7 17 8 16 9 15 10 14 11 6 12
REMARK SMILES IDX 7 13 8 14 9 15 13 16 11 17 10 18 12 20 4 22 21 24 18 26
REMARK H PARENT 10 19 12 21 4 23 21 25 18 27
REMARK Flexibility Score: inf
ROOT
ATOM      1  C   UNL     1      33.216  74.043  29.853  1.00  0.00     0.180 A 
ATOM      2  C   UNL     1      33.038  74.700  28.624  1.00  0.00     0.208 A 
ATOM      3  C   UNL     1      33.754  75.883  28.375  1.00  0.00     0.238 A 
ATOM      4  O   UNL     1      33.550  76.496  27.295  1.00  0.00    -0.285 OA
ATOM      5  C   UNL     1      34.649  76.383  29.351  1.00  0.00     0.111 A 
ATOM      6  C   UNL     1      35.456  77.550  29.188  1.00  0.00     0.134 A 
ATOM      7  C   UNL     1      36.208  78.025  30.269  1.00  0.00     0.093 A 
ATOM      8  C   UNL     1      36.234  77.341  31.484  1.00  0.00     0.123 A 
ATOM      9  C   UNL     1      35.496  76.167  31.635  1.00  0.00     0.094 A 
ATOM     10  C   UNL     1      34.707  75.687  30.586  1.00  0.00     0.146 A 
ATOM     11  O   UNL     1      34.012  74.572  30.774  1.00  0.00    -0.452 OA
ENDROOT
BRANCH   1  12
ATOM     12  C   UNL     1      32.516  72.779  30.178  1.00  0.00     0.025 A 
ATOM     13  C   UNL     1      31.222  72.825  30.720  1.00  0.00     0.016 A 
ATOM     14  C   UNL     1      30.551  71.645  31.054  1.00  0.00     0.051 A 
ATOM     15  C   UNL     1      31.172  70.403  30.864  1.00  0.00     0.157 A 
ATOM     16  C   UNL     1      33.142  71.530  30.009  1.00  0.00     0.062 A 
ATOM     17  C   UNL     1      32.471  70.346  30.345  1.00  0.00     0.158 A 
BRANCH  15  18
ATOM     18  O   UNL     1      30.505  69.224  31.193  1.00  0.00    -0.504 OA
ATOM     19  H   UNL     1      29.558  69.046  30.881  1.00  0.00     0.293 HD
ENDBRANCH  15  18
BRANCH  17  20
ATOM     20  O   UNL     1      33.090  69.109  30.171  1.00  0.00    -0.504 OA
ATOM     21  H   UNL     1      34.085  69.035  29.995  1.00  0.00     0.293 HD
ENDBRANCH  17  20
ENDBRANCH   1  12
BRANCH   2  22
ATOM     22  O   UNL     1      32.133  74.201  27.683  1.00  0.00    -0.502 OA
ATOM     23  H   UNL     1      31.696  74.789  26.982  1.00  0.00     0.293 HD
ENDBRANCH   2  22
BRANCH   6  24
ATOM     24  O   UNL     1      35.573  78.256  27.987  1.00  0.00    -0.507 OA
ATOM     25  H   UNL     1      35.016  79.059  27.736  1.00  0.00     0.293 HD
ENDBRANCH   6  24
BRANCH   8  26
ATOM     26  O   UNL     1      37.007  77.835  32.534  1.00  0.00    -0.508 OA
ATOM     27  H   UNL     1      37.846  77.358  32.844  1.00  0.00     0.293 HD
ENDBRANCH   8  26
TORSDOF 6
ENDMDL
MODEL 6
REMARK VINA RESULT:    -7.412      1.913      3.129
REMARK INTER + INTRA:          -9.187
REMARK INTER:                  -9.383
REMARK INTRA:                   0.196
REMARK UNBOUND:                -0.258
REMARK SMILES O=c1c(O)c(-c2ccc(O)c(O)c2)oc2cc(O)cc(O)c12
REMARK SMILES IDX 5 1 3 2 2 3 1 4 22 5 20 6 19 7 17 8 16 9 15 10 14 11 6 12
REMARK SMILES IDX 7 13 8 14 9 15 13 16 11 17 10 18 12 20 4 22 21 24 18 26
REMARK H PARENT 10 19 12 21 4 23 21 25 18 27
REMARK Flexibility Score: inf
ROOT
ATOM      1  C   UNL     1      33.775  73.215  30.897  1.00  0.00     0.180 A 
ATOM      2  C   UNL     1      33.836  74.235  29.932  1.00  0.00     0.208 A 
ATOM      3  C   UNL     1      34.752  75.285  30.106  1.00  0.00     0.238 A 
ATOM      4  O   UNL     1      34.764  76.222  29.268  1.00  0.00    -0.285 OA
ATOM      5  C   UNL     1      35.608  75.292  31.235  1.00  0.00     0.111 A 
ATOM      6  C   UNL     1      36.602  76.284  31.491  1.00  0.00     0.134 A 
ATOM      7  C   UNL     1      37.301  76.263  32.704  1.00  0.00     0.093 A 
ATOM      8  C   UNL     1      37.090  75.250  33.640  1.00  0.00     0.123 A 
ATOM      9  C   UNL     1      36.163  74.242  33.373  1.00  0.00     0.094 A 
ATOM     10  C   UNL     1      35.423  74.257  32.188  1.00  0.00     0.146 A 
ATOM     11  O   UNL     1      34.544  73.285  31.977  1.00  0.00    -0.452 OA
ENDROOT
BRANCH   1  12
ATOM     12  C   UNL     1      32.853  72.063  30.769  1.00  0.00     0.025 A 
ATOM     13  C   UNL     1      33.295  70.781  31.130  1.00  0.00     0.016 A 
ATOM     14  C   UNL     1      32.449  69.677  30.998  1.00  0.00     0.051 A 
ATOM     15  C   UNL     1      31.154  69.838  30.489  1.00  0.00     0.157 A 
ATOM     16  C   UNL     1      31.559  72.216  30.238  1.00  0.00     0.062 A 
ATOM     17  C   UNL     1      30.709  71.109  30.105  1.00  0.00     0.158 A 
BRANCH  15  18
ATOM     18  O   UNL     1      30.305  68.739  30.358  1.00  0.00    -0.504 OA
ATOM     19  H   UNL     1      29.308  68.819  30.514  1.00  0.00     0.293 HD
ENDBRANCH  15  18
BRANCH  17  20
ATOM     20  O   UNL     1      29.425  71.262  29.585  1.00  0.00    -0.504 OA
ATOM     21  H   UNL     1      29.258  71.296  28.586  1.00  0.00     0.293 HD
ENDBRANCH  17  20
ENDBRANCH   1  12
BRANCH   2  22
ATOM     22  O   UNL     1      32.967  74.219  28.836  1.00  0.00    -0.502 OA
ATOM     23  H   UNL     1      33.174  74.703  27.971  1.00  0.00     0.293 HD
ENDBRANCH   2  22
BRANCH   6  24
ATOM     24  O   UNL     1      36.956  77.287  30.583  1.00  0.00    -0.507 OA
ATOM     25  H   UNL     1      37.690  77.207  29.896  1.00  0.00     0.293 HD
ENDBRANCH   6  24
BRANCH   8  26
ATOM     26  O   UNL     1      37.815  75.252  34.830  1.00  0.00    -0.508 OA
ATOM     27  H   UNL     1      38.810  75.057  34.843  1.00  0.00     0.293 HD
ENDBRANCH   8  26
TORSDOF 6
ENDMDL
MODEL 7
REMARK VINA RESULT:    -7.225      2.244      6.781
REMARK INTER + INTRA:          -8.962
REMARK INTER:                  -8.854
REMARK INTRA:                  -0.108
REMARK UNBOUND:                -0.258
REMARK SMILES O=c1c(O)c(-c2ccc(O)c(O)c2)oc2cc(O)cc(O)c12
REMARK SMILES IDX 5 1 3 2 2 3 1 4 22 5 20 6 19 7 17 8 16 9 15 10 14 11 6 12
REMARK SMILES IDX 7 13 8 14 9 15 13 16 11 17 10 18 12 20 4 22 21 24 18 26
REMARK H PARENT 10 19 12 21 4 23 21 25 18 27
REMARK Flexibility Score: inf
ROOT
ATOM      1  C   UNL     1      33.817  73.797  31.511  1.00  0.00     0.180 A 
ATOM      2  C   UNL     1      33.097  74.683  30.692  1.00  0.00     0.208 A 
ATOM      3  C   UNL     1      31.973  74.208  29.997  1.00  0.00     0.238 A 
ATOM      4  O   UNL     1      31.365  74.992  29.224  1.00  0.00    -0.285 OA
ATOM      5  C   UNL     1      31.574  72.857  30.144  1.00  0.00     0.111 A 
ATOM      6  C   UNL     1      30.427  72.280  29.520  1.00  0.00     0.134 A 
ATOM      7  C   UNL     1      30.202  70.902  29.630  1.00  0.00     0.093 A 
ATOM      8  C   UNL     1      31.043  70.094  30.395  1.00  0.00     0.123 A 
ATOM      9  C   UNL     1      32.133  70.659  31.058  1.00  0.00     0.094 A 
ATOM     10  C   UNL     1      32.404  72.024  30.937  1.00  0.00     0.146 A 
ATOM     11  O   UNL     1      33.457  72.520  31.576  1.00  0.00    -0.452 OA
ENDROOT
BRANCH   1  12
ATOM     12  C   UNL     1      34.998  74.230  32.293  1.00  0.00     0.025 A 
ATOM     13  C   UNL     1      34.957  74.171  33.695  1.00  0.00     0.016 A 
ATOM     14  C   UNL     1      36.051  74.593  34.454  1.00  0.00     0.051 A 
ATOM     15  C   UNL     1      37.196  75.095  33.822  1.00  0.00     0.157 A 
ATOM     16  C   UNL     1      36.141  74.754  31.664  1.00  0.00     0.062 A 
ATOM     17  C   UNL     1      37.240  75.180  32.425  1.00  0.00     0.158 A 
BRANCH  15  18
ATOM     18  O   UNL     1      38.291  75.516  34.576  1.00  0.00    -0.504 OA
ATOM     19  H   UNL     1      39.212  75.115  34.441  1.00  0.00     0.293 HD
ENDBRANCH  15  18
BRANCH  17  20
ATOM     20  O   UNL     1      38.375  75.693  31.801  1.00  0.00    -0.504 OA
ATOM     21  H   UNL     1      38.401  76.642  31.444  1.00  0.00     0.293 HD
ENDBRANCH  17  20
ENDBRANCH   1  12
BRANCH   2  22
ATOM     22  O   UNL     1      33.522  76.007  30.545  1.00  0.00    -0.502 OA
ATOM     23  H   UNL     1      32.940  76.722  30.124  1.00  0.00     0.293 HD
ENDBRANCH   2  22
BRANCH   6  24
ATOM     24  O   UNL     1      29.473  73.013  28.808  1.00  0.00    -0.507 OA
ATOM     25  H   UNL     1      29.673  73.591  28.006  1.00  0.00     0.293 HD
ENDBRANCH   6  24
BRANCH   8  26
ATOM     26  O   UNL     1      30.779  68.729  30.496  1.00  0.00    -0.508 OA
ATOM     27  H   UNL     1      30.659  68.151  29.672  1.00  0.00     0.293 HD
ENDBRANCH   8  26
TORSDOF 6
ENDMDL
MODEL 8
REMARK VINA RESULT:    -7.142      1.682      1.902
REMARK INTER + INTRA:          -8.862
REMARK INTER:                  -9.110
REMARK INTRA:                   0.249
REMARK UNBOUND:                -0.258
REMARK SMILES O=c1c(O)c(-c2ccc(O)c(O)c2)oc2cc(O)cc(O)c12
REMARK SMILES IDX 5 1 3 2 2 3 1 4 22 5 20 6 19 7 17 8 16 9 15 10 14 11 6 12
REMARK SMILES IDX 7 13 8 14 9 15 13 16 11 17 10 18 12 20 4 22 21 24 18 26
REMARK H PARENT 10 19 12 21 4 23 21 25 18 27
REMARK Flexibility Score: inf
ROOT
ATOM      1  C   UNL     1      32.959  73.643  31.208  1.00  0.00     0.180 A 
ATOM      2  C   UNL     1      32.203  74.809  31.417  1.00  0.00     0.208 A 
ATOM      3  C   UNL     1      32.870  76.037  31.559  1.00  0.00     0.238 A 
ATOM      4  O   UNL     1      32.191  77.068  31.800  1.00  0.00    -0.285 OA
ATOM      5  C   UNL     1      34.283  76.085  31.473  1.00  0.00     0.111 A 
ATOM      6  C   UNL     1      35.059  77.280  31.562  1.00  0.00     0.134 A 
ATOM      7  C   UNL     1      36.456  77.195  31.595  1.00  0.00     0.093 A 
ATOM      8  C   UNL     1      37.105  75.966  31.476  1.00  0.00     0.123 A 
ATOM      9  C   UNL     1      36.357  74.797  31.329  1.00  0.00     0.094 A 
ATOM     10  C   UNL     1      34.961  74.847  31.330  1.00  0.00     0.146 A 
ATOM     11  O   UNL     1      34.285  73.711  31.198  1.00  0.00    -0.452 OA
ENDROOT
BRANCH   1  12
ATOM     12  C   UNL     1      32.327  72.317  31.023  1.00  0.00     0.025 A 
ATOM     13  C   UNL     1      33.035  71.159  31.381  1.00  0.00     0.016 A 
ATOM     14  C   UNL     1      32.466  69.896  31.197  1.00  0.00     0.051 A 
ATOM     15  C   UNL     1      31.187  69.773  30.638  1.00  0.00     0.157 A 
ATOM     16  C   UNL     1      31.052  72.187  30.443  1.00  0.00     0.062 A 
ATOM     17  C   UNL     1      30.481  70.920  30.256  1.00  0.00     0.158 A 
BRANCH  15  18
ATOM     18  O   UNL     1      30.615  68.515  30.455  1.00  0.00    -0.504 OA
ATOM     19  H   UNL     1      30.385  67.918  31.240  1.00  0.00     0.293 HD
ENDBRANCH  15  18
BRANCH  17  20
ATOM     20  O   UNL     1      29.215  70.793  29.687  1.00  0.00    -0.504 OA
ATOM     21  H   UNL     1      28.420  71.314  30.040  1.00  0.00     0.293 HD
ENDBRANCH  17  20
ENDBRANCH   1  12
BRANCH   2  22
ATOM     22  O   UNL     1      30.811  74.736  31.520  1.00  0.00    -0.502 OA
ATOM     23  H   UNL     1      30.211  75.538  31.372  1.00  0.00     0.293 HD
ENDBRANCH   2  22
BRANCH   6  24
ATOM     24  O   UNL     1      34.511  78.566  31.592  1.00  0.00    -0.507 OA
ATOM     25  H   UNL     1      33.675  78.847  31.103  1.00  0.00     0.293 HD
ENDBRANCH   6  24
BRANCH   8  26
ATOM     26  O   UNL     1      38.498  75.920  31.497  1.00  0.00    -0.508 OA
ATOM     27  H   UNL     1      39.058  76.660  31.090  1.00  0.00     0.293 HD
ENDBRANCH   8  26
TORSDOF 6
ENDMDL
MODEL 9
REMARK VINA RESULT:    -7.013      2.423      6.556
REMARK INTER + INTRA:          -8.707
REMARK INTER:                  -8.626
REMARK INTRA:                  -0.081
REMARK UNBOUND:                -0.258
REMARK SMILES O=c1c(O)c(-c2ccc(O)c(O)c2)oc2cc(O)cc(O)c12
REMARK SMILES IDX 5 1 3 2 2 3 1 4 22 5 20 6 19 7 17 8 16 9 15 10 14 11 6 12
REMARK SMILES IDX 7 13 8 14 9 15 13 16 11 17 10 18 12 20 4 22 21 24 18 26
REMARK H PARENT 10 19 12 21 4 23 21 25 18 27
REMARK Flexibility Score: inf
ROOT
ATOM      1  C   UNL     1      34.291  74.549  31.111  1.00  0.00     0.180 A 
ATOM      2  C   UNL     1      34.300  75.248  29.892  1.00  0.00     0.208 A 
ATOM      3  C   UNL     1      33.277  75.004  28.960  1.00  0.00     0.238 A 
ATOM      4  O   UNL     1      33.321  75.593  27.849  1.00  0.00    -0.285 OA
ATOM      5  C   UNL     1      32.251  74.078  29.267  1.00  0.00     0.111 A 
ATOM      6  C   UNL     1      31.145  73.784  28.414  1.00  0.00     0.134 A 
ATOM      7  C   UNL     1      30.260  72.755  28.760  1.00  0.00     0.093 A 
ATOM      8  C   UNL     1      30.404  72.056  29.959  1.00  0.00     0.123 A 
ATOM      9  C   UNL     1      31.448  72.375  30.827  1.00  0.00     0.094 A 
ATOM     10  C   UNL     1      32.367  73.372  30.492  1.00  0.00     0.146 A 
ATOM     11  O   UNL     1      33.352  73.639  31.341  1.00  0.00    -0.452 OA
ENDROOT
BRANCH   1  12
ATOM     12  C   UNL     1      35.320  74.770  32.153  1.00  0.00     0.025 A 
ATOM     13  C   UNL     1      36.013  73.671  32.684  1.00  0.00     0.016 A 
ATOM     14  C   UNL     1      36.973  73.854  33.682  1.00  0.00     0.051 A 
ATOM     15  C   UNL     1      37.242  75.137  34.175  1.00  0.00     0.157 A 
ATOM     16  C   UNL     1      35.578  76.054  32.667  1.00  0.00     0.062 A 
ATOM     17  C   UNL     1      36.541  76.239  33.670  1.00  0.00     0.158 A 
BRANCH  15  18
ATOM     18  O   UNL     1      38.201  75.324  35.170  1.00  0.00    -0.504 OA
ATOM     19  H   UNL     1      38.087  76.028  35.890  1.00  0.00     0.293 HD
ENDBRANCH  15  18
BRANCH  17  20
ATOM     20  O   UNL     1      36.801  77.512  34.173  1.00  0.00    -0.504 OA
ATOM     21  H   UNL     1      36.124  78.005  34.743  1.00  0.00     0.293 HD
ENDBRANCH  17  20
ENDBRANCH   1  12
BRANCH   2  22
ATOM     22  O   UNL     1      35.334  76.142  29.601  1.00  0.00    -0.502 OA
ATOM     23  H   UNL     1      36.272  75.835  29.372  1.00  0.00     0.293 HD
ENDBRANCH   2  22
BRANCH   6  24
ATOM     24  O   UNL     1      30.857  74.485  27.239  1.00  0.00    -0.507 OA
ATOM     25  H   UNL     1      30.305  74.125  26.475  1.00  0.00     0.293 HD
ENDBRANCH   6  24
BRANCH   8  26
ATOM     26  O   UNL     1      29.496  71.048  30.279  1.00  0.00    -0.508 OA
ATOM     27  H   UNL     1      28.959  70.573  29.563  1.00  0.00     0.293 HD
ENDBRANCH   8  26
TORSDOF 6
ENDMDL
