MODEL 1
REMARK VINA RESULT:    -3.933      0.000      0.000
REMARK INTER + INTRA:          -9.129
REMARK INTER:                  -7.152
REMARK INTRA:                  -1.977
REMARK UNBOUND:                -1.977
REMARK SMILES CCCCCCCCCCCCCCCC(=O)[O-]
REMARK SMILES IDX 9 1 10 2 11 3 12 4 13 5 14 6 15 7 16 8 17 9 18 10 8 11 7 12
REMARK SMILES IDX 6 13 5 14 4 15 3 16 2 17 1 18
REMARK H PARENT
REMARK Flexibility Score: inf
ROOT
ATOM      1  C   UNL     1      16.429  44.262  18.554  1.00  0.00     0.000 C 
ENDROOT
BRANCH   1   2
ATOM      2  C   UNL     1      17.425  43.150  18.931  1.00  0.00     0.000 C 
BRANCH   2   3
ATOM      3  C   UNL     1      17.863  43.209  20.404  1.00  0.00     0.000 C 
BRANCH   3   4
ATOM      4  C   UNL     1      19.393  43.265  20.574  1.00  0.00     0.000 C 
BRANCH   4   5
ATOM      5  C   UNL     1      19.946  44.600  21.104  1.00  0.00     0.000 C 
BRANCH   5   6
ATOM      6  C   UNL     1      19.851  45.741  20.075  1.00  0.00     0.006 C 
BRANCH   6   7
ATOM      7  C   UNL     1      19.964  47.123  20.730  1.00  0.00     0.053 C 
BRANCH   7   8
ATOM      8  C   UNL     1      18.680  47.889  20.638  1.00  0.00     0.041 C 
ATOM      9  O   UNL     1      17.816  47.787  21.549  1.00  0.00    -0.550 OA
ATOM     10  O   UNL     1      18.420  48.684  19.529  1.00  0.00    -0.550 OA
ENDBRANCH   7   8
ENDBRANCH   6   7
ENDBRANCH   5   6
ENDBRANCH   4   5
ENDBRANCH   3   4
ENDBRANCH   2   3
ENDBRANCH   1   2
BRANCH   1  11
ATOM     11  C   UNL     1      16.140  45.298  19.655  1.00  0.00     0.000 C 
BRANCH  11  12
ATOM     12  C   UNL     1      15.480  46.579  19.120  1.00  0.00    -0.000 C 
BRANCH  12  13
ATOM     13  C   UNL     1      15.314  46.579  17.589  1.00  0.00    -0.000 C 
BRANCH  13  14
ATOM     14  C   UNL     1      13.941  47.045  17.069  1.00  0.00    -0.000 C 
BRANCH  14  15
ATOM     15  C   UNL     1      12.772  46.566  17.946  1.00  0.00    -0.000 C 
BRANCH  15  16
ATOM     16  C   UNL     1      12.531  45.048  17.848  1.00  0.00    -0.000 C 
BRANCH  16  17
ATOM     17  C   UNL     1      12.521  44.301  19.194  1.00  0.00    -0.003 C 
ATOM     18  C   UNL     1      13.104  42.891  19.103  1.00  0.00     0.004 C 
ENDBRANCH  16  17
ENDBRANCH  15  16
ENDBRANCH  14  15
ENDBRANCH  13  14
ENDBRANCH  12  13
ENDBRANCH  11  12
ENDBRANCH   1  11
TORSDOF 14
ENDMDL
MODEL 2
REMARK VINA RESULT:    -3.843      2.355      6.021
REMARK INTER + INTRA:          -8.964
REMARK INTER:                  -7.274
REMARK INTRA:                  -1.691
REMARK UNBOUND:                -1.977
REMARK SMILES CCCCCCCCCCCCCCCC(=O)[O-]
REMARK SMILES IDX 9 1 10 2 11 3 12 4 13 5 14 6 15 7 16 8 17 9 18 10 8 11 7 12
REMARK SMILES IDX 6 13 5 14 4 15 3 16 2 17 1 18
REMARK H PARENT
REMARK Flexibility Score: inf
ROOT
ATOM      1  C   UNL     1      19.983  42.354  20.592  1.00  0.00     0.000 C 
ENDROOT
BRANCH   1   2
ATOM      2  C   UNL     1      18.450  42.498  20.544  1.00  0.00     0.000 C 
BRANCH   2   3
ATOM      3  C   UNL     1      17.895  42.551  19.111  1.00  0.00     0.000 C 
BRANCH   3   4
ATOM      4  C   UNL     1      16.980  43.764  18.864  1.00  0.00     0.000 C 
BRANCH   4   5
ATOM      5  C   UNL     1      16.300  44.339  20.120  1.00  0.00     0.000 C 
BRANCH   5   6
ATOM      6  C   UNL     1      15.856  45.803  19.945  1.00  0.00     0.006 C 
BRANCH   6   7
ATOM      7  C   UNL     1      15.142  46.036  18.607  1.00  0.00     0.053 C 
BRANCH   7   8
ATOM      8  C   UNL     1      13.678  46.287  18.795  1.00  0.00     0.041 C 
ATOM      9  O   UNL     1      12.938  46.499  17.798  1.00  0.00    -0.550 OA
ATOM     10  O   UNL     1      13.136  46.326  20.074  1.00  0.00    -0.550 OA
ENDBRANCH   7   8
ENDBRANCH   6   7
ENDBRANCH   5   6
ENDBRANCH   4   5
ENDBRANCH   3   4
ENDBRANCH   2   3
ENDBRANCH   1   2
BRANCH   1  11
ATOM     11  C   UNL     1      20.775  43.674  20.634  1.00  0.00     0.000 C 
BRANCH  11  12
ATOM     12  C   UNL     1      19.963  44.846  21.210  1.00  0.00    -0.000 C 
BRANCH  12  13
ATOM     13  C   UNL     1      19.794  46.010  20.216  1.00  0.00    -0.000 C 
BRANCH  13  14
ATOM     14  C   UNL     1      19.239  47.317  20.813  1.00  0.00    -0.000 C 
BRANCH  14  15
ATOM     15  C   UNL     1      18.561  48.217  19.765  1.00  0.00    -0.000 C 
BRANCH  15  16
ATOM     16  C   UNL     1      19.170  49.630  19.704  1.00  0.00    -0.000 C 
BRANCH  16  17
ATOM     17  C   UNL     1      20.501  49.800  20.459  1.00  0.00    -0.003 C 
ATOM     18  C   UNL     1      21.641  50.287  19.565  1.00  0.00     0.004 C 
ENDBRANCH  16  17
ENDBRANCH  15  16
ENDBRANCH  14  15
ENDBRANCH  13  14
ENDBRANCH  12  13
ENDBRANCH  11  12
ENDBRANCH   1  11
TORSDOF 14
ENDMDL
MODEL 3
REMARK VINA RESULT:    -3.809      1.307      2.251
REMARK INTER + INTRA:          -8.904
REMARK INTER:                  -7.300
REMARK INTRA:                  -1.604
REMARK UNBOUND:                -1.977
REMARK SMILES CCCCCCCCCCCCCCCC(=O)[O-]
REMARK SMILES IDX 9 1 10 2 11 3 12 4 13 5 14 6 15 7 16 8 17 9 18 10 8 11 7 12
REMARK SMILES IDX 6 13 5 14 4 15 3 16 2 17 1 18
REMARK H PARENT
REMARK Flexibility Score: inf
ROOT
ATOM      1  C   UNL     1      17.037  42.965  19.052  1.00  0.00     0.000 C 
ENDROOT
BRANCH   1   2
ATOM      2  C   UNL     1      18.507  42.846  19.495  1.00  0.00     0.000 C 
BRANCH   2   3
ATOM      3  C   UNL     1      18.688  42.966  21.018  1.00  0.00     0.000 C 
BRANCH   3   4
ATOM      4  C   UNL     1      19.569  44.162  21.426  1.00  0.00     0.000 C 
BRANCH   4   5
ATOM      5  C   UNL     1      19.850  45.183  20.309  1.00  0.00     0.000 C 
BRANCH   5   6
ATOM      6  C   UNL     1      19.167  46.541  20.550  1.00  0.00     0.006 C 
BRANCH   6   7
ATOM      7  C   UNL     1      20.182  47.659  20.821  1.00  0.00     0.053 C 
BRANCH   7   8
ATOM      8  C   UNL     1      19.732  48.968  20.248  1.00  0.00     0.041 C 
ATOM      9  O   UNL     1      19.874  50.031  20.909  1.00  0.00    -0.550 OA
ATOM     10  O   UNL     1      19.122  49.010  19.001  1.00  0.00    -0.550 OA
ENDBRANCH   7   8
ENDBRANCH   6   7
ENDBRANCH   5   6
ENDBRANCH   4   5
ENDBRANCH   3   4
ENDBRANCH   2   3
ENDBRANCH   1   2
BRANCH   1  11
ATOM     11  C   UNL     1      16.500  44.402  18.910  1.00  0.00     0.000 C 
BRANCH  11  12
ATOM     12  C   UNL     1      15.819  44.920  20.187  1.00  0.00    -0.000 C 
BRANCH  12  13
ATOM     13  C   UNL     1      14.336  44.519  20.286  1.00  0.00    -0.000 C 
BRANCH  13  14
ATOM     14  C   UNL     1      13.391  45.602  20.844  1.00  0.00    -0.000 C 
BRANCH  14  15
ATOM     15  C   UNL     1      12.463  46.200  19.772  1.00  0.00    -0.000 C 
BRANCH  15  16
ATOM     16  C   UNL     1      12.598  45.503  18.406  1.00  0.00    -0.000 C 
BRANCH  16  17
ATOM     17  C   UNL     1      12.862  46.444  17.216  1.00  0.00    -0.003 C 
ATOM     18  C   UNL     1      14.302  46.952  17.161  1.00  0.00     0.004 C 
ENDBRANCH  16  17
ENDBRANCH  15  16
ENDBRANCH  14  15
ENDBRANCH  13  14
ENDBRANCH  12  13
ENDBRANCH  11  12
ENDBRANCH   1  11
TORSDOF 14
ENDMDL
MODEL 4
REMARK VINA RESULT:    -3.809      3.143      7.076
REMARK INTER + INTRA:          -8.903
REMARK INTER:                  -7.597
REMARK INTRA:                  -1.306
REMARK UNBOUND:                -1.977
REMARK SMILES CCCCCCCCCCCCCCCC(=O)[O-]
REMARK SMILES IDX 9 1 10 2 11 3 12 4 13 5 14 6 15 7 16 8 17 9 18 10 8 11 7 12
REMARK SMILES IDX 6 13 5 14 4 15 3 16 2 17 1 18
REMARK H PARENT
REMARK Flexibility Score: inf
ROOT
ATOM      1  C   UNL     1      16.064  44.430  19.953  1.00  0.00     0.000 C 
ENDROOT
BRANCH   1   2
ATOM      2  C   UNL     1      15.722  45.886  19.580  1.00  0.00     0.000 C 
BRANCH   2   3
ATOM      3  C   UNL     1      15.336  46.054  18.101  1.00  0.00     0.000 C 
BRANCH   3   4
ATOM      4  C   UNL     1      13.917  46.621  17.911  1.00  0.00     0.000 C 
BRANCH   4   5
ATOM      5  C   UNL     1      12.836  45.583  17.561  1.00  0.00     0.000 C 
BRANCH   5   6
ATOM      6  C   UNL     1      12.429  44.712  18.764  1.00  0.00     0.006 C 
BRANCH   6   7
ATOM      7  C   UNL     1      11.727  45.526  19.858  1.00  0.00     0.053 C 
BRANCH   7   8
ATOM      8  C   UNL     1      10.278  45.744  19.544  1.00  0.00     0.041 C 
ATOM      9  O   UNL     1       9.864  46.891  19.229  1.00  0.00    -0.550 OA
ATOM     10  O   UNL     1       9.379  44.689  19.636  1.00  0.00    -0.550 OA
ENDBRANCH   7   8
ENDBRANCH   6   7
ENDBRANCH   5   6
ENDBRANCH   4   5
ENDBRANCH   3   4
ENDBRANCH   2   3
ENDBRANCH   1   2
BRANCH   1  11
ATOM     11  C   UNL     1      17.336  43.858  19.300  1.00  0.00     0.000 C 
BRANCH  11  12
ATOM     12  C   UNL     1      18.417  43.473  20.322  1.00  0.00    -0.000 C 
BRANCH  12  13
ATOM     13  C   UNL     1      19.020  44.689  21.051  1.00  0.00    -0.000 C 
BRANCH  13  14
ATOM     14  C   UNL     1      19.987  45.551  20.216  1.00  0.00    -0.000 C 
BRANCH  14  15
ATOM     15  C   UNL     1      20.077  47.004  20.712  1.00  0.00    -0.000 C 
BRANCH  15  16
ATOM     16  C   UNL     1      18.698  47.622  21.011  1.00  0.00    -0.000 C 
BRANCH  16  17
ATOM     17  C   UNL     1      18.699  49.147  21.225  1.00  0.00    -0.003 C 
ATOM     18  C   UNL     1      19.937  49.648  21.966  1.00  0.00     0.004 C 
ENDBRANCH  16  17
ENDBRANCH  15  16
ENDBRANCH  14  15
ENDBRANCH  13  14
ENDBRANCH  12  13
ENDBRANCH  11  12
ENDBRANCH   1  11
TORSDOF 14
ENDMDL
MODEL 5
REMARK VINA RESULT:    -3.793      3.142      6.527
REMARK INTER + INTRA:          -8.875
REMARK INTER:                  -7.053
REMARK INTRA:                  -1.821
REMARK UNBOUND:                -1.977
REMARK SMILES CCCCCCCCCCCCCCCC(=O)[O-]
REMARK SMILES IDX 9 1 10 2 11 3 12 4 13 5 14 6 15 7 16 8 17 9 18 10 8 11 7 12
REMARK SMILES IDX 6 13 5 14 4 15 3 16 2 17 1 18
REMARK H PARENT
REMARK Flexibility Score: inf
ROOT
ATOM      1  C   UNL     1      15.250  44.730  20.752  1.00  0.00     0.000 C 
ENDROOT
BRANCH   1   2
ATOM      2  C   UNL     1      15.336  43.922  19.443  1.00  0.00     0.000 C 
BRANCH   2   3
ATOM      3  C   UNL     1      14.082  43.074  19.174  1.00  0.00     0.000 C 
BRANCH   3   4
ATOM      4  C   UNL     1      12.823  43.926  18.924  1.00  0.00     0.000 C 
BRANCH   4   5
ATOM      5  C   UNL     1      12.938  44.946  17.776  1.00  0.00     0.000 C 
BRANCH   5   6
ATOM      6  C   UNL     1      12.609  46.384  18.216  1.00  0.00     0.006 C 
BRANCH   6   7
ATOM      7  C   UNL     1      11.913  46.427  19.582  1.00  0.00     0.053 C 
BRANCH   7   8
ATOM      8  C   UNL     1      10.447  46.703  19.450  1.00  0.00     0.041 C 
ATOM      9  O   UNL     1      10.035  47.884  19.306  1.00  0.00    -0.550 OA
ATOM     10  O   UNL     1       9.532  45.660  19.524  1.00  0.00    -0.550 OA
ENDBRANCH   7   8
ENDBRANCH   6   7
ENDBRANCH   5   6
ENDBRANCH   4   5
ENDBRANCH   3   4
ENDBRANCH   2   3
ENDBRANCH   1   2
BRANCH   1  11
ATOM     11  C   UNL     1      15.531  46.238  20.623  1.00  0.00     0.000 C 
BRANCH  11  12
ATOM     12  C   UNL     1      16.898  46.544  19.987  1.00  0.00    -0.000 C 
BRANCH  12  13
ATOM     13  C   UNL     1      18.080  46.268  20.934  1.00  0.00    -0.000 C 
BRANCH  13  14
ATOM     14  C   UNL     1      19.385  45.814  20.252  1.00  0.00    -0.000 C 
BRANCH  14  15
ATOM     15  C   UNL     1      20.011  44.576  20.916  1.00  0.00    -0.000 C 
BRANCH  15  16
ATOM     16  C   UNL     1      19.193  43.292  20.680  1.00  0.00    -0.000 C 
BRANCH  16  17
ATOM     17  C   UNL     1      18.446  42.759  21.916  1.00  0.00    -0.003 C 
ATOM     18  C   UNL     1      19.248  42.901  23.210  1.00  0.00     0.004 C 
ENDBRANCH  16  17
ENDBRANCH  15  16
ENDBRANCH  14  15
ENDBRANCH  13  14
ENDBRANCH  12  13
ENDBRANCH  11  12
ENDBRANCH   1  11
TORSDOF 14
ENDMDL
MODEL 6
REMARK VINA RESULT:    -3.751      1.636      2.949
REMARK INTER + INTRA:          -8.798
REMARK INTER:                  -7.294
REMARK INTRA:                  -1.504
REMARK UNBOUND:                -1.977
REMARK SMILES CCCCCCCCCCCCCCCC(=O)[O-]
REMARK SMILES IDX 9 1 10 2 11 3 12 4 13 5 14 6 15 7 16 8 17 9 18 10 8 11 7 12
REMARK SMILES IDX 6 13 5 14 4 15 3 16 2 17 1 18
REMARK H PARENT
REMARK Flexibility Score: inf
ROOT
ATOM      1  C   UNL     1      18.073  43.829  20.918  1.00  0.00     0.000 C 
ENDROOT
BRANCH   1   2
ATOM      2  C   UNL     1      19.435  44.433  21.310  1.00  0.00     0.000 C 
BRANCH   2   3
ATOM      3  C   UNL     1      19.998  45.388  20.245  1.00  0.00     0.000 C 
BRANCH   3   4
ATOM      4  C   UNL     1      20.124  46.840  20.744  1.00  0.00     0.000 C 
BRANCH   4   5
ATOM      5  C   UNL     1      18.818  47.655  20.728  1.00  0.00     0.000 C 
BRANCH   5   6
ATOM      6  C   UNL     1      18.697  48.572  19.498  1.00  0.00     0.006 C 
BRANCH   6   7
ATOM      7  C   UNL     1      18.803  50.056  19.869  1.00  0.00     0.053 C 
BRANCH   7   8
ATOM      8  C   UNL     1      20.143  50.390  20.449  1.00  0.00     0.041 C 
ATOM      9  O   UNL     1      21.185  50.254  19.754  1.00  0.00    -0.550 OA
ATOM     10  O   UNL     1      20.246  50.814  21.767  1.00  0.00    -0.550 OA
ENDBRANCH   7   8
ENDBRANCH   6   7
ENDBRANCH   5   6
ENDBRANCH   4   5
ENDBRANCH   3   4
ENDBRANCH   2   3
ENDBRANCH   1   2
BRANCH   1  11
ATOM     11  C   UNL     1      17.943  43.377  19.452  1.00  0.00     0.000 C 
BRANCH  11  12
ATOM     12  C   UNL     1      16.707  43.962  18.748  1.00  0.00    -0.000 C 
BRANCH  12  13
ATOM     13  C   UNL     1      16.147  45.213  19.452  1.00  0.00    -0.000 C 
BRANCH  13  14
ATOM     14  C   UNL     1      15.490  46.256  18.528  1.00  0.00    -0.000 C 
BRANCH  14  15
ATOM     15  C   UNL     1      14.222  45.730  17.833  1.00  0.00    -0.000 C 
BRANCH  15  16
ATOM     16  C   UNL     1      12.940  46.435  18.313  1.00  0.00    -0.000 C 
BRANCH  16  17
ATOM     17  C   UNL     1      12.603  46.233  19.801  1.00  0.00    -0.003 C 
ATOM     18  C   UNL     1      12.444  44.763  20.187  1.00  0.00     0.004 C 
ENDBRANCH  16  17
ENDBRANCH  15  16
ENDBRANCH  14  15
ENDBRANCH  13  14
ENDBRANCH  12  13
ENDBRANCH  11  12
ENDBRANCH   1  11
TORSDOF 14
ENDMDL
MODEL 7
REMARK VINA RESULT:    -3.746      3.060      6.585
REMARK INTER + INTRA:          -8.788
REMARK INTER:                  -7.332
REMARK INTRA:                  -1.456
REMARK UNBOUND:                -1.977
REMARK SMILES CCCCCCCCCCCCCCCC(=O)[O-]
REMARK SMILES IDX 9 1 10 2 11 3 12 4 13 5 14 6 15 7 16 8 17 9 18 10 8 11 7 12
REMARK SMILES IDX 6 13 5 14 4 15 3 16 2 17 1 18
REMARK H PARENT
REMARK Flexibility Score: inf
ROOT
ATOM      1  C   UNL     1      17.556  43.206  19.091  1.00  0.00     0.000 C 
ENDROOT
BRANCH   1   2
ATOM      2  C   UNL     1      16.633  44.430  19.241  1.00  0.00     0.000 C 
BRANCH   2   3
ATOM      3  C   UNL     1      15.221  44.063  19.725  1.00  0.00     0.000 C 
BRANCH   3   4
ATOM      4  C   UNL     1      14.712  44.984  20.850  1.00  0.00     0.000 C 
BRANCH   4   5
ATOM      5  C   UNL     1      13.879  46.191  20.383  1.00  0.00     0.000 C 
BRANCH   5   6
ATOM      6  C   UNL     1      13.014  45.883  19.147  1.00  0.00     0.006 C 
BRANCH   6   7
ATOM      7  C   UNL     1      11.518  45.838  19.484  1.00  0.00     0.053 C 
BRANCH   7   8
ATOM      8  C   UNL     1      11.079  44.461  19.879  1.00  0.00     0.041 C 
ATOM      9  O   UNL     1      11.747  43.456  19.519  1.00  0.00    -0.550 OA
ATOM     10  O   UNL     1       9.913  44.286  20.613  1.00  0.00    -0.550 OA
ENDBRANCH   7   8
ENDBRANCH   6   7
ENDBRANCH   5   6
ENDBRANCH   4   5
ENDBRANCH   3   4
ENDBRANCH   2   3
ENDBRANCH   1   2
BRANCH   1  11
ATOM     11  C   UNL     1      18.205  42.700  20.393  1.00  0.00     0.000 C 
BRANCH  11  12
ATOM     12  C   UNL     1      18.701  43.837  21.301  1.00  0.00    -0.000 C 
BRANCH  12  13
ATOM     13  C   UNL     1      20.103  44.348  20.919  1.00  0.00    -0.000 C 
BRANCH  13  14
ATOM     14  C   UNL     1      20.132  45.626  20.060  1.00  0.00    -0.000 C 
BRANCH  14  15
ATOM     15  C   UNL     1      20.293  46.908  20.894  1.00  0.00    -0.000 C 
BRANCH  15  16
ATOM     16  C   UNL     1      19.854  48.175  20.137  1.00  0.00    -0.000 C 
BRANCH  16  17
ATOM     17  C   UNL     1      18.341  48.461  20.166  1.00  0.00    -0.003 C 
ATOM     18  C   UNL     1      17.618  47.753  21.311  1.00  0.00     0.004 C 
ENDBRANCH  16  17
ENDBRANCH  15  16
ENDBRANCH  14  15
ENDBRANCH  13  14
ENDBRANCH  12  13
ENDBRANCH  11  12
ENDBRANCH   1  11
TORSDOF 14
ENDMDL
MODEL 8
REMARK VINA RESULT:    -3.719      2.793      6.518
REMARK INTER + INTRA:          -8.740
REMARK INTER:                  -7.294
REMARK INTRA:                  -1.446
REMARK UNBOUND:                -1.977
REMARK SMILES CCCCCCCCCCCCCCCC(=O)[O-]
REMARK SMILES IDX 9 1 10 2 11 3 12 4 13 5 14 6 15 7 16 8 17 9 18 10 8 11 7 12
REMARK SMILES IDX 6 13 5 14 4 15 3 16 2 17 1 18
REMARK H PARENT
REMARK Flexibility Score: inf
ROOT
ATOM      1  C   UNL     1      19.799  45.113  20.876  1.00  0.00     0.000 C 
ENDROOT
BRANCH   1   2
ATOM      2  C   UNL     1      18.500  44.524  21.460  1.00  0.00     0.000 C 
BRANCH   2   3
ATOM      3  C   UNL     1      17.951  43.346  20.639  1.00  0.00     0.000 C 
BRANCH   3   4
ATOM      4  C   UNL     1      17.734  43.696  19.155  1.00  0.00     0.000 C 
BRANCH   4   5
ATOM      5  C   UNL     1      16.342  44.252  18.808  1.00  0.00     0.000 C 
BRANCH   5   6
ATOM      6  C   UNL     1      15.347  44.153  19.979  1.00  0.00     0.006 C 
BRANCH   6   7
ATOM      7  C   UNL     1      13.931  43.798  19.506  1.00  0.00     0.053 C 
BRANCH   7   8
ATOM      8  C   UNL     1      13.066  45.015  19.382  1.00  0.00     0.041 C 
ATOM      9  O   UNL     1      13.386  46.082  19.969  1.00  0.00    -0.550 OA
ATOM     10  O   UNL     1      11.886  44.960  18.650  1.00  0.00    -0.550 OA
ENDBRANCH   7   8
ENDBRANCH   6   7
ENDBRANCH   5   6
ENDBRANCH   4   5
ENDBRANCH   3   4
ENDBRANCH   2   3
ENDBRANCH   1   2
BRANCH   1  11
ATOM     11  C   UNL     1      19.699  46.560  20.359  1.00  0.00     0.000 C 
BRANCH  11  12
ATOM     12  C   UNL     1      18.297  47.167  20.532  1.00  0.00    -0.000 C 
BRANCH  12  13
ATOM     13  C   UNL     1      18.301  48.474  21.347  1.00  0.00    -0.000 C 
BRANCH  13  14
ATOM     14  C   UNL     1      19.690  48.989  21.770  1.00  0.00    -0.000 C 
BRANCH  14  15
ATOM     15  C   UNL     1      19.806  50.522  21.716  1.00  0.00    -0.000 C 
BRANCH  15  16
ATOM     16  C   UNL     1      20.912  51.006  20.760  1.00  0.00    -0.000 C 
BRANCH  16  17
ATOM     17  C   UNL     1      21.035  50.211  19.448  1.00  0.00    -0.003 C 
ATOM     18  C   UNL     1      19.987  50.604  18.407  1.00  0.00     0.004 C 
ENDBRANCH  16  17
ENDBRANCH  15  16
ENDBRANCH  14  15
ENDBRANCH  13  14
ENDBRANCH  12  13
ENDBRANCH  11  12
ENDBRANCH   1  11
TORSDOF 14
ENDMDL
MODEL 9
REMARK VINA RESULT:    -3.703      3.325      5.942
REMARK INTER + INTRA:          -8.710
REMARK INTER:                  -6.892
REMARK INTRA:                  -1.818
REMARK UNBOUND:                -1.977
REMARK SMILES CCCCCCCCCCCCCCCC(=O)[O-]
REMARK SMILES IDX 9 1 10 2 11 3 12 4 13 5 14 6 15 7 16 8 17 9 18 10 8 11 7 12
REMARK SMILES IDX 6 13 5 14 4 15 3 16 2 17 1 18
REMARK H PARENT
REMARK Flexibility Score: inf
ROOT
ATOM      1  C   UNL     1      15.735  45.344  20.357  1.00  0.00     0.000 C 
ENDROOT
BRANCH   1   2
ATOM      2  C   UNL     1      15.647  44.173  19.361  1.00  0.00     0.000 C 
BRANCH   2   3
ATOM      3  C   UNL     1      16.985  43.871  18.667  1.00  0.00     0.000 C 
BRANCH   3   4
ATOM      4  C   UNL     1      17.680  42.613  19.220  1.00  0.00     0.000 C 
BRANCH   4   5
ATOM      5  C   UNL     1      18.860  42.879  20.172  1.00  0.00     0.000 C 
BRANCH   5   6
ATOM      6  C   UNL     1      18.412  43.188  21.612  1.00  0.00     0.006 C 
BRANCH   6   7
ATOM      7  C   UNL     1      19.601  43.313  22.574  1.00  0.00     0.053 C 
BRANCH   7   8
ATOM      8  C   UNL     1      19.522  42.314  23.687  1.00  0.00     0.041 C 
ATOM      9  O   UNL     1      18.721  41.345  23.613  1.00  0.00    -0.550 OA
ATOM     10  O   UNL     1      20.305  42.474  24.824  1.00  0.00    -0.550 OA
ENDBRANCH   7   8
ENDBRANCH   6   7
ENDBRANCH   5   6
ENDBRANCH   4   5
ENDBRANCH   3   4
ENDBRANCH   2   3
ENDBRANCH   1   2
BRANCH   1  11
ATOM     11  C   UNL     1      16.689  46.486  19.959  1.00  0.00     0.000 C 
BRANCH  11  12
ATOM     12  C   UNL     1      17.746  46.790  21.033  1.00  0.00    -0.000 C 
BRANCH  12  13
ATOM     13  C   UNL     1      19.190  46.641  20.519  1.00  0.00    -0.000 C 
BRANCH  13  14
ATOM     14  C   UNL     1      20.160  47.765  20.930  1.00  0.00    -0.000 C 
BRANCH  14  15
ATOM     15  C   UNL     1      19.487  48.865  21.767  1.00  0.00    -0.000 C 
BRANCH  15  16
ATOM     16  C   UNL     1      19.830  50.285  21.278  1.00  0.00    -0.000 C 
BRANCH  16  17
ATOM     17  C   UNL     1      19.806  50.471  19.750  1.00  0.00    -0.003 C 
ATOM     18  C   UNL     1      18.394  50.621  19.185  1.00  0.00     0.004 C 
ENDBRANCH  16  17
ENDBRANCH  15  16
ENDBRANCH  14  15
ENDBRANCH  13  14
ENDBRANCH  12  13
ENDBRANCH  11  12
ENDBRANCH   1  11
TORSDOF 14
ENDMDL
