MODEL 1
REMARK VINA RESULT:    -1.759      0.000      0.000
REMARK INTER + INTRA:          -8.556
REMARK INTER:                  -4.021
REMARK INTRA:                  -4.535
REMARK UNBOUND:                -4.535
REMARK SMILES CCCCCCCCCCCCCCCCCCCCCCCC(=O)[O-]
REMARK SMILES IDX 13 1 14 2 15 3 16 4 17 5 18 6 19 7 20 8 21 9 22 10 23 11
REMARK SMILES IDX 24 12 25 13 26 14 12 15 11 16 10 17 9 18 8 19 7 20 6 21 5 22
REMARK SMILES IDX 4 23 3 24 2 25 1 26
REMARK H PARENT
REMARK Flexibility Score: inf
ROOT
ATOM      1  C   UNL     1      23.914  10.326  13.144  1.00  0.00     0.000 C 
ENDROOT
BRANCH   1   2
ATOM      2  C   UNL     1      24.468   8.889  13.134  1.00  0.00     0.000 C 
BRANCH   2   3
ATOM      3  C   UNL     1      23.599   7.836  13.851  1.00  0.00     0.000 C 
BRANCH   3   4
ATOM      4  C   UNL     1      22.134   7.831  13.375  1.00  0.00     0.000 C 
BRANCH   4   5
ATOM      5  C   UNL     1      21.917   6.960  12.126  1.00  0.00     0.000 C 
BRANCH   5   6
ATOM      6  C   UNL     1      21.727   7.738  10.808  1.00  0.00     0.000 C 
BRANCH   6   7
ATOM      7  C   UNL     1      20.308   7.681  10.212  1.00  0.00     0.000 C 
BRANCH   7   8
ATOM      8  C   UNL     1      19.521   9.006  10.264  1.00  0.00     0.000 C 
BRANCH   8   9
ATOM      9  C   UNL     1      20.201  10.136  11.059  1.00  0.00     0.000 C 
BRANCH   9  10
ATOM     10  C   UNL     1      19.533  10.390  12.421  1.00  0.00     0.006 C 
BRANCH  10  11
ATOM     11  C   UNL     1      20.434  11.194  13.367  1.00  0.00     0.053 C 
BRANCH  11  12
ATOM     12  C   UNL     1      19.681  12.287  14.063  1.00  0.00     0.041 C 
ATOM     13  O   UNL     1      18.843  12.004  14.960  1.00  0.00    -0.550 OA
ATOM     14  O   UNL     1      19.909  13.615  13.725  1.00  0.00    -0.550 OA
ENDBRANCH  11  12
ENDBRANCH  10  11
ENDBRANCH   9  10
ENDBRANCH   8   9
ENDBRANCH   7   8
ENDBRANCH   6   7
ENDBRANCH   5   6
ENDBRANCH   4   5
ENDBRANCH   3   4
ENDBRANCH   2   3
ENDBRANCH   1   2
BRANCH   1  15
ATOM     15  C   UNL     1      23.838  10.955  11.742  1.00  0.00     0.000 C 
BRANCH  15  16
ATOM     16  C   UNL     1      24.630  10.147  10.701  1.00  0.00     0.000 C 
BRANCH  16  17
ATOM     17  C   UNL     1      25.583  11.027   9.875  1.00  0.00     0.000 C 
BRANCH  17  18
ATOM     18  C   UNL     1      27.052  10.582  10.002  1.00  0.00    -0.000 C 
BRANCH  18  19
ATOM     19  C   UNL     1      27.253   9.197  10.651  1.00  0.00    -0.000 C 
BRANCH  19  20
ATOM     20  C   UNL     1      27.980   9.210  12.013  1.00  0.00    -0.000 C 
BRANCH  20  21
ATOM     21  C   UNL     1      28.254  10.611  12.589  1.00  0.00    -0.000 C 
BRANCH  21  22
ATOM     22  C   UNL     1      27.402  10.917  13.830  1.00  0.00    -0.000 C 
BRANCH  22  23
ATOM     23  C   UNL     1      27.016  12.401  13.884  1.00  0.00    -0.000 C 
BRANCH  23  24
ATOM     24  C   UNL     1      27.426  13.121  12.589  1.00  0.00    -0.000 C 
BRANCH  24  25
ATOM     25  C   UNL     1      26.270  13.918  11.965  1.00  0.00    -0.003 C 
ATOM     26  C   UNL     1      26.631  14.516  10.604  1.00  0.00     0.004 C 
ENDBRANCH  24  25
ENDBRANCH  23  24
ENDBRANCH  22  23
ENDBRANCH  21  22
ENDBRANCH  20  21
ENDBRANCH  19  20
ENDBRANCH  18  19
ENDBRANCH  17  18
ENDBRANCH  16  17
ENDBRANCH  15  16
ENDBRANCH   1  15
TORSDOF 22
ENDMDL
MODEL 2
REMARK VINA RESULT:    -1.757      1.805      2.925
REMARK INTER + INTRA:          -8.552
REMARK INTER:                  -3.818
REMARK INTRA:                  -4.734
REMARK UNBOUND:                -4.535
REMARK SMILES CCCCCCCCCCCCCCCCCCCCCCCC(=O)[O-]
REMARK SMILES IDX 13 1 14 2 15 3 16 4 17 5 18 6 19 7 20 8 21 9 22 10 23 11
REMARK SMILES IDX 24 12 25 13 26 14 12 15 11 16 10 17 9 18 8 19 7 20 6 21 5 22
REMARK SMILES IDX 4 23 3 24 2 25 1 26
REMARK H PARENT
REMARK Flexibility Score: inf
ROOT
ATOM      1  C   UNL     1      23.520  11.974  11.646  1.00  0.00     0.000 C 
ENDROOT
BRANCH   1   2
ATOM      2  C   UNL     1      22.965  10.971  10.616  1.00  0.00     0.000 C 
BRANCH   2   3
ATOM      3  C   UNL     1      23.416   9.508  10.803  1.00  0.00     0.000 C 
BRANCH   3   4
ATOM      4  C   UNL     1      24.455   9.331  11.925  1.00  0.00     0.000 C 
BRANCH   4   5
ATOM      5  C   UNL     1      24.109   8.175  12.880  1.00  0.00     0.000 C 
BRANCH   5   6
ATOM      6  C   UNL     1      23.041   8.499  13.944  1.00  0.00     0.000 C 
BRANCH   6   7
ATOM      7  C   UNL     1      21.716   7.728  13.798  1.00  0.00     0.000 C 
BRANCH   7   8
ATOM      8  C   UNL     1      20.563   8.521  13.150  1.00  0.00     0.000 C 
BRANCH   8   9
ATOM      9  C   UNL     1      20.624  10.045  13.356  1.00  0.00     0.000 C 
BRANCH   9  10
ATOM     10  C   UNL     1      19.813  10.821  12.305  1.00  0.00     0.006 C 
BRANCH  10  11
ATOM     11  C   UNL     1      19.805  12.330  12.578  1.00  0.00     0.053 C 
BRANCH  11  12
ATOM     12  C   UNL     1      19.587  13.124  11.325  1.00  0.00     0.041 C 
ATOM     13  O   UNL     1      18.428  13.238  10.844  1.00  0.00    -0.550 OA
ATOM     14  O   UNL     1      20.660  13.742  10.696  1.00  0.00    -0.550 OA
ENDBRANCH  11  12
ENDBRANCH  10  11
ENDBRANCH   9  10
ENDBRANCH   8   9
ENDBRANCH   7   8
ENDBRANCH   6   7
ENDBRANCH   5   6
ENDBRANCH   4   5
ENDBRANCH   3   4
ENDBRANCH   2   3
ENDBRANCH   1   2
BRANCH   1  15
ATOM     15  C   UNL     1      24.266  13.154  11.001  1.00  0.00     0.000 C 
BRANCH  15  16
ATOM     16  C   UNL     1      25.792  12.981  11.068  1.00  0.00     0.000 C 
BRANCH  16  17
ATOM     17  C   UNL     1      26.346  12.183   9.876  1.00  0.00     0.000 C 
BRANCH  17  18
ATOM     18  C   UNL     1      27.684  11.493  10.201  1.00  0.00    -0.000 C 
BRANCH  18  19
ATOM     19  C   UNL     1      27.623   9.952  10.243  1.00  0.00    -0.000 C 
BRANCH  19  20
ATOM     20  C   UNL     1      28.150   9.311  11.544  1.00  0.00    -0.000 C 
BRANCH  20  21
ATOM     21  C   UNL     1      28.403  10.297  12.699  1.00  0.00    -0.000 C 
BRANCH  21  22
ATOM     22  C   UNL     1      27.450  10.078  13.883  1.00  0.00    -0.000 C 
BRANCH  22  23
ATOM     23  C   UNL     1      26.601  11.328  14.148  1.00  0.00    -0.000 C 
BRANCH  23  24
ATOM     24  C   UNL     1      25.544  11.054  15.231  1.00  0.00    -0.000 C 
BRANCH  24  25
ATOM     25  C   UNL     1      24.633  12.264  15.488  1.00  0.00    -0.003 C 
ATOM     26  C   UNL     1      23.155  11.953  15.245  1.00  0.00     0.004 C 
ENDBRANCH  24  25
ENDBRANCH  23  24
ENDBRANCH  22  23
ENDBRANCH  21  22
ENDBRANCH  20  21
ENDBRANCH  19  20
ENDBRANCH  18  19
ENDBRANCH  17  18
ENDBRANCH  16  17
ENDBRANCH  15  16
ENDBRANCH   1  15
TORSDOF 22
ENDMDL
MODEL 3
REMARK VINA RESULT:    -1.749     18.653     22.877
REMARK INTER + INTRA:          -8.533
REMARK INTER:                  -3.390
REMARK INTRA:                  -5.143
REMARK UNBOUND:                -4.535
REMARK SMILES CCCCCCCCCCCCCCCCCCCCCCCC(=O)[O-]
REMARK SMILES IDX 13 1 14 2 15 3 16 4 17 5 18 6 19 7 20 8 21 9 22 10 23 11
REMARK SMILES IDX 24 12 25 13 26 14 12 15 11 16 10 17 9 18 8 19 7 20 6 21 5 22
REMARK SMILES IDX 4 23 3 24 2 25 1 26
REMARK H PARENT
REMARK Flexibility Score: inf
ROOT
ATOM      1  C   UNL     1      12.854  22.624  27.207  1.00  0.00     0.000 C 
ENDROOT
BRANCH   1   2
ATOM      2  C   UNL     1      11.757  22.830  26.145  1.00  0.00     0.000 C 
BRANCH   2   3
ATOM      3  C   UNL     1      12.253  22.936  24.689  1.00  0.00     0.000 C 
BRANCH   3   4
ATOM      4  C   UNL     1      12.744  24.348  24.316  1.00  0.00     0.000 C 
BRANCH   4   5
ATOM      5  C   UNL     1      14.238  24.381  23.951  1.00  0.00     0.000 C 
BRANCH   5   6
ATOM      6  C   UNL     1      15.181  24.827  25.086  1.00  0.00     0.000 C 
BRANCH   6   7
ATOM      7  C   UNL     1      16.291  23.822  25.450  1.00  0.00     0.000 C 
BRANCH   7   8
ATOM      8  C   UNL     1      16.075  22.388  24.926  1.00  0.00     0.000 C 
BRANCH   8   9
ATOM      9  C   UNL     1      15.950  21.309  26.016  1.00  0.00     0.000 C 
BRANCH   9  10
ATOM     10  C   UNL     1      15.566  19.932  25.449  1.00  0.00     0.006 C 
BRANCH  10  11
ATOM     11  C   UNL     1      14.141  19.915  24.884  1.00  0.00     0.053 C 
BRANCH  11  12
ATOM     12  C   UNL     1      13.185  19.210  25.798  1.00  0.00     0.041 C 
ATOM     13  O   UNL     1      12.150  18.665  25.330  1.00  0.00    -0.550 OA
ATOM     14  O   UNL     1      13.440  19.149  27.162  1.00  0.00    -0.550 OA
ENDBRANCH  11  12
ENDBRANCH  10  11
ENDBRANCH   9  10
ENDBRANCH   8   9
ENDBRANCH   7   8
ENDBRANCH   6   7
ENDBRANCH   5   6
ENDBRANCH   4   5
ENDBRANCH   3   4
ENDBRANCH   2   3
ENDBRANCH   1   2
BRANCH   1  15
ATOM     15  C   UNL     1      12.314  22.650  28.648  1.00  0.00     0.000 C 
BRANCH  15  16
ATOM     16  C   UNL     1      10.778  22.696  28.690  1.00  0.00     0.000 C 
BRANCH  16  17
ATOM     17  C   UNL     1      10.247  23.967  29.374  1.00  0.00     0.000 C 
BRANCH  17  18
ATOM     18  C   UNL     1       9.645  24.967  28.369  1.00  0.00    -0.000 C 
BRANCH  18  19
ATOM     19  C   UNL     1      10.381  26.320  28.286  1.00  0.00    -0.000 C 
BRANCH  19  20
ATOM     20  C   UNL     1      11.474  26.406  27.200  1.00  0.00    -0.000 C 
BRANCH  20  21
ATOM     21  C   UNL     1      12.916  26.238  27.714  1.00  0.00    -0.000 C 
BRANCH  21  22
ATOM     22  C   UNL     1      13.028  26.428  29.234  1.00  0.00    -0.000 C 
BRANCH  22  23
ATOM     23  C   UNL     1      14.195  25.615  29.810  1.00  0.00    -0.000 C 
BRANCH  23  24
ATOM     24  C   UNL     1      15.220  25.278  28.713  1.00  0.00    -0.000 C 
BRANCH  24  25
ATOM     25  C   UNL     1      16.365  24.393  29.229  1.00  0.00    -0.003 C 
ATOM     26  C   UNL     1      15.961  22.924  29.366  1.00  0.00     0.004 C 
ENDBRANCH  24  25
ENDBRANCH  23  24
ENDBRANCH  22  23
ENDBRANCH  21  22
ENDBRANCH  20  21
ENDBRANCH  19  20
ENDBRANCH  18  19
ENDBRANCH  17  18
ENDBRANCH  16  17
ENDBRANCH  15  16
ENDBRANCH   1  15
TORSDOF 22
ENDMDL
MODEL 4
REMARK VINA RESULT:    -1.726     20.978     23.401
REMARK INTER + INTRA:          -8.480
REMARK INTER:                  -3.989
REMARK INTRA:                  -4.491
REMARK UNBOUND:                -4.535
REMARK SMILES CCCCCCCCCCCCCCCCCCCCCCCC(=O)[O-]
REMARK SMILES IDX 13 1 14 2 15 3 16 4 17 5 18 6 19 7 20 8 21 9 22 10 23 11
REMARK SMILES IDX 24 12 25 13 26 14 12 15 11 16 10 17 9 18 8 19 7 20 6 21 5 22
REMARK SMILES IDX 4 23 3 24 2 25 1 26
REMARK H PARENT
REMARK Flexibility Score: inf
ROOT
ATOM      1  C   UNL     1      13.766  22.741  27.672  1.00  0.00     0.000 C 
ENDROOT
BRANCH   1   2
ATOM      2  C   UNL     1      12.711  21.619  27.725  1.00  0.00     0.000 C 
BRANCH   2   3
ATOM      3  C   UNL     1      11.242  22.087  27.709  1.00  0.00     0.000 C 
BRANCH   3   4
ATOM      4  C   UNL     1      10.588  22.081  29.103  1.00  0.00     0.000 C 
BRANCH   4   5
ATOM      5  C   UNL     1      10.368  23.497  29.663  1.00  0.00     0.000 C 
BRANCH   5   6
ATOM      6  C   UNL     1      10.187  24.602  28.602  1.00  0.00     0.000 C 
BRANCH   6   7
ATOM      7  C   UNL     1      11.088  25.839  28.783  1.00  0.00     0.000 C 
BRANCH   7   8
ATOM      8  C   UNL     1      11.206  26.751  27.546  1.00  0.00     0.000 C 
BRANCH   8   9
ATOM      9  C   UNL     1      10.684  26.138  26.233  1.00  0.00     0.000 C 
BRANCH   9  10
ATOM     10  C   UNL     1      11.776  26.022  25.156  1.00  0.00     0.006 C 
BRANCH  10  11
ATOM     11  C   UNL     1      12.200  24.567  24.916  1.00  0.00     0.053 C 
BRANCH  11  12
ATOM     12  C   UNL     1      12.328  24.256  23.455  1.00  0.00     0.041 C 
ATOM     13  O   UNL     1      11.485  24.711  22.637  1.00  0.00    -0.550 OA
ATOM     14  O   UNL     1      13.379  23.470  23.000  1.00  0.00    -0.550 OA
ENDBRANCH  11  12
ENDBRANCH  10  11
ENDBRANCH   9  10
ENDBRANCH   8   9
ENDBRANCH   7   8
ENDBRANCH   6   7
ENDBRANCH   5   6
ENDBRANCH   4   5
ENDBRANCH   3   4
ENDBRANCH   2   3
ENDBRANCH   1   2
BRANCH   1  15
ATOM     15  C   UNL     1      14.625  22.824  28.946  1.00  0.00     0.000 C 
BRANCH  15  16
ATOM     16  C   UNL     1      14.127  23.913  29.910  1.00  0.00     0.000 C 
BRANCH  16  17
ATOM     17  C   UNL     1      15.141  25.057  30.078  1.00  0.00     0.000 C 
BRANCH  17  18
ATOM     18  C   UNL     1      14.539  26.432  29.736  1.00  0.00    -0.000 C 
BRANCH  18  19
ATOM     19  C   UNL     1      15.077  27.068  28.438  1.00  0.00    -0.000 C 
BRANCH  19  20
ATOM     20  C   UNL     1      14.849  26.237  27.157  1.00  0.00    -0.000 C 
BRANCH  20  21
ATOM     21  C   UNL     1      16.125  25.656  26.523  1.00  0.00    -0.000 C 
BRANCH  21  22
ATOM     22  C   UNL     1      17.401  26.361  27.008  1.00  0.00    -0.000 C 
BRANCH  22  23
ATOM     23  C   UNL     1      18.494  25.345  27.364  1.00  0.00    -0.000 C 
BRANCH  23  24
ATOM     24  C   UNL     1      17.879  23.978  27.711  1.00  0.00    -0.000 C 
BRANCH  24  25
ATOM     25  C   UNL     1      18.300  23.479  29.102  1.00  0.00    -0.003 C 
ATOM     26  C   UNL     1      18.843  22.049  29.077  1.00  0.00     0.004 C 
ENDBRANCH  24  25
ENDBRANCH  23  24
ENDBRANCH  22  23
ENDBRANCH  21  22
ENDBRANCH  20  21
ENDBRANCH  19  20
ENDBRANCH  18  19
ENDBRANCH  17  18
ENDBRANCH  16  17
ENDBRANCH  15  16
ENDBRANCH   1  15
TORSDOF 22
ENDMDL
MODEL 5
REMARK VINA RESULT:    -1.703      2.650      6.088
REMARK INTER + INTRA:          -8.428
REMARK INTER:                  -3.530
REMARK INTRA:                  -4.898
REMARK UNBOUND:                -4.535
REMARK SMILES CCCCCCCCCCCCCCCCCCCCCCCC(=O)[O-]
REMARK SMILES IDX 13 1 14 2 15 3 16 4 17 5 18 6 19 7 20 8 21 9 22 10 23 11
REMARK SMILES IDX 24 12 25 13 26 14 12 15 11 16 10 17 9 18 8 19 7 20 6 21 5 22
REMARK SMILES IDX 4 23 3 24 2 25 1 26
REMARK H PARENT
REMARK Flexibility Score: inf
ROOT
ATOM      1  C   UNL     1      24.260  12.853  14.818  1.00  0.00     0.000 C 
ENDROOT
BRANCH   1   2
ATOM      2  C   UNL     1      24.303  12.587  13.301  1.00  0.00     0.000 C 
BRANCH   2   3
ATOM      3  C   UNL     1      25.359  13.391  12.515  1.00  0.00     0.000 C 
BRANCH   3   4
ATOM      4  C   UNL     1      25.279  13.172  10.993  1.00  0.00     0.000 C 
BRANCH   4   5
ATOM      5  C   UNL     1      26.592  13.522  10.271  1.00  0.00     0.000 C 
BRANCH   5   6
ATOM      6  C   UNL     1      27.753  12.533  10.505  1.00  0.00     0.000 C 
BRANCH   6   7
ATOM      7  C   UNL     1      27.511  11.103   9.986  1.00  0.00     0.000 C 
BRANCH   7   8
ATOM      8  C   UNL     1      27.977   9.976  10.928  1.00  0.00     0.000 C 
BRANCH   8   9
ATOM      9  C   UNL     1      26.888   8.955  11.309  1.00  0.00     0.000 C 
BRANCH   9  10
ATOM     10  C   UNL     1      25.510   9.605  11.515  1.00  0.00     0.006 C 
BRANCH  10  11
ATOM     11  C   UNL     1      24.537   8.678  12.255  1.00  0.00     0.053 C 
BRANCH  11  12
ATOM     12  C   UNL     1      23.113   9.118  12.094  1.00  0.00     0.041 C 
ATOM     13  O   UNL     1      22.563   9.074  10.962  1.00  0.00    -0.550 OA
ATOM     14  O   UNL     1      22.395   9.569  13.194  1.00  0.00    -0.550 OA
ENDBRANCH  11  12
ENDBRANCH  10  11
ENDBRANCH   9  10
ENDBRANCH   8   9
ENDBRANCH   7   8
ENDBRANCH   6   7
ENDBRANCH   5   6
ENDBRANCH   4   5
ENDBRANCH   3   4
ENDBRANCH   2   3
ENDBRANCH   1   2
BRANCH   1  15
ATOM     15  C   UNL     1      25.171  14.013  15.255  1.00  0.00     0.000 C 
BRANCH  15  16
ATOM     16  C   UNL     1      25.995  13.664  16.504  1.00  0.00     0.000 C 
BRANCH  16  17
ATOM     17  C   UNL     1      27.154  14.648  16.738  1.00  0.00     0.000 C 
BRANCH  17  18
ATOM     18  C   UNL     1      28.525  14.028  16.411  1.00  0.00    -0.000 C 
BRANCH  18  19
ATOM     19  C   UNL     1      29.077  14.383  15.015  1.00  0.00    -0.000 C 
BRANCH  19  20
ATOM     20  C   UNL     1      28.754  13.361  13.904  1.00  0.00    -0.000 C 
BRANCH  20  21
ATOM     21  C   UNL     1      28.888  11.884  14.319  1.00  0.00    -0.000 C 
BRANCH  21  22
ATOM     22  C   UNL     1      27.547  11.136  14.283  1.00  0.00    -0.000 C 
BRANCH  22  23
ATOM     23  C   UNL     1      27.319  10.349  15.580  1.00  0.00    -0.000 C 
BRANCH  23  24
ATOM     24  C   UNL     1      26.459   9.100  15.318  1.00  0.00    -0.000 C 
BRANCH  24  25
ATOM     25  C   UNL     1      25.059   9.206  15.942  1.00  0.00    -0.003 C 
ATOM     26  C   UNL     1      25.035  10.085  17.194  1.00  0.00     0.004 C 
ENDBRANCH  24  25
ENDBRANCH  23  24
ENDBRANCH  22  23
ENDBRANCH  21  22
ENDBRANCH  20  21
ENDBRANCH  19  20
ENDBRANCH  18  19
ENDBRANCH  17  18
ENDBRANCH  16  17
ENDBRANCH  15  16
ENDBRANCH   1  15
TORSDOF 22
ENDMDL
MODEL 6
REMARK VINA RESULT:    -1.698      2.515      3.992
REMARK INTER + INTRA:          -8.417
REMARK INTER:                  -3.446
REMARK INTRA:                  -4.971
REMARK UNBOUND:                -4.535
REMARK SMILES CCCCCCCCCCCCCCCCCCCCCCCC(=O)[O-]
REMARK SMILES IDX 13 1 14 2 15 3 16 4 17 5 18 6 19 7 20 8 21 9 22 10 23 11
REMARK SMILES IDX 24 12 25 13 26 14 12 15 11 16 10 17 9 18 8 19 7 20 6 21 5 22
REMARK SMILES IDX 4 23 3 24 2 25 1 26
REMARK H PARENT
REMARK Flexibility Score: inf
ROOT
ATOM      1  C   UNL     1      23.966   9.844  14.245  1.00  0.00     0.000 C 
ENDROOT
BRANCH   1   2
ATOM      2  C   UNL     1      23.115   9.341  13.064  1.00  0.00     0.000 C 
BRANCH   2   3
ATOM      3  C   UNL     1      23.876   9.128  11.739  1.00  0.00     0.000 C 
BRANCH   3   4
ATOM      4  C   UNL     1      23.228   9.850  10.544  1.00  0.00     0.000 C 
BRANCH   4   5
ATOM      5  C   UNL     1      23.716  11.300  10.388  1.00  0.00     0.000 C 
BRANCH   5   6
ATOM      6  C   UNL     1      22.602  12.355  10.228  1.00  0.00     0.000 C 
BRANCH   6   7
ATOM      7  C   UNL     1      21.448  12.249  11.244  1.00  0.00     0.000 C 
BRANCH   7   8
ATOM      8  C   UNL     1      21.253  13.485  12.146  1.00  0.00     0.000 C 
BRANCH   8   9
ATOM      9  C   UNL     1      22.553  14.105  12.690  1.00  0.00     0.000 C 
BRANCH   9  10
ATOM     10  C   UNL     1      23.053  13.412  13.968  1.00  0.00     0.006 C 
BRANCH  10  11
ATOM     11  C   UNL     1      23.961  14.323  14.804  1.00  0.00     0.053 C 
BRANCH  11  12
ATOM     12  C   UNL     1      24.485  13.625  16.023  1.00  0.00     0.041 C 
ATOM     13  O   UNL     1      23.750  12.820  16.654  1.00  0.00    -0.550 OA
ATOM     14  O   UNL     1      25.784  13.858  16.455  1.00  0.00    -0.550 OA
ENDBRANCH  11  12
ENDBRANCH  10  11
ENDBRANCH   9  10
ENDBRANCH   8   9
ENDBRANCH   7   8
ENDBRANCH   6   7
ENDBRANCH   5   6
ENDBRANCH   4   5
ENDBRANCH   3   4
ENDBRANCH   2   3
ENDBRANCH   1   2
BRANCH   1  15
ATOM     15  C   UNL     1      25.194  10.659  13.802  1.00  0.00     0.000 C 
BRANCH  15  16
ATOM     16  C   UNL     1      26.337  10.589  14.829  1.00  0.00     0.000 C 
BRANCH  16  17
ATOM     17  C   UNL     1      27.583   9.879  14.273  1.00  0.00     0.000 C 
BRANCH  17  18
ATOM     18  C   UNL     1      27.337   9.263  12.883  1.00  0.00    -0.000 C 
BRANCH  18  19
ATOM     19  C   UNL     1      28.282   9.773  11.775  1.00  0.00    -0.000 C 
BRANCH  19  20
ATOM     20  C   UNL     1      27.646   9.886  10.373  1.00  0.00    -0.000 C 
BRANCH  20  21
ATOM     21  C   UNL     1      27.187  11.302   9.980  1.00  0.00    -0.000 C 
BRANCH  21  22
ATOM     22  C   UNL     1      27.747  12.386  10.913  1.00  0.00    -0.000 C 
BRANCH  22  23
ATOM     23  C   UNL     1      26.617  13.163  11.599  1.00  0.00    -0.000 C 
BRANCH  23  24
ATOM     24  C   UNL     1      27.104  13.790  12.917  1.00  0.00    -0.000 C 
BRANCH  24  25
ATOM     25  C   UNL     1      28.530  13.351  13.287  1.00  0.00    -0.003 C 
ATOM     26  C   UNL     1      28.792  13.404  14.793  1.00  0.00     0.004 C 
ENDBRANCH  24  25
ENDBRANCH  23  24
ENDBRANCH  22  23
ENDBRANCH  21  22
ENDBRANCH  20  21
ENDBRANCH  19  20
ENDBRANCH  18  19
ENDBRANCH  17  18
ENDBRANCH  16  17
ENDBRANCH  15  16
ENDBRANCH   1  15
TORSDOF 22
ENDMDL
MODEL 7
REMARK VINA RESULT:    -1.687      2.586      5.538
REMARK INTER + INTRA:          -8.392
REMARK INTER:                  -3.619
REMARK INTRA:                  -4.772
REMARK UNBOUND:                -4.535
REMARK SMILES CCCCCCCCCCCCCCCCCCCCCCCC(=O)[O-]
REMARK SMILES IDX 13 1 14 2 15 3 16 4 17 5 18 6 19 7 20 8 21 9 22 10 23 11
REMARK SMILES IDX 24 12 25 13 26 14 12 15 11 16 10 17 9 18 8 19 7 20 6 21 5 22
REMARK SMILES IDX 4 23 3 24 2 25 1 26
REMARK H PARENT
REMARK Flexibility Score: inf
ROOT
ATOM      1  C   UNL     1      27.295  12.767  13.597  1.00  0.00     0.000 C 
ENDROOT
BRANCH   1   2
ATOM      2  C   UNL     1      27.383  13.738  12.404  1.00  0.00     0.000 C 
BRANCH   2   3
ATOM      3  C   UNL     1      26.936  13.163  11.044  1.00  0.00     0.000 C 
BRANCH   3   4
ATOM      4  C   UNL     1      28.048  12.381  10.321  1.00  0.00     0.000 C 
BRANCH   4   5
ATOM      5  C   UNL     1      27.597  10.979   9.875  1.00  0.00     0.000 C 
BRANCH   5   6
ATOM      6  C   UNL     1      27.836   9.855  10.904  1.00  0.00     0.000 C 
BRANCH   6   7
ATOM      7  C   UNL     1      26.571   9.105  11.362  1.00  0.00     0.000 C 
BRANCH   7   8
ATOM      8  C   UNL     1      25.247   9.870  11.166  1.00  0.00     0.000 C 
BRANCH   8   9
ATOM      9  C   UNL     1      24.675  10.519  12.440  1.00  0.00     0.000 C 
BRANCH   9  10
ATOM     10  C   UNL     1      23.263  10.014  12.782  1.00  0.00     0.006 C 
BRANCH  10  11
ATOM     11  C   UNL     1      22.218  11.134  12.724  1.00  0.00     0.053 C 
BRANCH  11  12
ATOM     12  C   UNL     1      21.381  11.055  11.482  1.00  0.00     0.041 C 
ATOM     13  O   UNL     1      21.605  10.158  10.627  1.00  0.00    -0.550 OA
ATOM     14  O   UNL     1      20.354  11.967  11.275  1.00  0.00    -0.550 OA
ENDBRANCH  11  12
ENDBRANCH  10  11
ENDBRANCH   9  10
ENDBRANCH   8   9
ENDBRANCH   7   8
ENDBRANCH   6   7
ENDBRANCH   5   6
ENDBRANCH   4   5
ENDBRANCH   3   4
ENDBRANCH   2   3
ENDBRANCH   1   2
BRANCH   1  15
ATOM     15  C   UNL     1      28.662  12.196  14.014  1.00  0.00     0.000 C 
BRANCH  15  16
ATOM     16  C   UNL     1      28.610  10.676  14.239  1.00  0.00     0.000 C 
BRANCH  16  17
ATOM     17  C   UNL     1      27.599  10.277  15.327  1.00  0.00     0.000 C 
BRANCH  17  18
ATOM     18  C   UNL     1      26.873   8.959  14.999  1.00  0.00    -0.000 C 
BRANCH  18  19
ATOM     19  C   UNL     1      25.470   8.822  15.625  1.00  0.00    -0.000 C 
BRANCH  19  20
ATOM     20  C   UNL     1      25.143   9.848  16.731  1.00  0.00    -0.000 C 
BRANCH  20  21
ATOM     21  C   UNL     1      23.990  10.814  16.400  1.00  0.00    -0.000 C 
BRANCH  21  22
ATOM     22  C   UNL     1      24.487  12.198  15.958  1.00  0.00    -0.000 C 
BRANCH  22  23
ATOM     23  C   UNL     1      25.016  13.004  17.152  1.00  0.00    -0.000 C 
BRANCH  23  24
ATOM     24  C   UNL     1      26.424  13.552  16.862  1.00  0.00    -0.000 C 
BRANCH  24  25
ATOM     25  C   UNL     1      27.467  13.065  17.879  1.00  0.00    -0.003 C 
ATOM     26  C   UNL     1      26.895  12.055  18.876  1.00  0.00     0.004 C 
ENDBRANCH  24  25
ENDBRANCH  23  24
ENDBRANCH  22  23
ENDBRANCH  21  22
ENDBRANCH  20  21
ENDBRANCH  19  20
ENDBRANCH  18  19
ENDBRANCH  17  18
ENDBRANCH  16  17
ENDBRANCH  15  16
ENDBRANCH   1  15
TORSDOF 22
ENDMDL
MODEL 8
REMARK VINA RESULT:    -1.676      1.835      3.053
REMARK INTER + INTRA:          -8.367
REMARK INTER:                  -3.751
REMARK INTRA:                  -4.616
REMARK UNBOUND:                -4.535
REMARK SMILES CCCCCCCCCCCCCCCCCCCCCCCC(=O)[O-]
REMARK SMILES IDX 13 1 14 2 15 3 16 4 17 5 18 6 19 7 20 8 21 9 22 10 23 11
REMARK SMILES IDX 24 12 25 13 26 14 12 15 11 16 10 17 9 18 8 19 7 20 6 21 5 22
REMARK SMILES IDX 4 23 3 24 2 25 1 26
REMARK H PARENT
REMARK Flexibility Score: inf
ROOT
ATOM      1  C   UNL     1      25.656  10.953  14.016  1.00  0.00     0.000 C 
ENDROOT
BRANCH   1   2
ATOM      2  C   UNL     1      24.846  10.334  15.171  1.00  0.00     0.000 C 
BRANCH   2   3
ATOM      3  C   UNL     1      25.245   8.898  15.568  1.00  0.00     0.000 C 
BRANCH   3   4
ATOM      4  C   UNL     1      24.396   7.818  14.873  1.00  0.00     0.000 C 
BRANCH   4   5
ATOM      5  C   UNL     1      23.224   8.408  14.069  1.00  0.00     0.000 C 
BRANCH   5   6
ATOM      6  C   UNL     1      23.199   8.033  12.573  1.00  0.00     0.000 C 
BRANCH   6   7
ATOM      7  C   UNL     1      23.701   9.129  11.614  1.00  0.00     0.000 C 
BRANCH   7   8
ATOM      8  C   UNL     1      22.661   9.633  10.592  1.00  0.00     0.000 C 
BRANCH   8   9
ATOM      9  C   UNL     1      21.757  10.774  11.093  1.00  0.00     0.000 C 
BRANCH   9  10
ATOM     10  C   UNL     1      22.419  11.618  12.194  1.00  0.00     0.006 C 
BRANCH  10  11
ATOM     11  C   UNL     1      22.147  13.117  12.018  1.00  0.00     0.053 C 
BRANCH  11  12
ATOM     12  C   UNL     1      22.260  13.863  13.313  1.00  0.00     0.041 C 
ATOM     13  O   UNL     1      21.617  13.473  14.324  1.00  0.00    -0.550 OA
ATOM     14  O   UNL     1      23.078  14.982  13.404  1.00  0.00    -0.550 OA
ENDBRANCH  11  12
ENDBRANCH  10  11
ENDBRANCH   9  10
ENDBRANCH   8   9
ENDBRANCH   7   8
ENDBRANCH   6   7
ENDBRANCH   5   6
ENDBRANCH   4   5
ENDBRANCH   3   4
ENDBRANCH   2   3
ENDBRANCH   1   2
BRANCH   1  15
ATOM     15  C   UNL     1      27.172  10.971  14.282  1.00  0.00     0.000 C 
BRANCH  15  16
ATOM     16  C   UNL     1      27.966  10.298  13.150  1.00  0.00     0.000 C 
BRANCH  16  17
ATOM     17  C   UNL     1      27.229   9.087  12.555  1.00  0.00     0.000 C 
BRANCH  17  18
ATOM     18  C   UNL     1      27.403   8.985  11.028  1.00  0.00    -0.000 C 
BRANCH  18  19
ATOM     19  C   UNL     1      27.617  10.334  10.312  1.00  0.00    -0.000 C 
BRANCH  19  20
ATOM     20  C   UNL     1      26.325  11.066   9.892  1.00  0.00    -0.000 C 
BRANCH  20  21
ATOM     21  C   UNL     1      26.424  12.602   9.875  1.00  0.00    -0.000 C 
BRANCH  21  22
ATOM     22  C   UNL     1      25.521  13.265  10.926  1.00  0.00    -0.000 C 
BRANCH  22  23
ATOM     23  C   UNL     1      26.353  13.932  12.029  1.00  0.00    -0.000 C 
BRANCH  23  24
ATOM     24  C   UNL     1      27.854  13.861  11.702  1.00  0.00    -0.000 C 
BRANCH  24  25
ATOM     25  C   UNL     1      28.738  14.059  12.942  1.00  0.00    -0.003 C 
ATOM     26  C   UNL     1      27.957  14.586  14.147  1.00  0.00     0.004 C 
ENDBRANCH  24  25
ENDBRANCH  23  24
ENDBRANCH  22  23
ENDBRANCH  21  22
ENDBRANCH  20  21
ENDBRANCH  19  20
ENDBRANCH  18  19
ENDBRANCH  17  18
ENDBRANCH  16  17
ENDBRANCH  15  16
ENDBRANCH   1  15
TORSDOF 22
ENDMDL
