MODEL 1
REMARK VINA RESULT:    -3.249      0.000      0.000
REMARK INTER + INTRA:          -8.543
REMARK INTER:                  -6.288
REMARK INTRA:                  -2.255
REMARK UNBOUND:                -2.255
REMARK SMILES CCCCCCCCCCCCCCCCCC(=O)[O-]
REMARK SMILES IDX 10 1 11 2 12 3 13 4 14 5 15 6 16 7 17 8 18 9 19 10 20 11
REMARK SMILES IDX 9 12 8 13 7 14 6 15 5 16 4 17 3 18 2 19 1 20
REMARK H PARENT
REMARK Flexibility Score: inf
ROOT
ATOM      1  C   UNL     1      22.775  68.731  17.765  1.00  0.00     0.000 C 
ENDROOT
BRANCH   1   2
ATOM      2  C   UNL     1      21.974  69.925  18.308  1.00  0.00     0.000 C 
BRANCH   2   3
ATOM      3  C   UNL     1      21.233  70.695  17.204  1.00  0.00     0.000 C 
BRANCH   3   4
ATOM      4  C   UNL     1      21.927  70.512  15.848  1.00  0.00     0.000 C 
BRANCH   4   5
ATOM      5  C   UNL     1      22.416  71.855  15.293  1.00  0.00     0.000 C 
BRANCH   5   6
ATOM      6  C   UNL     1      22.857  71.719  13.829  1.00  0.00     0.000 C 
BRANCH   6   7
ATOM      7  C   UNL     1      24.263  72.289  13.566  1.00  0.00     0.006 C 
BRANCH   7   8
ATOM      8  C   UNL     1      24.947  71.710  12.315  1.00  0.00     0.053 C 
BRANCH   8   9
ATOM      9  C   UNL     1      26.440  71.668  12.443  1.00  0.00     0.041 C 
ATOM     10  O   UNL     1      27.153  71.380  11.446  1.00  0.00    -0.550 OA
ATOM     11  O   UNL     1      27.046  71.982  13.653  1.00  0.00    -0.550 OA
ENDBRANCH   8   9
ENDBRANCH   7   8
ENDBRANCH   6   7
ENDBRANCH   5   6
ENDBRANCH   4   5
ENDBRANCH   3   4
ENDBRANCH   2   3
ENDBRANCH   1   2
BRANCH   1  12
ATOM     12  C   UNL     1      22.699  67.500  18.686  1.00  0.00     0.000 C 
BRANCH  12  13
ATOM     13  C   UNL     1      23.088  66.200  17.964  1.00  0.00    -0.000 C 
BRANCH  13  14
ATOM     14  C   UNL     1      23.184  66.380  16.438  1.00  0.00    -0.000 C 
BRANCH  14  15
ATOM     15  C   UNL     1      21.932  65.879  15.696  1.00  0.00    -0.000 C 
BRANCH  15  16
ATOM     16  C   UNL     1      20.995  66.986  15.180  1.00  0.00    -0.000 C 
BRANCH  16  17
ATOM     17  C   UNL     1      19.572  66.883  15.757  1.00  0.00    -0.000 C 
BRANCH  17  18
ATOM     18  C   UNL     1      19.458  65.821  16.862  1.00  0.00    -0.000 C 
BRANCH  18  19
ATOM     19  C   UNL     1      19.216  66.435  18.248  1.00  0.00    -0.003 C 
ATOM     20  C   UNL     1      18.819  67.904  18.136  1.00  0.00     0.004 C 
ENDBRANCH  18  19
ENDBRANCH  17  18
ENDBRANCH  16  17
ENDBRANCH  15  16
ENDBRANCH  14  15
ENDBRANCH  13  14
ENDBRANCH  12  13
ENDBRANCH   1  12
TORSDOF 16
ENDMDL
MODEL 2
REMARK VINA RESULT:    -3.219      0.929      2.320
REMARK INTER + INTRA:          -8.485
REMARK INTER:                  -6.041
REMARK INTRA:                  -2.444
REMARK UNBOUND:                -2.255
REMARK SMILES CCCCCCCCCCCCCCCCCC(=O)[O-]
REMARK SMILES IDX 10 1 11 2 12 3 13 4 14 5 15 6 16 7 17 8 18 9 19 10 20 11
REMARK SMILES IDX 9 12 8 13 7 14 6 15 5 16 4 17 3 18 2 19 1 20
REMARK H PARENT
REMARK Flexibility Score: inf
ROOT
ATOM      1  C   UNL     1      22.346  69.994  18.230  1.00  0.00     0.000 C 
ENDROOT
BRANCH   1   2
ATOM      2  C   UNL     1      21.503  70.773  17.208  1.00  0.00     0.000 C 
BRANCH   2   3
ATOM      3  C   UNL     1      21.653  70.232  15.778  1.00  0.00     0.000 C 
BRANCH   3   4
ATOM      4  C   UNL     1      21.552  71.366  14.750  1.00  0.00     0.000 C 
BRANCH   4   5
ATOM      5  C   UNL     1      22.307  72.612  15.228  1.00  0.00     0.000 C 
BRANCH   5   6
ATOM      6  C   UNL     1      23.720  72.664  14.630  1.00  0.00     0.000 C 
BRANCH   6   7
ATOM      7  C   UNL     1      23.867  71.817  13.353  1.00  0.00     0.006 C 
BRANCH   7   8
ATOM      8  C   UNL     1      24.862  72.395  12.332  1.00  0.00     0.053 C 
BRANCH   8   9
ATOM      9  C   UNL     1      26.154  71.636  12.294  1.00  0.00     0.041 C 
ATOM     10  O   UNL     1      26.982  71.748  13.236  1.00  0.00    -0.550 OA
ATOM     11  O   UNL     1      26.430  70.777  11.238  1.00  0.00    -0.550 OA
ENDBRANCH   8   9
ENDBRANCH   7   8
ENDBRANCH   6   7
ENDBRANCH   5   6
ENDBRANCH   4   5
ENDBRANCH   3   4
ENDBRANCH   2   3
ENDBRANCH   1   2
BRANCH   1  12
ATOM     12  C   UNL     1      22.742  68.595  17.727  1.00  0.00     0.000 C 
BRANCH  12  13
ATOM     13  C   UNL     1      22.358  67.483  18.717  1.00  0.00    -0.000 C 
BRANCH  13  14
ATOM     14  C   UNL     1      21.027  67.768  19.436  1.00  0.00    -0.000 C 
BRANCH  14  15
ATOM     15  C   UNL     1      19.825  67.079  18.765  1.00  0.00    -0.000 C 
BRANCH  15  16
ATOM     16  C   UNL     1      19.007  67.975  17.818  1.00  0.00    -0.000 C 
BRANCH  16  17
ATOM     17  C   UNL     1      19.192  67.605  16.336  1.00  0.00    -0.000 C 
BRANCH  17  18
ATOM     18  C   UNL     1      19.890  66.250  16.147  1.00  0.00    -0.000 C 
BRANCH  18  19
ATOM     19  C   UNL     1      21.118  66.342  15.230  1.00  0.00    -0.003 C 
ATOM     20  C   UNL     1      20.805  67.149  13.973  1.00  0.00     0.004 C 
ENDBRANCH  18  19
ENDBRANCH  17  18
ENDBRANCH  16  17
ENDBRANCH  15  16
ENDBRANCH  14  15
ENDBRANCH  13  14
ENDBRANCH  12  13
ENDBRANCH   1  12
TORSDOF 16
ENDMDL
MODEL 3
REMARK VINA RESULT:    -3.167      2.148      3.904
REMARK INTER + INTRA:          -8.384
REMARK INTER:                  -5.598
REMARK INTRA:                  -2.786
REMARK UNBOUND:                -2.255
REMARK SMILES CCCCCCCCCCCCCCCCCC(=O)[O-]
REMARK SMILES IDX 10 1 11 2 12 3 13 4 14 5 15 6 16 7 17 8 18 9 19 10 20 11
REMARK SMILES IDX 9 12 8 13 7 14 6 15 5 16 4 17 3 18 2 19 1 20
REMARK H PARENT
REMARK Flexibility Score: inf
ROOT
ATOM      1  C   UNL     1      19.550  66.713  14.982  1.00  0.00     0.000 C 
ENDROOT
BRANCH   1   2
ATOM      2  C   UNL     1      19.598  68.249  14.947  1.00  0.00     0.000 C 
BRANCH   2   3
ATOM      3  C   UNL     1      18.668  68.897  15.983  1.00  0.00     0.000 C 
BRANCH   3   4
ATOM      4  C   UNL     1      19.079  70.349  16.257  1.00  0.00     0.000 C 
BRANCH   4   5
ATOM      5  C   UNL     1      19.557  71.037  14.972  1.00  0.00     0.000 C 
BRANCH   5   6
ATOM      6  C   UNL     1      20.824  71.865  15.229  1.00  0.00     0.000 C 
BRANCH   6   7
ATOM      7  C   UNL     1      22.099  71.210  14.669  1.00  0.00     0.006 C 
BRANCH   7   8
ATOM      8  C   UNL     1      23.150  72.216  14.169  1.00  0.00     0.053 C 
BRANCH   8   9
ATOM      9  C   UNL     1      23.601  73.159  15.243  1.00  0.00     0.041 C 
ATOM     10  O   UNL     1      24.302  72.739  16.202  1.00  0.00    -0.550 OA
ATOM     11  O   UNL     1      23.279  74.508  15.169  1.00  0.00    -0.550 OA
ENDBRANCH   8   9
ENDBRANCH   7   8
ENDBRANCH   6   7
ENDBRANCH   5   6
ENDBRANCH   4   5
ENDBRANCH   3   4
ENDBRANCH   2   3
ENDBRANCH   1   2
BRANCH   1  12
ATOM     12  C   UNL     1      20.876  66.090  15.452  1.00  0.00     0.000 C 
BRANCH  12  13
ATOM     13  C   UNL     1      20.699  65.193  16.688  1.00  0.00    -0.000 C 
BRANCH  13  14
ATOM     14  C   UNL     1      19.352  65.425  17.396  1.00  0.00    -0.000 C 
BRANCH  14  15
ATOM     15  C   UNL     1      19.511  66.041  18.798  1.00  0.00    -0.000 C 
BRANCH  15  16
ATOM     16  C   UNL     1      20.105  67.461  18.822  1.00  0.00    -0.000 C 
BRANCH  16  17
ATOM     17  C   UNL     1      21.493  67.518  19.483  1.00  0.00    -0.000 C 
BRANCH  17  18
ATOM     18  C   UNL     1      22.616  67.808  18.476  1.00  0.00    -0.000 C 
BRANCH  18  19
ATOM     19  C   UNL     1      22.283  68.981  17.544  1.00  0.00    -0.003 C 
ATOM     20  C   UNL     1      22.483  70.319  18.250  1.00  0.00     0.004 C 
ENDBRANCH  18  19
ENDBRANCH  17  18
ENDBRANCH  16  17
ENDBRANCH  15  16
ENDBRANCH  14  15
ENDBRANCH  13  14
ENDBRANCH  12  13
ENDBRANCH   1  12
TORSDOF 16
ENDMDL
MODEL 4
REMARK VINA RESULT:    -3.146      1.983      3.143
REMARK INTER + INTRA:          -8.344
REMARK INTER:                  -5.673
REMARK INTRA:                  -2.670
REMARK UNBOUND:                -2.255
REMARK SMILES CCCCCCCCCCCCCCCCCC(=O)[O-]
REMARK SMILES IDX 10 1 11 2 12 3 13 4 14 5 15 6 16 7 17 8 18 9 19 10 20 11
REMARK SMILES IDX 9 12 8 13 7 14 6 15 5 16 4 17 3 18 2 19 1 20
REMARK H PARENT
REMARK Flexibility Score: inf
ROOT
ATOM      1  C   UNL     1      22.846  67.527  17.598  1.00  0.00     0.000 C 
ENDROOT
BRANCH   1   2
ATOM      2  C   UNL     1      22.374  68.614  18.576  1.00  0.00     0.000 C 
BRANCH   2   3
ATOM      3  C   UNL     1      22.633  70.036  18.055  1.00  0.00     0.000 C 
BRANCH   3   4
ATOM      4  C   UNL     1      21.994  70.239  16.675  1.00  0.00     0.000 C 
BRANCH   4   5
ATOM      5  C   UNL     1      20.828  71.233  16.749  1.00  0.00     0.000 C 
BRANCH   5   6
ATOM      6  C   UNL     1      20.323  71.595  15.346  1.00  0.00     0.000 C 
BRANCH   6   7
ATOM      7  C   UNL     1      20.735  73.010  14.901  1.00  0.00     0.006 C 
BRANCH   7   8
ATOM      8  C   UNL     1      21.842  73.032  13.833  1.00  0.00     0.053 C 
BRANCH   8   9
ATOM      9  C   UNL     1      23.215  73.113  14.428  1.00  0.00     0.041 C 
ATOM     10  O   UNL     1      24.135  72.366  14.003  1.00  0.00    -0.550 OA
ATOM     11  O   UNL     1      23.489  74.038  15.428  1.00  0.00    -0.550 OA
ENDBRANCH   8   9
ENDBRANCH   7   8
ENDBRANCH   6   7
ENDBRANCH   5   6
ENDBRANCH   4   5
ENDBRANCH   3   4
ENDBRANCH   2   3
ENDBRANCH   1   2
BRANCH   1  12
ATOM     12  C   UNL     1      22.593  66.105  18.127  1.00  0.00     0.000 C 
BRANCH  12  13
ATOM     13  C   UNL     1      21.456  66.055  19.161  1.00  0.00    -0.000 C 
BRANCH  13  14
ATOM     14  C   UNL     1      20.365  65.035  18.788  1.00  0.00    -0.000 C 
BRANCH  14  15
ATOM     15  C   UNL     1      19.033  65.700  18.399  1.00  0.00    -0.000 C 
BRANCH  15  16
ATOM     16  C   UNL     1      18.953  67.212  18.678  1.00  0.00    -0.000 C 
BRANCH  16  17
ATOM     17  C   UNL     1      18.928  68.058  17.393  1.00  0.00    -0.000 C 
BRANCH  17  18
ATOM     18  C   UNL     1      19.351  67.258  16.151  1.00  0.00    -0.000 C 
BRANCH  18  19
ATOM     19  C   UNL     1      19.423  68.127  14.888  1.00  0.00    -0.003 C 
ATOM     20  C   UNL     1      20.693  67.837  14.093  1.00  0.00     0.004 C 
ENDBRANCH  18  19
ENDBRANCH  17  18
ENDBRANCH  16  17
ENDBRANCH  15  16
ENDBRANCH  14  15
ENDBRANCH  13  14
ENDBRANCH  12  13
ENDBRANCH   1  12
TORSDOF 16
ENDMDL
MODEL 5
REMARK VINA RESULT:    -3.145      3.042      7.497
REMARK INTER + INTRA:          -8.343
REMARK INTER:                  -6.686
REMARK INTRA:                  -1.657
REMARK UNBOUND:                -2.255
REMARK SMILES CCCCCCCCCCCCCCCCCC(=O)[O-]
REMARK SMILES IDX 10 1 11 2 12 3 13 4 14 5 15 6 16 7 17 8 18 9 19 10 20 11
REMARK SMILES IDX 9 12 8 13 7 14 6 15 5 16 4 17 3 18 2 19 1 20
REMARK H PARENT
REMARK Flexibility Score: inf
ROOT
ATOM      1  C   UNL     1      21.394  73.939  14.783  1.00  0.00     0.000 C 
ENDROOT
BRANCH   1   2
ATOM      2  C   UNL     1      20.921  72.482  14.655  1.00  0.00     0.000 C 
BRANCH   2   3
ATOM      3  C   UNL     1      20.387  71.912  15.978  1.00  0.00     0.000 C 
BRANCH   3   4
ATOM      4  C   UNL     1      21.067  70.580  16.315  1.00  0.00     0.000 C 
BRANCH   4   5
ATOM      5  C   UNL     1      22.369  70.808  17.093  1.00  0.00     0.000 C 
BRANCH   5   6
ATOM      6  C   UNL     1      22.387  69.986  18.390  1.00  0.00     0.000 C 
BRANCH   6   7
ATOM      7  C   UNL     1      21.897  68.540  18.196  1.00  0.00     0.006 C 
BRANCH   7   8
ATOM      8  C   UNL     1      23.032  67.506  18.084  1.00  0.00     0.053 C 
BRANCH   8   9
ATOM      9  C   UNL     1      23.128  66.902  16.716  1.00  0.00     0.041 C 
ATOM     10  O   UNL     1      22.284  67.202  15.830  1.00  0.00    -0.550 OA
ATOM     11  O   UNL     1      24.168  66.034  16.407  1.00  0.00    -0.550 OA
ENDBRANCH   8   9
ENDBRANCH   7   8
ENDBRANCH   6   7
ENDBRANCH   5   6
ENDBRANCH   4   5
ENDBRANCH   3   4
ENDBRANCH   2   3
ENDBRANCH   1   2
BRANCH   1  12
ATOM     12  C   UNL     1      22.861  74.124  14.357  1.00  0.00     0.000 C 
BRANCH  12  13
ATOM     13  C   UNL     1      23.787  73.052  14.955  1.00  0.00    -0.000 C 
BRANCH  13  14
ATOM     14  C   UNL     1      24.577  72.288  13.877  1.00  0.00    -0.000 C 
BRANCH  14  15
ATOM     15  C   UNL     1      24.074  72.576  12.451  1.00  0.00    -0.000 C 
BRANCH  15  16
ATOM     16  C   UNL     1      25.110  72.343  11.336  1.00  0.00    -0.000 C 
BRANCH  16  17
ATOM     17  C   UNL     1      26.121  71.235  11.681  1.00  0.00    -0.000 C 
BRANCH  17  18
ATOM     18  C   UNL     1      27.558  71.601  11.279  1.00  0.00    -0.000 C 
BRANCH  18  19
ATOM     19  C   UNL     1      28.183  72.648  12.213  1.00  0.00    -0.003 C 
ATOM     20  C   UNL     1      28.183  72.163  13.660  1.00  0.00     0.004 C 
ENDBRANCH  18  19
ENDBRANCH  17  18
ENDBRANCH  16  17
ENDBRANCH  15  16
ENDBRANCH  14  15
ENDBRANCH  13  14
ENDBRANCH  12  13
ENDBRANCH   1  12
TORSDOF 16
ENDMDL
MODEL 6
REMARK VINA RESULT:    -3.094      1.985      3.242
REMARK INTER + INTRA:          -8.243
REMARK INTER:                  -5.653
REMARK INTRA:                  -2.590
REMARK UNBOUND:                -2.255
REMARK SMILES CCCCCCCCCCCCCCCCCC(=O)[O-]
REMARK SMILES IDX 10 1 11 2 12 3 13 4 14 5 15 6 16 7 17 8 18 9 19 10 20 11
REMARK SMILES IDX 9 12 8 13 7 14 6 15 5 16 4 17 3 18 2 19 1 20
REMARK H PARENT
REMARK Flexibility Score: inf
ROOT
ATOM      1  C   UNL     1      22.752  68.926  18.012  1.00  0.00     0.000 C 
ENDROOT
BRANCH   1   2
ATOM      2  C   UNL     1      21.776  70.113  17.964  1.00  0.00     0.000 C 
BRANCH   2   3
ATOM      3  C   UNL     1      21.515  70.610  16.534  1.00  0.00     0.000 C 
BRANCH   3   4
ATOM      4  C   UNL     1      20.090  71.163  16.397  1.00  0.00     0.000 C 
BRANCH   4   5
ATOM      5  C   UNL     1      19.946  72.002  15.122  1.00  0.00     0.000 C 
BRANCH   5   6
ATOM      6  C   UNL     1      20.380  73.454  15.366  1.00  0.00     0.000 C 
BRANCH   6   7
ATOM      7  C   UNL     1      21.403  73.961  14.334  1.00  0.00     0.006 C 
BRANCH   7   8
ATOM      8  C   UNL     1      22.791  74.263  14.925  1.00  0.00     0.053 C 
BRANCH   8   9
ATOM      9  C   UNL     1      23.634  73.032  15.071  1.00  0.00     0.041 C 
ATOM     10  O   UNL     1      24.225  72.794  16.158  1.00  0.00    -0.550 OA
ATOM     11  O   UNL     1      23.740  72.129  14.021  1.00  0.00    -0.550 OA
ENDBRANCH   8   9
ENDBRANCH   7   8
ENDBRANCH   6   7
ENDBRANCH   5   6
ENDBRANCH   4   5
ENDBRANCH   3   4
ENDBRANCH   2   3
ENDBRANCH   1   2
BRANCH   1  12
ATOM     12  C   UNL     1      22.270  67.801  18.944  1.00  0.00     0.000 C 
BRANCH  12  13
ATOM     13  C   UNL     1      20.742  67.798  19.121  1.00  0.00    -0.000 C 
BRANCH  13  14
ATOM     14  C   UNL     1      20.109  66.448  18.739  1.00  0.00    -0.000 C 
BRANCH  14  15
ATOM     15  C   UNL     1      19.054  66.576  17.624  1.00  0.00    -0.000 C 
BRANCH  15  16
ATOM     16  C   UNL     1      19.430  67.536  16.481  1.00  0.00    -0.000 C 
BRANCH  16  17
ATOM     17  C   UNL     1      19.953  66.804  15.233  1.00  0.00    -0.000 C 
BRANCH  17  18
ATOM     18  C   UNL     1      21.480  66.897  15.090  1.00  0.00    -0.000 C 
BRANCH  18  19
ATOM     19  C   UNL     1      22.206  65.705  15.731  1.00  0.00    -0.003 C 
ATOM     20  C   UNL     1      23.669  66.036  16.009  1.00  0.00     0.004 C 
ENDBRANCH  18  19
ENDBRANCH  17  18
ENDBRANCH  16  17
ENDBRANCH  15  16
ENDBRANCH  14  15
ENDBRANCH  13  14
ENDBRANCH  12  13
ENDBRANCH   1  12
TORSDOF 16
ENDMDL
MODEL 7
REMARK VINA RESULT:    -3.070      2.203      3.343
REMARK INTER + INTRA:          -8.197
REMARK INTER:                  -5.549
REMARK INTRA:                  -2.648
REMARK UNBOUND:                -2.255
REMARK SMILES CCCCCCCCCCCCCCCCCC(=O)[O-]
REMARK SMILES IDX 10 1 11 2 12 3 13 4 14 5 15 6 16 7 17 8 18 9 19 10 20 11
REMARK SMILES IDX 9 12 8 13 7 14 6 15 5 16 4 17 3 18 2 19 1 20
REMARK H PARENT
REMARK Flexibility Score: inf
ROOT
ATOM      1  C   UNL     1      23.334  66.846  16.954  1.00  0.00     0.000 C 
ENDROOT
BRANCH   1   2
ATOM      2  C   UNL     1      22.757  66.872  18.378  1.00  0.00     0.000 C 
BRANCH   2   3
ATOM      3  C   UNL     1      21.915  68.126  18.656  1.00  0.00     0.000 C 
BRANCH   3   4
ATOM      4  C   UNL     1      22.618  69.385  18.133  1.00  0.00     0.000 C 
BRANCH   4   5
ATOM      5  C   UNL     1      21.599  70.430  17.663  1.00  0.00     0.000 C 
BRANCH   5   6
ATOM      6  C   UNL     1      20.473  69.776  16.851  1.00  0.00     0.000 C 
BRANCH   6   7
ATOM      7  C   UNL     1      20.777  69.704  15.343  1.00  0.00     0.006 C 
BRANCH   7   8
ATOM      8  C   UNL     1      20.863  71.079  14.658  1.00  0.00     0.053 C 
BRANCH   8   9
ATOM      9  C   UNL     1      21.883  71.112  13.560  1.00  0.00     0.041 C 
ATOM     10  O   UNL     1      22.986  71.692  13.737  1.00  0.00    -0.550 OA
ATOM     11  O   UNL     1      21.630  70.473  12.352  1.00  0.00    -0.550 OA
ENDBRANCH   8   9
ENDBRANCH   7   8
ENDBRANCH   6   7
ENDBRANCH   5   6
ENDBRANCH   4   5
ENDBRANCH   3   4
ENDBRANCH   2   3
ENDBRANCH   1   2
BRANCH   1  12
ATOM     12  C   UNL     1      23.594  65.417  16.446  1.00  0.00     0.000 C 
BRANCH  12  13
ATOM     13  C   UNL     1      22.625  65.005  15.326  1.00  0.00    -0.000 C 
BRANCH  13  14
ATOM     14  C   UNL     1      21.767  66.182  14.828  1.00  0.00    -0.000 C 
BRANCH  14  15
ATOM     15  C   UNL     1      20.257  65.888  14.886  1.00  0.00    -0.000 C 
BRANCH  15  16
ATOM     16  C   UNL     1      19.569  66.273  16.208  1.00  0.00    -0.000 C 
BRANCH  16  17
ATOM     17  C   UNL     1      19.278  65.058  17.107  1.00  0.00    -0.000 C 
BRANCH  17  18
ATOM     18  C   UNL     1      19.392  65.390  18.602  1.00  0.00    -0.000 C 
BRANCH  18  19
ATOM     19  C   UNL     1      18.105  66.006  19.169  1.00  0.00    -0.003 C 
ATOM     20  C   UNL     1      18.243  67.518  19.326  1.00  0.00     0.004 C 
ENDBRANCH  18  19
ENDBRANCH  17  18
ENDBRANCH  16  17
ENDBRANCH  15  16
ENDBRANCH  14  15
ENDBRANCH  13  14
ENDBRANCH  12  13
ENDBRANCH   1  12
TORSDOF 16
ENDMDL
MODEL 8
REMARK VINA RESULT:    -3.054      3.353      8.563
REMARK INTER + INTRA:          -8.165
REMARK INTER:                  -6.035
REMARK INTRA:                  -2.130
REMARK UNBOUND:                -2.255
REMARK SMILES CCCCCCCCCCCCCCCCCC(=O)[O-]
REMARK SMILES IDX 10 1 11 2 12 3 13 4 14 5 15 6 16 7 17 8 18 9 19 10 20 11
REMARK SMILES IDX 9 12 8 13 7 14 6 15 5 16 4 17 3 18 2 19 1 20
REMARK H PARENT
REMARK Flexibility Score: inf
ROOT
ATOM      1  C   UNL     1      26.216  72.004  13.171  1.00  0.00     0.000 C 
ENDROOT
BRANCH   1   2
ATOM      2  C   UNL     1      24.989  71.628  12.325  1.00  0.00     0.000 C 
BRANCH   2   3
ATOM      3  C   UNL     1      23.661  71.954  13.026  1.00  0.00     0.000 C 
BRANCH   3   4
ATOM      4  C   UNL     1      23.890  72.863  14.240  1.00  0.00     0.000 C 
BRANCH   4   5
ATOM      5  C   UNL     1      23.070  72.389  15.446  1.00  0.00     0.000 C 
BRANCH   5   6
ATOM      6  C   UNL     1      22.105  71.264  15.048  1.00  0.00     0.000 C 
BRANCH   6   7
ATOM      7  C   UNL     1      21.201  70.805  16.205  1.00  0.00     0.006 C 
BRANCH   7   8
ATOM      8  C   UNL     1      21.560  69.419  16.768  1.00  0.00     0.053 C 
BRANCH   8   9
ATOM      9  C   UNL     1      22.249  69.498  18.097  1.00  0.00     0.041 C 
ATOM     10  O   UNL     1      22.843  70.554  18.441  1.00  0.00    -0.550 OA
ATOM     11  O   UNL     1      22.205  68.420  18.971  1.00  0.00    -0.550 OA
ENDBRANCH   8   9
ENDBRANCH   7   8
ENDBRANCH   6   7
ENDBRANCH   5   6
ENDBRANCH   4   5
ENDBRANCH   3   4
ENDBRANCH   2   3
ENDBRANCH   1   2
BRANCH   1  12
ATOM     12  C   UNL     1      27.542  71.772  12.426  1.00  0.00     0.000 C 
BRANCH  12  13
ATOM     13  C   UNL     1      27.366  70.908  11.167  1.00  0.00    -0.000 C 
BRANCH  13  14
ATOM     14  C   UNL     1      28.399  71.240  10.076  1.00  0.00    -0.000 C 
BRANCH  14  15
ATOM     15  C   UNL     1      27.761  71.450   8.691  1.00  0.00    -0.000 C 
BRANCH  15  16
ATOM     16  C   UNL     1      26.222  71.458   8.678  1.00  0.00    -0.000 C 
BRANCH  16  17
ATOM     17  C   UNL     1      25.634  72.827   8.295  1.00  0.00    -0.000 C 
BRANCH  17  18
ATOM     18  C   UNL     1      26.522  73.998   8.743  1.00  0.00    -0.000 C 
BRANCH  18  19
ATOM     19  C   UNL     1      26.206  74.464  10.171  1.00  0.00    -0.003 C 
ATOM     20  C   UNL     1      24.712  74.715  10.351  1.00  0.00     0.004 C 
ENDBRANCH  18  19
ENDBRANCH  17  18
ENDBRANCH  16  17
ENDBRANCH  15  16
ENDBRANCH  14  15
ENDBRANCH  13  14
ENDBRANCH  12  13
ENDBRANCH   1  12
TORSDOF 16
ENDMDL
MODEL 9
REMARK VINA RESULT:    -3.019      2.831      6.591
REMARK INTER + INTRA:          -8.098
REMARK INTER:                  -5.643
REMARK INTRA:                  -2.455
REMARK UNBOUND:                -2.255
REMARK SMILES CCCCCCCCCCCCCCCCCC(=O)[O-]
REMARK SMILES IDX 10 1 11 2 12 3 13 4 14 5 15 6 16 7 17 8 18 9 19 10 20 11
REMARK SMILES IDX 9 12 8 13 7 14 6 15 5 16 4 17 3 18 2 19 1 20
REMARK H PARENT
REMARK Flexibility Score: inf
ROOT
ATOM      1  C   UNL     1      22.746  67.673  17.530  1.00  0.00     0.000 C 
ENDROOT
BRANCH   1   2
ATOM      2  C   UNL     1      22.455  66.214  17.918  1.00  0.00     0.000 C 
BRANCH   2   3
ATOM      3  C   UNL     1      21.509  66.097  19.123  1.00  0.00     0.000 C 
BRANCH   3   4
ATOM      4  C   UNL     1      20.310  65.199  18.793  1.00  0.00     0.000 C 
BRANCH   4   5
ATOM      5  C   UNL     1      19.436  65.827  17.701  1.00  0.00     0.000 C 
BRANCH   5   6
ATOM      6  C   UNL     1      18.947  67.220  18.120  1.00  0.00     0.000 C 
BRANCH   6   7
ATOM      7  C   UNL     1      18.980  68.243  16.970  1.00  0.00     0.006 C 
BRANCH   7   8
ATOM      8  C   UNL     1      19.383  67.645  15.612  1.00  0.00     0.053 C 
BRANCH   8   9
ATOM      9  C   UNL     1      19.413  68.669  14.518  1.00  0.00     0.041 C 
ATOM     10  O   UNL     1      18.443  69.457  14.361  1.00  0.00    -0.550 OA
ATOM     11  O   UNL     1      20.525  68.778  13.693  1.00  0.00    -0.550 OA
ENDBRANCH   8   9
ENDBRANCH   7   8
ENDBRANCH   6   7
ENDBRANCH   5   6
ENDBRANCH   4   5
ENDBRANCH   3   4
ENDBRANCH   2   3
ENDBRANCH   1   2
BRANCH   1  12
ATOM     12  C   UNL     1      22.334  68.670  18.627  1.00  0.00     0.000 C 
BRANCH  12  13
ATOM     13  C   UNL     1      22.380  70.129  18.144  1.00  0.00    -0.000 C 
BRANCH  13  14
ATOM     14  C   UNL     1      22.027  70.266  16.652  1.00  0.00    -0.000 C 
BRANCH  14  15
ATOM     15  C   UNL     1      21.027  71.404  16.376  1.00  0.00    -0.000 C 
BRANCH  15  16
ATOM     16  C   UNL     1      21.149  72.054  14.986  1.00  0.00    -0.000 C 
BRANCH  16  17
ATOM     17  C   UNL     1      22.038  73.310  14.989  1.00  0.00    -0.000 C 
BRANCH  17  18
ATOM     18  C   UNL     1      23.501  72.999  14.640  1.00  0.00    -0.000 C 
BRANCH  18  19
ATOM     19  C   UNL     1      23.632  71.923  13.553  1.00  0.00    -0.003 C 
ATOM     20  C   UNL     1      25.008  71.968  12.896  1.00  0.00     0.004 C 
ENDBRANCH  18  19
ENDBRANCH  17  18
ENDBRANCH  16  17
ENDBRANCH  15  16
ENDBRANCH  14  15
ENDBRANCH  13  14
ENDBRANCH  12  13
ENDBRANCH   1  12
TORSDOF 16
ENDMDL
