MODEL 1
REMARK VINA RESULT:    -6.593      0.000      0.000
REMARK INTER + INTRA:          -8.021
REMARK INTER:                  -7.749
REMARK INTRA:                  -0.272
REMARK UNBOUND:                -0.272
REMARK SMILES O=c1cc(-c2ccc(O)c(O)c2)oc2cc(O)cc(O)c12
REMARK SMILES IDX 4 1 3 2 2 3 1 4 21 5 19 6 18 7 16 8 15 9 14 10 13 11 5 12
REMARK SMILES IDX 6 13 7 14 8 15 12 16 10 17 9 18 11 20 20 22 17 24
REMARK H PARENT 9 19 11 21 20 23 17 25
REMARK Flexibility Score: inf
ROOT
ATOM      1  C   UNL     1      69.446  48.312   7.594  1.00  0.00     0.138 A 
ATOM      2  C   UNL     1      69.616  48.530   6.219  1.00  0.00     0.100 A 
ATOM      3  C   UNL     1      70.889  48.432   5.657  1.00  0.00     0.197 A 
ATOM      4  O   UNL     1      71.020  48.694   4.433  1.00  0.00    -0.289 OA
ATOM      5  C   UNL     1      71.993  48.082   6.471  1.00  0.00     0.107 A 
ATOM      6  C   UNL     1      73.329  47.913   6.000  1.00  0.00     0.134 A 
ATOM      7  C   UNL     1      74.361  47.680   6.918  1.00  0.00     0.093 A 
ATOM      8  C   UNL     1      74.094  47.551   8.284  1.00  0.00     0.123 A 
ATOM      9  C   UNL     1      72.786  47.662   8.747  1.00  0.00     0.094 A 
ATOM     10  C   UNL     1      71.740  47.927   7.860  1.00  0.00     0.146 A 
ATOM     11  O   UNL     1      70.508  48.040   8.346  1.00  0.00    -0.456 OA
ENDROOT
BRANCH   1  12
ATOM     12  C   UNL     1      68.114  48.403   8.244  1.00  0.00     0.021 A 
ATOM     13  C   UNL     1      67.900  49.203   9.383  1.00  0.00     0.016 A 
ATOM     14  C   UNL     1      66.633  49.278   9.967  1.00  0.00     0.051 A 
ATOM     15  C   UNL     1      65.558  48.565   9.422  1.00  0.00     0.157 A 
ATOM     16  C   UNL     1      67.027  47.701   7.695  1.00  0.00     0.062 A 
ATOM     17  C   UNL     1      65.757  47.774   8.279  1.00  0.00     0.158 A 
BRANCH  15  18
ATOM     18  O   UNL     1      64.296  48.642  10.009  1.00  0.00    -0.504 OA
ATOM     19  H   UNL     1      63.450  48.606   9.454  1.00  0.00     0.293 HD
ENDBRANCH  15  18
BRANCH  17  20
ATOM     20  O   UNL     1      64.707  47.054   7.709  1.00  0.00    -0.504 OA
ATOM     21  H   UNL     1      64.242  47.359   6.863  1.00  0.00     0.293 HD
ENDBRANCH  17  20
ENDBRANCH   1  12
BRANCH   6  22
ATOM     22  O   UNL     1      73.690  47.939   4.650  1.00  0.00    -0.507 OA
ATOM     23  H   UNL     1      74.564  48.297   4.294  1.00  0.00     0.293 HD
ENDBRANCH   6  22
BRANCH   8  24
ATOM     24  O   UNL     1      75.125  47.305   9.188  1.00  0.00    -0.508 OA
ATOM     25  H   UNL     1      75.815  46.582   9.021  1.00  0.00     0.293 HD
ENDBRANCH   8  24
TORSDOF 5
ENDMDL
MODEL 2
REMARK VINA RESULT:    -6.004      1.136      2.625
REMARK INTER + INTRA:          -7.329
REMARK INTER:                  -7.033
REMARK INTRA:                  -0.297
REMARK UNBOUND:                -0.272
REMARK SMILES O=c1cc(-c2ccc(O)c(O)c2)oc2cc(O)cc(O)c12
REMARK SMILES IDX 4 1 3 2 2 3 1 4 21 5 19 6 18 7 16 8 15 9 14 10 13 11 5 12
REMARK SMILES IDX 6 13 7 14 8 15 12 16 10 17 9 18 11 20 20 22 17 24
REMARK H PARENT 9 19 11 21 20 23 17 25
REMARK Flexibility Score: inf
ROOT
ATOM      1  C   UNL     1      69.620  48.149   8.577  1.00  0.00     0.138 A 
ATOM      2  C   UNL     1      70.608  48.294   9.562  1.00  0.00     0.100 A 
ATOM      3  C   UNL     1      71.954  48.287   9.195  1.00  0.00     0.197 A 
ATOM      4  O   UNL     1      72.818  48.357  10.107  1.00  0.00    -0.289 OA
ATOM      5  C   UNL     1      72.311  48.167   7.831  1.00  0.00     0.107 A 
ATOM      6  C   UNL     1      73.650  48.189   7.336  1.00  0.00     0.134 A 
ATOM      7  C   UNL     1      73.888  47.943   5.978  1.00  0.00     0.093 A 
ATOM      8  C   UNL     1      72.831  47.737   5.087  1.00  0.00     0.123 A 
ATOM      9  C   UNL     1      71.519  47.766   5.551  1.00  0.00     0.094 A 
ATOM     10  C   UNL     1      71.250  47.975   6.906  1.00  0.00     0.146 A 
ATOM     11  O   UNL     1      69.985  47.981   7.310  1.00  0.00    -0.456 OA
ENDROOT
BRANCH   1  12
ATOM     12  C   UNL     1      68.174  48.149   8.911  1.00  0.00     0.021 A 
ATOM     13  C   UNL     1      67.627  49.067   9.830  1.00  0.00     0.016 A 
ATOM     14  C   UNL     1      66.260  49.051  10.118  1.00  0.00     0.051 A 
ATOM     15  C   UNL     1      65.415  48.128   9.490  1.00  0.00     0.157 A 
ATOM     16  C   UNL     1      67.316  47.234   8.276  1.00  0.00     0.062 A 
ATOM     17  C   UNL     1      65.946  47.217   8.564  1.00  0.00     0.158 A 
BRANCH  15  18
ATOM     18  O   UNL     1      64.051  48.115   9.782  1.00  0.00    -0.504 OA
ATOM     19  H   UNL     1      63.701  47.764  10.664  1.00  0.00     0.293 HD
ENDBRANCH  15  18
BRANCH  17  20
ATOM     20  O   UNL     1      65.131  46.287   7.918  1.00  0.00    -0.504 OA
ATOM     21  H   UNL     1      65.261  45.289   8.028  1.00  0.00     0.293 HD
ENDBRANCH  17  20
ENDBRANCH   1  12
BRANCH   6  22
ATOM     22  O   UNL     1      74.770  48.469   8.124  1.00  0.00    -0.507 OA
ATOM     23  H   UNL     1      74.942  49.348   8.590  1.00  0.00     0.293 HD
ENDBRANCH   6  22
BRANCH   8  24
ATOM     24  O   UNL     1      73.077  47.508   3.735  1.00  0.00    -0.508 OA
ATOM     25  H   UNL     1      72.366  47.676   3.031  1.00  0.00     0.293 HD
ENDBRANCH   8  24
TORSDOF 5
ENDMDL
MODEL 3
REMARK VINA RESULT:    -5.858      2.191      7.162
REMARK INTER + INTRA:          -7.157
REMARK INTER:                  -6.890
REMARK INTRA:                  -0.267
REMARK UNBOUND:                -0.272
REMARK SMILES O=c1cc(-c2ccc(O)c(O)c2)oc2cc(O)cc(O)c12
REMARK SMILES IDX 4 1 3 2 2 3 1 4 21 5 19 6 18 7 16 8 15 9 14 10 13 11 5 12
REMARK SMILES IDX 6 13 7 14 8 15 12 16 10 17 9 18 11 20 20 22 17 24
REMARK H PARENT 9 19 11 21 20 23 17 25
REMARK Flexibility Score: inf
ROOT
ATOM      1  C   UNL     1      70.918  47.070   7.421  1.00  0.00     0.138 A 
ATOM      2  C   UNL     1      71.161  48.205   8.207  1.00  0.00     0.100 A 
ATOM      3  C   UNL     1      70.087  48.923   8.734  1.00  0.00     0.197 A 
ATOM      4  O   UNL     1      70.334  49.972   9.382  1.00  0.00    -0.289 OA
ATOM      5  C   UNL     1      68.763  48.482   8.498  1.00  0.00     0.107 A 
ATOM      6  C   UNL     1      67.592  49.110   9.018  1.00  0.00     0.134 A 
ATOM      7  C   UNL     1      66.329  48.653   8.622  1.00  0.00     0.093 A 
ATOM      8  C   UNL     1      66.195  47.552   7.772  1.00  0.00     0.123 A 
ATOM      9  C   UNL     1      67.331  46.899   7.301  1.00  0.00     0.094 A 
ATOM     10  C   UNL     1      68.606  47.352   7.651  1.00  0.00     0.146 A 
ATOM     11  O   UNL     1      69.664  46.710   7.169  1.00  0.00    -0.456 OA
ENDROOT
BRANCH   1  12
ATOM     12  C   UNL     1      72.023  46.270   6.836  1.00  0.00     0.021 A 
ATOM     13  C   UNL     1      72.741  45.329   7.601  1.00  0.00     0.016 A 
ATOM     14  C   UNL     1      73.770  44.583   7.022  1.00  0.00     0.051 A 
ATOM     15  C   UNL     1      74.095  44.754   5.671  1.00  0.00     0.157 A 
ATOM     16  C   UNL     1      72.348  46.426   5.477  1.00  0.00     0.062 A 
ATOM     17  C   UNL     1      73.379  45.680   4.896  1.00  0.00     0.158 A 
BRANCH  15  18
ATOM     18  O   UNL     1      75.124  44.008   5.098  1.00  0.00    -0.504 OA
ATOM     19  H   UNL     1      74.957  43.090   4.704  1.00  0.00     0.293 HD
ENDBRANCH  15  18
BRANCH  17  20
ATOM     20  O   UNL     1      73.676  45.872   3.546  1.00  0.00    -0.504 OA
ATOM     21  H   UNL     1      74.243  46.647   3.225  1.00  0.00     0.293 HD
ENDBRANCH  17  20
ENDBRANCH   1  12
BRANCH   6  22
ATOM     22  O   UNL     1      67.613  50.162   9.939  1.00  0.00    -0.507 OA
ATOM     23  H   UNL     1      67.172  51.059   9.799  1.00  0.00     0.293 HD
ENDBRANCH   6  22
BRANCH   8  24
ATOM     24  O   UNL     1      64.934  47.095   7.395  1.00  0.00    -0.508 OA
ATOM     25  H   UNL     1      64.087  47.519   7.754  1.00  0.00     0.293 HD
ENDBRANCH   8  24
TORSDOF 5
ENDMDL
MODEL 4
REMARK VINA RESULT:    -5.813      1.731      7.192
REMARK INTER + INTRA:          -7.104
REMARK INTER:                  -6.816
REMARK INTRA:                  -0.288
REMARK UNBOUND:                -0.272
REMARK SMILES O=c1cc(-c2ccc(O)c(O)c2)oc2cc(O)cc(O)c12
REMARK SMILES IDX 4 1 3 2 2 3 1 4 21 5 19 6 18 7 16 8 15 9 14 10 13 11 5 12
REMARK SMILES IDX 6 13 7 14 8 15 12 16 10 17 9 18 11 20 20 22 17 24
REMARK H PARENT 9 19 11 21 20 23 17 25
REMARK Flexibility Score: inf
ROOT
ATOM      1  C   UNL     1      69.145  47.832   8.893  1.00  0.00     0.138 A 
ATOM      2  C   UNL     1      68.334  48.804   9.496  1.00  0.00     0.100 A 
ATOM      3  C   UNL     1      66.958  48.590   9.597  1.00  0.00     0.197 A 
ATOM      4  O   UNL     1      66.249  49.506  10.086  1.00  0.00    -0.289 OA
ATOM      5  C   UNL     1      66.399  47.380   9.120  1.00  0.00     0.107 A 
ATOM      6  C   UNL     1      65.017  47.035   9.206  1.00  0.00     0.134 A 
ATOM      7  C   UNL     1      64.559  45.861   8.595  1.00  0.00     0.093 A 
ATOM      8  C   UNL     1      65.443  44.991   7.952  1.00  0.00     0.123 A 
ATOM      9  C   UNL     1      66.802  45.293   7.909  1.00  0.00     0.094 A 
ATOM     10  C   UNL     1      67.285  46.473   8.480  1.00  0.00     0.146 A 
ATOM     11  O   UNL     1      68.586  46.730   8.404  1.00  0.00    -0.456 OA
ENDROOT
BRANCH   1  12
ATOM     12  C   UNL     1      70.613  48.009   8.761  1.00  0.00     0.021 A 
ATOM     13  C   UNL     1      71.422  48.336   9.867  1.00  0.00     0.016 A 
ATOM     14  C   UNL     1      72.802  48.486   9.714  1.00  0.00     0.051 A 
ATOM     15  C   UNL     1      73.401  48.305   8.461  1.00  0.00     0.157 A 
ATOM     16  C   UNL     1      71.224  47.816   7.509  1.00  0.00     0.062 A 
ATOM     17  C   UNL     1      72.606  47.967   7.354  1.00  0.00     0.158 A 
BRANCH  15  18
ATOM     18  O   UNL     1      74.779  48.458   8.314  1.00  0.00    -0.504 OA
ATOM     19  H   UNL     1      75.358  48.804   9.069  1.00  0.00     0.293 HD
ENDBRANCH  15  18
BRANCH  17  20
ATOM     20  O   UNL     1      73.172  47.776   6.093  1.00  0.00    -0.504 OA
ATOM     21  H   UNL     1      72.888  48.321   5.288  1.00  0.00     0.293 HD
ENDBRANCH  17  20
ENDBRANCH   1  12
BRANCH   6  22
ATOM     22  O   UNL     1      64.064  47.791   9.896  1.00  0.00    -0.507 OA
ATOM     23  H   UNL     1      63.342  47.407  10.487  1.00  0.00     0.293 HD
ENDBRANCH   6  22
BRANCH   8  24
ATOM     24  O   UNL     1      64.981  43.818   7.360  1.00  0.00    -0.508 OA
ATOM     25  H   UNL     1      64.270  43.834   6.637  1.00  0.00     0.293 HD
ENDBRANCH   8  24
TORSDOF 5
ENDMDL
MODEL 5
REMARK VINA RESULT:    -5.773      3.464      5.766
REMARK INTER + INTRA:          -7.057
REMARK INTER:                  -6.741
REMARK INTRA:                  -0.316
REMARK UNBOUND:                -0.272
REMARK SMILES O=c1cc(-c2ccc(O)c(O)c2)oc2cc(O)cc(O)c12
REMARK SMILES IDX 4 1 3 2 2 3 1 4 21 5 19 6 18 7 16 8 15 9 14 10 13 11 5 12
REMARK SMILES IDX 6 13 7 14 8 15 12 16 10 17 9 18 11 20 20 22 17 24
REMARK H PARENT 9 19 11 21 20 23 17 25
REMARK Flexibility Score: inf
ROOT
ATOM      1  C   UNL     1      65.870  45.420   8.436  1.00  0.00     0.138 A 
ATOM      2  C   UNL     1      67.073  44.979   7.866  1.00  0.00     0.100 A 
ATOM      3  C   UNL     1      68.188  45.818   7.873  1.00  0.00     0.197 A 
ATOM      4  O   UNL     1      69.234  45.420   7.299  1.00  0.00    -0.289 OA
ATOM      5  C   UNL     1      68.105  47.092   8.484  1.00  0.00     0.107 A 
ATOM      6  C   UNL     1      69.189  48.015   8.588  1.00  0.00     0.134 A 
ATOM      7  C   UNL     1      68.959  49.294   9.110  1.00  0.00     0.093 A 
ATOM      8  C   UNL     1      67.698  49.661   9.588  1.00  0.00     0.123 A 
ATOM      9  C   UNL     1      66.647  48.749   9.540  1.00  0.00     0.094 A 
ATOM     10  C   UNL     1      66.837  47.477   8.994  1.00  0.00     0.146 A 
ATOM     11  O   UNL     1      65.804  46.642   8.954  1.00  0.00    -0.456 OA
ENDROOT
BRANCH   1  12
ATOM     12  C   UNL     1      64.654  44.568   8.456  1.00  0.00     0.021 A 
ATOM     13  C   UNL     1      64.581  43.366   7.725  1.00  0.00     0.016 A 
ATOM     14  C   UNL     1      63.427  42.579   7.771  1.00  0.00     0.051 A 
ATOM     15  C   UNL     1      62.332  42.972   8.550  1.00  0.00     0.157 A 
ATOM     16  C   UNL     1      63.555  44.948   9.247  1.00  0.00     0.062 A 
ATOM     17  C   UNL     1      62.398  44.161   9.292  1.00  0.00     0.158 A 
BRANCH  15  18
ATOM     18  O   UNL     1      61.182  42.184   8.592  1.00  0.00    -0.504 OA
ATOM     19  H   UNL     1      60.470  42.247   7.875  1.00  0.00     0.293 HD
ENDBRANCH  15  18
BRANCH  17  20
ATOM     20  O   UNL     1      61.326  44.579  10.082  1.00  0.00    -0.504 OA
ATOM     21  H   UNL     1      61.462  45.054  10.966  1.00  0.00     0.293 HD
ENDBRANCH  17  20
ENDBRANCH   1  12
BRANCH   6  22
ATOM     22  O   UNL     1      70.505  47.720   8.218  1.00  0.00    -0.507 OA
ATOM     23  H   UNL     1      70.828  46.815   7.912  1.00  0.00     0.293 HD
ENDBRANCH   6  22
BRANCH   8  24
ATOM     24  O   UNL     1      67.482  50.930  10.120  1.00  0.00    -0.508 OA
ATOM     25  H   UNL     1      67.878  51.760   9.691  1.00  0.00     0.293 HD
ENDBRANCH   8  24
TORSDOF 5
ENDMDL
MODEL 6
REMARK VINA RESULT:    -5.665      3.380      5.717
REMARK INTER + INTRA:          -6.931
REMARK INTER:                  -6.636
REMARK INTRA:                  -0.295
REMARK UNBOUND:                -0.272
REMARK SMILES O=c1cc(-c2ccc(O)c(O)c2)oc2cc(O)cc(O)c12
REMARK SMILES IDX 4 1 3 2 2 3 1 4 21 5 19 6 18 7 16 8 15 9 14 10 13 11 5 12
REMARK SMILES IDX 6 13 7 14 8 15 12 16 10 17 9 18 11 20 20 22 17 24
REMARK H PARENT 9 19 11 21 20 23 17 25
REMARK Flexibility Score: inf
ROOT
ATOM      1  C   UNL     1      65.382  45.958   8.695  1.00  0.00     0.138 A 
ATOM      2  C   UNL     1      65.224  47.153   9.410  1.00  0.00     0.100 A 
ATOM      3  C   UNL     1      66.258  48.091   9.424  1.00  0.00     0.197 A 
ATOM      4  O   UNL     1      66.112  49.125  10.125  1.00  0.00    -0.289 OA
ATOM      5  C   UNL     1      67.443  47.842   8.691  1.00  0.00     0.107 A 
ATOM      6  C   UNL     1      68.545  48.743   8.598  1.00  0.00     0.134 A 
ATOM      7  C   UNL     1      69.714  48.339   7.939  1.00  0.00     0.093 A 
ATOM      8  C   UNL     1      69.795  47.090   7.317  1.00  0.00     0.123 A 
ATOM      9  C   UNL     1      68.705  46.225   7.356  1.00  0.00     0.094 A 
ATOM     10  C   UNL     1      67.538  46.585   8.035  1.00  0.00     0.146 A 
ATOM     11  O   UNL     1      66.526  45.725   8.060  1.00  0.00    -0.456 OA
ENDROOT
BRANCH   1  12
ATOM     12  C   UNL     1      64.314  44.927   8.646  1.00  0.00     0.021 A 
ATOM     13  C   UNL     1      64.459  43.746   7.893  1.00  0.00     0.016 A 
ATOM     14  C   UNL     1      63.442  42.788   7.874  1.00  0.00     0.051 A 
ATOM     15  C   UNL     1      62.269  42.987   8.611  1.00  0.00     0.157 A 
ATOM     16  C   UNL     1      63.138  45.113   9.394  1.00  0.00     0.062 A 
ATOM     17  C   UNL     1      62.118  44.155   9.375  1.00  0.00     0.158 A 
BRANCH  15  18
ATOM     18  O   UNL     1      61.255  42.030   8.588  1.00  0.00    -0.504 OA
ATOM     19  H   UNL     1      60.789  41.730   9.436  1.00  0.00     0.293 HD
ENDBRANCH  15  18
BRANCH  17  20
ATOM     20  O   UNL     1      60.962  44.382  10.124  1.00  0.00    -0.504 OA
ATOM     21  H   UNL     1      60.993  44.781  11.054  1.00  0.00     0.293 HD
ENDBRANCH  17  20
ENDBRANCH   1  12
BRANCH   6  22
ATOM     22  O   UNL     1      68.537  50.043   9.111  1.00  0.00    -0.507 OA
ATOM     23  H   UNL     1      69.183  50.395   9.802  1.00  0.00     0.293 HD
ENDBRANCH   6  22
BRANCH   8  24
ATOM     24  O   UNL     1      70.956  46.703   6.651  1.00  0.00    -0.508 OA
ATOM     25  H   UNL     1      71.859  46.710   7.111  1.00  0.00     0.293 HD
ENDBRANCH   8  24
TORSDOF 5
ENDMDL
MODEL 7
REMARK VINA RESULT:    -5.536      2.219      2.796
REMARK INTER + INTRA:          -6.779
REMARK INTER:                  -6.513
REMARK INTRA:                  -0.266
REMARK UNBOUND:                -0.272
REMARK SMILES O=c1cc(-c2ccc(O)c(O)c2)oc2cc(O)cc(O)c12
REMARK SMILES IDX 4 1 3 2 2 3 1 4 21 5 19 6 18 7 16 8 15 9 14 10 13 11 5 12
REMARK SMILES IDX 6 13 7 14 8 15 12 16 10 17 9 18 11 20 20 22 17 24
REMARK H PARENT 9 19 11 21 20 23 17 25
REMARK Flexibility Score: inf
ROOT
ATOM      1  C   UNL     1      69.716  46.516   7.477  1.00  0.00     0.138 A 
ATOM      2  C   UNL     1      69.928  45.131   7.512  1.00  0.00     0.100 A 
ATOM      3  C   UNL     1      71.090  44.596   6.954  1.00  0.00     0.197 A 
ATOM      4  O   UNL     1      71.223  43.345   6.945  1.00  0.00    -0.289 OA
ATOM      5  C   UNL     1      72.058  45.457   6.385  1.00  0.00     0.107 A 
ATOM      6  C   UNL     1      73.298  45.028   5.824  1.00  0.00     0.134 A 
ATOM      7  C   UNL     1      74.125  45.960   5.185  1.00  0.00     0.093 A 
ATOM      8  C   UNL     1      73.785  47.315   5.140  1.00  0.00     0.123 A 
ATOM      9  C   UNL     1      72.603  47.751   5.732  1.00  0.00     0.094 A 
ATOM     10  C   UNL     1      71.740  46.841   6.348  1.00  0.00     0.146 A 
ATOM     11  O   UNL     1      70.615  47.297   6.887  1.00  0.00    -0.456 OA
ENDROOT
BRANCH   1  12
ATOM     12  C   UNL     1      68.498  47.138   8.056  1.00  0.00     0.021 A 
ATOM     13  C   UNL     1      68.572  48.055   9.123  1.00  0.00     0.016 A 
ATOM     14  C   UNL     1      67.410  48.632   9.641  1.00  0.00     0.051 A 
ATOM     15  C   UNL     1      66.158  48.312   9.101  1.00  0.00     0.157 A 
ATOM     16  C   UNL     1      67.238  46.832   7.511  1.00  0.00     0.062 A 
ATOM     17  C   UNL     1      66.074  47.409   8.030  1.00  0.00     0.158 A 
BRANCH  15  18
ATOM     18  O   UNL     1      65.001  48.890   9.623  1.00  0.00    -0.504 OA
ATOM     19  H   UNL     1      64.242  48.325   9.982  1.00  0.00     0.293 HD
ENDBRANCH  15  18
BRANCH  17  20
ATOM     20  O   UNL     1      64.842  47.072   7.467  1.00  0.00    -0.504 OA
ATOM     21  H   UNL     1      64.518  46.114   7.417  1.00  0.00     0.293 HD
ENDBRANCH  17  20
ENDBRANCH   1  12
BRANCH   6  22
ATOM     22  O   UNL     1      73.772  43.715   5.888  1.00  0.00    -0.507 OA
ATOM     23  H   UNL     1      74.703  43.451   6.175  1.00  0.00     0.293 HD
ENDBRANCH   6  22
BRANCH   8  24
ATOM     24  O   UNL     1      74.622  48.237   4.515  1.00  0.00    -0.508 OA
ATOM     25  H   UNL     1      74.423  49.231   4.534  1.00  0.00     0.293 HD
ENDBRANCH   8  24
TORSDOF 5
ENDMDL
MODEL 8
REMARK VINA RESULT:    -5.476      4.187      7.098
REMARK INTER + INTRA:          -6.708
REMARK INTER:                  -6.401
REMARK INTRA:                  -0.308
REMARK UNBOUND:                -0.272
REMARK SMILES O=c1cc(-c2ccc(O)c(O)c2)oc2cc(O)cc(O)c12
REMARK SMILES IDX 4 1 3 2 2 3 1 4 21 5 19 6 18 7 16 8 15 9 14 10 13 11 5 12
REMARK SMILES IDX 6 13 7 14 8 15 12 16 10 17 9 18 11 20 20 22 17 24
REMARK H PARENT 9 19 11 21 20 23 17 25
REMARK Flexibility Score: inf
ROOT
ATOM      1  C   UNL     1      73.067  44.977   6.422  1.00  0.00     0.138 A 
ATOM      2  C   UNL     1      74.070  45.359   7.325  1.00  0.00     0.100 A 
ATOM      3  C   UNL     1      74.041  46.634   7.890  1.00  0.00     0.197 A 
ATOM      4  O   UNL     1      74.987  46.970   8.648  1.00  0.00    -0.289 OA
ATOM      5  C   UNL     1      72.983  47.520   7.573  1.00  0.00     0.107 A 
ATOM      6  C   UNL     1      72.828  48.829   8.120  1.00  0.00     0.134 A 
ATOM      7  C   UNL     1      71.806  49.660   7.643  1.00  0.00     0.093 A 
ATOM      8  C   UNL     1      70.898  49.206   6.683  1.00  0.00     0.123 A 
ATOM      9  C   UNL     1      71.009  47.912   6.182  1.00  0.00     0.094 A 
ATOM     10  C   UNL     1      72.038  47.071   6.612  1.00  0.00     0.146 A 
ATOM     11  O   UNL     1      72.117  45.848   6.098  1.00  0.00    -0.456 OA
ENDROOT
BRANCH   1  12
ATOM     12  C   UNL     1      73.050  43.633   5.792  1.00  0.00     0.021 A 
ATOM     13  C   UNL     1      74.230  42.885   5.611  1.00  0.00     0.016 A 
ATOM     14  C   UNL     1      74.182  41.618   5.025  1.00  0.00     0.051 A 
ATOM     15  C   UNL     1      72.960  41.072   4.617  1.00  0.00     0.157 A 
ATOM     16  C   UNL     1      71.825  43.071   5.391  1.00  0.00     0.062 A 
ATOM     17  C   UNL     1      71.776  41.802   4.803  1.00  0.00     0.158 A 
BRANCH  15  18
ATOM     18  O   UNL     1      72.917  39.807   4.031  1.00  0.00    -0.504 OA
ATOM     19  H   UNL     1      73.558  39.543   3.293  1.00  0.00     0.293 HD
ENDBRANCH  15  18
BRANCH  17  20
ATOM     20  O   UNL     1      70.540  41.285   4.411  1.00  0.00    -0.504 OA
ATOM     21  H   UNL     1      69.979  40.708   5.025  1.00  0.00     0.293 HD
ENDBRANCH  17  20
ENDBRANCH   1  12
BRANCH   6  22
ATOM     22  O   UNL     1      73.628  49.348   9.142  1.00  0.00    -0.507 OA
ATOM     23  H   UNL     1      73.672  50.323   9.400  1.00  0.00     0.293 HD
ENDBRANCH   6  22
BRANCH   8  24
ATOM     24  O   UNL     1      69.875  50.034   6.225  1.00  0.00    -0.508 OA
ATOM     25  H   UNL     1      68.944  49.677   6.045  1.00  0.00     0.293 HD
ENDBRANCH   8  24
TORSDOF 5
ENDMDL
MODEL 9
REMARK VINA RESULT:    -5.459      2.044      3.295
REMARK INTER + INTRA:          -6.688
REMARK INTER:                  -6.429
REMARK INTRA:                  -0.259
REMARK UNBOUND:                -0.272
REMARK SMILES O=c1cc(-c2ccc(O)c(O)c2)oc2cc(O)cc(O)c12
REMARK SMILES IDX 4 1 3 2 2 3 1 4 21 5 19 6 18 7 16 8 15 9 14 10 13 11 5 12
REMARK SMILES IDX 6 13 7 14 8 15 12 16 10 17 9 18 11 20 20 22 17 24
REMARK H PARENT 9 19 11 21 20 23 17 25
REMARK Flexibility Score: inf
ROOT
ATOM      1  C   UNL     1      69.368  46.652   8.200  1.00  0.00     0.138 A 
ATOM      2  C   UNL     1      69.788  47.501   9.234  1.00  0.00     0.100 A 
ATOM      3  C   UNL     1      71.035  48.122   9.153  1.00  0.00     0.197 A 
ATOM      4  O   UNL     1      71.410  48.829  10.124  1.00  0.00    -0.289 OA
ATOM      5  C   UNL     1      71.851  47.916   8.015  1.00  0.00     0.107 A 
ATOM      6  C   UNL     1      73.122  48.530   7.805  1.00  0.00     0.134 A 
ATOM      7  C   UNL     1      73.892  48.160   6.695  1.00  0.00     0.093 A 
ATOM      8  C   UNL     1      73.410  47.244   5.756  1.00  0.00     0.123 A 
ATOM      9  C   UNL     1      72.147  46.681   5.924  1.00  0.00     0.094 A 
ATOM     10  C   UNL     1      71.370  47.003   7.039  1.00  0.00     0.146 A 
ATOM     11  O   UNL     1      70.177  46.432   7.169  1.00  0.00    -0.456 OA
ENDROOT
BRANCH   1  12
ATOM     12  C   UNL     1      68.052  45.966   8.235  1.00  0.00     0.021 A 
ATOM     13  C   UNL     1      67.934  44.607   8.586  1.00  0.00     0.016 A 
ATOM     14  C   UNL     1      66.681  43.990   8.621  1.00  0.00     0.051 A 
ATOM     15  C   UNL     1      65.525  44.718   8.315  1.00  0.00     0.157 A 
ATOM     16  C   UNL     1      66.884  46.693   7.942  1.00  0.00     0.062 A 
ATOM     17  C   UNL     1      65.628  46.076   7.976  1.00  0.00     0.158 A 
BRANCH  15  18
ATOM     18  O   UNL     1      64.276  44.098   8.350  1.00  0.00    -0.504 OA
ATOM     19  H   UNL     1      63.693  44.126   9.177  1.00  0.00     0.293 HD
ENDBRANCH  15  18
BRANCH  17  20
ATOM     20  O   UNL     1      64.495  46.831   7.669  1.00  0.00    -0.504 OA
ATOM     21  H   UNL     1      64.310  47.726   8.106  1.00  0.00     0.293 HD
ENDBRANCH  17  20
ENDBRANCH   1  12
BRANCH   6  22
ATOM     22  O   UNL     1      73.660  49.517   8.635  1.00  0.00    -0.507 OA
ATOM     23  H   UNL     1      74.514  49.423   9.164  1.00  0.00     0.293 HD
ENDBRANCH   6  22
BRANCH   8  24
ATOM     24  O   UNL     1      74.176  46.893   4.647  1.00  0.00    -0.508 OA
ATOM     25  H   UNL     1      74.480  47.586   3.972  1.00  0.00     0.293 HD
ENDBRANCH   8  24
TORSDOF 5
ENDMDL
