MODEL 1
REMARK VINA RESULT:    -3.418      0.000      0.000
REMARK INTER + INTRA:          -4.598
REMARK INTER:                  -4.217
REMARK INTRA:                  -0.381
REMARK UNBOUND:                -0.381
REMARK SMILES Oc1cc(O)c2cc(O)c(-c3cc(O)c(O)c(O)c3)[o+]c2c1
REMARK SMILES IDX 10 1 20 2 21 3 22 4 2 5 3 6 4 7 6 8 7 9 8 10 11 11 12 12
REMARK SMILES IDX 13 13 19 14 15 15 17 16 14 17 16 19 18 21 9 23 1 25 5 27
REMARK H PARENT 14 18 16 20 18 22 9 24 1 26 5 28
REMARK Flexibility Score: inf
ROOT
ATOM      1  C   UNL     1      10.956  21.701  27.918  1.00  0.00     0.402 A 
ATOM      2  O   UNL     1      11.143  21.406  26.634  1.00  0.00    -0.202 OA
ATOM      3  C   UNL     1      10.896  20.208  26.116  1.00  0.00     0.368 A 
ATOM      4  C   UNL     1      11.128  19.995  24.754  1.00  0.00     0.162 A 
ATOM      5  C   UNL     1      10.880  18.746  24.184  1.00  0.00     0.128 A 
ATOM      6  C   UNL     1      10.397  17.700  24.979  1.00  0.00     0.093 A 
ATOM      7  C   UNL     1      10.157  17.888  26.346  1.00  0.00     0.136 A 
ATOM      8  C   UNL     1      10.405  19.157  26.929  1.00  0.00     0.125 A 
ATOM      9  C   UNL     1      10.181  19.441  28.286  1.00  0.00     0.078 A 
ATOM     10  C   UNL     1      10.446  20.719  28.789  1.00  0.00     0.223 A 
ENDROOT
BRANCH   1  11
ATOM     11  C   UNL     1      11.278  23.071  28.377  1.00  0.00     0.091 A 
ATOM     12  C   UNL     1      12.556  23.345  28.885  1.00  0.00     0.068 A 
ATOM     13  C   UNL     1      12.883  24.626  29.345  1.00  0.00     0.162 A 
ATOM     14  C   UNL     1      10.312  24.091  28.369  1.00  0.00     0.068 A 
ATOM     15  C   UNL     1      11.920  25.649  29.315  1.00  0.00     0.200 A 
ATOM     16  C   UNL     1      10.630  25.376  28.829  1.00  0.00     0.162 A 
BRANCH  13  17
ATOM     17  O   UNL     1      14.169  24.861  29.829  1.00  0.00    -0.504 OA
ATOM     18  H   UNL     1      14.511  24.434  30.681  1.00  0.00     0.293 HD
ENDBRANCH  13  17
BRANCH  15  19
ATOM     19  O   UNL     1      12.255  26.924  29.772  1.00  0.00    -0.502 OA
ATOM     20  H   UNL     1      12.267  27.731  29.160  1.00  0.00     0.293 HD
ENDBRANCH  15  19
BRANCH  16  21
ATOM     21  O   UNL     1       9.666  26.383  28.809  1.00  0.00    -0.504 OA
ATOM     22  H   UNL     1       9.921  27.363  28.749  1.00  0.00     0.293 HD
ENDBRANCH  16  21
ENDBRANCH   1  11
BRANCH  10  23
ATOM     23  O   UNL     1      10.176  21.015  30.125  1.00  0.00    -0.500 OA
ATOM     24  H   UNL     1      10.513  20.430  30.879  1.00  0.00     0.294 HD
ENDBRANCH  10  23
BRANCH   5  25
ATOM     25  O   UNL     1      11.117  18.553  22.825  1.00  0.00    -0.507 OA
ATOM     26  H   UNL     1      11.250  17.626  22.437  1.00  0.00     0.293 HD
ENDBRANCH   5  25
BRANCH   7  27
ATOM     27  O   UNL     1       9.679  16.794  27.072  1.00  0.00    -0.507 OA
ATOM     28  H   UNL     1       9.873  15.830  26.845  1.00  0.00     0.293 HD
ENDBRANCH   7  27
TORSDOF 7
ENDMDL
MODEL 2
REMARK VINA RESULT:    -3.361      1.403      3.340
REMARK INTER + INTRA:          -4.528
REMARK INTER:                  -4.240
REMARK INTRA:                  -0.288
REMARK UNBOUND:                -0.381
REMARK SMILES Oc1cc(O)c2cc(O)c(-c3cc(O)c(O)c(O)c3)[o+]c2c1
REMARK SMILES IDX 10 1 20 2 21 3 22 4 2 5 3 6 4 7 6 8 7 9 8 10 11 11 12 12
REMARK SMILES IDX 13 13 19 14 15 15 17 16 14 17 16 19 18 21 9 23 1 25 5 27
REMARK H PARENT 14 18 16 20 18 22 9 24 1 26 5 28
REMARK Flexibility Score: inf
ROOT
ATOM      1  C   UNL     1      11.577  22.724  26.378  1.00  0.00     0.402 A 
ATOM      2  O   UNL     1      11.136  21.541  26.797  1.00  0.00    -0.202 OA
ATOM      3  C   UNL     1      11.079  20.465  26.019  1.00  0.00     0.368 A 
ATOM      4  C   UNL     1      10.596  19.266  26.550  1.00  0.00     0.162 A 
ATOM      5  C   UNL     1      10.522  18.122  25.756  1.00  0.00     0.128 A 
ATOM      6  C   UNL     1      10.933  18.174  24.419  1.00  0.00     0.093 A 
ATOM      7  C   UNL     1      11.421  19.364  23.862  1.00  0.00     0.136 A 
ATOM      8  C   UNL     1      11.500  20.529  24.668  1.00  0.00     0.125 A 
ATOM      9  C   UNL     1      11.987  21.760  24.200  1.00  0.00     0.078 A 
ATOM     10  C   UNL     1      12.038  22.865  25.056  1.00  0.00     0.223 A 
ENDROOT
BRANCH   1  11
ATOM     11  C   UNL     1      11.582  23.851  27.339  1.00  0.00     0.091 A 
ATOM     12  C   UNL     1      10.370  24.465  27.687  1.00  0.00     0.068 A 
ATOM     13  C   UNL     1      10.346  25.544  28.578  1.00  0.00     0.162 A 
ATOM     14  C   UNL     1      12.782  24.356  27.868  1.00  0.00     0.068 A 
ATOM     15  C   UNL     1      11.547  26.033  29.120  1.00  0.00     0.200 A 
ATOM     16  C   UNL     1      12.768  25.438  28.758  1.00  0.00     0.162 A 
BRANCH  13  17
ATOM     17  O   UNL     1       9.120  26.118  28.910  1.00  0.00    -0.504 OA
ATOM     18  H   UNL     1       8.462  26.430  28.205  1.00  0.00     0.293 HD
ENDBRANCH  13  17
BRANCH  15  19
ATOM     19  O   UNL     1      11.514  27.108  30.010  1.00  0.00    -0.502 OA
ATOM     20  H   UNL     1      10.647  27.546  30.293  1.00  0.00     0.293 HD
ENDBRANCH  15  19
BRANCH  16  21
ATOM     21  O   UNL     1      13.963  25.927  29.282  1.00  0.00    -0.504 OA
ATOM     22  H   UNL     1      14.843  25.819  28.790  1.00  0.00     0.293 HD
ENDBRANCH  16  21
ENDBRANCH   1  11
BRANCH  10  23
ATOM     23  O   UNL     1      12.569  24.074  24.606  1.00  0.00    -0.500 OA
ATOM     24  H   UNL     1      11.986  24.789  24.190  1.00  0.00     0.294 HD
ENDBRANCH  10  23
BRANCH   5  25
ATOM     25  O   UNL     1      10.038  16.936  26.303  1.00  0.00    -0.507 OA
ATOM     26  H   UNL     1       9.098  16.870  26.677  1.00  0.00     0.293 HD
ENDBRANCH   5  25
BRANCH   7  27
ATOM     27  O   UNL     1      11.808  19.335  22.520  1.00  0.00    -0.507 OA
ATOM     28  H   UNL     1      11.744  18.523  21.925  1.00  0.00     0.293 HD
ENDBRANCH   7  27
TORSDOF 7
ENDMDL
MODEL 3
REMARK VINA RESULT:    -3.360      1.684      2.846
REMARK INTER + INTRA:          -4.526
REMARK INTER:                  -4.205
REMARK INTRA:                  -0.321
REMARK UNBOUND:                -0.381
REMARK SMILES Oc1cc(O)c2cc(O)c(-c3cc(O)c(O)c(O)c3)[o+]c2c1
REMARK SMILES IDX 10 1 20 2 21 3 22 4 2 5 3 6 4 7 6 8 7 9 8 10 11 11 12 12
REMARK SMILES IDX 13 13 19 14 15 15 17 16 14 17 16 19 18 21 9 23 1 25 5 27
REMARK H PARENT 14 18 16 20 18 22 9 24 1 26 5 28
REMARK Flexibility Score: inf
ROOT
ATOM      1  C   UNL     1      11.523  22.536  26.569  1.00  0.00     0.402 A 
ATOM      2  O   UNL     1      11.858  22.709  25.294  1.00  0.00    -0.202 OA
ATOM      3  C   UNL     1      11.898  21.719  24.408  1.00  0.00     0.368 A 
ATOM      4  C   UNL     1      12.267  22.001  23.089  1.00  0.00     0.162 A 
ATOM      5  C   UNL     1      12.320  20.982  22.139  1.00  0.00     0.128 A 
ATOM      6  C   UNL     1      12.004  19.669  22.507  1.00  0.00     0.093 A 
ATOM      7  C   UNL     1      11.632  19.360  23.822  1.00  0.00     0.136 A 
ATOM      8  C   UNL     1      11.575  20.395  24.791  1.00  0.00     0.125 A 
ATOM      9  C   UNL     1      11.200  20.181  26.127  1.00  0.00     0.078 A 
ATOM     10  C   UNL     1      11.162  21.253  27.025  1.00  0.00     0.223 A 
ENDROOT
BRANCH   1  11
ATOM     11  C   UNL     1      11.525  23.717  27.462  1.00  0.00     0.091 A 
ATOM     12  C   UNL     1      10.308  24.320  27.810  1.00  0.00     0.068 A 
ATOM     13  C   UNL     1      10.281  25.450  28.636  1.00  0.00     0.162 A 
ATOM     14  C   UNL     1      12.726  24.283  27.924  1.00  0.00     0.068 A 
ATOM     15  C   UNL     1      11.484  26.000  29.112  1.00  0.00     0.200 A 
ATOM     16  C   UNL     1      12.708  25.415  28.749  1.00  0.00     0.162 A 
BRANCH  13  17
ATOM     17  O   UNL     1       9.049  26.012  28.971  1.00  0.00    -0.504 OA
ATOM     18  H   UNL     1       8.418  25.573  29.630  1.00  0.00     0.293 HD
ENDBRANCH  13  17
BRANCH  15  19
ATOM     19  O   UNL     1      11.447  27.125  29.938  1.00  0.00    -0.502 OA
ATOM     20  H   UNL     1      11.452  28.066  29.566  1.00  0.00     0.293 HD
ENDBRANCH  15  19
BRANCH  16  21
ATOM     21  O   UNL     1      13.905  25.964  29.207  1.00  0.00    -0.504 OA
ATOM     22  H   UNL     1      14.402  26.672  28.678  1.00  0.00     0.293 HD
ENDBRANCH  16  21
ENDBRANCH   1  11
BRANCH  10  23
ATOM     23  O   UNL     1      10.741  21.050  28.339  1.00  0.00    -0.500 OA
ATOM     24  H   UNL     1      10.129  20.284  28.590  1.00  0.00     0.294 HD
ENDBRANCH  10  23
BRANCH   5  25
ATOM     25  O   UNL     1      12.689  21.283  20.830  1.00  0.00    -0.507 OA
ATOM     26  H   UNL     1      12.697  22.237  20.488  1.00  0.00     0.293 HD
ENDBRANCH   5  25
BRANCH   7  27
ATOM     27  O   UNL     1      11.336  18.025  24.111  1.00  0.00    -0.507 OA
ATOM     28  H   UNL     1      10.959  17.368  23.445  1.00  0.00     0.293 HD
ENDBRANCH   7  27
TORSDOF 7
ENDMDL
MODEL 4
REMARK VINA RESULT:    -3.334     20.642     23.910
REMARK INTER + INTRA:          -4.494
REMARK INTER:                  -4.118
REMARK INTRA:                  -0.376
REMARK UNBOUND:                -0.381
REMARK SMILES Oc1cc(O)c2cc(O)c(-c3cc(O)c(O)c(O)c3)[o+]c2c1
REMARK SMILES IDX 10 1 20 2 21 3 22 4 2 5 3 6 4 7 6 8 7 9 8 10 11 11 12 12
REMARK SMILES IDX 13 13 19 14 15 15 17 16 14 17 16 19 18 21 9 23 1 25 5 27
REMARK H PARENT 14 18 16 20 18 22 9 24 1 26 5 28
REMARK Flexibility Score: inf
ROOT
ATOM      1  C   UNL     1      22.762  10.560  11.231  1.00  0.00     0.402 A 
ATOM      2  O   UNL     1      23.765   9.704  11.406  1.00  0.00    -0.202 OA
ATOM      3  C   UNL     1      25.033  10.001  11.141  1.00  0.00     0.368 A 
ATOM      4  C   UNL     1      26.017   9.032  11.355  1.00  0.00     0.162 A 
ATOM      5  C   UNL     1      27.356   9.315  11.083  1.00  0.00     0.128 A 
ATOM      6  C   UNL     1      27.716  10.575  10.593  1.00  0.00     0.093 A 
ATOM      7  C   UNL     1      26.749  11.564  10.370  1.00  0.00     0.136 A 
ATOM      8  C   UNL     1      25.386  11.280  10.648  1.00  0.00     0.125 A 
ATOM      9  C   UNL     1      24.352  12.213  10.468  1.00  0.00     0.078 A 
ATOM     10  C   UNL     1      23.031  11.862  10.767  1.00  0.00     0.223 A 
ENDROOT
BRANCH   1  11
ATOM     11  C   UNL     1      21.389  10.107  11.553  1.00  0.00     0.091 A 
ATOM     12  C   UNL     1      20.969  10.077  12.890  1.00  0.00     0.068 A 
ATOM     13  C   UNL     1      19.685   9.635  13.227  1.00  0.00     0.162 A 
ATOM     14  C   UNL     1      20.515   9.651  10.551  1.00  0.00     0.068 A 
ATOM     15  C   UNL     1      18.807   9.200  12.218  1.00  0.00     0.200 A 
ATOM     16  C   UNL     1      19.228   9.205  10.878  1.00  0.00     0.162 A 
BRANCH  13  17
ATOM     17  O   UNL     1      19.300   9.634  14.567  1.00  0.00    -0.504 OA
ATOM     18  H   UNL     1      19.733   9.026  15.252  1.00  0.00     0.293 HD
ENDBRANCH  13  17
BRANCH  15  19
ATOM     19  O   UNL     1      17.526   8.763  12.562  1.00  0.00    -0.502 OA
ATOM     20  H   UNL     1      16.851   9.371  13.008  1.00  0.00     0.293 HD
ENDBRANCH  15  19
BRANCH  16  21
ATOM     21  O   UNL     1      18.367   8.761   9.876  1.00  0.00    -0.504 OA
ATOM     22  H   UNL     1      18.681   8.135   9.143  1.00  0.00     0.293 HD
ENDBRANCH  16  21
ENDBRANCH   1  11
BRANCH  10  23
ATOM     23  O   UNL     1      22.011  12.803  10.636  1.00  0.00    -0.500 OA
ATOM     24  H   UNL     1      21.826  13.492  11.355  1.00  0.00     0.294 HD
ENDBRANCH  10  23
BRANCH   5  25
ATOM     25  O   UNL     1      28.322   8.336  11.303  1.00  0.00    -0.507 OA
ATOM     26  H   UNL     1      29.182   8.310  10.766  1.00  0.00     0.293 HD
ENDBRANCH   5  25
BRANCH   7  27
ATOM     27  O   UNL     1      27.188  12.795   9.876  1.00  0.00    -0.507 OA
ATOM     28  H   UNL     1      28.145  13.004   9.634  1.00  0.00     0.293 HD
ENDBRANCH   7  27
TORSDOF 7
ENDMDL
MODEL 5
REMARK VINA RESULT:    -3.331     20.229     23.857
REMARK INTER + INTRA:          -4.491
REMARK INTER:                  -4.118
REMARK INTRA:                  -0.372
REMARK UNBOUND:                -0.381
REMARK SMILES Oc1cc(O)c2cc(O)c(-c3cc(O)c(O)c(O)c3)[o+]c2c1
REMARK SMILES IDX 10 1 20 2 21 3 22 4 2 5 3 6 4 7 6 8 7 9 8 10 11 11 12 12
REMARK SMILES IDX 13 13 19 14 15 15 17 16 14 17 16 19 18 21 9 23 1 25 5 27
REMARK H PARENT 14 18 16 20 18 22 9 24 1 26 5 28
REMARK Flexibility Score: inf
ROOT
ATOM      1  C   UNL     1      22.884  10.757  11.254  1.00  0.00     0.402 A 
ATOM      2  O   UNL     1      23.837   9.845  11.424  1.00  0.00    -0.202 OA
ATOM      3  C   UNL     1      25.119  10.069  11.154  1.00  0.00     0.368 A 
ATOM      4  C   UNL     1      26.047   9.045  11.363  1.00  0.00     0.162 A 
ATOM      5  C   UNL     1      27.398   9.250  11.084  1.00  0.00     0.128 A 
ATOM      6  C   UNL     1      27.828  10.489  10.593  1.00  0.00     0.093 A 
ATOM      7  C   UNL     1      26.918  11.531  10.375  1.00  0.00     0.136 A 
ATOM      8  C   UNL     1      25.543  11.326  10.659  1.00  0.00     0.125 A 
ATOM      9  C   UNL     1      24.562  12.316  10.484  1.00  0.00     0.078 A 
ATOM     10  C   UNL     1      23.225  12.041  10.790  1.00  0.00     0.223 A 
ENDROOT
BRANCH   1  11
ATOM     11  C   UNL     1      21.489  10.383  11.582  1.00  0.00     0.091 A 
ATOM     12  C   UNL     1      20.686   9.785  10.600  1.00  0.00     0.068 A 
ATOM     13  C   UNL     1      19.358   9.439  10.875  1.00  0.00     0.162 A 
ATOM     14  C   UNL     1      20.933  10.665  12.841  1.00  0.00     0.068 A 
ATOM     15  C   UNL     1      18.813   9.704  12.143  1.00  0.00     0.200 A 
ATOM     16  C   UNL     1      19.604  10.324  13.126  1.00  0.00     0.162 A 
BRANCH  13  17
ATOM     17  O   UNL     1      18.597   8.833   9.876  1.00  0.00    -0.504 OA
ATOM     18  H   UNL     1      17.747   9.251   9.519  1.00  0.00     0.293 HD
ENDBRANCH  13  17
BRANCH  15  19
ATOM     19  O   UNL     1      17.489   9.353  12.411  1.00  0.00    -0.502 OA
ATOM     20  H   UNL     1      16.757   9.443  11.717  1.00  0.00     0.293 HD
ENDBRANCH  15  19
BRANCH  16  21
ATOM     21  O   UNL     1      19.064  10.603  14.381  1.00  0.00    -0.504 OA
ATOM     22  H   UNL     1      18.261  10.098  14.738  1.00  0.00     0.293 HD
ENDBRANCH  16  21
ENDBRANCH   1  11
BRANCH  10  23
ATOM     23  O   UNL     1      22.260  13.040  10.664  1.00  0.00    -0.500 OA
ATOM     24  H   UNL     1      21.277  12.853  10.820  1.00  0.00     0.294 HD
ENDBRANCH  10  23
BRANCH   5  25
ATOM     25  O   UNL     1      28.308   8.218  11.300  1.00  0.00    -0.507 OA
ATOM     26  H   UNL     1      29.305   8.393  11.351  1.00  0.00     0.293 HD
ENDBRANCH   5  25
BRANCH   7  27
ATOM     27  O   UNL     1      27.424  12.735   9.878  1.00  0.00    -0.507 OA
ATOM     28  H   UNL     1      28.375  13.048  10.003  1.00  0.00     0.293 HD
ENDBRANCH   7  27
TORSDOF 7
ENDMDL
MODEL 6
REMARK VINA RESULT:    -3.325      1.761      2.387
REMARK INTER + INTRA:          -4.483
REMARK INTER:                  -4.138
REMARK INTRA:                  -0.345
REMARK UNBOUND:                -0.381
REMARK SMILES Oc1cc(O)c2cc(O)c(-c3cc(O)c(O)c(O)c3)[o+]c2c1
REMARK SMILES IDX 10 1 20 2 21 3 22 4 2 5 3 6 4 7 6 8 7 9 8 10 11 11 12 12
REMARK SMILES IDX 13 13 19 14 15 15 17 16 14 17 16 19 18 21 9 23 1 25 5 27
REMARK H PARENT 14 18 16 20 18 22 9 24 1 26 5 28
REMARK Flexibility Score: inf
ROOT
ATOM      1  C   UNL     1      11.530  22.621  26.445  1.00  0.00     0.402 A 
ATOM      2  O   UNL     1      11.866  22.817  25.173  1.00  0.00    -0.202 OA
ATOM      3  C   UNL     1      11.921  21.841  24.273  1.00  0.00     0.368 A 
ATOM      4  C   UNL     1      12.289  22.147  22.959  1.00  0.00     0.162 A 
ATOM      5  C   UNL     1      12.357  21.142  21.995  1.00  0.00     0.128 A 
ATOM      6  C   UNL     1      12.057  19.819  22.343  1.00  0.00     0.093 A 
ATOM      7  C   UNL     1      11.686  19.487  23.652  1.00  0.00     0.136 A 
ATOM      8  C   UNL     1      11.613  20.507  24.636  1.00  0.00     0.125 A 
ATOM      9  C   UNL     1      11.238  20.270  25.968  1.00  0.00     0.078 A 
ATOM     10  C   UNL     1      11.184  21.328  26.881  1.00  0.00     0.223 A 
ENDROOT
BRANCH   1  11
ATOM     11  C   UNL     1      11.516  23.790  27.355  1.00  0.00     0.091 A 
ATOM     12  C   UNL     1      12.719  24.241  27.916  1.00  0.00     0.068 A 
ATOM     13  C   UNL     1      12.733  25.330  28.795  1.00  0.00     0.162 A 
ATOM     14  C   UNL     1      10.314  24.423  27.713  1.00  0.00     0.068 A 
ATOM     15  C   UNL     1      11.530  25.974  29.134  1.00  0.00     0.200 A 
ATOM     16  C   UNL     1      10.318  25.513  28.593  1.00  0.00     0.162 A 
BRANCH  13  17
ATOM     17  O   UNL     1      13.952  25.757  29.321  1.00  0.00    -0.504 OA
ATOM     18  H   UNL     1      14.061  26.003  30.297  1.00  0.00     0.293 HD
ENDBRANCH  13  17
BRANCH  15  19
ATOM     19  O   UNL     1      11.554  27.061  30.008  1.00  0.00    -0.502 OA
ATOM     20  H   UNL     1      11.017  27.075  30.866  1.00  0.00     0.293 HD
ENDBRANCH  15  19
BRANCH  16  21
ATOM     21  O   UNL     1       9.120  26.138  28.936  1.00  0.00    -0.504 OA
ATOM     22  H   UNL     1       9.064  26.794  29.707  1.00  0.00     0.293 HD
ENDBRANCH  16  21
ENDBRANCH   1  11
BRANCH  10  23
ATOM     23  O   UNL     1      10.763  21.101  28.191  1.00  0.00    -0.500 OA
ATOM     24  H   UNL     1      10.857  20.194  28.631  1.00  0.00     0.294 HD
ENDBRANCH  10  23
BRANCH   5  25
ATOM     25  O   UNL     1      12.725  21.466  20.691  1.00  0.00    -0.507 OA
ATOM     26  H   UNL     1      12.639  22.412  20.336  1.00  0.00     0.293 HD
ENDBRANCH   5  25
BRANCH   7  27
ATOM     27  O   UNL     1      11.406  18.145  23.921  1.00  0.00    -0.507 OA
ATOM     28  H   UNL     1      10.933  17.816  24.749  1.00  0.00     0.293 HD
ENDBRANCH   7  27
TORSDOF 7
ENDMDL
MODEL 7
REMARK VINA RESULT:    -3.210     14.312     17.199
REMARK INTER + INTRA:          -4.341
REMARK INTER:                  -3.968
REMARK INTRA:                  -0.373
REMARK UNBOUND:                -0.381
REMARK SMILES Oc1cc(O)c2cc(O)c(-c3cc(O)c(O)c(O)c3)[o+]c2c1
REMARK SMILES IDX 10 1 20 2 21 3 22 4 2 5 3 6 4 7 6 8 7 9 8 10 11 11 12 12
REMARK SMILES IDX 13 13 19 14 15 15 17 16 14 17 16 19 18 21 9 23 1 25 5 27
REMARK H PARENT 14 18 16 20 18 22 9 24 1 26 5 28
REMARK Flexibility Score: inf
ROOT
ATOM      1  C   UNL     1      26.388  21.209  28.543  1.00  0.00     0.402 A 
ATOM      2  O   UNL     1      27.335  22.094  28.843  1.00  0.00    -0.202 OA
ATOM      3  C   UNL     1      27.078  23.352  29.183  1.00  0.00     0.368 A 
ATOM      4  C   UNL     1      28.143  24.208  29.477  1.00  0.00     0.162 A 
ATOM      5  C   UNL     1      27.902  25.535  29.834  1.00  0.00     0.128 A 
ATOM      6  C   UNL     1      26.588  26.013  29.898  1.00  0.00     0.093 A 
ATOM      7  C   UNL     1      25.504  25.175  29.608  1.00  0.00     0.136 A 
ATOM      8  C   UNL     1      25.744  23.824  29.246  1.00  0.00     0.125 A 
ATOM      9  C   UNL     1      24.720  22.910  28.951  1.00  0.00     0.078 A 
ATOM     10  C   UNL     1      25.035  21.591  28.606  1.00  0.00     0.223 A 
ENDROOT
BRANCH   1  11
ATOM     11  C   UNL     1      26.803  19.838  28.168  1.00  0.00     0.091 A 
ATOM     12  C   UNL     1      26.913  19.497  26.812  1.00  0.00     0.068 A 
ATOM     13  C   UNL     1      27.284  18.203  26.428  1.00  0.00     0.162 A 
ATOM     14  C   UNL     1      27.034  18.852  29.142  1.00  0.00     0.068 A 
ATOM     15  C   UNL     1      27.535  17.226  27.407  1.00  0.00     0.200 A 
ATOM     16  C   UNL     1      27.404  17.553  28.767  1.00  0.00     0.162 A 
BRANCH  13  17
ATOM     17  O   UNL     1      27.396  17.908  25.070  1.00  0.00    -0.504 OA
ATOM     18  H   UNL     1      26.969  17.086  24.660  1.00  0.00     0.293 HD
ENDBRANCH  13  17
BRANCH  15  19
ATOM     19  O   UNL     1      27.907  15.939  27.016  1.00  0.00    -0.502 OA
ATOM     20  H   UNL     1      28.557  15.773  26.258  1.00  0.00     0.293 HD
ENDBRANCH  15  19
BRANCH  16  21
ATOM     21  O   UNL     1      27.638  16.585  29.742  1.00  0.00    -0.504 OA
ATOM     22  H   UNL     1      27.577  15.594  29.534  1.00  0.00     0.293 HD
ENDBRANCH  16  21
ENDBRANCH   1  11
BRANCH  10  23
ATOM     23  O   UNL     1      24.016  20.670  28.363  1.00  0.00    -0.500 OA
ATOM     24  H   UNL     1      23.756  20.400  27.423  1.00  0.00     0.294 HD
ENDBRANCH  10  23
BRANCH   5  25
ATOM     25  O   UNL     1      28.977  26.373  30.125  1.00  0.00    -0.507 OA
ATOM     26  H   UNL     1      29.326  26.478  31.071  1.00  0.00     0.293 HD
ENDBRANCH   5  25
BRANCH   7  27
ATOM     27  O   UNL     1      24.223  25.728  29.690  1.00  0.00    -0.507 OA
ATOM     28  H   UNL     1      23.412  25.361  29.214  1.00  0.00     0.293 HD
ENDBRANCH   7  27
TORSDOF 7
ENDMDL
MODEL 8
REMARK VINA RESULT:    -3.153      2.180      6.770
REMARK INTER + INTRA:          -4.271
REMARK INTER:                  -3.900
REMARK INTRA:                  -0.371
REMARK UNBOUND:                -0.381
REMARK SMILES Oc1cc(O)c2cc(O)c(-c3cc(O)c(O)c(O)c3)[o+]c2c1
REMARK SMILES IDX 10 1 20 2 21 3 22 4 2 5 3 6 4 7 6 8 7 9 8 10 11 11 12 12
REMARK SMILES IDX 13 13 19 14 15 15 17 16 14 17 16 19 18 21 9 23 1 25 5 27
REMARK H PARENT 14 18 16 20 18 22 9 24 1 26 5 28
REMARK Flexibility Score: inf
ROOT
ATOM      1  C   UNL     1      11.134  21.841  27.860  1.00  0.00     0.402 A 
ATOM      2  O   UNL     1      11.551  22.637  26.880  1.00  0.00    -0.202 OA
ATOM      3  C   UNL     1      11.394  23.957  26.894  1.00  0.00     0.368 A 
ATOM      4  C   UNL     1      11.863  24.709  25.814  1.00  0.00     0.162 A 
ATOM      5  C   UNL     1      11.709  26.095  25.801  1.00  0.00     0.128 A 
ATOM      6  C   UNL     1      11.081  26.737  26.874  1.00  0.00     0.093 A 
ATOM      7  C   UNL     1      10.602  26.006  27.969  1.00  0.00     0.136 A 
ATOM      8  C   UNL     1      10.758  24.596  27.987  1.00  0.00     0.125 A 
ATOM      9  C   UNL     1      10.321  23.784  29.046  1.00  0.00     0.078 A 
ATOM     10  C   UNL     1      10.515  22.400  28.994  1.00  0.00     0.223 A 
ENDROOT
BRANCH   1  11
ATOM     11  C   UNL     1      11.358  20.383  27.723  1.00  0.00     0.091 A 
ATOM     12  C   UNL     1      10.402  19.598  27.064  1.00  0.00     0.068 A 
ATOM     13  C   UNL     1      10.577  18.215  26.936  1.00  0.00     0.162 A 
ATOM     14  C   UNL     1      12.483  19.760  28.289  1.00  0.00     0.068 A 
ATOM     15  C   UNL     1      11.715  17.599  27.486  1.00  0.00     0.200 A 
ATOM     16  C   UNL     1      12.666  18.376  28.168  1.00  0.00     0.162 A 
BRANCH  13  17
ATOM     17  O   UNL     1       9.611  17.471  26.261  1.00  0.00    -0.504 OA
ATOM     18  H   UNL     1       9.041  16.776  26.729  1.00  0.00     0.293 HD
ENDBRANCH  13  17
BRANCH  15  19
ATOM     19  O   UNL     1      11.884  16.220  27.351  1.00  0.00    -0.502 OA
ATOM     20  H   UNL     1      12.786  15.774  27.462  1.00  0.00     0.293 HD
ENDBRANCH  15  19
BRANCH  16  21
ATOM     21  O   UNL     1      13.790  17.769  28.727  1.00  0.00    -0.504 OA
ATOM     22  H   UNL     1      13.765  16.814  29.066  1.00  0.00     0.293 HD
ENDBRANCH  16  21
ENDBRANCH   1  11
BRANCH  10  23
ATOM     23  O   UNL     1      10.127  21.599  30.069  1.00  0.00    -0.500 OA
ATOM     24  H   UNL     1      10.787  21.299  30.775  1.00  0.00     0.294 HD
ENDBRANCH  10  23
BRANCH   5  25
ATOM     25  O   UNL     1      12.184  26.828  24.716  1.00  0.00    -0.507 OA
ATOM     26  H   UNL     1      13.015  27.405  24.789  1.00  0.00     0.293 HD
ENDBRANCH   5  25
BRANCH   7  27
ATOM     27  O   UNL     1       9.983  26.719  28.999  1.00  0.00    -0.507 OA
ATOM     28  H   UNL     1       9.122  26.443  29.446  1.00  0.00     0.293 HD
ENDBRANCH   7  27
TORSDOF 7
ENDMDL
