MODEL 1
REMARK VINA RESULT:    -5.193      0.000      0.000
REMARK INTER + INTRA:          -8.829
REMARK INTER:                  -8.229
REMARK INTRA:                  -0.600
REMARK UNBOUND:                -0.600
REMARK SMILES CCCCCCCCCCCC(=O)[O-]
REMARK SMILES IDX 7 1 8 2 9 3 10 4 11 5 12 6 13 7 14 8 6 9 5 10 4 11 3 12 2 13
REMARK SMILES IDX 1 14
REMARK H PARENT
REMARK Flexibility Score: inf
ROOT
ATOM      1  C   UNL     1     -12.063   0.013  -9.957  1.00  0.00     0.000 C 
ENDROOT
BRANCH   1   2
ATOM      2  C   UNL     1     -10.838  -0.855 -10.271  1.00  0.00     0.000 C 
BRANCH   2   3
ATOM      3  C   UNL     1     -10.932  -2.215  -9.561  1.00  0.00     0.000 C 
BRANCH   3   4
ATOM      4  C   UNL     1      -9.797  -3.171  -9.962  1.00  0.00     0.006 C 
BRANCH   4   5
ATOM      5  C   UNL     1      -8.964  -3.635  -8.760  1.00  0.00     0.053 C 
BRANCH   5   6
ATOM      6  C   UNL     1      -9.690  -4.703  -8.004  1.00  0.00     0.041 C 
ATOM      7  O   UNL     1      -9.808  -5.857  -8.492  1.00  0.00    -0.550 OA
ATOM      8  O   UNL     1     -10.280  -4.410  -6.781  1.00  0.00    -0.550 OA
ENDBRANCH   5   6
ENDBRANCH   4   5
ENDBRANCH   3   4
ENDBRANCH   2   3
ENDBRANCH   1   2
BRANCH   1   9
ATOM      9  C   UNL     1     -13.361  -0.694 -10.379  1.00  0.00     0.000 C 
BRANCH   9  10
ATOM     10  C   UNL     1     -14.621   0.101  -9.999  1.00  0.00    -0.000 C 
BRANCH  10  11
ATOM     11  C   UNL     1     -14.393   1.622 -10.044  1.00  0.00    -0.000 C 
BRANCH  11  12
ATOM     12  C   UNL     1     -14.763   2.321  -8.722  1.00  0.00    -0.000 C 
BRANCH  12  13
ATOM     13  C   UNL     1     -14.106   3.695  -8.508  1.00  0.00    -0.003 C 
ATOM     14  C   UNL     1     -12.620   3.712  -8.868  1.00  0.00     0.004 C 
ENDBRANCH  12  13
ENDBRANCH  11  12
ENDBRANCH  10  11
ENDBRANCH   9  10
ENDBRANCH   1   9
TORSDOF 10
ENDMDL
MODEL 2
REMARK VINA RESULT:    -4.947      3.420      7.127
REMARK INTER + INTRA:          -8.439
REMARK INTER:                  -7.934
REMARK INTRA:                  -0.505
REMARK UNBOUND:                -0.600
REMARK SMILES CCCCCCCCCCCC(=O)[O-]
REMARK SMILES IDX 7 1 8 2 9 3 10 4 11 5 12 6 13 7 14 8 6 9 5 10 4 11 3 12 2 13
REMARK SMILES IDX 1 14
REMARK H PARENT
REMARK Flexibility Score: inf
ROOT
ATOM      1  C   UNL     1     -11.932  -0.168 -10.006  1.00  0.00     0.000 C 
ENDROOT
BRANCH   1   2
ATOM      2  C   UNL     1     -13.186  -0.840 -10.580  1.00  0.00     0.000 C 
BRANCH   2   3
ATOM      3  C   UNL     1     -14.461  -0.233  -9.975  1.00  0.00     0.000 C 
BRANCH   3   4
ATOM      4  C   UNL     1     -14.579   1.277 -10.236  1.00  0.00     0.006 C 
BRANCH   4   5
ATOM      5  C   UNL     1     -14.831   2.080  -8.953  1.00  0.00     0.053 C 
BRANCH   5   6
ATOM      6  C   UNL     1     -13.809   3.161  -8.805  1.00  0.00     0.041 C 
ATOM      7  O   UNL     1     -14.072   4.196  -8.138  1.00  0.00    -0.550 OA
ATOM      8  O   UNL     1     -12.581   3.050  -9.446  1.00  0.00    -0.550 OA
ENDBRANCH   5   6
ENDBRANCH   4   5
ENDBRANCH   3   4
ENDBRANCH   2   3
ENDBRANCH   1   2
BRANCH   1   9
ATOM      9  C   UNL     1     -10.684  -1.031 -10.252  1.00  0.00     0.000 C 
BRANCH   9  10
ATOM     10  C   UNL     1     -10.791  -2.425  -9.613  1.00  0.00    -0.000 C 
BRANCH  10  11
ATOM     11  C   UNL     1      -9.575  -3.313  -9.931  1.00  0.00    -0.000 C 
BRANCH  11  12
ATOM     12  C   UNL     1      -9.279  -4.340  -8.823  1.00  0.00    -0.000 C 
BRANCH  12  13
ATOM     13  C   UNL     1      -9.660  -3.891  -7.402  1.00  0.00    -0.003 C 
ATOM     14  C   UNL     1     -10.562  -4.892  -6.679  1.00  0.00     0.004 C 
ENDBRANCH  12  13
ENDBRANCH  11  12
ENDBRANCH  10  11
ENDBRANCH   9  10
ENDBRANCH   1   9
TORSDOF 10
ENDMDL
MODEL 3
REMARK VINA RESULT:    -4.798      0.822      1.494
REMARK INTER + INTRA:          -8.203
REMARK INTER:                  -7.651
REMARK INTRA:                  -0.552
REMARK UNBOUND:                -0.600
REMARK SMILES CCCCCCCCCCCC(=O)[O-]
REMARK SMILES IDX 7 1 8 2 9 3 10 4 11 5 12 6 13 7 14 8 6 9 5 10 4 11 3 12 2 13
REMARK SMILES IDX 1 14
REMARK H PARENT
REMARK Flexibility Score: inf
ROOT
ATOM      1  C   UNL     1     -10.948  -0.998 -10.369  1.00  0.00     0.000 C 
ENDROOT
BRANCH   1   2
ATOM      2  C   UNL     1     -10.636  -2.054  -9.302  1.00  0.00     0.000 C 
BRANCH   2   3
ATOM      3  C   UNL     1      -9.883  -3.247  -9.911  1.00  0.00     0.000 C 
BRANCH   3   4
ATOM      4  C   UNL     1      -9.014  -3.987  -8.882  1.00  0.00     0.006 C 
BRANCH   4   5
ATOM      5  C   UNL     1      -9.600  -3.932  -7.466  1.00  0.00     0.053 C 
BRANCH   5   6
ATOM      6  C   UNL     1     -10.284  -5.220  -7.134  1.00  0.00     0.041 C 
ATOM      7  O   UNL     1      -9.922  -6.292  -7.687  1.00  0.00    -0.550 OA
ATOM      8  O   UNL     1     -11.357  -5.230  -6.250  1.00  0.00    -0.550 OA
ENDBRANCH   5   6
ENDBRANCH   4   5
ENDBRANCH   3   4
ENDBRANCH   2   3
ENDBRANCH   1   2
BRANCH   1   9
ATOM      9  C   UNL     1     -12.208  -0.200 -10.001  1.00  0.00     0.000 C 
BRANCH   9  10
ATOM     10  C   UNL     1     -13.505  -0.913 -10.417  1.00  0.00    -0.000 C 
BRANCH  10  11
ATOM     11  C   UNL     1     -14.688   0.058 -10.569  1.00  0.00    -0.000 C 
BRANCH  11  12
ATOM     12  C   UNL     1     -15.038   0.784  -9.256  1.00  0.00    -0.000 C 
BRANCH  12  13
ATOM     13  C   UNL     1     -15.101   2.318  -9.358  1.00  0.00    -0.003 C 
ATOM     14  C   UNL     1     -13.761   2.993  -9.067  1.00  0.00     0.004 C 
ENDBRANCH  12  13
ENDBRANCH  11  12
ENDBRANCH  10  11
ENDBRANCH   9  10
ENDBRANCH   1   9
TORSDOF 10
ENDMDL
MODEL 4
REMARK VINA RESULT:    -4.526      5.201      7.126
REMARK INTER + INTRA:          -7.771
REMARK INTER:                  -6.279
REMARK INTRA:                  -1.492
REMARK UNBOUND:                -0.600
REMARK SMILES CCCCCCCCCCCC(=O)[O-]
REMARK SMILES IDX 7 1 8 2 9 3 10 4 11 5 12 6 13 7 14 8 6 9 5 10 4 11 3 12 2 13
REMARK SMILES IDX 1 14
REMARK H PARENT
REMARK Flexibility Score: inf
ROOT
ATOM      1  C   UNL     1     -11.786  -6.156  -4.995  1.00  0.00     0.000 C 
ENDROOT
BRANCH   1   2
ATOM      2  C   UNL     1     -10.999  -5.502  -6.137  1.00  0.00     0.000 C 
BRANCH   2   3
ATOM      3  C   UNL     1     -10.325  -6.564  -7.019  1.00  0.00     0.000 C 
BRANCH   3   4
ATOM      4  C   UNL     1     -10.253  -6.148  -8.497  1.00  0.00     0.006 C 
BRANCH   4   5
ATOM      5  C   UNL     1     -10.758  -4.719  -8.733  1.00  0.00     0.053 C 
BRANCH   5   6
ATOM      6  C   UNL     1      -9.623  -3.819  -9.107  1.00  0.00     0.041 C 
ATOM      7  O   UNL     1      -9.476  -3.447 -10.301  1.00  0.00    -0.550 OA
ATOM      8  O   UNL     1      -8.697  -3.431  -8.147  1.00  0.00    -0.550 OA
ENDBRANCH   5   6
ENDBRANCH   4   5
ENDBRANCH   3   4
ENDBRANCH   2   3
ENDBRANCH   1   2
BRANCH   1   9
ATOM      9  C   UNL     1     -12.003  -7.653  -5.263  1.00  0.00     0.000 C 
BRANCH   9  10
ATOM     10  C   UNL     1     -13.482  -8.007  -5.492  1.00  0.00    -0.000 C 
BRANCH  10  11
ATOM     11  C   UNL     1     -14.370  -6.759  -5.638  1.00  0.00    -0.000 C 
BRANCH  11  12
ATOM     12  C   UNL     1     -15.033  -6.656  -7.024  1.00  0.00    -0.000 C 
BRANCH  12  13
ATOM     13  C   UNL     1     -14.134  -6.084  -8.134  1.00  0.00    -0.003 C 
ATOM     14  C   UNL     1     -13.710  -7.134  -9.161  1.00  0.00     0.004 C 
ENDBRANCH  12  13
ENDBRANCH  11  12
ENDBRANCH  10  11
ENDBRANCH   9  10
ENDBRANCH   1   9
TORSDOF 10
ENDMDL
MODEL 5
REMARK VINA RESULT:    -4.525      1.887      3.181
REMARK INTER + INTRA:          -7.770
REMARK INTER:                  -7.248
REMARK INTRA:                  -0.522
REMARK UNBOUND:                -0.600
REMARK SMILES CCCCCCCCCCCC(=O)[O-]
REMARK SMILES IDX 7 1 8 2 9 3 10 4 11 5 12 6 13 7 14 8 6 9 5 10 4 11 3 12 2 13
REMARK SMILES IDX 1 14
REMARK H PARENT
REMARK Flexibility Score: inf
ROOT
ATOM      1  C   UNL     1      -9.876  -2.433  -8.383  1.00  0.00     0.000 C 
ENDROOT
BRANCH   1   2
ATOM      2  C   UNL     1      -9.865  -3.908  -7.963  1.00  0.00     0.000 C 
BRANCH   2   3
ATOM      3  C   UNL     1     -10.663  -4.768  -8.954  1.00  0.00     0.000 C 
BRANCH   3   4
ATOM      4  C   UNL     1     -11.077  -6.124  -8.361  1.00  0.00     0.006 C 
BRANCH   4   5
ATOM      5  C   UNL     1     -11.899  -5.980  -7.074  1.00  0.00     0.053 C 
BRANCH   5   6
ATOM      6  C   UNL     1     -11.142  -6.532  -5.908  1.00  0.00     0.041 C 
ATOM      7  O   UNL     1     -10.307  -7.459  -6.075  1.00  0.00    -0.550 OA
ATOM      8  O   UNL     1     -11.396  -6.057  -4.626  1.00  0.00    -0.550 OA
ENDBRANCH   5   6
ENDBRANCH   4   5
ENDBRANCH   3   4
ENDBRANCH   2   3
ENDBRANCH   1   2
BRANCH   1   9
ATOM      9  C   UNL     1     -10.618  -2.247  -9.716  1.00  0.00     0.000 C 
BRANCH   9  10
ATOM     10  C   UNL     1     -11.008  -0.783  -9.979  1.00  0.00    -0.000 C 
BRANCH  10  11
ATOM     11  C   UNL     1     -12.486  -0.631 -10.378  1.00  0.00    -0.000 C 
BRANCH  11  12
ATOM     12  C   UNL     1     -13.110   0.682  -9.869  1.00  0.00    -0.000 C 
BRANCH  12  13
ATOM     13  C   UNL     1     -12.112   1.686  -9.266  1.00  0.00    -0.003 C 
ATOM     14  C   UNL     1     -12.631   3.124  -9.276  1.00  0.00     0.004 C 
ENDBRANCH  12  13
ENDBRANCH  11  12
ENDBRANCH  10  11
ENDBRANCH   9  10
ENDBRANCH   1   9
TORSDOF 10
ENDMDL
MODEL 6
REMARK VINA RESULT:    -4.502     15.502     17.711
REMARK INTER + INTRA:          -7.734
REMARK INTER:                  -6.377
REMARK INTRA:                  -1.356
REMARK UNBOUND:                -0.600
REMARK SMILES CCCCCCCCCCCC(=O)[O-]
REMARK SMILES IDX 7 1 8 2 9 3 10 4 11 5 12 6 13 7 14 8 6 9 5 10 4 11 3 12 2 13
REMARK SMILES IDX 1 14
REMARK H PARENT
REMARK Flexibility Score: inf
ROOT
ATOM      1  C   UNL     1     -13.637   4.713   7.367  1.00  0.00     0.000 C 
ENDROOT
BRANCH   1   2
ATOM      2  C   UNL     1     -14.412   6.034   7.287  1.00  0.00     0.000 C 
BRANCH   2   3
ATOM      3  C   UNL     1     -13.473   7.204   6.956  1.00  0.00     0.000 C 
BRANCH   3   4
ATOM      4  C   UNL     1     -13.424   7.517   5.452  1.00  0.00     0.006 C 
BRANCH   4   5
ATOM      5  C   UNL     1     -14.633   6.955   4.693  1.00  0.00     0.053 C 
BRANCH   5   6
ATOM      6  C   UNL     1     -14.181   6.073   3.573  1.00  0.00     0.041 C 
ATOM      7  O   UNL     1     -13.622   4.971   3.819  1.00  0.00    -0.550 OA
ATOM      8  O   UNL     1     -14.330   6.488   2.255  1.00  0.00    -0.550 OA
ENDBRANCH   5   6
ENDBRANCH   4   5
ENDBRANCH   3   4
ENDBRANCH   2   3
ENDBRANCH   1   2
BRANCH   1   9
ATOM      9  C   UNL     1     -12.886   4.597   8.703  1.00  0.00     0.000 C 
BRANCH   9  10
ATOM     10  C   UNL     1     -11.862   3.449   8.710  1.00  0.00    -0.000 C 
BRANCH  10  11
ATOM     11  C   UNL     1     -10.655   3.732   7.800  1.00  0.00    -0.000 C 
BRANCH  11  12
ATOM     12  C   UNL     1     -10.109   5.163   7.958  1.00  0.00    -0.000 C 
BRANCH  12  13
ATOM     13  C   UNL     1      -9.836   5.905   6.638  1.00  0.00    -0.003 C 
ATOM     14  C   UNL     1     -10.442   5.205   5.421  1.00  0.00     0.004 C 
ENDBRANCH  12  13
ENDBRANCH  11  12
ENDBRANCH  10  11
ENDBRANCH   9  10
ENDBRANCH   1   9
TORSDOF 10
ENDMDL
MODEL 7
REMARK VINA RESULT:    -4.376     15.823     17.777
REMARK INTER + INTRA:          -7.534
REMARK INTER:                  -6.620
REMARK INTRA:                  -0.914
REMARK UNBOUND:                -0.600
REMARK SMILES CCCCCCCCCCCC(=O)[O-]
REMARK SMILES IDX 7 1 8 2 9 3 10 4 11 5 12 6 13 7 14 8 6 9 5 10 4 11 3 12 2 13
REMARK SMILES IDX 1 14
REMARK H PARENT
REMARK Flexibility Score: inf
ROOT
ATOM      1  C   UNL     1     -10.668   3.782   7.715  1.00  0.00     0.000 C 
ENDROOT
BRANCH   1   2
ATOM      2  C   UNL     1     -12.081   3.611   8.287  1.00  0.00     0.000 C 
BRANCH   2   3
ATOM      3  C   UNL     1     -12.807   4.962   8.371  1.00  0.00     0.000 C 
BRANCH   3   4
ATOM      4  C   UNL     1     -13.947   5.087   7.347  1.00  0.00     0.006 C 
BRANCH   4   5
ATOM      5  C   UNL     1     -13.584   6.001   6.170  1.00  0.00     0.053 C 
BRANCH   5   6
ATOM      6  C   UNL     1     -13.442   5.201   4.914  1.00  0.00     0.041 C 
ATOM      7  O   UNL     1     -14.332   5.252   4.025  1.00  0.00    -0.550 OA
ATOM      8  O   UNL     1     -12.350   4.358   4.746  1.00  0.00    -0.550 OA
ENDBRANCH   5   6
ENDBRANCH   4   5
ENDBRANCH   3   4
ENDBRANCH   2   3
ENDBRANCH   1   2
BRANCH   1   9
ATOM      9  C   UNL     1     -10.235   5.256   7.750  1.00  0.00     0.000 C 
BRANCH   9  10
ATOM     10  C   UNL     1      -9.500   5.689   6.471  1.00  0.00    -0.000 C 
BRANCH  10  11
ATOM     11  C   UNL     1      -9.665   7.190   6.177  1.00  0.00    -0.000 C 
BRANCH  11  12
ATOM     12  C   UNL     1      -8.345   7.973   6.302  1.00  0.00    -0.000 C 
BRANCH  12  13
ATOM     13  C   UNL     1      -7.979   8.831   5.079  1.00  0.00    -0.003 C 
ATOM     14  C   UNL     1      -7.771  10.306   5.423  1.00  0.00     0.004 C 
ENDBRANCH  12  13
ENDBRANCH  11  12
ENDBRANCH  10  11
ENDBRANCH   9  10
ENDBRANCH   1   9
TORSDOF 10
ENDMDL
MODEL 8
REMARK VINA RESULT:    -4.350     15.598     17.511
REMARK INTER + INTRA:          -7.493
REMARK INTER:                  -6.092
REMARK INTRA:                  -1.400
REMARK UNBOUND:                -0.600
REMARK SMILES CCCCCCCCCCCC(=O)[O-]
REMARK SMILES IDX 7 1 8 2 9 3 10 4 11 5 12 6 13 7 14 8 6 9 5 10 4 11 3 12 2 13
REMARK SMILES IDX 1 14
REMARK H PARENT
REMARK Flexibility Score: inf
ROOT
ATOM      1  C   UNL     1     -10.280   4.596   6.702  1.00  0.00     0.000 C 
ENDROOT
BRANCH   1   2
ATOM      2  C   UNL     1     -10.979   4.870   5.364  1.00  0.00     0.000 C 
BRANCH   2   3
ATOM      3  C   UNL     1     -12.439   4.394   5.399  1.00  0.00     0.000 C 
BRANCH   3   4
ATOM      4  C   UNL     1     -13.248   4.877   4.185  1.00  0.00     0.006 C 
BRANCH   4   5
ATOM      5  C   UNL     1     -14.197   6.032   4.530  1.00  0.00     0.053 C 
BRANCH   5   6
ATOM      6  C   UNL     1     -14.321   6.970   3.371  1.00  0.00     0.041 C 
ATOM      7  O   UNL     1     -14.380   6.521   2.196  1.00  0.00    -0.550 OA
ATOM      8  O   UNL     1     -14.320   8.343   3.584  1.00  0.00    -0.550 OA
ENDBRANCH   5   6
ENDBRANCH   4   5
ENDBRANCH   3   4
ENDBRANCH   2   3
ENDBRANCH   1   2
BRANCH   1   9
ATOM      9  C   UNL     1     -11.015   3.502   7.492  1.00  0.00     0.000 C 
BRANCH   9  10
ATOM     10  C   UNL     1     -11.246   3.885   8.963  1.00  0.00    -0.000 C 
BRANCH  10  11
ATOM     11  C   UNL     1     -11.721   5.339   9.125  1.00  0.00    -0.000 C 
BRANCH  11  12
ATOM     12  C   UNL     1     -13.205   5.527   8.759  1.00  0.00    -0.000 C 
BRANCH  12  13
ATOM     13  C   UNL     1     -13.576   6.928   8.244  1.00  0.00    -0.003 C 
ATOM     14  C   UNL     1     -12.441   7.603   7.474  1.00  0.00     0.004 C 
ENDBRANCH  12  13
ENDBRANCH  11  12
ENDBRANCH  10  11
ENDBRANCH   9  10
ENDBRANCH   1   9
TORSDOF 10
ENDMDL
MODEL 9
REMARK VINA RESULT:    -4.315      4.953      7.255
REMARK INTER + INTRA:          -7.438
REMARK INTER:                  -6.279
REMARK INTRA:                  -1.159
REMARK UNBOUND:                -0.600
REMARK SMILES CCCCCCCCCCCC(=O)[O-]
REMARK SMILES IDX 7 1 8 2 9 3 10 4 11 5 12 6 13 7 14 8 6 9 5 10 4 11 3 12 2 13
REMARK SMILES IDX 1 14
REMARK H PARENT
REMARK Flexibility Score: inf
ROOT
ATOM      1  C   UNL     1     -11.839  -7.036  -5.227  1.00  0.00     0.000 C 
ENDROOT
BRANCH   1   2
ATOM      2  C   UNL     1     -13.110  -7.677  -5.799  1.00  0.00     0.000 C 
BRANCH   2   3
ATOM      3  C   UNL     1     -14.101  -6.604  -6.275  1.00  0.00     0.000 C 
BRANCH   3   4
ATOM      4  C   UNL     1     -13.917  -6.245  -7.758  1.00  0.00     0.006 C 
BRANCH   4   5
ATOM      5  C   UNL     1     -13.438  -7.435  -8.599  1.00  0.00     0.053 C 
BRANCH   5   6
ATOM      6  C   UNL     1     -12.877  -6.961  -9.902  1.00  0.00     0.041 C 
ATOM      7  O   UNL     1     -12.157  -5.929  -9.945  1.00  0.00    -0.550 OA
ATOM      8  O   UNL     1     -13.191  -7.631 -11.079  1.00  0.00    -0.550 OA
ENDBRANCH   5   6
ENDBRANCH   4   5
ENDBRANCH   3   4
ENDBRANCH   2   3
ENDBRANCH   1   2
BRANCH   1   9
ATOM      9  C   UNL     1     -10.601  -7.451  -6.038  1.00  0.00     0.000 C 
BRANCH   9  10
ATOM     10  C   UNL     1     -10.220  -6.417  -7.110  1.00  0.00    -0.000 C 
BRANCH  10  11
ATOM     11  C   UNL     1     -10.597  -4.982  -6.703  1.00  0.00    -0.000 C 
BRANCH  11  12
ATOM     12  C   UNL     1      -9.771  -3.914  -7.443  1.00  0.00    -0.000 C 
BRANCH  12  13
ATOM     13  C   UNL     1      -9.295  -4.319  -8.849  1.00  0.00    -0.003 C 
ATOM     14  C   UNL     1      -9.695  -3.313  -9.929  1.00  0.00     0.004 C 
ENDBRANCH  12  13
ENDBRANCH  11  12
ENDBRANCH  10  11
ENDBRANCH   9  10
ENDBRANCH   1   9
TORSDOF 10
ENDMDL
