MODEL 1
REMARK VINA RESULT:    -4.715      0.000      0.000
REMARK INTER + INTRA:         -10.397
REMARK INTER:                  -8.574
REMARK INTRA:                  -1.823
REMARK UNBOUND:                -1.823
REMARK SMILES CCCCCCCCCCCCCCCC(=O)[O-]
REMARK SMILES IDX 9 1 10 2 11 3 12 4 13 5 14 6 15 7 16 8 17 9 18 10 8 11 7 12
REMARK SMILES IDX 6 13 5 14 4 15 3 16 2 17 1 18
REMARK H PARENT
REMARK Flexibility Score: inf
ROOT
ATOM      1  C   UNL     1      -8.204  37.655   6.146  1.00  0.00     0.000 C 
ENDROOT
BRANCH   1   2
ATOM      2  C   UNL     1      -8.982  36.492   5.505  1.00  0.00     0.000 C 
BRANCH   2   3
ATOM      3  C   UNL     1      -8.228  35.156   5.597  1.00  0.00     0.000 C 
BRANCH   3   4
ATOM      4  C   UNL     1      -9.124  34.005   6.090  1.00  0.00     0.000 C 
BRANCH   4   5
ATOM      5  C   UNL     1      -8.368  32.671   6.190  1.00  0.00     0.000 C 
BRANCH   5   6
ATOM      6  C   UNL     1      -6.871  32.815   5.866  1.00  0.00     0.006 C 
BRANCH   6   7
ATOM      7  C   UNL     1      -5.980  32.203   6.956  1.00  0.00     0.053 C 
BRANCH   7   8
ATOM      8  C   UNL     1      -5.206  31.026   6.448  1.00  0.00     0.041 C 
ATOM      9  O   UNL     1      -5.754  30.191   5.683  1.00  0.00    -0.550 OA
ATOM     10  O   UNL     1      -3.893  30.829   6.852  1.00  0.00    -0.550 OA
ENDBRANCH   7   8
ENDBRANCH   6   7
ENDBRANCH   5   6
ENDBRANCH   4   5
ENDBRANCH   3   4
ENDBRANCH   2   3
ENDBRANCH   1   2
BRANCH   1  11
ATOM     11  C   UNL     1      -9.059  38.923   6.293  1.00  0.00     0.000 C 
BRANCH  11  12
ATOM     12  C   UNL     1     -10.419  38.809   5.581  1.00  0.00    -0.000 C 
BRANCH  12  13
ATOM     13  C   UNL     1     -11.599  39.111   6.528  1.00  0.00    -0.000 C 
BRANCH  13  14
ATOM     14  C   UNL     1     -11.197  39.188   8.012  1.00  0.00    -0.000 C 
BRANCH  14  15
ATOM     15  C   UNL     1     -11.730  38.006   8.836  1.00  0.00    -0.000 C 
BRANCH  15  16
ATOM     16  C   UNL     1     -10.617  37.040   9.273  1.00  0.00    -0.000 C 
BRANCH  16  17
ATOM     17  C   UNL     1     -10.808  35.624   8.710  1.00  0.00    -0.003 C 
ATOM     18  C   UNL     1     -11.979  35.576   7.734  1.00  0.00     0.004 C 
ENDBRANCH  16  17
ENDBRANCH  15  16
ENDBRANCH  14  15
ENDBRANCH  13  14
ENDBRANCH  12  13
ENDBRANCH  11  12
ENDBRANCH   1  11
TORSDOF 14
ENDMDL
MODEL 2
REMARK VINA RESULT:    -4.656      1.200      3.127
REMARK INTER + INTRA:         -10.289
REMARK INTER:                  -8.395
REMARK INTRA:                  -1.894
REMARK UNBOUND:                -1.823
REMARK SMILES CCCCCCCCCCCCCCCC(=O)[O-]
REMARK SMILES IDX 9 1 10 2 11 3 12 4 13 5 14 6 15 7 16 8 17 9 18 10 8 11 7 12
REMARK SMILES IDX 6 13 5 14 4 15 3 16 2 17 1 18
REMARK H PARENT
REMARK Flexibility Score: inf
ROOT
ATOM      1  C   UNL     1     -10.832  36.171   9.062  1.00  0.00     0.000 C 
ENDROOT
BRANCH   1   2
ATOM      2  C   UNL     1     -10.379  35.135   8.017  1.00  0.00     0.000 C 
BRANCH   2   3
ATOM      3  C   UNL     1     -10.999  35.385   6.633  1.00  0.00     0.000 C 
BRANCH   3   4
ATOM      4  C   UNL     1     -10.006  35.125   5.485  1.00  0.00     0.000 C 
BRANCH   4   5
ATOM      5  C   UNL     1      -8.559  34.981   5.980  1.00  0.00     0.000 C 
BRANCH   5   6
ATOM      6  C   UNL     1      -7.763  33.933   5.181  1.00  0.00     0.006 C 
BRANCH   6   7
ATOM      7  C   UNL     1      -6.387  33.655   5.799  1.00  0.00     0.053 C 
BRANCH   7   8
ATOM      8  C   UNL     1      -6.332  32.310   6.456  1.00  0.00     0.041 C 
ATOM      9  O   UNL     1      -7.384  31.774   6.889  1.00  0.00    -0.550 OA
ATOM     10  O   UNL     1      -5.114  31.667   6.625  1.00  0.00    -0.550 OA
ENDBRANCH   7   8
ENDBRANCH   6   7
ENDBRANCH   5   6
ENDBRANCH   4   5
ENDBRANCH   3   4
ENDBRANCH   2   3
ENDBRANCH   1   2
BRANCH   1  11
ATOM     11  C   UNL     1     -12.362  36.287   9.148  1.00  0.00     0.000 C 
BRANCH  11  12
ATOM     12  C   UNL     1     -12.909  37.505   8.380  1.00  0.00    -0.000 C 
BRANCH  12  13
ATOM     13  C   UNL     1     -12.456  38.840   9.009  1.00  0.00    -0.000 C 
BRANCH  13  14
ATOM     14  C   UNL     1     -11.462  39.627   8.136  1.00  0.00    -0.000 C 
BRANCH  14  15
ATOM     15  C   UNL     1     -11.653  39.371   6.634  1.00  0.00    -0.000 C 
BRANCH  15  16
ATOM     16  C   UNL     1     -10.348  38.963   5.932  1.00  0.00    -0.000 C 
BRANCH  16  17
ATOM     17  C   UNL     1      -9.205  38.687   6.921  1.00  0.00    -0.003 C 
ATOM     18  C   UNL     1      -7.875  38.528   6.190  1.00  0.00     0.004 C 
ENDBRANCH  16  17
ENDBRANCH  15  16
ENDBRANCH  14  15
ENDBRANCH  13  14
ENDBRANCH  12  13
ENDBRANCH  11  12
ENDBRANCH   1  11
TORSDOF 14
ENDMDL
MODEL 3
REMARK VINA RESULT:    -4.628      3.720      8.165
REMARK INTER + INTRA:         -10.238
REMARK INTER:                  -9.565
REMARK INTRA:                  -0.673
REMARK UNBOUND:                -1.823
REMARK SMILES CCCCCCCCCCCCCCCC(=O)[O-]
REMARK SMILES IDX 9 1 10 2 11 3 12 4 13 5 14 6 15 7 16 8 17 9 18 10 8 11 7 12
REMARK SMILES IDX 6 13 5 14 4 15 3 16 2 17 1 18
REMARK H PARENT
REMARK Flexibility Score: inf
ROOT
ATOM      1  C   UNL     1      -9.000  35.647   6.508  1.00  0.00     0.000 C 
ENDROOT
BRANCH   1   2
ATOM      2  C   UNL     1      -8.634  36.612   5.368  1.00  0.00     0.000 C 
BRANCH   2   3
ATOM      3  C   UNL     1      -8.083  37.952   5.883  1.00  0.00     0.000 C 
BRANCH   3   4
ATOM      4  C   UNL     1      -9.146  38.781   6.627  1.00  0.00     0.000 C 
BRANCH   4   5
ATOM      5  C   UNL     1     -10.425  38.977   5.801  1.00  0.00     0.000 C 
BRANCH   5   6
ATOM      6  C   UNL     1     -11.651  39.294   6.675  1.00  0.00     0.006 C 
BRANCH   6   7
ATOM      7  C   UNL     1     -11.317  39.270   8.173  1.00  0.00     0.053 C 
BRANCH   7   8
ATOM      8  C   UNL     1     -11.883  38.061   8.851  1.00  0.00     0.041 C 
ATOM      9  O   UNL     1     -12.322  37.099   8.169  1.00  0.00    -0.550 OA
ATOM     10  O   UNL     1     -11.964  38.013  10.236  1.00  0.00    -0.550 OA
ENDBRANCH   7   8
ENDBRANCH   6   7
ENDBRANCH   5   6
ENDBRANCH   4   5
ENDBRANCH   3   4
ENDBRANCH   2   3
ENDBRANCH   1   2
BRANCH   1  11
ATOM     11  C   UNL     1      -8.838  34.173   6.105  1.00  0.00     0.000 C 
BRANCH  11  12
ATOM     12  C   UNL     1      -7.390  33.817   5.723  1.00  0.00    -0.000 C 
BRANCH  12  13
ATOM     13  C   UNL     1      -7.048  32.346   6.044  1.00  0.00    -0.000 C 
BRANCH  13  14
ATOM     14  C   UNL     1      -5.610  32.143   6.553  1.00  0.00    -0.000 C 
BRANCH  14  15
ATOM     15  C   UNL     1      -5.067  30.736   6.261  1.00  0.00    -0.000 C 
BRANCH  15  16
ATOM     16  C   UNL     1      -3.803  30.409   7.072  1.00  0.00    -0.000 C 
BRANCH  16  17
ATOM     17  C   UNL     1      -3.338  28.957   6.883  1.00  0.00    -0.003 C 
ATOM     18  C   UNL     1      -2.497  28.492   8.068  1.00  0.00     0.004 C 
ENDBRANCH  16  17
ENDBRANCH  15  16
ENDBRANCH  14  15
ENDBRANCH  13  14
ENDBRANCH  12  13
ENDBRANCH  11  12
ENDBRANCH   1  11
TORSDOF 14
ENDMDL
MODEL 4
REMARK VINA RESULT:    -4.536      1.001      1.530
REMARK INTER + INTRA:         -10.072
REMARK INTER:                  -8.497
REMARK INTRA:                  -1.575
REMARK UNBOUND:                -1.823
REMARK SMILES CCCCCCCCCCCCCCCC(=O)[O-]
REMARK SMILES IDX 9 1 10 2 11 3 12 4 13 5 14 6 15 7 16 8 17 9 18 10 8 11 7 12
REMARK SMILES IDX 6 13 5 14 4 15 3 16 2 17 1 18
REMARK H PARENT
REMARK Flexibility Score: inf
ROOT
ATOM      1  C   UNL     1      -8.558  36.910   5.358  1.00  0.00     0.000 C 
ENDROOT
BRANCH   1   2
ATOM      2  C   UNL     1      -8.616  35.666   6.261  1.00  0.00     0.000 C 
BRANCH   2   3
ATOM      3  C   UNL     1      -9.356  34.491   5.599  1.00  0.00     0.000 C 
BRANCH   3   4
ATOM      4  C   UNL     1      -8.395  33.403   5.086  1.00  0.00     0.000 C 
BRANCH   4   5
ATOM      5  C   UNL     1      -6.980  33.543   5.667  1.00  0.00     0.000 C 
BRANCH   5   6
ATOM      6  C   UNL     1      -6.581  32.344   6.545  1.00  0.00     0.006 C 
BRANCH   6   7
ATOM      7  C   UNL     1      -7.202  31.031   6.049  1.00  0.00     0.053 C 
BRANCH   7   8
ATOM      8  C   UNL     1      -6.159  30.000   5.744  1.00  0.00     0.041 C 
ATOM      9  O   UNL     1      -6.468  28.951   5.122  1.00  0.00    -0.550 OA
ATOM     10  O   UNL     1      -4.853  30.180   6.180  1.00  0.00    -0.550 OA
ENDBRANCH   7   8
ENDBRANCH   6   7
ENDBRANCH   5   6
ENDBRANCH   4   5
ENDBRANCH   3   4
ENDBRANCH   2   3
ENDBRANCH   1   2
BRANCH   1  11
ATOM     11  C   UNL     1      -8.114  38.168   6.120  1.00  0.00     0.000 C 
BRANCH  11  12
ATOM     12  C   UNL     1      -9.281  38.872   6.836  1.00  0.00    -0.000 C 
BRANCH  12  13
ATOM     13  C   UNL     1     -10.467  39.146   5.886  1.00  0.00    -0.000 C 
BRANCH  13  14
ATOM     14  C   UNL     1     -11.807  39.352   6.614  1.00  0.00    -0.000 C 
BRANCH  14  15
ATOM     15  C   UNL     1     -11.810  38.770   8.035  1.00  0.00    -0.000 C 
BRANCH  15  16
ATOM     16  C   UNL     1     -12.557  37.430   8.124  1.00  0.00    -0.000 C 
BRANCH  16  17
ATOM     17  C   UNL     1     -11.613  36.239   8.346  1.00  0.00    -0.003 C 
ATOM     18  C   UNL     1     -10.531  36.580   9.366  1.00  0.00     0.004 C 
ENDBRANCH  16  17
ENDBRANCH  15  16
ENDBRANCH  14  15
ENDBRANCH  13  14
ENDBRANCH  12  13
ENDBRANCH  11  12
ENDBRANCH   1  11
TORSDOF 14
ENDMDL
MODEL 5
REMARK VINA RESULT:    -4.455      3.985      8.739
REMARK INTER + INTRA:          -9.923
REMARK INTER:                  -9.148
REMARK INTRA:                  -0.775
REMARK UNBOUND:                -1.823
REMARK SMILES CCCCCCCCCCCCCCCC(=O)[O-]
REMARK SMILES IDX 9 1 10 2 11 3 12 4 13 5 14 6 15 7 16 8 17 9 18 10 8 11 7 12
REMARK SMILES IDX 6 13 5 14 4 15 3 16 2 17 1 18
REMARK H PARENT
REMARK Flexibility Score: inf
ROOT
ATOM      1  C   UNL     1      -6.520  33.302   5.908  1.00  0.00     0.000 C 
ENDROOT
BRANCH   1   2
ATOM      2  C   UNL     1      -8.035  33.230   5.652  1.00  0.00     0.000 C 
BRANCH   2   3
ATOM      3  C   UNL     1      -8.855  33.254   6.953  1.00  0.00     0.000 C 
BRANCH   3   4
ATOM      4  C   UNL     1      -9.869  34.412   6.991  1.00  0.00     0.000 C 
BRANCH   4   5
ATOM      5  C   UNL     1     -10.306  34.859   5.588  1.00  0.00     0.000 C 
BRANCH   5   6
ATOM      6  C   UNL     1      -9.982  36.338   5.312  1.00  0.00     0.006 C 
BRANCH   6   7
ATOM      7  C   UNL     1      -9.424  37.050   6.552  1.00  0.00     0.053 C 
BRANCH   7   8
ATOM      8  C   UNL     1      -9.080  38.479   6.266  1.00  0.00     0.041 C 
ATOM      9  O   UNL     1      -9.943  39.253   5.778  1.00  0.00    -0.550 OA
ATOM     10  O   UNL     1      -7.794  38.947   6.502  1.00  0.00    -0.550 OA
ENDBRANCH   7   8
ENDBRANCH   6   7
ENDBRANCH   5   6
ENDBRANCH   4   5
ENDBRANCH   3   4
ENDBRANCH   2   3
ENDBRANCH   1   2
BRANCH   1  11
ATOM     11  C   UNL     1      -5.956  31.988   6.470  1.00  0.00     0.000 C 
BRANCH  11  12
ATOM     12  C   UNL     1      -6.526  30.746   5.761  1.00  0.00    -0.000 C 
BRANCH  12  13
ATOM     13  C   UNL     1      -5.500  29.595   5.687  1.00  0.00    -0.000 C 
BRANCH  13  14
ATOM     14  C   UNL     1      -4.198  29.878   6.458  1.00  0.00    -0.000 C 
BRANCH  14  15
ATOM     15  C   UNL     1      -3.410  28.601   6.786  1.00  0.00    -0.000 C 
BRANCH  15  16
ATOM     16  C   UNL     1      -2.638  28.705   8.111  1.00  0.00    -0.000 C 
BRANCH  16  17
ATOM     17  C   UNL     1      -2.076  27.353   8.577  1.00  0.00    -0.003 C 
ATOM     18  C   UNL     1      -2.304  27.151  10.072  1.00  0.00     0.004 C 
ENDBRANCH  16  17
ENDBRANCH  15  16
ENDBRANCH  14  15
ENDBRANCH  13  14
ENDBRANCH  12  13
ENDBRANCH  11  12
ENDBRANCH   1  11
TORSDOF 14
ENDMDL
MODEL 6
REMARK VINA RESULT:    -4.389      2.090      2.398
REMARK INTER + INTRA:          -9.804
REMARK INTER:                  -8.094
REMARK INTRA:                  -1.710
REMARK UNBOUND:                -1.823
REMARK SMILES CCCCCCCCCCCCCCCC(=O)[O-]
REMARK SMILES IDX 9 1 10 2 11 3 12 4 13 5 14 6 15 7 16 8 17 9 18 10 8 11 7 12
REMARK SMILES IDX 6 13 5 14 4 15 3 16 2 17 1 18
REMARK H PARENT
REMARK Flexibility Score: inf
ROOT
ATOM      1  C   UNL     1      -8.902  37.422   5.807  1.00  0.00     0.000 C 
ENDROOT
BRANCH   1   2
ATOM      2  C   UNL     1      -9.992  36.359   5.583  1.00  0.00     0.000 C 
BRANCH   2   3
ATOM      3  C   UNL     1      -9.419  34.935   5.505  1.00  0.00     0.000 C 
BRANCH   3   4
ATOM      4  C   UNL     1      -7.908  34.889   5.797  1.00  0.00     0.000 C 
BRANCH   4   5
ATOM      5  C   UNL     1      -7.305  33.495   5.567  1.00  0.00     0.000 C 
BRANCH   5   6
ATOM      6  C   UNL     1      -8.310  32.512   4.942  1.00  0.00     0.006 C 
BRANCH   6   7
ATOM      7  C   UNL     1      -8.161  31.093   5.506  1.00  0.00     0.053 C 
BRANCH   7   8
ATOM      8  C   UNL     1      -9.367  30.674   6.288  1.00  0.00     0.041 C 
ATOM      9  O   UNL     1      -9.749  31.354   7.275  1.00  0.00    -0.550 OA
ATOM     10  O   UNL     1     -10.046  29.510   5.952  1.00  0.00    -0.550 OA
ENDBRANCH   7   8
ENDBRANCH   6   7
ENDBRANCH   5   6
ENDBRANCH   4   5
ENDBRANCH   3   4
ENDBRANCH   2   3
ENDBRANCH   1   2
BRANCH   1  11
ATOM     11  C   UNL     1      -9.488  38.804   6.137  1.00  0.00     0.000 C 
BRANCH  11  12
ATOM     12  C   UNL     1     -10.829  39.065   5.428  1.00  0.00    -0.000 C 
BRANCH  12  13
ATOM     13  C   UNL     1     -11.892  39.642   6.387  1.00  0.00    -0.000 C 
BRANCH  13  14
ATOM     14  C   UNL     1     -11.576  39.405   7.875  1.00  0.00    -0.000 C 
BRANCH  14  15
ATOM     15  C   UNL     1     -12.319  38.192   8.456  1.00  0.00    -0.000 C 
BRANCH  15  16
ATOM     16  C   UNL     1     -11.592  37.574   9.660  1.00  0.00    -0.000 C 
BRANCH  16  17
ATOM     17  C   UNL     1     -10.447  36.638   9.244  1.00  0.00    -0.003 C 
ATOM     18  C   UNL     1     -10.973  35.246   8.904  1.00  0.00     0.004 C 
ENDBRANCH  16  17
ENDBRANCH  15  16
ENDBRANCH  14  15
ENDBRANCH  13  14
ENDBRANCH  12  13
ENDBRANCH  11  12
ENDBRANCH   1  11
TORSDOF 14
ENDMDL
MODEL 7
REMARK VINA RESULT:    -4.375     13.340     15.125
REMARK INTER + INTRA:          -9.778
REMARK INTER:                  -7.781
REMARK INTRA:                  -1.998
REMARK UNBOUND:                -1.823
REMARK SMILES CCCCCCCCCCCCCCCC(=O)[O-]
REMARK SMILES IDX 9 1 10 2 11 3 12 4 13 5 14 6 15 7 16 8 17 9 18 10 8 11 7 12
REMARK SMILES IDX 6 13 5 14 4 15 3 16 2 17 1 18
REMARK H PARENT
REMARK Flexibility Score: inf
ROOT
ATOM      1  C   UNL     1      -0.220  41.899  -0.007  1.00  0.00     0.000 C 
ENDROOT
BRANCH   1   2
ATOM      2  C   UNL     1      -0.408  42.859   1.181  1.00  0.00     0.000 C 
BRANCH   2   3
ATOM      3  C   UNL     1       0.585  42.585   2.323  1.00  0.00     0.000 C 
BRANCH   3   4
ATOM      4  C   UNL     1       1.486  41.368   2.043  1.00  0.00     0.000 C 
BRANCH   4   5
ATOM      5  C   UNL     1       2.981  41.721   2.079  1.00  0.00     0.000 C 
BRANCH   5   6
ATOM      6  C   UNL     1       3.857  40.533   2.514  1.00  0.00     0.006 C 
BRANCH   6   7
ATOM      7  C   UNL     1       5.355  40.863   2.447  1.00  0.00     0.053 C 
BRANCH   7   8
ATOM      8  C   UNL     1       6.032  40.156   1.313  1.00  0.00     0.041 C 
ATOM      9  O   UNL     1       5.801  40.500   0.126  1.00  0.00    -0.550 OA
ATOM     10  O   UNL     1       6.886  39.092   1.567  1.00  0.00    -0.550 OA
ENDBRANCH   7   8
ENDBRANCH   6   7
ENDBRANCH   5   6
ENDBRANCH   4   5
ENDBRANCH   3   4
ENDBRANCH   2   3
ENDBRANCH   1   2
BRANCH   1  11
ATOM     11  C   UNL     1      -0.075  42.642  -1.344  1.00  0.00     0.000 C 
BRANCH  11  12
ATOM     12  C   UNL     1      -0.821  43.989  -1.359  1.00  0.00    -0.000 C 
BRANCH  12  13
ATOM     13  C   UNL     1      -0.046  45.074  -2.138  1.00  0.00    -0.000 C 
BRANCH  13  14
ATOM     14  C   UNL     1       0.142  46.383  -1.351  1.00  0.00    -0.000 C 
BRANCH  14  15
ATOM     15  C   UNL     1       0.745  46.158   0.044  1.00  0.00    -0.000 C 
BRANCH  15  16
ATOM     16  C   UNL     1       2.276  46.029   0.014  1.00  0.00    -0.000 C 
BRANCH  16  17
ATOM     17  C   UNL     1       2.755  44.599   0.307  1.00  0.00    -0.003 C 
ATOM     18  C   UNL     1       3.433  43.987  -0.915  1.00  0.00     0.004 C 
ENDBRANCH  16  17
ENDBRANCH  15  16
ENDBRANCH  14  15
ENDBRANCH  13  14
ENDBRANCH  12  13
ENDBRANCH  11  12
ENDBRANCH   1  11
TORSDOF 14
ENDMDL
MODEL 8
REMARK VINA RESULT:    -4.299      3.007      4.979
REMARK INTER + INTRA:          -9.641
REMARK INTER:                  -7.368
REMARK INTRA:                  -2.273
REMARK UNBOUND:                -1.823
REMARK SMILES CCCCCCCCCCCCCCCC(=O)[O-]
REMARK SMILES IDX 9 1 10 2 11 3 12 4 13 5 14 6 15 7 16 8 17 9 18 10 8 11 7 12
REMARK SMILES IDX 6 13 5 14 4 15 3 16 2 17 1 18
REMARK H PARENT
REMARK Flexibility Score: inf
ROOT
ATOM      1  C   UNL     1     -11.286  39.228   8.093  1.00  0.00     0.000 C 
ENDROOT
BRANCH   1   2
ATOM      2  C   UNL     1     -11.709  37.814   8.527  1.00  0.00     0.000 C 
BRANCH   2   3
ATOM      3  C   UNL     1     -10.545  37.007   9.125  1.00  0.00     0.000 C 
BRANCH   3   4
ATOM      4  C   UNL     1     -10.901  35.525   9.338  1.00  0.00     0.000 C 
BRANCH   4   5
ATOM      5  C   UNL     1     -12.024  35.048   8.405  1.00  0.00     0.000 C 
BRANCH   5   6
ATOM      6  C   UNL     1     -12.021  33.522   8.209  1.00  0.00     0.006 C 
BRANCH   6   7
ATOM      7  C   UNL     1     -10.868  32.843   8.960  1.00  0.00     0.053 C 
BRANCH   7   8
ATOM      8  C   UNL     1     -11.350  32.097  10.166  1.00  0.00     0.041 C 
ATOM      9  O   UNL     1     -11.102  32.532  11.320  1.00  0.00    -0.550 OA
ATOM     10  O   UNL     1     -12.038  30.900  10.016  1.00  0.00    -0.550 OA
ENDBRANCH   7   8
ENDBRANCH   6   7
ENDBRANCH   5   6
ENDBRANCH   4   5
ENDBRANCH   3   4
ENDBRANCH   2   3
ENDBRANCH   1   2
BRANCH   1  11
ATOM     11  C   UNL     1     -11.822  39.600   6.702  1.00  0.00     0.000 C 
BRANCH  11  12
ATOM     12  C   UNL     1     -10.877  39.168   5.566  1.00  0.00    -0.000 C 
BRANCH  12  13
ATOM     13  C   UNL     1      -9.466  38.818   6.085  1.00  0.00    -0.000 C 
BRANCH  13  14
ATOM     14  C   UNL     1      -9.031  37.377   5.766  1.00  0.00    -0.000 C 
BRANCH  14  15
ATOM     15  C   UNL     1     -10.211  36.464   5.401  1.00  0.00    -0.000 C 
BRANCH  15  16
ATOM     16  C   UNL     1      -9.835  34.974   5.417  1.00  0.00    -0.000 C 
BRANCH  16  17
ATOM     17  C   UNL     1      -8.654  34.672   6.352  1.00  0.00    -0.003 C 
ATOM     18  C   UNL     1      -8.281  33.193   6.302  1.00  0.00     0.004 C 
ENDBRANCH  16  17
ENDBRANCH  15  16
ENDBRANCH  14  15
ENDBRANCH  13  14
ENDBRANCH  12  13
ENDBRANCH  11  12
ENDBRANCH   1  11
TORSDOF 14
ENDMDL
MODEL 9
REMARK VINA RESULT:    -4.263     13.996     16.234
REMARK INTER + INTRA:          -9.575
REMARK INTER:                  -7.303
REMARK INTRA:                  -2.272
REMARK UNBOUND:                -1.823
REMARK SMILES CCCCCCCCCCCCCCCC(=O)[O-]
REMARK SMILES IDX 9 1 10 2 11 3 12 4 13 5 14 6 15 7 16 8 17 9 18 10 8 11 7 12
REMARK SMILES IDX 6 13 5 14 4 15 3 16 2 17 1 18
REMARK H PARENT
REMARK Flexibility Score: inf
ROOT
ATOM      1  C   UNL     1       5.330  40.666   2.417  1.00  0.00     0.000 C 
ENDROOT
BRANCH   1   2
ATOM      2  C   UNL     1       3.815  40.397   2.380  1.00  0.00     0.000 C 
BRANCH   2   3
ATOM      3  C   UNL     1       2.986  41.691   2.376  1.00  0.00     0.000 C 
BRANCH   3   4
ATOM      4  C   UNL     1       1.511  41.447   2.007  1.00  0.00     0.000 C 
BRANCH   4   5
ATOM      5  C   UNL     1       0.612  42.643   2.350  1.00  0.00     0.000 C 
BRANCH   5   6
ATOM      6  C   UNL     1      -0.384  42.976   1.225  1.00  0.00     0.006 C 
BRANCH   6   7
ATOM      7  C   UNL     1      -0.383  41.913   0.118  1.00  0.00     0.053 C 
BRANCH   7   8
ATOM      8  C   UNL     1      -0.065  42.502  -1.221  1.00  0.00     0.041 C 
ATOM      9  O   UNL     1      -0.551  43.613  -1.556  1.00  0.00    -0.550 OA
ATOM     10  O   UNL     1       0.737  41.807  -2.116  1.00  0.00    -0.550 OA
ENDBRANCH   7   8
ENDBRANCH   6   7
ENDBRANCH   5   6
ENDBRANCH   4   5
ENDBRANCH   3   4
ENDBRANCH   2   3
ENDBRANCH   1   2
BRANCH   1  11
ATOM     11  C   UNL     1       6.053  40.127   1.173  1.00  0.00     0.000 C 
BRANCH  11  12
ATOM     12  C   UNL     1       6.717  41.240   0.342  1.00  0.00    -0.000 C 
BRANCH  12  13
ATOM     13  C   UNL     1       6.566  42.627   1.002  1.00  0.00    -0.000 C 
BRANCH  13  14
ATOM     14  C   UNL     1       5.727  43.617   0.174  1.00  0.00    -0.000 C 
BRANCH  14  15
ATOM     15  C   UNL     1       4.705  42.918  -0.735  1.00  0.00    -0.000 C 
BRANCH  15  16
ATOM     16  C   UNL     1       3.338  43.622  -0.738  1.00  0.00    -0.000 C 
BRANCH  16  17
ATOM     17  C   UNL     1       3.232  44.717   0.334  1.00  0.00    -0.003 C 
ATOM     18  C   UNL     1       2.008  45.597   0.100  1.00  0.00     0.004 C 
ENDBRANCH  16  17
ENDBRANCH  15  16
ENDBRANCH  14  15
ENDBRANCH  13  14
ENDBRANCH  12  13
ENDBRANCH  11  12
ENDBRANCH   1  11
TORSDOF 14
ENDMDL
