MODEL 1
REMARK VINA RESULT:    -2.928      0.000      0.000
REMARK INTER + INTRA:         -12.658
REMARK INTER:                  -7.720
REMARK INTRA:                  -4.939
REMARK UNBOUND:                -4.939
REMARK SMILES CCCCCCCCCCCCCCCCCCCCCCCCCCCCCC(=O)[O-]
REMARK SMILES IDX 16 1 17 2 18 3 19 4 20 5 21 6 22 7 23 8 24 9 25 10 26 11
REMARK SMILES IDX 27 12 28 13 29 14 30 15 31 16 32 17 15 18 14 19 13 20 12 21
REMARK SMILES IDX 11 22 10 23 9 24 8 25 7 26 6 27 5 28 4 29 3 30 2 31 1 32
REMARK H PARENT
REMARK Flexibility Score: inf
ROOT
ATOM      1  C   UNL     1       6.209   2.283   4.612  1.00  0.00     0.000 C 
ENDROOT
BRANCH   1   2
ATOM      2  C   UNL     1       7.516   1.630   4.119  1.00  0.00     0.000 C 
BRANCH   2   3
ATOM      3  C   UNL     1       8.135   0.602   5.080  1.00  0.00     0.000 C 
BRANCH   3   4
ATOM      4  C   UNL     1       9.270   1.187   5.935  1.00  0.00     0.000 C 
BRANCH   4   5
ATOM      5  C   UNL     1       8.941   1.071   7.431  1.00  0.00     0.000 C 
BRANCH   5   6
ATOM      6  C   UNL     1       7.488   0.644   7.692  1.00  0.00     0.000 C 
BRANCH   6   7
ATOM      7  C   UNL     1       7.392  -0.626   8.556  1.00  0.00     0.000 C 
BRANCH   7   8
ATOM      8  C   UNL     1       8.476  -1.663   8.217  1.00  0.00     0.000 C 
BRANCH   8   9
ATOM      9  C   UNL     1       8.161  -2.571   7.010  1.00  0.00     0.000 C 
BRANCH   9  10
ATOM     10  C   UNL     1       9.343  -2.746   6.034  1.00  0.00     0.000 C 
BRANCH  10  11
ATOM     11  C   UNL     1       9.505  -4.204   5.575  1.00  0.00     0.000 C 
BRANCH  11  12
ATOM     12  C   UNL     1       8.929  -5.176   6.614  1.00  0.00     0.000 C 
BRANCH  12  13
ATOM     13  C   UNL     1       8.058  -6.271   5.981  1.00  0.00     0.006 C 
BRANCH  13  14
ATOM     14  C   UNL     1       7.116  -6.940   6.990  1.00  0.00     0.053 C 
BRANCH  14  15
ATOM     15  C   UNL     1       6.840  -8.356   6.590  1.00  0.00     0.041 C 
ATOM     16  O   UNL     1       5.733  -8.889   6.870  1.00  0.00    -0.550 OA
ATOM     17  O   UNL     1       7.786  -9.071   5.868  1.00  0.00    -0.550 OA
ENDBRANCH  14  15
ENDBRANCH  13  14
ENDBRANCH  12  13
ENDBRANCH  11  12
ENDBRANCH  10  11
ENDBRANCH   9  10
ENDBRANCH   8   9
ENDBRANCH   7   8
ENDBRANCH   6   7
ENDBRANCH   5   6
ENDBRANCH   4   5
ENDBRANCH   3   4
ENDBRANCH   2   3
ENDBRANCH   1   2
BRANCH   1  18
ATOM     18  C   UNL     1       6.390   3.507   5.529  1.00  0.00     0.000 C 
BRANCH  18  19
ATOM     19  C   UNL     1       6.637   4.805   4.746  1.00  0.00     0.000 C 
BRANCH  19  20
ATOM     20  C   UNL     1       7.820   5.621   5.299  1.00  0.00     0.000 C 
BRANCH  20  21
ATOM     21  C   UNL     1       9.178   4.887   5.320  1.00  0.00     0.000 C 
BRANCH  21  22
ATOM     22  C   UNL     1       9.797   4.696   6.716  1.00  0.00     0.000 C 
BRANCH  22  23
ATOM     23  C   UNL     1       8.951   5.333   7.831  1.00  0.00     0.000 C 
BRANCH  23  24
ATOM     24  C   UNL     1       8.639   4.350   8.968  1.00  0.00    -0.000 C 
BRANCH  24  25
ATOM     25  C   UNL     1       7.182   4.448   9.449  1.00  0.00    -0.000 C 
BRANCH  25  26
ATOM     26  C   UNL     1       6.422   5.534   8.675  1.00  0.00    -0.000 C 
BRANCH  26  27
ATOM     27  C   UNL     1       4.958   5.155   8.397  1.00  0.00    -0.000 C 
BRANCH  27  28
ATOM     28  C   UNL     1       4.140   4.762   9.645  1.00  0.00    -0.000 C 
BRANCH  28  29
ATOM     29  C   UNL     1       3.664   3.294   9.640  1.00  0.00    -0.000 C 
BRANCH  29  30
ATOM     30  C   UNL     1       4.284   2.483   8.490  1.00  0.00    -0.000 C 
BRANCH  30  31
ATOM     31  C   UNL     1       3.379   1.334   8.020  1.00  0.00    -0.003 C 
ATOM     32  C   UNL     1       1.920   1.528   8.434  1.00  0.00     0.004 C 
ENDBRANCH  30  31
ENDBRANCH  29  30
ENDBRANCH  28  29
ENDBRANCH  27  28
ENDBRANCH  26  27
ENDBRANCH  25  26
ENDBRANCH  24  25
ENDBRANCH  23  24
ENDBRANCH  22  23
ENDBRANCH  21  22
ENDBRANCH  20  21
ENDBRANCH  19  20
ENDBRANCH  18  19
ENDBRANCH   1  18
TORSDOF 28
ENDMDL
MODEL 2
REMARK VINA RESULT:    -2.898      1.527      3.588
REMARK INTER + INTRA:         -12.581
REMARK INTER:                  -7.701
REMARK INTRA:                  -4.880
REMARK UNBOUND:                -4.939
REMARK SMILES CCCCCCCCCCCCCCCCCCCCCCCCCCCCCC(=O)[O-]
REMARK SMILES IDX 16 1 17 2 18 3 19 4 20 5 21 6 22 7 23 8 24 9 25 10 26 11
REMARK SMILES IDX 27 12 28 13 29 14 30 15 31 16 32 17 15 18 14 19 13 20 12 21
REMARK SMILES IDX 11 22 10 23 9 24 8 25 7 26 6 27 5 28 4 29 3 30 2 31 1 32
REMARK H PARENT
REMARK Flexibility Score: inf
ROOT
ATOM      1  C   UNL     1       9.879   0.117   3.752  1.00  0.00     0.000 C 
ENDROOT
BRANCH   1   2
ATOM      2  C   UNL     1       8.992  -1.036   4.264  1.00  0.00     0.000 C 
BRANCH   2   3
ATOM      3  C   UNL     1       9.712  -2.073   5.143  1.00  0.00     0.000 C 
BRANCH   3   4
ATOM      4  C   UNL     1       9.500  -1.835   6.646  1.00  0.00     0.000 C 
BRANCH   4   5
ATOM      5  C   UNL     1       8.003  -1.811   6.988  1.00  0.00     0.000 C 
BRANCH   5   6
ATOM      6  C   UNL     1       7.738  -1.696   8.498  1.00  0.00     0.000 C 
BRANCH   6   7
ATOM      7  C   UNL     1       8.482  -2.772   9.311  1.00  0.00     0.000 C 
BRANCH   7   8
ATOM      8  C   UNL     1       7.625  -4.021   9.574  1.00  0.00     0.000 C 
BRANCH   8   9
ATOM      9  C   UNL     1       8.070  -5.293   8.822  1.00  0.00     0.000 C 
BRANCH   9  10
ATOM     10  C   UNL     1       9.514  -5.227   8.283  1.00  0.00     0.000 C 
BRANCH  10  11
ATOM     11  C   UNL     1       9.584  -5.517   6.776  1.00  0.00     0.000 C 
BRANCH  11  12
ATOM     12  C   UNL     1       8.190  -5.452   6.136  1.00  0.00     0.000 C 
BRANCH  12  13
ATOM     13  C   UNL     1       7.830  -6.734   5.371  1.00  0.00     0.006 C 
BRANCH  13  14
ATOM     14  C   UNL     1       7.261  -7.830   6.281  1.00  0.00     0.053 C 
BRANCH  14  15
ATOM     15  C   UNL     1       8.135  -9.044   6.249  1.00  0.00     0.041 C 
ATOM     16  O   UNL     1       8.412  -9.654   7.316  1.00  0.00    -0.550 OA
ATOM     17  O   UNL     1       8.608  -9.529   5.036  1.00  0.00    -0.550 OA
ENDBRANCH  14  15
ENDBRANCH  13  14
ENDBRANCH  12  13
ENDBRANCH  11  12
ENDBRANCH  10  11
ENDBRANCH   9  10
ENDBRANCH   8   9
ENDBRANCH   7   8
ENDBRANCH   6   7
ENDBRANCH   5   6
ENDBRANCH   4   5
ENDBRANCH   3   4
ENDBRANCH   2   3
ENDBRANCH   1   2
BRANCH   1  18
ATOM     18  C   UNL     1       9.515   1.514   4.285  1.00  0.00     0.000 C 
BRANCH  18  19
ATOM     19  C   UNL     1       8.400   1.475   5.342  1.00  0.00     0.000 C 
BRANCH  19  20
ATOM     20  C   UNL     1       8.893   1.873   6.746  1.00  0.00     0.000 C 
BRANCH  20  21
ATOM     21  C   UNL     1       7.806   1.910   7.843  1.00  0.00     0.000 C 
BRANCH  21  22
ATOM     22  C   UNL     1       6.382   1.575   7.364  1.00  0.00     0.000 C 
BRANCH  22  23
ATOM     23  C   UNL     1       5.424   1.267   8.526  1.00  0.00     0.000 C 
BRANCH  23  24
ATOM     24  C   UNL     1       3.962   1.585   8.185  1.00  0.00    -0.000 C 
BRANCH  24  25
ATOM     25  C   UNL     1       3.386   2.714   9.055  1.00  0.00    -0.000 C 
BRANCH  25  26
ATOM     26  C   UNL     1       4.494   3.672   9.515  1.00  0.00    -0.000 C 
BRANCH  26  27
ATOM     27  C   UNL     1       4.112   5.152   9.347  1.00  0.00    -0.000 C 
BRANCH  27  28
ATOM     28  C   UNL     1       4.806   5.873   8.175  1.00  0.00    -0.000 C 
BRANCH  28  29
ATOM     29  C   UNL     1       5.840   5.000   7.431  1.00  0.00    -0.000 C 
BRANCH  29  30
ATOM     30  C   UNL     1       6.898   5.844   6.701  1.00  0.00    -0.000 C 
BRANCH  30  31
ATOM     31  C   UNL     1       7.504   5.116   5.491  1.00  0.00    -0.003 C 
ATOM     32  C   UNL     1       6.451   4.714   4.458  1.00  0.00     0.004 C 
ENDBRANCH  30  31
ENDBRANCH  29  30
ENDBRANCH  28  29
ENDBRANCH  27  28
ENDBRANCH  26  27
ENDBRANCH  25  26
ENDBRANCH  24  25
ENDBRANCH  23  24
ENDBRANCH  22  23
ENDBRANCH  21  22
ENDBRANCH  20  21
ENDBRANCH  19  20
ENDBRANCH  18  19
ENDBRANCH   1  18
TORSDOF 28
ENDMDL
MODEL 3
REMARK VINA RESULT:    -2.783      1.452      2.760
REMARK INTER + INTRA:         -12.276
REMARK INTER:                  -7.306
REMARK INTRA:                  -4.970
REMARK UNBOUND:                -4.939
REMARK SMILES CCCCCCCCCCCCCCCCCCCCCCCCCCCCCC(=O)[O-]
REMARK SMILES IDX 16 1 17 2 18 3 19 4 20 5 21 6 22 7 23 8 24 9 25 10 26 11
REMARK SMILES IDX 27 12 28 13 29 14 30 15 31 16 32 17 15 18 14 19 13 20 12 21
REMARK SMILES IDX 11 22 10 23 9 24 8 25 7 26 6 27 5 28 4 29 3 30 2 31 1 32
REMARK H PARENT
REMARK Flexibility Score: inf
ROOT
ATOM      1  C   UNL     1       6.281   3.048   4.959  1.00  0.00     0.000 C 
ENDROOT
BRANCH   1   2
ATOM      2  C   UNL     1       6.799   1.845   4.144  1.00  0.00     0.000 C 
BRANCH   2   3
ATOM      3  C   UNL     1       8.215   1.370   4.510  1.00  0.00     0.000 C 
BRANCH   3   4
ATOM      4  C   UNL     1       8.422  -0.134   4.276  1.00  0.00     0.000 C 
BRANCH   4   5
ATOM      5  C   UNL     1       8.370  -0.905   5.604  1.00  0.00     0.000 C 
BRANCH   5   6
ATOM      6  C   UNL     1       9.597  -0.648   6.492  1.00  0.00     0.000 C 
BRANCH   6   7
ATOM      7  C   UNL     1       9.432  -1.226   7.909  1.00  0.00     0.000 C 
BRANCH   7   8
ATOM      8  C   UNL     1       8.143  -2.051   8.072  1.00  0.00     0.000 C 
BRANCH   8   9
ATOM      9  C   UNL     1       8.067  -2.903   9.355  1.00  0.00     0.000 C 
BRANCH   9  10
ATOM     10  C   UNL     1       8.117  -4.424   9.100  1.00  0.00     0.000 C 
BRANCH  10  11
ATOM     11  C   UNL     1       9.492  -4.882   8.590  1.00  0.00     0.000 C 
BRANCH  11  12
ATOM     12  C   UNL     1       9.353  -5.749   7.331  1.00  0.00     0.000 C 
BRANCH  12  13
ATOM     13  C   UNL     1       8.207  -5.287   6.418  1.00  0.00     0.006 C 
BRANCH  13  14
ATOM     14  C   UNL     1       7.515  -6.451   5.696  1.00  0.00     0.053 C 
BRANCH  14  15
ATOM     15  C   UNL     1       8.484  -7.171   4.813  1.00  0.00     0.041 C 
ATOM     16  O   UNL     1       9.164  -6.533   3.965  1.00  0.00    -0.550 OA
ATOM     17  O   UNL     1       8.672  -8.539   4.956  1.00  0.00    -0.550 OA
ENDBRANCH  14  15
ENDBRANCH  13  14
ENDBRANCH  12  13
ENDBRANCH  11  12
ENDBRANCH  10  11
ENDBRANCH   9  10
ENDBRANCH   8   9
ENDBRANCH   7   8
ENDBRANCH   6   7
ENDBRANCH   5   6
ENDBRANCH   4   5
ENDBRANCH   3   4
ENDBRANCH   2   3
ENDBRANCH   1   2
BRANCH   1  18
ATOM     18  C   UNL     1       6.394   4.414   4.259  1.00  0.00     0.000 C 
BRANCH  18  19
ATOM     19  C   UNL     1       7.228   5.426   5.061  1.00  0.00     0.000 C 
BRANCH  19  20
ATOM     20  C   UNL     1       8.669   4.946   5.313  1.00  0.00     0.000 C 
BRANCH  20  21
ATOM     21  C   UNL     1       9.030   4.686   6.792  1.00  0.00     0.000 C 
BRANCH  21  22
ATOM     22  C   UNL     1       9.587   3.283   7.092  1.00  0.00     0.000 C 
BRANCH  22  23
ATOM     23  C   UNL     1       8.910   2.624   8.305  1.00  0.00     0.000 C 
BRANCH  23  24
ATOM     24  C   UNL     1       7.394   2.468   8.120  1.00  0.00    -0.000 C 
BRANCH  24  25
ATOM     25  C   UNL     1       6.855   1.173   8.749  1.00  0.00    -0.000 C 
BRANCH  25  26
ATOM     26  C   UNL     1       5.328   1.090   8.610  1.00  0.00    -0.000 C 
BRANCH  26  27
ATOM     27  C   UNL     1       4.691   2.433   8.217  1.00  0.00    -0.000 C 
BRANCH  27  28
ATOM     28  C   UNL     1       3.899   3.130   9.342  1.00  0.00    -0.000 C 
BRANCH  28  29
ATOM     29  C   UNL     1       4.175   4.645   9.451  1.00  0.00    -0.000 C 
BRANCH  29  30
ATOM     30  C   UNL     1       4.890   5.198   8.207  1.00  0.00    -0.000 C 
BRANCH  30  31
ATOM     31  C   UNL     1       6.188   5.944   8.552  1.00  0.00    -0.003 C 
ATOM     32  C   UNL     1       6.366   6.148  10.057  1.00  0.00     0.004 C 
ENDBRANCH  30  31
ENDBRANCH  29  30
ENDBRANCH  28  29
ENDBRANCH  27  28
ENDBRANCH  26  27
ENDBRANCH  25  26
ENDBRANCH  24  25
ENDBRANCH  23  24
ENDBRANCH  22  23
ENDBRANCH  21  22
ENDBRANCH  20  21
ENDBRANCH  19  20
ENDBRANCH  18  19
ENDBRANCH   1  18
TORSDOF 28
ENDMDL
MODEL 4
REMARK VINA RESULT:    -2.744      3.131      7.945
REMARK INTER + INTRA:         -12.173
REMARK INTER:                  -7.834
REMARK INTRA:                  -4.339
REMARK UNBOUND:                -4.939
REMARK SMILES CCCCCCCCCCCCCCCCCCCCCCCCCCCCCC(=O)[O-]
REMARK SMILES IDX 16 1 17 2 18 3 19 4 20 5 21 6 22 7 23 8 24 9 25 10 26 11
REMARK SMILES IDX 27 12 28 13 29 14 30 15 31 16 32 17 15 18 14 19 13 20 12 21
REMARK SMILES IDX 11 22 10 23 9 24 8 25 7 26 6 27 5 28 4 29 3 30 2 31 1 32
REMARK H PARENT
REMARK Flexibility Score: inf
ROOT
ATOM      1  C   UNL     1       7.118   1.502   4.167  1.00  0.00     0.000 C 
ENDROOT
BRANCH   1   2
ATOM      2  C   UNL     1       6.560   2.714   4.941  1.00  0.00     0.000 C 
BRANCH   2   3
ATOM      3  C   UNL     1       6.283   3.963   4.087  1.00  0.00     0.000 C 
BRANCH   3   4
ATOM      4  C   UNL     1       6.612   5.274   4.818  1.00  0.00     0.000 C 
BRANCH   4   5
ATOM      5  C   UNL     1       8.103   5.334   5.184  1.00  0.00     0.000 C 
BRANCH   5   6
ATOM      6  C   UNL     1       8.374   6.170   6.445  1.00  0.00     0.000 C 
BRANCH   6   7
ATOM      7  C   UNL     1       9.078   5.362   7.550  1.00  0.00     0.000 C 
BRANCH   7   8
ATOM      8  C   UNL     1       9.156   3.859   7.233  1.00  0.00     0.000 C 
BRANCH   8   9
ATOM      9  C   UNL     1       8.320   2.949   8.156  1.00  0.00     0.000 C 
BRANCH   9  10
ATOM     10  C   UNL     1       6.845   3.380   8.288  1.00  0.00     0.000 C 
BRANCH  10  11
ATOM     11  C   UNL     1       6.062   2.479   9.256  1.00  0.00     0.000 C 
BRANCH  11  12
ATOM     12  C   UNL     1       5.595   1.194   8.558  1.00  0.00     0.000 C 
BRANCH  12  13
ATOM     13  C   UNL     1       4.225   0.713   9.059  1.00  0.00     0.006 C 
BRANCH  13  14
ATOM     14  C   UNL     1       3.218   1.857   9.231  1.00  0.00     0.053 C 
BRANCH  14  15
ATOM     15  C   UNL     1       1.965   1.573   8.464  1.00  0.00     0.041 C 
ATOM     16  O   UNL     1       2.028   1.204   7.261  1.00  0.00    -0.550 OA
ATOM     17  O   UNL     1       0.729   1.670   9.090  1.00  0.00    -0.550 OA
ENDBRANCH  14  15
ENDBRANCH  13  14
ENDBRANCH  12  13
ENDBRANCH  11  12
ENDBRANCH  10  11
ENDBRANCH   9  10
ENDBRANCH   8   9
ENDBRANCH   7   8
ENDBRANCH   6   7
ENDBRANCH   5   6
ENDBRANCH   4   5
ENDBRANCH   3   4
ENDBRANCH   2   3
ENDBRANCH   1   2
BRANCH   1  18
ATOM     18  C   UNL     1       8.578   1.134   4.487  1.00  0.00     0.000 C 
BRANCH  18  19
ATOM     19  C   UNL     1       8.899  -0.339   4.187  1.00  0.00     0.000 C 
BRANCH  19  20
ATOM     20  C   UNL     1       9.431  -1.097   5.418  1.00  0.00     0.000 C 
BRANCH  20  21
ATOM     21  C   UNL     1       9.847  -0.211   6.612  1.00  0.00     0.000 C 
BRANCH  21  22
ATOM     22  C   UNL     1       9.013  -0.403   7.891  1.00  0.00     0.000 C 
BRANCH  22  23
ATOM     23  C   UNL     1       7.921  -1.472   7.731  1.00  0.00     0.000 C 
BRANCH  23  24
ATOM     24  C   UNL     1       7.603  -2.192   9.049  1.00  0.00    -0.000 C 
BRANCH  24  25
ATOM     25  C   UNL     1       7.942  -3.691   8.998  1.00  0.00    -0.000 C 
BRANCH  25  26
ATOM     26  C   UNL     1       9.425  -3.907   8.666  1.00  0.00    -0.000 C 
BRANCH  26  27
ATOM     27  C   UNL     1       9.637  -4.836   7.459  1.00  0.00    -0.000 C 
BRANCH  27  28
ATOM     28  C   UNL     1       8.587  -4.694   6.337  1.00  0.00    -0.000 C 
BRANCH  28  29
ATOM     29  C   UNL     1       7.882  -6.018   5.974  1.00  0.00    -0.000 C 
BRANCH  29  30
ATOM     30  C   UNL     1       7.940  -7.043   7.118  1.00  0.00    -0.000 C 
BRANCH  30  31
ATOM     31  C   UNL     1       6.636  -7.842   7.264  1.00  0.00    -0.003 C 
ATOM     32  C   UNL     1       5.540  -7.054   7.982  1.00  0.00     0.004 C 
ENDBRANCH  30  31
ENDBRANCH  29  30
ENDBRANCH  28  29
ENDBRANCH  27  28
ENDBRANCH  26  27
ENDBRANCH  25  26
ENDBRANCH  24  25
ENDBRANCH  23  24
ENDBRANCH  22  23
ENDBRANCH  21  22
ENDBRANCH  20  21
ENDBRANCH  19  20
ENDBRANCH  18  19
ENDBRANCH   1  18
TORSDOF 28
ENDMDL
MODEL 5
REMARK VINA RESULT:    -2.669      1.617      3.948
REMARK INTER + INTRA:         -11.977
REMARK INTER:                  -8.296
REMARK INTRA:                  -3.681
REMARK UNBOUND:                -4.939
REMARK SMILES CCCCCCCCCCCCCCCCCCCCCCCCCCCCCC(=O)[O-]
REMARK SMILES IDX 16 1 17 2 18 3 19 4 20 5 21 6 22 7 23 8 24 9 25 10 26 11
REMARK SMILES IDX 27 12 28 13 29 14 30 15 31 16 32 17 15 18 14 19 13 20 12 21
REMARK SMILES IDX 11 22 10 23 9 24 8 25 7 26 6 27 5 28 4 29 3 30 2 31 1 32
REMARK H PARENT
REMARK Flexibility Score: inf
ROOT
ATOM      1  C   UNL     1       6.676   2.250   4.831  1.00  0.00     0.000 C 
ENDROOT
BRANCH   1   2
ATOM      2  C   UNL     1       8.032   1.625   4.441  1.00  0.00     0.000 C 
BRANCH   2   3
ATOM      3  C   UNL     1       8.123   0.100   4.621  1.00  0.00     0.000 C 
BRANCH   3   4
ATOM      4  C   UNL     1       9.379  -0.506   3.975  1.00  0.00     0.000 C 
BRANCH   4   5
ATOM      5  C   UNL     1       9.815  -1.778   4.718  1.00  0.00     0.000 C 
BRANCH   5   6
ATOM      6  C   UNL     1       8.973  -2.054   5.973  1.00  0.00     0.000 C 
BRANCH   6   7
ATOM      7  C   UNL     1       9.070  -3.518   6.439  1.00  0.00     0.000 C 
BRANCH   7   8
ATOM      8  C   UNL     1       9.802  -4.419   5.430  1.00  0.00     0.000 C 
BRANCH   8   9
ATOM      9  C   UNL     1       9.182  -5.817   5.226  1.00  0.00     0.000 C 
BRANCH   9  10
ATOM     10  C   UNL     1       7.878  -6.043   6.019  1.00  0.00     0.000 C 
BRANCH  10  11
ATOM     11  C   UNL     1       7.453  -7.519   6.028  1.00  0.00     0.000 C 
BRANCH  11  12
ATOM     12  C   UNL     1       7.278  -8.034   7.464  1.00  0.00     0.000 C 
BRANCH  12  13
ATOM     13  C   UNL     1       6.003  -7.500   8.133  1.00  0.00     0.006 C 
BRANCH  13  14
ATOM     14  C   UNL     1       4.749  -7.701   7.271  1.00  0.00     0.053 C 
BRANCH  14  15
ATOM     15  C   UNL     1       3.978  -8.894   7.739  1.00  0.00     0.041 C 
ATOM     16  O   UNL     1       4.446  -9.638   8.641  1.00  0.00    -0.550 OA
ATOM     17  O   UNL     1       2.720  -9.159   7.212  1.00  0.00    -0.550 OA
ENDBRANCH  14  15
ENDBRANCH  13  14
ENDBRANCH  12  13
ENDBRANCH  11  12
ENDBRANCH  10  11
ENDBRANCH   9  10
ENDBRANCH   8   9
ENDBRANCH   7   8
ENDBRANCH   6   7
ENDBRANCH   5   6
ENDBRANCH   4   5
ENDBRANCH   3   4
ENDBRANCH   2   3
ENDBRANCH   1   2
BRANCH   1  18
ATOM     18  C   UNL     1       6.752   3.408   5.842  1.00  0.00     0.000 C 
BRANCH  18  19
ATOM     19  C   UNL     1       8.058   3.406   6.651  1.00  0.00     0.000 C 
BRANCH  19  20
ATOM     20  C   UNL     1       7.892   2.789   8.053  1.00  0.00     0.000 C 
BRANCH  20  21
ATOM     21  C   UNL     1       8.314   1.310   8.178  1.00  0.00     0.000 C 
BRANCH  21  22
ATOM     22  C   UNL     1       7.159   0.293   8.129  1.00  0.00     0.000 C 
BRANCH  22  23
ATOM     23  C   UNL     1       6.270   0.347   9.382  1.00  0.00     0.000 C 
BRANCH  23  24
ATOM     24  C   UNL     1       4.775   0.419   9.041  1.00  0.00    -0.000 C 
BRANCH  24  25
ATOM     25  C   UNL     1       4.407   1.700   8.273  1.00  0.00    -0.000 C 
BRANCH  25  26
ATOM     26  C   UNL     1       3.391   2.538   9.060  1.00  0.00    -0.000 C 
BRANCH  26  27
ATOM     27  C   UNL     1       3.988   3.850   9.597  1.00  0.00    -0.000 C 
BRANCH  27  28
ATOM     28  C   UNL     1       4.726   4.705   8.547  1.00  0.00    -0.000 C 
BRANCH  28  29
ATOM     29  C   UNL     1       4.330   6.197   8.569  1.00  0.00    -0.000 C 
BRANCH  29  30
ATOM     30  C   UNL     1       5.555   7.125   8.614  1.00  0.00    -0.000 C 
BRANCH  30  31
ATOM     31  C   UNL     1       6.847   6.382   8.987  1.00  0.00    -0.003 C 
ATOM     32  C   UNL     1       8.030   6.779   8.102  1.00  0.00     0.004 C 
ENDBRANCH  30  31
ENDBRANCH  29  30
ENDBRANCH  28  29
ENDBRANCH  27  28
ENDBRANCH  26  27
ENDBRANCH  25  26
ENDBRANCH  24  25
ENDBRANCH  23  24
ENDBRANCH  22  23
ENDBRANCH  21  22
ENDBRANCH  20  21
ENDBRANCH  19  20
ENDBRANCH  18  19
ENDBRANCH   1  18
TORSDOF 28
ENDMDL
MODEL 6
REMARK VINA RESULT:    -2.614      3.228      9.176
REMARK INTER + INTRA:         -11.831
REMARK INTER:                  -7.202
REMARK INTRA:                  -4.629
REMARK UNBOUND:                -4.939
REMARK SMILES CCCCCCCCCCCCCCCCCCCCCCCCCCCCCC(=O)[O-]
REMARK SMILES IDX 16 1 17 2 18 3 19 4 20 5 21 6 22 7 23 8 24 9 25 10 26 11
REMARK SMILES IDX 27 12 28 13 29 14 30 15 31 16 32 17 15 18 14 19 13 20 12 21
REMARK SMILES IDX 11 22 10 23 9 24 8 25 7 26 6 27 5 28 4 29 3 30 2 31 1 32
REMARK H PARENT
REMARK Flexibility Score: inf
ROOT
ATOM      1  C   UNL     1       7.490  -1.638   8.317  1.00  0.00     0.000 C 
ENDROOT
BRANCH   1   2
ATOM      2  C   UNL     1       7.892  -0.516   9.296  1.00  0.00     0.000 C 
BRANCH   2   3
ATOM      3  C   UNL     1       6.762   0.458   9.671  1.00  0.00     0.000 C 
BRANCH   3   4
ATOM      4  C   UNL     1       5.642   0.510   8.621  1.00  0.00     0.000 C 
BRANCH   4   5
ATOM      5  C   UNL     1       4.283   0.779   9.286  1.00  0.00     0.000 C 
BRANCH   5   6
ATOM      6  C   UNL     1       3.533   1.961   8.653  1.00  0.00     0.000 C 
BRANCH   6   7
ATOM      7  C   UNL     1       3.840   3.298   9.353  1.00  0.00     0.000 C 
BRANCH   7   8
ATOM      8  C   UNL     1       4.896   4.133   8.608  1.00  0.00     0.000 C 
BRANCH   8   9
ATOM      9  C   UNL     1       5.940   4.825   9.508  1.00  0.00     0.000 C 
BRANCH   9  10
ATOM     10  C   UNL     1       7.393   4.389   9.230  1.00  0.00     0.000 C 
BRANCH  10  11
ATOM     11  C   UNL     1       7.597   3.946   7.773  1.00  0.00     0.000 C 
BRANCH  11  12
ATOM     12  C   UNL     1       8.687   2.869   7.671  1.00  0.00     0.000 C 
BRANCH  12  13
ATOM     13  C   UNL     1       8.506   1.957   6.449  1.00  0.00     0.006 C 
BRANCH  13  14
ATOM     14  C   UNL     1       7.114   2.080   5.815  1.00  0.00     0.053 C 
BRANCH  14  15
ATOM     15  C   UNL     1       7.193   1.883   4.334  1.00  0.00     0.041 C 
ATOM     16  O   UNL     1       8.175   1.279   3.826  1.00  0.00    -0.550 OA
ATOM     17  O   UNL     1       6.160   2.326   3.518  1.00  0.00    -0.550 OA
ENDBRANCH  14  15
ENDBRANCH  13  14
ENDBRANCH  12  13
ENDBRANCH  11  12
ENDBRANCH  10  11
ENDBRANCH   9  10
ENDBRANCH   8   9
ENDBRANCH   7   8
ENDBRANCH   6   7
ENDBRANCH   5   6
ENDBRANCH   4   5
ENDBRANCH   3   4
ENDBRANCH   2   3
ENDBRANCH   1   2
BRANCH   1  18
ATOM     18  C   UNL     1       8.228  -1.629   6.966  1.00  0.00     0.000 C 
BRANCH  18  19
ATOM     19  C   UNL     1       9.737  -1.881   7.112  1.00  0.00     0.000 C 
BRANCH  19  20
ATOM     20  C   UNL     1      10.125  -3.351   6.865  1.00  0.00     0.000 C 
BRANCH  20  21
ATOM     21  C   UNL     1       9.085  -4.187   6.088  1.00  0.00     0.000 C 
BRANCH  21  22
ATOM     22  C   UNL     1       8.382  -5.283   6.909  1.00  0.00     0.000 C 
BRANCH  22  23
ATOM     23  C   UNL     1       9.207  -5.734   8.125  1.00  0.00     0.000 C 
BRANCH  23  24
ATOM     24  C   UNL     1       8.614  -5.244   9.454  1.00  0.00    -0.000 C 
BRANCH  24  25
ATOM     25  C   UNL     1       7.086  -5.092   9.396  1.00  0.00    -0.000 C 
BRANCH  25  26
ATOM     26  C   UNL     1       6.388  -6.385   9.838  1.00  0.00    -0.000 C 
BRANCH  26  27
ATOM     27  C   UNL     1       5.066  -6.635   9.094  1.00  0.00    -0.000 C 
BRANCH  27  28
ATOM     28  C   UNL     1       5.219  -7.227   7.678  1.00  0.00    -0.000 C 
BRANCH  28  29
ATOM     29  C   UNL     1       4.670  -8.664   7.542  1.00  0.00    -0.000 C 
BRANCH  29  30
ATOM     30  C   UNL     1       5.744  -9.656   7.068  1.00  0.00    -0.000 C 
BRANCH  30  31
ATOM     31  C   UNL     1       7.168  -9.204   7.428  1.00  0.00    -0.003 C 
ATOM     32  C   UNL     1       8.038  -8.962   6.194  1.00  0.00     0.004 C 
ENDBRANCH  30  31
ENDBRANCH  29  30
ENDBRANCH  28  29
ENDBRANCH  27  28
ENDBRANCH  26  27
ENDBRANCH  25  26
ENDBRANCH  24  25
ENDBRANCH  23  24
ENDBRANCH  22  23
ENDBRANCH  21  22
ENDBRANCH  20  21
ENDBRANCH  19  20
ENDBRANCH  18  19
ENDBRANCH   1  18
TORSDOF 28
ENDMDL
MODEL 7
REMARK VINA RESULT:    -2.539      1.322      2.982
REMARK INTER + INTRA:         -11.633
REMARK INTER:                  -7.074
REMARK INTRA:                  -4.559
REMARK UNBOUND:                -4.939
REMARK SMILES CCCCCCCCCCCCCCCCCCCCCCCCCCCCCC(=O)[O-]
REMARK SMILES IDX 16 1 17 2 18 3 19 4 20 5 21 6 22 7 23 8 24 9 25 10 26 11
REMARK SMILES IDX 27 12 28 13 29 14 30 15 31 16 32 17 15 18 14 19 13 20 12 21
REMARK SMILES IDX 11 22 10 23 9 24 8 25 7 26 6 27 5 28 4 29 3 30 2 31 1 32
REMARK H PARENT
REMARK Flexibility Score: inf
ROOT
ATOM      1  C   UNL     1       6.362   2.565   4.996  1.00  0.00     0.000 C 
ENDROOT
BRANCH   1   2
ATOM      2  C   UNL     1       7.253   1.682   4.099  1.00  0.00     0.000 C 
BRANCH   2   3
ATOM      3  C   UNL     1       8.402   0.964   4.827  1.00  0.00     0.000 C 
BRANCH   3   4
ATOM      4  C   UNL     1       8.529  -0.516   4.433  1.00  0.00     0.000 C 
BRANCH   4   5
ATOM      5  C   UNL     1       8.530  -1.414   5.679  1.00  0.00     0.000 C 
BRANCH   5   6
ATOM      6  C   UNL     1       9.907  -1.491   6.358  1.00  0.00     0.000 C 
BRANCH   6   7
ATOM      7  C   UNL     1       9.857  -2.219   7.714  1.00  0.00     0.000 C 
BRANCH   7   8
ATOM      8  C   UNL     1       8.660  -3.177   7.834  1.00  0.00     0.000 C 
BRANCH   8   9
ATOM      9  C   UNL     1       8.924  -4.458   8.651  1.00  0.00     0.000 C 
BRANCH   9  10
ATOM     10  C   UNL     1       8.831  -5.758   7.824  1.00  0.00     0.000 C 
BRANCH  10  11
ATOM     11  C   UNL     1       8.348  -5.499   6.389  1.00  0.00     0.000 C 
BRANCH  11  12
ATOM     12  C   UNL     1       7.093  -6.325   6.071  1.00  0.00     0.000 C 
BRANCH  12  13
ATOM     13  C   UNL     1       6.403  -6.863   7.334  1.00  0.00     0.006 C 
BRANCH  13  14
ATOM     14  C   UNL     1       5.416  -7.999   7.035  1.00  0.00     0.053 C 
BRANCH  14  15
ATOM     15  C   UNL     1       6.034  -9.325   7.349  1.00  0.00     0.041 C 
ATOM     16  O   UNL     1       5.374 -10.386   7.187  1.00  0.00    -0.550 OA
ATOM     17  O   UNL     1       7.354  -9.393   7.776  1.00  0.00    -0.550 OA
ENDBRANCH  14  15
ENDBRANCH  13  14
ENDBRANCH  12  13
ENDBRANCH  11  12
ENDBRANCH  10  11
ENDBRANCH   9  10
ENDBRANCH   8   9
ENDBRANCH   7   8
ENDBRANCH   6   7
ENDBRANCH   5   6
ENDBRANCH   4   5
ENDBRANCH   3   4
ENDBRANCH   2   3
ENDBRANCH   1   2
BRANCH   1  18
ATOM     18  C   UNL     1       6.542   4.083   4.813  1.00  0.00     0.000 C 
BRANCH  18  19
ATOM     19  C   UNL     1       6.934   4.797   6.116  1.00  0.00     0.000 C 
BRANCH  19  20
ATOM     20  C   UNL     1       8.257   4.275   6.709  1.00  0.00     0.000 C 
BRANCH  20  21
ATOM     21  C   UNL     1       8.135   3.561   8.072  1.00  0.00     0.000 C 
BRANCH  21  22
ATOM     22  C   UNL     1       9.226   2.514   8.362  1.00  0.00     0.000 C 
BRANCH  22  23
ATOM     23  C   UNL     1       8.650   1.109   8.598  1.00  0.00     0.000 C 
BRANCH  23  24
ATOM     24  C   UNL     1       7.178   0.996   8.176  1.00  0.00    -0.000 C 
BRANCH  24  25
ATOM     25  C   UNL     1       6.520  -0.301   8.673  1.00  0.00    -0.000 C 
BRANCH  25  26
ATOM     26  C   UNL     1       5.257   0.004   9.491  1.00  0.00    -0.000 C 
BRANCH  26  27
ATOM     27  C   UNL     1       4.221   0.825   8.705  1.00  0.00    -0.000 C 
BRANCH  27  28
ATOM     28  C   UNL     1       3.725   2.099   9.420  1.00  0.00    -0.000 C 
BRANCH  28  29
ATOM     29  C   UNL     1       4.271   3.408   8.811  1.00  0.00    -0.000 C 
BRANCH  29  30
ATOM     30  C   UNL     1       5.063   4.240   9.833  1.00  0.00    -0.000 C 
BRANCH  30  31
ATOM     31  C   UNL     1       5.439   5.632   9.299  1.00  0.00    -0.003 C 
ATOM     32  C   UNL     1       4.373   6.212   8.369  1.00  0.00     0.004 C 
ENDBRANCH  30  31
ENDBRANCH  29  30
ENDBRANCH  28  29
ENDBRANCH  27  28
ENDBRANCH  26  27
ENDBRANCH  25  26
ENDBRANCH  24  25
ENDBRANCH  23  24
ENDBRANCH  22  23
ENDBRANCH  21  22
ENDBRANCH  20  21
ENDBRANCH  19  20
ENDBRANCH  18  19
ENDBRANCH   1  18
TORSDOF 28
ENDMDL
MODEL 8
REMARK VINA RESULT:    -2.538      1.956      4.843
REMARK INTER + INTRA:         -11.632
REMARK INTER:                  -6.989
REMARK INTRA:                  -4.643
REMARK UNBOUND:                -4.939
REMARK SMILES CCCCCCCCCCCCCCCCCCCCCCCCCCCCCC(=O)[O-]
REMARK SMILES IDX 16 1 17 2 18 3 19 4 20 5 21 6 22 7 23 8 24 9 25 10 26 11
REMARK SMILES IDX 27 12 28 13 29 14 30 15 31 16 32 17 15 18 14 19 13 20 12 21
REMARK SMILES IDX 11 22 10 23 9 24 8 25 7 26 6 27 5 28 4 29 3 30 2 31 1 32
REMARK H PARENT
REMARK Flexibility Score: inf
ROOT
ATOM      1  C   UNL     1       8.251  -1.128   6.368  1.00  0.00     0.000 C 
ENDROOT
BRANCH   1   2
ATOM      2  C   UNL     1       9.280  -1.933   5.549  1.00  0.00     0.000 C 
BRANCH   2   3
ATOM      3  C   UNL     1       9.498  -3.382   6.018  1.00  0.00     0.000 C 
BRANCH   3   4
ATOM      4  C   UNL     1       8.648  -3.749   7.244  1.00  0.00     0.000 C 
BRANCH   4   5
ATOM      5  C   UNL     1       9.515  -3.812   8.510  1.00  0.00     0.000 C 
BRANCH   5   6
ATOM      6  C   UNL     1       8.701  -4.126   9.775  1.00  0.00     0.000 C 
BRANCH   6   7
ATOM      7  C   UNL     1       7.366  -4.827   9.460  1.00  0.00     0.000 C 
BRANCH   7   8
ATOM      8  C   UNL     1       7.245  -6.209  10.124  1.00  0.00     0.000 C 
BRANCH   8   9
ATOM      9  C   UNL     1       8.393  -7.191   9.810  1.00  0.00     0.000 C 
BRANCH   9  10
ATOM     10  C   UNL     1       8.653  -7.387   8.302  1.00  0.00     0.000 C 
BRANCH  10  11
ATOM     11  C   UNL     1       7.526  -8.176   7.617  1.00  0.00     0.000 C 
BRANCH  11  12
ATOM     12  C   UNL     1       6.657  -7.255   6.749  1.00  0.00     0.000 C 
BRANCH  12  13
ATOM     13  C   UNL     1       5.156  -7.417   7.032  1.00  0.00     0.006 C 
BRANCH  13  14
ATOM     14  C   UNL     1       4.872  -8.310   8.247  1.00  0.00     0.053 C 
BRANCH  14  15
ATOM     15  C   UNL     1       3.931  -9.413   7.877  1.00  0.00     0.041 C 
ATOM     16  O   UNL     1       4.210 -10.608   8.164  1.00  0.00    -0.550 OA
ATOM     17  O   UNL     1       2.723  -9.117   7.257  1.00  0.00    -0.550 OA
ENDBRANCH  14  15
ENDBRANCH  13  14
ENDBRANCH  12  13
ENDBRANCH  11  12
ENDBRANCH  10  11
ENDBRANCH   9  10
ENDBRANCH   8   9
ENDBRANCH   7   8
ENDBRANCH   6   7
ENDBRANCH   5   6
ENDBRANCH   4   5
ENDBRANCH   3   4
ENDBRANCH   2   3
ENDBRANCH   1   2
BRANCH   1  18
ATOM     18  C   UNL     1       8.585   0.362   6.563  1.00  0.00     0.000 C 
BRANCH  18  19
ATOM     19  C   UNL     1       9.140   0.668   7.963  1.00  0.00     0.000 C 
BRANCH  19  20
ATOM     20  C   UNL     1       8.696  -0.360   9.020  1.00  0.00     0.000 C 
BRANCH  20  21
ATOM     21  C   UNL     1       7.468   0.046   9.864  1.00  0.00     0.000 C 
BRANCH  21  22
ATOM     22  C   UNL     1       6.179  -0.739   9.563  1.00  0.00     0.000 C 
BRANCH  22  23
ATOM     23  C   UNL     1       4.990   0.179   9.237  1.00  0.00     0.000 C 
BRANCH  23  24
ATOM     24  C   UNL     1       5.377   1.336   8.305  1.00  0.00    -0.000 C 
BRANCH  24  25
ATOM     25  C   UNL     1       4.510   2.586   8.527  1.00  0.00    -0.000 C 
BRANCH  25  26
ATOM     26  C   UNL     1       5.341   3.866   8.365  1.00  0.00    -0.000 C 
BRANCH  26  27
ATOM     27  C   UNL     1       6.854   3.595   8.332  1.00  0.00    -0.000 C 
BRANCH  27  28
ATOM     28  C   UNL     1       7.612   4.280   7.176  1.00  0.00    -0.000 C 
BRANCH  28  29
ATOM     29  C   UNL     1       6.693   5.034   6.190  1.00  0.00    -0.000 C 
BRANCH  29  30
ATOM     30  C   UNL     1       7.082   4.783   4.724  1.00  0.00    -0.000 C 
BRANCH  30  31
ATOM     31  C   UNL     1       6.143   3.787   4.025  1.00  0.00    -0.003 C 
ATOM     32  C   UNL     1       6.150   2.409   4.688  1.00  0.00     0.004 C 
ENDBRANCH  30  31
ENDBRANCH  29  30
ENDBRANCH  28  29
ENDBRANCH  27  28
ENDBRANCH  26  27
ENDBRANCH  25  26
ENDBRANCH  24  25
ENDBRANCH  23  24
ENDBRANCH  22  23
ENDBRANCH  21  22
ENDBRANCH  20  21
ENDBRANCH  19  20
ENDBRANCH  18  19
ENDBRANCH   1  18
TORSDOF 28
ENDMDL
MODEL 9
REMARK VINA RESULT:    -2.530      2.372      6.309
REMARK INTER + INTRA:         -11.610
REMARK INTER:                  -7.083
REMARK INTRA:                  -4.527
REMARK UNBOUND:                -4.939
REMARK SMILES CCCCCCCCCCCCCCCCCCCCCCCCCCCCCC(=O)[O-]
REMARK SMILES IDX 16 1 17 2 18 3 19 4 20 5 21 6 22 7 23 8 24 9 25 10 26 11
REMARK SMILES IDX 27 12 28 13 29 14 30 15 31 16 32 17 15 18 14 19 13 20 12 21
REMARK SMILES IDX 11 22 10 23 9 24 8 25 7 26 6 27 5 28 4 29 3 30 2 31 1 32
REMARK H PARENT
REMARK Flexibility Score: inf
ROOT
ATOM      1  C   UNL     1       7.603  -4.935   9.104  1.00  0.00     0.000 C 
ENDROOT
BRANCH   1   2
ATOM      2  C   UNL     1       9.056  -5.395   8.864  1.00  0.00     0.000 C 
BRANCH   2   3
ATOM      3  C   UNL     1       9.570  -5.210   7.426  1.00  0.00     0.000 C 
BRANCH   3   4
ATOM      4  C   UNL     1       8.445  -5.214   6.382  1.00  0.00     0.000 C 
BRANCH   4   5
ATOM      5  C   UNL     1       8.824  -6.084   5.173  1.00  0.00     0.000 C 
BRANCH   5   6
ATOM      6  C   UNL     1       9.920  -7.112   5.499  1.00  0.00     0.000 C 
BRANCH   6   7
ATOM      7  C   UNL     1       9.370  -8.545   5.612  1.00  0.00     0.000 C 
BRANCH   7   8
ATOM      8  C   UNL     1       9.264  -9.031   7.068  1.00  0.00     0.000 C 
BRANCH   8   9
ATOM      9  C   UNL     1       7.911  -8.753   7.756  1.00  0.00     0.000 C 
BRANCH   9  10
ATOM     10  C   UNL     1       6.717  -8.685   6.781  1.00  0.00     0.000 C 
BRANCH  10  11
ATOM     11  C   UNL     1       5.743  -7.550   7.135  1.00  0.00     0.000 C 
BRANCH  11  12
ATOM     12  C   UNL     1       4.700  -8.018   8.160  1.00  0.00     0.000 C 
BRANCH  12  13
ATOM     13  C   UNL     1       3.678  -8.996   7.560  1.00  0.00     0.006 C 
BRANCH  13  14
ATOM     14  C   UNL     1       3.503 -10.266   8.403  1.00  0.00     0.053 C 
BRANCH  14  15
ATOM     15  C   UNL     1       4.459 -11.326   7.957  1.00  0.00     0.041 C 
ATOM     16  O   UNL     1       4.349 -11.839   6.812  1.00  0.00    -0.550 OA
ATOM     17  O   UNL     1       5.502 -11.716   8.788  1.00  0.00    -0.550 OA
ENDBRANCH  14  15
ENDBRANCH  13  14
ENDBRANCH  12  13
ENDBRANCH  11  12
ENDBRANCH  10  11
ENDBRANCH   9  10
ENDBRANCH   8   9
ENDBRANCH   7   8
ENDBRANCH   6   7
ENDBRANCH   5   6
ENDBRANCH   4   5
ENDBRANCH   3   4
ENDBRANCH   2   3
ENDBRANCH   1   2
BRANCH   1  18
ATOM     18  C   UNL     1       7.450  -3.641   9.924  1.00  0.00     0.000 C 
BRANCH  18  19
ATOM     19  C   UNL     1       7.455  -2.378   9.049  1.00  0.00     0.000 C 
BRANCH  19  20
ATOM     20  C   UNL     1       8.799  -1.628   9.089  1.00  0.00     0.000 C 
BRANCH  20  21
ATOM     21  C   UNL     1       9.449  -1.360   7.714  1.00  0.00     0.000 C 
BRANCH  21  22
ATOM     22  C   UNL     1       8.567  -1.696   6.498  1.00  0.00     0.000 C 
BRANCH  22  23
ATOM     23  C   UNL     1       9.340  -1.632   5.171  1.00  0.00     0.000 C 
BRANCH  23  24
ATOM     24  C   UNL     1       8.657  -0.728   4.134  1.00  0.00    -0.000 C 
BRANCH  24  25
ATOM     25  C   UNL     1       9.123   0.734   4.229  1.00  0.00    -0.000 C 
BRANCH  25  26
ATOM     26  C   UNL     1       7.992   1.638   4.738  1.00  0.00    -0.000 C 
BRANCH  26  27
ATOM     27  C   UNL     1       8.071   1.898   6.252  1.00  0.00    -0.000 C 
BRANCH  27  28
ATOM     28  C   UNL     1       6.820   1.475   7.049  1.00  0.00    -0.000 C 
BRANCH  28  29
ATOM     29  C   UNL     1       5.728   2.564   7.117  1.00  0.00    -0.000 C 
BRANCH  29  30
ATOM     30  C   UNL     1       4.880   2.459   8.396  1.00  0.00    -0.000 C 
BRANCH  30  31
ATOM     31  C   UNL     1       4.049   1.168   8.451  1.00  0.00    -0.003 C 
ATOM     32  C   UNL     1       2.597   1.384   8.022  1.00  0.00     0.004 C 
ENDBRANCH  30  31
ENDBRANCH  29  30
ENDBRANCH  28  29
ENDBRANCH  27  28
ENDBRANCH  26  27
ENDBRANCH  25  26
ENDBRANCH  24  25
ENDBRANCH  23  24
ENDBRANCH  22  23
ENDBRANCH  21  22
ENDBRANCH  20  21
ENDBRANCH  19  20
ENDBRANCH  18  19
ENDBRANCH   1  18
TORSDOF 28
ENDMDL
