MODEL 1
REMARK VINA RESULT:    -5.446      0.000      0.000
REMARK INTER + INTRA:         -10.972
REMARK INTER:                  -9.266
REMARK INTRA:                  -1.706
REMARK UNBOUND:                -1.706
REMARK SMILES CCCCCCCCCCCCCC(=O)[O-]
REMARK SMILES IDX 8 1 9 2 10 3 11 4 12 5 13 6 14 7 15 8 16 9 7 10 6 11 5 12
REMARK SMILES IDX 4 13 3 14 2 15 1 16
REMARK H PARENT
REMARK Flexibility Score: inf
ROOT
ATOM      1  C   UNL     1      10.260 -14.575  37.729  1.00  0.00     0.000 C 
ENDROOT
BRANCH   1   2
ATOM      2  C   UNL     1      11.411 -14.797  36.735  1.00  0.00     0.000 C 
BRANCH   2   3
ATOM      3  C   UNL     1      12.643 -13.935  37.058  1.00  0.00     0.000 C 
BRANCH   3   4
ATOM      4  C   UNL     1      13.096 -13.079  35.864  1.00  0.00     0.000 C 
BRANCH   4   5
ATOM      5  C   UNL     1      12.972 -11.569  36.137  1.00  0.00     0.006 C 
BRANCH   5   6
ATOM      6  C   UNL     1      13.191 -11.229  37.618  1.00  0.00     0.053 C 
BRANCH   6   7
ATOM      7  C   UNL     1      12.287 -10.126  38.075  1.00  0.00     0.041 C 
ATOM      8  O   UNL     1      12.043  -9.150  37.317  1.00  0.00    -0.550 OA
ATOM      9  O   UNL     1      11.689 -10.189  39.328  1.00  0.00    -0.550 OA
ENDBRANCH   6   7
ENDBRANCH   5   6
ENDBRANCH   4   5
ENDBRANCH   3   4
ENDBRANCH   2   3
ENDBRANCH   1   2
BRANCH   1  10
ATOM     10  C   UNL     1      10.082 -13.095  38.109  1.00  0.00     0.000 C 
BRANCH  10  11
ATOM     11  C   UNL     1       8.603 -12.698  38.278  1.00  0.00    -0.000 C 
BRANCH  11  12
ATOM     12  C   UNL     1       7.587 -13.770  37.835  1.00  0.00    -0.000 C 
BRANCH  12  13
ATOM     13  C   UNL     1       6.983 -13.558  36.436  1.00  0.00    -0.000 C 
BRANCH  13  14
ATOM     14  C   UNL     1       7.465 -12.263  35.767  1.00  0.00    -0.000 C 
BRANCH  14  15
ATOM     15  C   UNL     1       8.261 -12.567  34.493  1.00  0.00    -0.003 C 
ATOM     16  C   UNL     1       9.688 -12.038  34.595  1.00  0.00     0.004 C 
ENDBRANCH  14  15
ENDBRANCH  13  14
ENDBRANCH  12  13
ENDBRANCH  11  12
ENDBRANCH  10  11
ENDBRANCH   1  10
TORSDOF 12
ENDMDL
MODEL 2
REMARK VINA RESULT:    -5.412      1.149      1.969
REMARK INTER + INTRA:         -10.915
REMARK INTER:                  -9.320
REMARK INTRA:                  -1.595
REMARK UNBOUND:                -1.706
REMARK SMILES CCCCCCCCCCCCCC(=O)[O-]
REMARK SMILES IDX 8 1 9 2 10 3 11 4 12 5 13 6 14 7 15 8 16 9 7 10 6 11 5 12
REMARK SMILES IDX 4 13 3 14 2 15 1 16
REMARK H PARENT
REMARK Flexibility Score: inf
ROOT
ATOM      1  C   UNL     1      12.493 -14.310  37.325  1.00  0.00     0.000 C 
ENDROOT
BRANCH   1   2
ATOM      2  C   UNL     1      12.928 -13.206  36.347  1.00  0.00     0.000 C 
BRANCH   2   3
ATOM      3  C   UNL     1      11.746 -12.626  35.550  1.00  0.00     0.000 C 
BRANCH   3   4
ATOM      4  C   UNL     1      11.898 -11.121  35.279  1.00  0.00     0.000 C 
BRANCH   4   5
ATOM      5  C   UNL     1      11.163 -10.254  36.316  1.00  0.00     0.006 C 
BRANCH   5   6
ATOM      6  C   UNL     1      12.129  -9.600  37.313  1.00  0.00     0.053 C 
BRANCH   6   7
ATOM      7  C   UNL     1      12.120 -10.301  38.637  1.00  0.00     0.041 C 
ATOM      8  O   UNL     1      11.150 -11.038  38.959  1.00  0.00    -0.550 OA
ATOM      9  O   UNL     1      13.195 -10.162  39.506  1.00  0.00    -0.550 OA
ENDBRANCH   6   7
ENDBRANCH   5   6
ENDBRANCH   4   5
ENDBRANCH   3   4
ENDBRANCH   2   3
ENDBRANCH   1   2
BRANCH   1  10
ATOM     10  C   UNL     1      11.147 -14.947  36.940  1.00  0.00     0.000 C 
BRANCH  10  11
ATOM     11  C   UNL     1      10.102 -14.855  38.067  1.00  0.00    -0.000 C 
BRANCH  11  12
ATOM     12  C   UNL     1       9.168 -13.630  37.989  1.00  0.00    -0.000 C 
BRANCH  12  13
ATOM     13  C   UNL     1       7.706 -13.946  37.624  1.00  0.00    -0.000 C 
BRANCH  13  14
ATOM     14  C   UNL     1       7.249 -13.248  36.335  1.00  0.00    -0.000 C 
BRANCH  14  15
ATOM     15  C   UNL     1       8.164 -13.615  35.160  1.00  0.00    -0.003 C 
ATOM     16  C   UNL     1       8.259 -12.469  34.158  1.00  0.00     0.004 C 
ENDBRANCH  14  15
ENDBRANCH  13  14
ENDBRANCH  12  13
ENDBRANCH  11  12
ENDBRANCH  10  11
ENDBRANCH   1  10
TORSDOF 12
ENDMDL
MODEL 3
REMARK VINA RESULT:    -5.391      1.385      1.840
REMARK INTER + INTRA:         -10.878
REMARK INTER:                  -8.952
REMARK INTRA:                  -1.926
REMARK UNBOUND:                -1.706
REMARK SMILES CCCCCCCCCCCCCC(=O)[O-]
REMARK SMILES IDX 8 1 9 2 10 3 11 4 12 5 13 6 14 7 15 8 16 9 7 10 6 11 5 12
REMARK SMILES IDX 4 13 3 14 2 15 1 16
REMARK H PARENT
REMARK Flexibility Score: inf
ROOT
ATOM      1  C   UNL     1      10.246 -14.855  38.406  1.00  0.00     0.000 C 
ENDROOT
BRANCH   1   2
ATOM      2  C   UNL     1      10.592 -15.255  36.963  1.00  0.00     0.000 C 
BRANCH   2   3
ATOM      3  C   UNL     1      11.556 -14.261  36.291  1.00  0.00     0.000 C 
BRANCH   3   4
ATOM      4  C   UNL     1      12.773 -13.932  37.169  1.00  0.00     0.000 C 
BRANCH   4   5
ATOM      5  C   UNL     1      12.951 -12.420  37.393  1.00  0.00     0.006 C 
BRANCH   5   6
ATOM      6  C   UNL     1      11.779 -11.609  36.822  1.00  0.00     0.053 C 
BRANCH   6   7
ATOM      7  C   UNL     1      12.250 -10.524  35.902  1.00  0.00     0.041 C 
ATOM      8  O   UNL     1      11.875 -10.504  34.699  1.00  0.00    -0.550 OA
ATOM      9  O   UNL     1      13.082  -9.519  36.379  1.00  0.00    -0.550 OA
ENDBRANCH   6   7
ENDBRANCH   5   6
ENDBRANCH   4   5
ENDBRANCH   3   4
ENDBRANCH   2   3
ENDBRANCH   1   2
BRANCH   1  10
ATOM     10  C   UNL     1       8.831 -15.294  38.820  1.00  0.00     0.000 C 
BRANCH  10  11
ATOM     11  C   UNL     1       7.798 -14.159  38.697  1.00  0.00    -0.000 C 
BRANCH  11  12
ATOM     12  C   UNL     1       8.395 -12.756  38.470  1.00  0.00    -0.000 C 
BRANCH  12  13
ATOM     13  C   UNL     1       8.140 -12.154  37.077  1.00  0.00    -0.000 C 
BRANCH  13  14
ATOM     14  C   UNL     1       7.298 -13.070  36.177  1.00  0.00    -0.000 C 
BRANCH  14  15
ATOM     15  C   UNL     1       8.093 -13.504  34.939  1.00  0.00    -0.003 C 
ATOM     16  C   UNL     1       8.824 -12.321  34.312  1.00  0.00     0.004 C 
ENDBRANCH  14  15
ENDBRANCH  13  14
ENDBRANCH  12  13
ENDBRANCH  11  12
ENDBRANCH  10  11
ENDBRANCH   1  10
TORSDOF 12
ENDMDL
MODEL 4
REMARK VINA RESULT:    -5.390      2.308      4.976
REMARK INTER + INTRA:         -10.878
REMARK INTER:                  -8.868
REMARK INTRA:                  -2.010
REMARK UNBOUND:                -1.706
REMARK SMILES CCCCCCCCCCCCCC(=O)[O-]
REMARK SMILES IDX 8 1 9 2 10 3 11 4 12 5 13 6 14 7 15 8 16 9 7 10 6 11 5 12
REMARK SMILES IDX 4 13 3 14 2 15 1 16
REMARK H PARENT
REMARK Flexibility Score: inf
ROOT
ATOM      1  C   UNL     1      12.593 -13.512  36.923  1.00  0.00     0.000 C 
ENDROOT
BRANCH   1   2
ATOM      2  C   UNL     1      11.770 -14.810  36.916  1.00  0.00     0.000 C 
BRANCH   2   3
ATOM      3  C   UNL     1      10.267 -14.556  37.128  1.00  0.00     0.000 C 
BRANCH   3   4
ATOM      4  C   UNL     1       9.993 -13.298  37.968  1.00  0.00     0.000 C 
BRANCH   4   5
ATOM      5  C   UNL     1       8.587 -12.719  37.727  1.00  0.00     0.006 C 
BRANCH   5   6
ATOM      6  C   UNL     1       7.919 -13.323  36.484  1.00  0.00     0.053 C 
BRANCH   6   7
ATOM      7  C   UNL     1       7.613 -12.279  35.455  1.00  0.00     0.041 C 
ATOM      8  O   UNL     1       6.895 -11.287  35.750  1.00  0.00    -0.550 OA
ATOM      9  O   UNL     1       8.143 -12.386  34.175  1.00  0.00    -0.550 OA
ENDBRANCH   6   7
ENDBRANCH   5   6
ENDBRANCH   4   5
ENDBRANCH   3   4
ENDBRANCH   2   3
ENDBRANCH   1   2
BRANCH   1  10
ATOM     10  C   UNL     1      13.110 -13.130  35.526  1.00  0.00     0.000 C 
BRANCH  10  11
ATOM     11  C   UNL     1      12.859 -11.650  35.182  1.00  0.00    -0.000 C 
BRANCH  11  12
ATOM     12  C   UNL     1      11.374 -11.237  35.132  1.00  0.00    -0.000 C 
BRANCH  12  13
ATOM     13  C   UNL     1      10.953 -10.186  36.174  1.00  0.00    -0.000 C 
BRANCH  13  14
ATOM     14  C   UNL     1      12.109  -9.754  37.088  1.00  0.00    -0.000 C 
BRANCH  14  15
ATOM     15  C   UNL     1      11.824 -10.127  38.547  1.00  0.00    -0.003 C 
ATOM     16  C   UNL     1      13.116 -10.403  39.308  1.00  0.00     0.004 C 
ENDBRANCH  14  15
ENDBRANCH  13  14
ENDBRANCH  12  13
ENDBRANCH  11  12
ENDBRANCH  10  11
ENDBRANCH   1  10
TORSDOF 12
ENDMDL
MODEL 5
REMARK VINA RESULT:    -5.378      1.350      1.741
REMARK INTER + INTRA:         -10.857
REMARK INTER:                  -9.256
REMARK INTRA:                  -1.601
REMARK UNBOUND:                -1.706
REMARK SMILES CCCCCCCCCCCCCC(=O)[O-]
REMARK SMILES IDX 8 1 9 2 10 3 11 4 12 5 13 6 14 7 15 8 16 9 7 10 6 11 5 12
REMARK SMILES IDX 4 13 3 14 2 15 1 16
REMARK H PARENT
REMARK Flexibility Score: inf
ROOT
ATOM      1  C   UNL     1      10.632 -14.974  36.684  1.00  0.00     0.000 C 
ENDROOT
BRANCH   1   2
ATOM      2  C   UNL     1      11.535 -13.801  36.271  1.00  0.00     0.000 C 
BRANCH   2   3
ATOM      3  C   UNL     1      12.878 -13.799  37.022  1.00  0.00     0.000 C 
BRANCH   3   4
ATOM      4  C   UNL     1      13.244 -12.412  37.574  1.00  0.00     0.000 C 
BRANCH   4   5
ATOM      5  C   UNL     1      12.026 -11.476  37.679  1.00  0.00     0.006 C 
BRANCH   5   6
ATOM      6  C   UNL     1      12.381 -10.024  37.328  1.00  0.00     0.053 C 
BRANCH   6   7
ATOM      7  C   UNL     1      11.698  -9.573  36.074  1.00  0.00     0.041 C 
ATOM      8  O   UNL     1      11.188  -8.423  36.006  1.00  0.00    -0.550 OA
ATOM      9  O   UNL     1      11.648 -10.412  34.968  1.00  0.00    -0.550 OA
ENDBRANCH   6   7
ENDBRANCH   5   6
ENDBRANCH   4   5
ENDBRANCH   3   4
ENDBRANCH   2   3
ENDBRANCH   1   2
BRANCH   1  10
ATOM     10  C   UNL     1      10.056 -14.809  38.101  1.00  0.00     0.000 C 
BRANCH  10  11
ATOM     11  C   UNL     1       9.133 -13.583  38.229  1.00  0.00    -0.000 C 
BRANCH  11  12
ATOM     12  C   UNL     1       7.642 -13.860  37.954  1.00  0.00    -0.000 C 
BRANCH  12  13
ATOM     13  C   UNL     1       7.163 -13.509  36.534  1.00  0.00    -0.000 C 
BRANCH  13  14
ATOM     14  C   UNL     1       7.730 -12.175  36.025  1.00  0.00    -0.000 C 
BRANCH  14  15
ATOM     15  C   UNL     1       8.526 -12.377  34.730  1.00  0.00    -0.003 C 
ATOM     16  C   UNL     1       7.841 -13.387  33.815  1.00  0.00     0.004 C 
ENDBRANCH  14  15
ENDBRANCH  13  14
ENDBRANCH  12  13
ENDBRANCH  11  12
ENDBRANCH  10  11
ENDBRANCH   1  10
TORSDOF 12
ENDMDL
MODEL 6
REMARK VINA RESULT:    -5.360      2.524      5.206
REMARK INTER + INTRA:         -10.826
REMARK INTER:                  -8.920
REMARK INTRA:                  -1.906
REMARK UNBOUND:                -1.706
REMARK SMILES CCCCCCCCCCCCCC(=O)[O-]
REMARK SMILES IDX 8 1 9 2 10 3 11 4 12 5 13 6 14 7 15 8 16 9 7 10 6 11 5 12
REMARK SMILES IDX 4 13 3 14 2 15 1 16
REMARK H PARENT
REMARK Flexibility Score: inf
ROOT
ATOM      1  C   UNL     1      11.059 -14.400  36.784  1.00  0.00     0.000 C 
ENDROOT
BRANCH   1   2
ATOM      2  C   UNL     1      10.220 -14.364  38.071  1.00  0.00     0.000 C 
BRANCH   2   3
ATOM      3  C   UNL     1       8.896 -13.602  37.891  1.00  0.00     0.000 C 
BRANCH   3   4
ATOM      4  C   UNL     1       9.109 -12.121  37.537  1.00  0.00     0.000 C 
BRANCH   4   5
ATOM      5  C   UNL     1       8.293 -11.681  36.309  1.00  0.00     0.006 C 
BRANCH   5   6
ATOM      6  C   UNL     1       7.708 -12.878  35.545  1.00  0.00     0.053 C 
BRANCH   6   7
ATOM      7  C   UNL     1       8.095 -12.855  34.097  1.00  0.00     0.041 C 
ATOM      8  O   UNL     1       8.902 -11.987  33.669  1.00  0.00    -0.550 OA
ATOM      9  O   UNL     1       7.586 -13.809  33.225  1.00  0.00    -0.550 OA
ENDBRANCH   6   7
ENDBRANCH   5   6
ENDBRANCH   4   5
ENDBRANCH   3   4
ENDBRANCH   2   3
ENDBRANCH   1   2
BRANCH   1  10
ATOM     10  C   UNL     1      12.544 -14.087  37.035  1.00  0.00     0.000 C 
BRANCH  10  11
ATOM     11  C   UNL     1      13.084 -12.983  36.108  1.00  0.00    -0.000 C 
BRANCH  11  12
ATOM     12  C   UNL     1      12.013 -12.248  35.277  1.00  0.00    -0.000 C 
BRANCH  12  13
ATOM     13  C   UNL     1      12.041 -10.713  35.384  1.00  0.00    -0.000 C 
BRANCH  13  14
ATOM     14  C   UNL     1      12.999 -10.209  36.473  1.00  0.00    -0.000 C 
BRANCH  14  15
ATOM     15  C   UNL     1      12.223  -9.745  37.712  1.00  0.00    -0.003 C 
ATOM     16  C   UNL     1      12.679 -10.494  38.960  1.00  0.00     0.004 C 
ENDBRANCH  14  15
ENDBRANCH  13  14
ENDBRANCH  12  13
ENDBRANCH  11  12
ENDBRANCH  10  11
ENDBRANCH   1  10
TORSDOF 12
ENDMDL
MODEL 7
REMARK VINA RESULT:    -5.325      2.518      5.509
REMARK INTER + INTRA:         -10.766
REMARK INTER:                  -9.481
REMARK INTRA:                  -1.285
REMARK UNBOUND:                -1.706
REMARK SMILES CCCCCCCCCCCCCC(=O)[O-]
REMARK SMILES IDX 8 1 9 2 10 3 11 4 12 5 13 6 14 7 15 8 16 9 7 10 6 11 5 12
REMARK SMILES IDX 4 13 3 14 2 15 1 16
REMARK H PARENT
REMARK Flexibility Score: inf
ROOT
ATOM      1  C   UNL     1      11.123 -10.727  39.051  1.00  0.00     0.000 C 
ENDROOT
BRANCH   1   2
ATOM      2  C   UNL     1      10.494 -11.742  38.082  1.00  0.00     0.000 C 
BRANCH   2   3
ATOM      3  C   UNL     1       9.007 -11.999  38.382  1.00  0.00     0.000 C 
BRANCH   3   4
ATOM      4  C   UNL     1       8.570 -13.427  38.018  1.00  0.00     0.000 C 
BRANCH   4   5
ATOM      5  C   UNL     1       8.769 -13.746  36.526  1.00  0.00     0.006 C 
BRANCH   5   6
ATOM      6  C   UNL     1       7.713 -13.068  35.643  1.00  0.00     0.053 C 
BRANCH   6   7
ATOM      7  C   UNL     1       8.189 -12.908  34.231  1.00  0.00     0.041 C 
ATOM      8  O   UNL     1       9.108 -12.092  33.959  1.00  0.00    -0.550 OA
ATOM      9  O   UNL     1       7.635 -13.682  33.218  1.00  0.00    -0.550 OA
ENDBRANCH   6   7
ENDBRANCH   5   6
ENDBRANCH   4   5
ENDBRANCH   3   4
ENDBRANCH   2   3
ENDBRANCH   1   2
BRANCH   1  10
ATOM     10  C   UNL     1      12.510 -10.249  38.591  1.00  0.00     0.000 C 
BRANCH  10  11
ATOM     11  C   UNL     1      12.533  -9.825  37.111  1.00  0.00    -0.000 C 
BRANCH  11  12
ATOM     12  C   UNL     1      13.675 -10.438  36.276  1.00  0.00    -0.000 C 
BRANCH  12  13
ATOM     13  C   UNL     1      13.224 -11.279  35.069  1.00  0.00    -0.000 C 
BRANCH  13  14
ATOM     14  C   UNL     1      13.636 -12.754  35.182  1.00  0.00    -0.000 C 
BRANCH  14  15
ATOM     15  C   UNL     1      12.559 -13.571  35.906  1.00  0.00    -0.003 C 
ATOM     16  C   UNL     1      13.067 -14.085  37.249  1.00  0.00     0.004 C 
ENDBRANCH  14  15
ENDBRANCH  13  14
ENDBRANCH  12  13
ENDBRANCH  11  12
ENDBRANCH  10  11
ENDBRANCH   1  10
TORSDOF 12
ENDMDL
MODEL 8
REMARK VINA RESULT:    -5.272      2.474      5.041
REMARK INTER + INTRA:         -10.676
REMARK INTER:                  -8.978
REMARK INTRA:                  -1.698
REMARK UNBOUND:                -1.706
REMARK SMILES CCCCCCCCCCCCCC(=O)[O-]
REMARK SMILES IDX 8 1 9 2 10 3 11 4 12 5 13 6 14 7 15 8 16 9 7 10 6 11 5 12
REMARK SMILES IDX 4 13 3 14 2 15 1 16
REMARK H PARENT
REMARK Flexibility Score: inf
ROOT
ATOM      1  C   UNL     1      10.946 -15.082  36.780  1.00  0.00     0.000 C 
ENDROOT
BRANCH   1   2
ATOM      2  C   UNL     1      10.287 -14.788  38.138  1.00  0.00     0.000 C 
BRANCH   2   3
ATOM      3  C   UNL     1       8.847 -14.266  37.994  1.00  0.00     0.000 C 
BRANCH   3   4
ATOM      4  C   UNL     1       8.762 -12.733  38.084  1.00  0.00     0.000 C 
BRANCH   4   5
ATOM      5  C   UNL     1       8.039 -12.108  36.878  1.00  0.00     0.006 C 
BRANCH   5   6
ATOM      6  C   UNL     1       7.537 -13.171  35.891  1.00  0.00     0.053 C 
BRANCH   6   7
ATOM      7  C   UNL     1       8.143 -12.997  34.532  1.00  0.00     0.041 C 
ATOM      8  O   UNL     1       7.609 -13.533  33.525  1.00  0.00    -0.550 OA
ATOM      9  O   UNL     1       9.283 -12.220  34.372  1.00  0.00    -0.550 OA
ENDBRANCH   6   7
ENDBRANCH   5   6
ENDBRANCH   4   5
ENDBRANCH   3   4
ENDBRANCH   2   3
ENDBRANCH   1   2
BRANCH   1  10
ATOM     10  C   UNL     1      11.754 -13.889  36.242  1.00  0.00     0.000 C 
BRANCH  10  11
ATOM     11  C   UNL     1      12.924 -13.500  37.164  1.00  0.00    -0.000 C 
BRANCH  11  12
ATOM     12  C   UNL     1      12.791 -12.119  37.838  1.00  0.00    -0.000 C 
BRANCH  12  13
ATOM     13  C   UNL     1      12.036 -11.061  37.014  1.00  0.00    -0.000 C 
BRANCH  13  14
ATOM     14  C   UNL     1      12.972 -10.178  36.176  1.00  0.00    -0.000 C 
BRANCH  14  15
ATOM     15  C   UNL     1      13.017 -10.653  34.719  1.00  0.00    -0.003 C 
ATOM     16  C   UNL     1      14.357 -11.304  34.393  1.00  0.00     0.004 C 
ENDBRANCH  14  15
ENDBRANCH  13  14
ENDBRANCH  12  13
ENDBRANCH  11  12
ENDBRANCH  10  11
ENDBRANCH   1  10
TORSDOF 12
ENDMDL
MODEL 9
REMARK VINA RESULT:    -5.248      2.206      5.170
REMARK INTER + INTRA:         -10.635
REMARK INTER:                  -8.989
REMARK INTRA:                  -1.646
REMARK UNBOUND:                -1.706
REMARK SMILES CCCCCCCCCCCCCC(=O)[O-]
REMARK SMILES IDX 8 1 9 2 10 3 11 4 12 5 13 6 14 7 15 8 16 9 7 10 6 11 5 12
REMARK SMILES IDX 4 13 3 14 2 15 1 16
REMARK H PARENT
REMARK Flexibility Score: inf
ROOT
ATOM      1  C   UNL     1      12.865 -13.512  35.491  1.00  0.00     0.000 C 
ENDROOT
BRANCH   1   2
ATOM      2  C   UNL     1      12.867 -13.935  36.968  1.00  0.00     0.000 C 
BRANCH   2   3
ATOM      3  C   UNL     1      11.453 -13.968  37.574  1.00  0.00     0.000 C 
BRANCH   3   4
ATOM      4  C   UNL     1      10.391 -14.447  36.571  1.00  0.00     0.000 C 
BRANCH   4   5
ATOM      5  C   UNL     1       9.386 -13.342  36.200  1.00  0.00     0.006 C 
BRANCH   5   6
ATOM      6  C   UNL     1       7.957 -13.688  36.642  1.00  0.00     0.053 C 
BRANCH   6   7
ATOM      7  C   UNL     1       7.797 -13.594  38.128  1.00  0.00     0.041 C 
ATOM      8  O   UNL     1       7.251 -14.531  38.769  1.00  0.00    -0.550 OA
ATOM      9  O   UNL     1       8.275 -12.483  38.811  1.00  0.00    -0.550 OA
ENDBRANCH   6   7
ENDBRANCH   5   6
ENDBRANCH   4   5
ENDBRANCH   3   4
ENDBRANCH   2   3
ENDBRANCH   1   2
BRANCH   1  10
ATOM     10  C   UNL     1      14.056 -12.607  35.131  1.00  0.00     0.000 C 
BRANCH  10  11
ATOM     11  C   UNL     1      13.622 -11.187  34.724  1.00  0.00    -0.000 C 
BRANCH  11  12
ATOM     12  C   UNL     1      12.160 -10.831  35.061  1.00  0.00    -0.000 C 
BRANCH  12  13
ATOM     13  C   UNL     1      11.943 -10.208  36.451  1.00  0.00    -0.000 C 
BRANCH  13  14
ATOM     14  C   UNL     1      13.223 -10.180  37.299  1.00  0.00    -0.000 C 
BRANCH  14  15
ATOM     15  C   UNL     1      12.913 -10.483  38.770  1.00  0.00    -0.003 C 
ATOM     16  C   UNL     1      11.411 -10.596  39.005  1.00  0.00     0.004 C 
ENDBRANCH  14  15
ENDBRANCH  13  14
ENDBRANCH  12  13
ENDBRANCH  11  12
ENDBRANCH  10  11
ENDBRANCH   1  10
TORSDOF 12
ENDMDL
