MODEL 1
REMARK VINA RESULT:    -4.598      0.000      0.000
REMARK INTER + INTRA:          -9.735
REMARK INTER:                  -8.631
REMARK INTRA:                  -1.104
REMARK UNBOUND:                -1.104
REMARK SMILES CCCCCCCCC=CCCCCCCCC(=O)[O-]
REMARK SMILES IDX 10 1 9 2 11 3 12 4 13 5 14 6 15 7 16 8 17 9 18 10 19 11
REMARK SMILES IDX 20 12 8 13 7 14 6 15 5 16 4 17 3 18 2 19 1 20
REMARK H PARENT
REMARK Flexibility Score: inf
ROOT
ATOM      1  C   UNL     1     -12.010  -2.167  23.830  1.00  0.00    -0.031 C 
ATOM      2  C   UNL     1     -11.415  -1.563  24.875  1.00  0.00    -0.031 C 
ENDROOT
BRANCH   1   3
ATOM      3  C   UNL     1     -11.533  -3.447  23.188  1.00  0.00     0.027 C 
BRANCH   3   4
ATOM      4  C   UNL     1     -11.922  -3.534  21.702  1.00  0.00     0.004 C 
BRANCH   4   5
ATOM      5  C   UNL     1     -11.483  -4.834  20.999  1.00  0.00     0.000 C 
BRANCH   5   6
ATOM      6  C   UNL     1     -11.176  -4.693  19.499  1.00  0.00     0.000 C 
BRANCH   6   7
ATOM      7  C   UNL     1     -12.053  -3.642  18.802  1.00  0.00     0.000 C 
BRANCH   7   8
ATOM      8  C   UNL     1     -11.592  -3.412  17.359  1.00  0.00     0.006 C 
BRANCH   8   9
ATOM      9  C   UNL     1     -10.121  -3.803  17.183  1.00  0.00     0.053 C 
BRANCH   9  10
ATOM     10  C   UNL     1      -9.990  -4.920  16.197  1.00  0.00     0.041 C 
ATOM     11  O   UNL     1      -9.835  -4.669  14.972  1.00  0.00    -0.550 OA
ATOM     12  O   UNL     1      -9.993  -6.238  16.634  1.00  0.00    -0.550 OA
ENDBRANCH   9  10
ENDBRANCH   8   9
ENDBRANCH   7   8
ENDBRANCH   6   7
ENDBRANCH   5   6
ENDBRANCH   4   5
ENDBRANCH   3   4
ENDBRANCH   1   3
BRANCH   2  13
ATOM     13  C   UNL     1     -10.236  -2.119  25.635  1.00  0.00     0.027 C 
BRANCH  13  14
ATOM     14  C   UNL     1     -10.358  -1.888  27.151  1.00  0.00     0.004 C 
BRANCH  14  15
ATOM     15  C   UNL     1      -9.344  -0.881  27.725  1.00  0.00     0.000 C 
BRANCH  15  16
ATOM     16  C   UNL     1      -9.838   0.571  27.650  1.00  0.00     0.000 C 
BRANCH  16  17
ATOM     17  C   UNL     1      -8.657   1.552  27.698  1.00  0.00    -0.000 C 
BRANCH  17  18
ATOM     18  C   UNL     1      -7.514   1.163  26.742  1.00  0.00    -0.000 C 
BRANCH  18  19
ATOM     19  C   UNL     1      -7.642   1.731  25.316  1.00  0.00    -0.003 C 
ATOM     20  C   UNL     1      -8.291   0.752  24.340  1.00  0.00     0.004 C 
ENDBRANCH  18  19
ENDBRANCH  17  18
ENDBRANCH  16  17
ENDBRANCH  15  16
ENDBRANCH  14  15
ENDBRANCH  13  14
ENDBRANCH   2  13
TORSDOF 15
ENDMDL
MODEL 2
REMARK VINA RESULT:    -4.582      4.021      9.708
REMARK INTER + INTRA:          -9.705
REMARK INTER:                  -8.969
REMARK INTRA:                  -0.736
REMARK UNBOUND:                -1.104
REMARK SMILES CCCCCCCCC=CCCCCCCCC(=O)[O-]
REMARK SMILES IDX 10 1 9 2 11 3 12 4 13 5 14 6 15 7 16 8 17 9 18 10 19 11
REMARK SMILES IDX 20 12 8 13 7 14 6 15 5 16 4 17 3 18 2 19 1 20
REMARK H PARENT
REMARK Flexibility Score: inf
ROOT
ATOM      1  C   UNL     1     -10.751  -5.247  22.630  1.00  0.00    -0.031 C 
ATOM      2  C   UNL     1     -10.246  -6.078  21.699  1.00  0.00    -0.031 C 
ENDROOT
BRANCH   1   3
ATOM      3  C   UNL     1     -11.668  -4.085  22.341  1.00  0.00     0.027 C 
BRANCH   3   4
ATOM      4  C   UNL     1     -12.051  -3.314  23.616  1.00  0.00     0.004 C 
BRANCH   4   5
ATOM      5  C   UNL     1     -11.354  -1.948  23.775  1.00  0.00     0.000 C 
BRANCH   5   6
ATOM      6  C   UNL     1     -11.315  -1.397  25.211  1.00  0.00     0.000 C 
BRANCH   6   7
ATOM      7  C   UNL     1      -9.978  -1.663  25.919  1.00  0.00     0.000 C 
BRANCH   7   8
ATOM      8  C   UNL     1      -9.529  -0.436  26.722  1.00  0.00     0.006 C 
BRANCH   8   9
ATOM      9  C   UNL     1      -9.554   0.827  25.855  1.00  0.00     0.053 C 
BRANCH   9  10
ATOM     10  C   UNL     1      -8.179   1.151  25.362  1.00  0.00     0.041 C 
ATOM     11  O   UNL     1      -7.882   0.972  24.150  1.00  0.00    -0.550 OA
ATOM     12  O   UNL     1      -7.239   1.695  26.227  1.00  0.00    -0.550 OA
ENDBRANCH   9  10
ENDBRANCH   8   9
ENDBRANCH   7   8
ENDBRANCH   6   7
ENDBRANCH   5   6
ENDBRANCH   4   5
ENDBRANCH   3   4
ENDBRANCH   1   3
BRANCH   2  13
ATOM     13  C   UNL     1     -10.597  -6.042  20.232  1.00  0.00     0.027 C 
BRANCH  13  14
ATOM     14  C   UNL     1      -9.350  -5.940  19.336  1.00  0.00     0.004 C 
BRANCH  14  15
ATOM     15  C   UNL     1      -9.656  -5.806  17.832  1.00  0.00     0.000 C 
BRANCH  15  16
ATOM     16  C   UNL     1      -9.966  -4.361  17.413  1.00  0.00     0.000 C 
BRANCH  16  17
ATOM     17  C   UNL     1     -10.427  -4.305  15.949  1.00  0.00    -0.000 C 
BRANCH  17  18
ATOM     18  C   UNL     1      -9.576  -5.188  15.017  1.00  0.00    -0.000 C 
BRANCH  18  19
ATOM     19  C   UNL     1     -10.374  -6.221  14.200  1.00  0.00    -0.003 C 
ATOM     20  C   UNL     1     -10.008  -6.221  12.717  1.00  0.00     0.004 C 
ENDBRANCH  18  19
ENDBRANCH  17  18
ENDBRANCH  16  17
ENDBRANCH  15  16
ENDBRANCH  14  15
ENDBRANCH  13  14
ENDBRANCH   2  13
TORSDOF 15
ENDMDL
MODEL 3
REMARK VINA RESULT:    -4.571      3.183      8.382
REMARK INTER + INTRA:          -9.683
REMARK INTER:                  -8.458
REMARK INTRA:                  -1.225
REMARK UNBOUND:                -1.104
REMARK SMILES CCCCCCCCC=CCCCCCCCC(=O)[O-]
REMARK SMILES IDX 10 1 9 2 11 3 12 4 13 5 14 6 15 7 16 8 17 9 18 10 19 11
REMARK SMILES IDX 20 12 8 13 7 14 6 15 5 16 4 17 3 18 2 19 1 20
REMARK H PARENT
REMARK Flexibility Score: inf
ROOT
ATOM      1  C   UNL     1     -11.106  -1.782  24.924  1.00  0.00    -0.031 C 
ATOM      2  C   UNL     1     -11.533  -2.075  23.681  1.00  0.00    -0.031 C 
ENDROOT
BRANCH   1   3
ATOM      3  C   UNL     1     -10.881  -2.794  26.019  1.00  0.00     0.027 C 
BRANCH   3   4
ATOM      4  C   UNL     1      -9.937  -2.267  27.114  1.00  0.00     0.004 C 
BRANCH   4   5
ATOM      5  C   UNL     1     -10.069  -0.758  27.403  1.00  0.00     0.000 C 
BRANCH   5   6
ATOM      6  C   UNL     1      -8.746   0.027  27.390  1.00  0.00     0.000 C 
BRANCH   6   7
ATOM      7  C   UNL     1      -8.848   1.363  26.638  1.00  0.00     0.000 C 
BRANCH   7   8
ATOM      8  C   UNL     1      -7.799   1.445  25.522  1.00  0.00     0.006 C 
BRANCH   8   9
ATOM      9  C   UNL     1      -8.083   0.415  24.424  1.00  0.00     0.053 C 
BRANCH   9  10
ATOM     10  C   UNL     1      -8.484   1.099  23.156  1.00  0.00     0.041 C 
ATOM     11  O   UNL     1      -8.746   0.421  22.126  1.00  0.00    -0.550 OA
ATOM     12  O   UNL     1      -8.614   2.481  23.121  1.00  0.00    -0.550 OA
ENDBRANCH   9  10
ENDBRANCH   8   9
ENDBRANCH   7   8
ENDBRANCH   6   7
ENDBRANCH   5   6
ENDBRANCH   4   5
ENDBRANCH   3   4
ENDBRANCH   1   3
BRANCH   2  13
ATOM     13  C   UNL     1     -11.757  -3.472  23.155  1.00  0.00     0.027 C 
BRANCH  13  14
ATOM     14  C   UNL     1     -11.792  -3.517  21.618  1.00  0.00     0.004 C 
BRANCH  14  15
ATOM     15  C   UNL     1     -11.301  -4.844  21.009  1.00  0.00     0.000 C 
BRANCH  15  16
ATOM     16  C   UNL     1     -11.242  -4.811  19.474  1.00  0.00     0.000 C 
BRANCH  16  17
ATOM     17  C   UNL     1     -11.742  -3.461  18.938  1.00  0.00    -0.000 C 
BRANCH  17  18
ATOM     18  C   UNL     1     -11.619  -3.341  17.407  1.00  0.00    -0.000 C 
BRANCH  18  19
ATOM     19  C   UNL     1     -10.176  -3.348  16.873  1.00  0.00    -0.003 C 
ATOM     20  C   UNL     1      -9.843  -4.602  16.067  1.00  0.00     0.004 C 
ENDBRANCH  18  19
ENDBRANCH  17  18
ENDBRANCH  16  17
ENDBRANCH  15  16
ENDBRANCH  14  15
ENDBRANCH  13  14
ENDBRANCH   2  13
TORSDOF 15
ENDMDL
MODEL 4
REMARK VINA RESULT:    -4.553      1.309      2.060
REMARK INTER + INTRA:          -9.649
REMARK INTER:                  -8.348
REMARK INTRA:                  -1.301
REMARK UNBOUND:                -1.104
REMARK SMILES CCCCCCCCC=CCCCCCCCC(=O)[O-]
REMARK SMILES IDX 10 1 9 2 11 3 12 4 13 5 14 6 15 7 16 8 17 9 18 10 19 11
REMARK SMILES IDX 20 12 8 13 7 14 6 15 5 16 4 17 3 18 2 19 1 20
REMARK H PARENT
REMARK Flexibility Score: inf
ROOT
ATOM      1  C   UNL     1     -11.537  -1.886  24.005  1.00  0.00    -0.031 C 
ATOM      2  C   UNL     1     -10.912  -1.179  24.965  1.00  0.00    -0.031 C 
ENDROOT
BRANCH   1   3
ATOM      3  C   UNL     1     -11.498  -3.389  23.878  1.00  0.00     0.027 C 
BRANCH   3   4
ATOM      4  C   UNL     1     -11.912  -3.866  22.475  1.00  0.00     0.004 C 
BRANCH   4   5
ATOM      5  C   UNL     1     -11.006  -4.961  21.876  1.00  0.00     0.000 C 
BRANCH   5   6
ATOM      6  C   UNL     1     -11.738  -6.041  21.062  1.00  0.00     0.000 C 
BRANCH   6   7
ATOM      7  C   UNL     1     -11.110  -6.280  19.680  1.00  0.00     0.000 C 
BRANCH   7   8
ATOM      8  C   UNL     1     -10.498  -4.989  19.126  1.00  0.00     0.006 C 
BRANCH   8   9
ATOM      9  C   UNL     1      -9.724  -5.260  17.831  1.00  0.00     0.053 C 
BRANCH   9  10
ATOM     10  C   UNL     1     -10.208  -4.366  16.734  1.00  0.00     0.041 C 
ATOM     11  O   UNL     1      -9.554  -4.267  15.662  1.00  0.00    -0.550 OA
ATOM     12  O   UNL     1     -11.406  -3.676  16.875  1.00  0.00    -0.550 OA
ENDBRANCH   9  10
ENDBRANCH   8   9
ENDBRANCH   7   8
ENDBRANCH   6   7
ENDBRANCH   5   6
ENDBRANCH   4   5
ENDBRANCH   3   4
ENDBRANCH   1   3
BRANCH   2  13
ATOM     13  C   UNL     1     -10.156  -1.781  26.124  1.00  0.00     0.027 C 
BRANCH  13  14
ATOM     14  C   UNL     1      -9.611  -0.710  27.084  1.00  0.00     0.004 C 
BRANCH  14  15
ATOM     15  C   UNL     1      -9.519   0.702  26.475  1.00  0.00     0.000 C 
BRANCH  15  16
ATOM     16  C   UNL     1      -8.075   1.129  26.175  1.00  0.00     0.000 C 
BRANCH  16  17
ATOM     17  C   UNL     1      -7.946   1.641  24.732  1.00  0.00    -0.000 C 
BRANCH  17  18
ATOM     18  C   UNL     1      -7.856   0.504  23.697  1.00  0.00    -0.000 C 
BRANCH  18  19
ATOM     19  C   UNL     1      -8.668   0.737  22.410  1.00  0.00    -0.003 C 
ATOM     20  C   UNL     1      -8.842   2.217  22.073  1.00  0.00     0.004 C 
ENDBRANCH  18  19
ENDBRANCH  17  18
ENDBRANCH  16  17
ENDBRANCH  15  16
ENDBRANCH  14  15
ENDBRANCH  13  14
ENDBRANCH   2  13
TORSDOF 15
ENDMDL
MODEL 5
REMARK VINA RESULT:    -4.426     20.461     23.291
REMARK INTER + INTRA:          -9.411
REMARK INTER:                  -6.853
REMARK INTRA:                  -2.557
REMARK UNBOUND:                -1.104
REMARK SMILES CCCCCCCCC=CCCCCCCCC(=O)[O-]
REMARK SMILES IDX 10 1 9 2 11 3 12 4 13 5 14 6 15 7 16 8 17 9 18 10 19 11
REMARK SMILES IDX 20 12 8 13 7 14 6 15 5 16 4 17 3 18 2 19 1 20
REMARK H PARENT
REMARK Flexibility Score: inf
ROOT
ATOM      1  C   UNL     1       3.997   9.791  13.902  1.00  0.00    -0.031 C 
ATOM      2  C   UNL     1       4.193  11.021  14.414  1.00  0.00    -0.031 C 
ENDROOT
BRANCH   1   3
ATOM      3  C   UNL     1       4.882   9.135  12.872  1.00  0.00     0.027 C 
BRANCH   3   4
ATOM      4  C   UNL     1       5.980   8.269  13.513  1.00  0.00     0.004 C 
BRANCH   4   5
ATOM      5  C   UNL     1       7.406   8.841  13.383  1.00  0.00     0.000 C 
BRANCH   5   6
ATOM      6  C   UNL     1       8.032   9.339  14.697  1.00  0.00     0.000 C 
BRANCH   6   7
ATOM      7  C   UNL     1       7.110   9.149  15.911  1.00  0.00     0.000 C 
BRANCH   7   8
ATOM      8  C   UNL     1       7.773   8.259  16.969  1.00  0.00     0.006 C 
BRANCH   8   9
ATOM      9  C   UNL     1       7.743   6.787  16.546  1.00  0.00     0.053 C 
BRANCH   9  10
ATOM     10  C   UNL     1       7.347   5.918  17.697  1.00  0.00     0.041 C 
ATOM     11  O   UNL     1       6.765   4.820  17.492  1.00  0.00    -0.550 OA
ATOM     12  O   UNL     1       7.662   6.297  18.996  1.00  0.00    -0.550 OA
ENDBRANCH   9  10
ENDBRANCH   8   9
ENDBRANCH   7   8
ENDBRANCH   6   7
ENDBRANCH   5   6
ENDBRANCH   4   5
ENDBRANCH   3   4
ENDBRANCH   1   3
BRANCH   2  13
ATOM     13  C   UNL     1       5.384  11.898  14.115  1.00  0.00     0.027 C 
BRANCH  13  14
ATOM     14  C   UNL     1       5.149  12.805  12.895  1.00  0.00     0.004 C 
BRANCH  14  15
ATOM     15  C   UNL     1       6.171  12.616  11.756  1.00  0.00     0.000 C 
BRANCH  15  16
ATOM     16  C   UNL     1       5.506  12.362  10.395  1.00  0.00     0.000 C 
BRANCH  16  17
ATOM     17  C   UNL     1       5.875  10.971   9.859  1.00  0.00    -0.000 C 
BRANCH  17  18
ATOM     18  C   UNL     1       7.395  10.762   9.726  1.00  0.00    -0.000 C 
BRANCH  18  19
ATOM     19  C   UNL     1       7.853   9.293   9.774  1.00  0.00    -0.003 C 
ATOM     20  C   UNL     1       6.691   8.303   9.704  1.00  0.00     0.004 C 
ENDBRANCH  18  19
ENDBRANCH  17  18
ENDBRANCH  16  17
ENDBRANCH  15  16
ENDBRANCH  14  15
ENDBRANCH  13  14
ENDBRANCH   2  13
TORSDOF 15
ENDMDL
MODEL 6
REMARK VINA RESULT:    -4.366      1.232      1.668
REMARK INTER + INTRA:          -9.298
REMARK INTER:                  -8.236
REMARK INTRA:                  -1.062
REMARK UNBOUND:                -1.104
REMARK SMILES CCCCCCCCC=CCCCCCCCC(=O)[O-]
REMARK SMILES IDX 10 1 9 2 11 3 12 4 13 5 14 6 15 7 16 8 17 9 18 10 19 11
REMARK SMILES IDX 20 12 8 13 7 14 6 15 5 16 4 17 3 18 2 19 1 20
REMARK H PARENT
REMARK Flexibility Score: inf
ROOT
ATOM      1  C   UNL     1     -11.747  -2.987  23.417  1.00  0.00    -0.031 C 
ATOM      2  C   UNL     1     -11.888  -1.958  24.273  1.00  0.00    -0.031 C 
ENDROOT
BRANCH   1   3
ATOM      3  C   UNL     1     -11.094  -4.305  23.753  1.00  0.00     0.027 C 
BRANCH   3   4
ATOM      4  C   UNL     1     -11.963  -5.506  23.344  1.00  0.00     0.004 C 
BRANCH   4   5
ATOM      5  C   UNL     1     -11.360  -6.384  22.228  1.00  0.00     0.000 C 
BRANCH   5   6
ATOM      6  C   UNL     1     -10.477  -5.636  21.215  1.00  0.00     0.000 C 
BRANCH   6   7
ATOM      7  C   UNL     1     -10.645  -6.152  19.777  1.00  0.00     0.000 C 
BRANCH   7   8
ATOM      8  C   UNL     1     -10.602  -4.996  18.772  1.00  0.00     0.006 C 
BRANCH   8   9
ATOM      9  C   UNL     1      -9.525  -5.231  17.708  1.00  0.00     0.053 C 
BRANCH   9  10
ATOM     10  C   UNL     1      -9.643  -4.223  16.610  1.00  0.00     0.041 C 
ATOM     11  O   UNL     1      -9.447  -4.563  15.413  1.00  0.00    -0.550 OA
ATOM     12  O   UNL     1     -10.016  -2.917  16.901  1.00  0.00    -0.550 OA
ENDBRANCH   9  10
ENDBRANCH   8   9
ENDBRANCH   7   8
ENDBRANCH   6   7
ENDBRANCH   5   6
ENDBRANCH   4   5
ENDBRANCH   3   4
ENDBRANCH   1   3
BRANCH   2  13
ATOM     13  C   UNL     1     -11.508  -1.994  25.733  1.00  0.00     0.027 C 
BRANCH  13  14
ATOM     14  C   UNL     1     -10.005  -1.746  25.951  1.00  0.00     0.004 C 
BRANCH  14  15
ATOM     15  C   UNL     1      -9.604  -1.524  27.422  1.00  0.00     0.000 C 
BRANCH  15  16
ATOM     16  C   UNL     1     -10.066  -0.165  27.968  1.00  0.00     0.000 C 
BRANCH  16  17
ATOM     17  C   UNL     1      -9.649   0.973  27.025  1.00  0.00    -0.000 C 
BRANCH  17  18
ATOM     18  C   UNL     1      -8.223   1.487  27.299  1.00  0.00    -0.000 C 
BRANCH  18  19
ATOM     19  C   UNL     1      -7.314   1.563  26.058  1.00  0.00    -0.003 C 
ATOM     20  C   UNL     1      -8.025   1.150  24.771  1.00  0.00     0.004 C 
ENDBRANCH  18  19
ENDBRANCH  17  18
ENDBRANCH  16  17
ENDBRANCH  15  16
ENDBRANCH  14  15
ENDBRANCH  13  14
ENDBRANCH   2  13
TORSDOF 15
ENDMDL
MODEL 7
REMARK VINA RESULT:    -4.353      3.930      8.866
REMARK INTER + INTRA:          -9.274
REMARK INTER:                  -8.062
REMARK INTRA:                  -1.212
REMARK UNBOUND:                -1.104
REMARK SMILES CCCCCCCCC=CCCCCCCCC(=O)[O-]
REMARK SMILES IDX 10 1 9 2 11 3 12 4 13 5 14 6 15 7 16 8 17 9 18 10 19 11
REMARK SMILES IDX 20 12 8 13 7 14 6 15 5 16 4 17 3 18 2 19 1 20
REMARK H PARENT
REMARK Flexibility Score: inf
ROOT
ATOM      1  C   UNL     1     -11.424  -4.012  23.644  1.00  0.00    -0.031 C 
ATOM      2  C   UNL     1     -11.138  -4.806  22.596  1.00  0.00    -0.031 C 
ENDROOT
BRANCH   1   3
ATOM      3  C   UNL     1     -12.113  -2.673  23.548  1.00  0.00     0.027 C 
BRANCH   3   4
ATOM      4  C   UNL     1     -12.070  -1.899  24.877  1.00  0.00     0.004 C 
BRANCH   4   5
ATOM      5  C   UNL     1     -11.360  -2.640  26.028  1.00  0.00     0.000 C 
BRANCH   5   6
ATOM      6  C   UNL     1     -11.007  -1.769  27.246  1.00  0.00     0.000 C 
BRANCH   6   7
ATOM      7  C   UNL     1      -9.500  -1.498  27.373  1.00  0.00     0.000 C 
BRANCH   7   8
ATOM      8  C   UNL     1      -9.173  -0.041  27.025  1.00  0.00     0.006 C 
BRANCH   8   9
ATOM      9  C   UNL     1      -9.132   0.165  25.507  1.00  0.00     0.053 C 
BRANCH   9  10
ATOM     10  C   UNL     1      -8.061   1.143  25.141  1.00  0.00     0.041 C 
ATOM     11  O   UNL     1      -7.910   1.497  23.941  1.00  0.00    -0.550 OA
ATOM     12  O   UNL     1      -7.260   1.702  26.128  1.00  0.00    -0.550 OA
ENDBRANCH   9  10
ENDBRANCH   8   9
ENDBRANCH   7   8
ENDBRANCH   6   7
ENDBRANCH   5   6
ENDBRANCH   4   5
ENDBRANCH   3   4
ENDBRANCH   1   3
BRANCH   2  13
ATOM     13  C   UNL     1     -11.550  -4.533  21.170  1.00  0.00     0.027 C 
BRANCH  13  14
ATOM     14  C   UNL     1     -11.096  -5.645  20.208  1.00  0.00     0.004 C 
BRANCH  14  15
ATOM     15  C   UNL     1      -9.605  -6.016  20.324  1.00  0.00     0.000 C 
BRANCH  15  16
ATOM     16  C   UNL     1      -8.974  -6.377  18.971  1.00  0.00     0.000 C 
BRANCH  16  17
ATOM     17  C   UNL     1      -9.859  -5.900  17.810  1.00  0.00    -0.000 C 
BRANCH  17  18
ATOM     18  C   UNL     1      -9.398  -4.555  17.218  1.00  0.00    -0.000 C 
BRANCH  18  19
ATOM     19  C   UNL     1     -10.530  -3.669  16.666  1.00  0.00    -0.003 C 
ATOM     20  C   UNL     1     -11.273  -2.901  17.758  1.00  0.00     0.004 C 
ENDBRANCH  18  19
ENDBRANCH  17  18
ENDBRANCH  16  17
ENDBRANCH  15  16
ENDBRANCH  14  15
ENDBRANCH  13  14
ENDBRANCH   2  13
TORSDOF 15
ENDMDL
MODEL 8
REMARK VINA RESULT:    -4.339      1.647      2.861
REMARK INTER + INTRA:          -9.247
REMARK INTER:                  -8.570
REMARK INTRA:                  -0.677
REMARK UNBOUND:                -1.104
REMARK SMILES CCCCCCCCC=CCCCCCCCC(=O)[O-]
REMARK SMILES IDX 10 1 9 2 11 3 12 4 13 5 14 6 15 7 16 8 17 9 18 10 19 11
REMARK SMILES IDX 20 12 8 13 7 14 6 15 5 16 4 17 3 18 2 19 1 20
REMARK H PARENT
REMARK Flexibility Score: inf
ROOT
ATOM      1  C   UNL     1     -11.913  -5.116  22.302  1.00  0.00    -0.031 C 
ATOM      2  C   UNL     1     -12.115  -4.220  23.286  1.00  0.00    -0.031 C 
ENDROOT
BRANCH   1   3
ATOM      3  C   UNL     1     -11.115  -4.853  21.048  1.00  0.00     0.027 C 
BRANCH   3   4
ATOM      4  C   UNL     1     -10.946  -6.119  20.190  1.00  0.00     0.004 C 
BRANCH   4   5
ATOM      5  C   UNL     1     -10.060  -5.933  18.941  1.00  0.00     0.000 C 
BRANCH   5   6
ATOM      6  C   UNL     1     -10.375  -4.684  18.098  1.00  0.00     0.000 C 
BRANCH   6   7
ATOM      7  C   UNL     1      -9.460  -4.542  16.872  1.00  0.00     0.000 C 
BRANCH   7   8
ATOM      8  C   UNL     1     -10.229  -4.833  15.578  1.00  0.00     0.006 C 
BRANCH   8   9
ATOM      9  C   UNL     1     -10.026  -6.284  15.132  1.00  0.00     0.053 C 
BRANCH   9  10
ATOM     10  C   UNL     1     -10.249  -6.416  13.659  1.00  0.00     0.041 C 
ATOM     11  O   UNL     1      -9.343  -6.887  12.920  1.00  0.00    -0.550 OA
ATOM     12  O   UNL     1     -11.473  -6.063  13.106  1.00  0.00    -0.550 OA
ENDBRANCH   9  10
ENDBRANCH   8   9
ENDBRANCH   7   8
ENDBRANCH   6   7
ENDBRANCH   5   6
ENDBRANCH   4   5
ENDBRANCH   3   4
ENDBRANCH   1   3
BRANCH   2  13
ATOM     13  C   UNL     1     -11.494  -2.846  23.341  1.00  0.00     0.027 C 
BRANCH  13  14
ATOM     14  C   UNL     1     -12.066  -1.993  24.486  1.00  0.00     0.004 C 
BRANCH  14  15
ATOM     15  C   UNL     1     -11.814  -2.565  25.894  1.00  0.00     0.000 C 
BRANCH  15  16
ATOM     16  C   UNL     1     -10.810  -1.733  26.705  1.00  0.00     0.000 C 
BRANCH  16  17
ATOM     17  C   UNL     1      -9.809  -1.028  25.777  1.00  0.00    -0.000 C 
BRANCH  17  18
ATOM     18  C   UNL     1      -9.505   0.418  26.210  1.00  0.00    -0.000 C 
BRANCH  18  19
ATOM     19  C   UNL     1      -8.199   1.002  25.642  1.00  0.00    -0.003 C 
ATOM     20  C   UNL     1      -8.077   0.832  24.129  1.00  0.00     0.004 C 
ENDBRANCH  18  19
ENDBRANCH  17  18
ENDBRANCH  16  17
ENDBRANCH  15  16
ENDBRANCH  14  15
ENDBRANCH  13  14
ENDBRANCH   2  13
TORSDOF 15
ENDMDL
MODEL 9
REMARK VINA RESULT:    -4.073      1.383      2.545
REMARK INTER + INTRA:          -8.749
REMARK INTER:                  -7.818
REMARK INTRA:                  -0.931
REMARK UNBOUND:                -1.104
REMARK SMILES CCCCCCCCC=CCCCCCCCC(=O)[O-]
REMARK SMILES IDX 10 1 9 2 11 3 12 4 13 5 14 6 15 7 16 8 17 9 18 10 19 11
REMARK SMILES IDX 20 12 8 13 7 14 6 15 5 16 4 17 3 18 2 19 1 20
REMARK H PARENT
REMARK Flexibility Score: inf
ROOT
ATOM      1  C   UNL     1     -11.066  -2.312  25.100  1.00  0.00    -0.031 C 
ATOM      2  C   UNL     1     -10.287  -1.446  25.773  1.00  0.00    -0.031 C 
ENDROOT
BRANCH   1   3
ATOM      3  C   UNL     1     -11.446  -3.688  25.589  1.00  0.00     0.027 C 
BRANCH   3   4
ATOM      4  C   UNL     1     -10.895  -4.801  24.681  1.00  0.00     0.004 C 
BRANCH   4   5
ATOM      5  C   UNL     1     -11.761  -5.105  23.441  1.00  0.00     0.000 C 
BRANCH   5   6
ATOM      6  C   UNL     1     -11.293  -4.434  22.138  1.00  0.00     0.000 C 
BRANCH   6   7
ATOM      7  C   UNL     1     -10.765  -5.437  21.102  1.00  0.00     0.000 C 
BRANCH   7   8
ATOM      8  C   UNL     1     -11.613  -5.405  19.825  1.00  0.00     0.006 C 
BRANCH   8   9
ATOM      9  C   UNL     1     -11.315  -4.151  18.998  1.00  0.00     0.053 C 
BRANCH   9  10
ATOM     10  C   UNL     1     -10.435  -4.486  17.836  1.00  0.00     0.041 C 
ATOM     11  O   UNL     1      -9.375  -5.143  18.013  1.00  0.00    -0.550 OA
ATOM     12  O   UNL     1     -10.807  -4.114  16.551  1.00  0.00    -0.550 OA
ENDBRANCH   9  10
ENDBRANCH   8   9
ENDBRANCH   7   8
ENDBRANCH   6   7
ENDBRANCH   5   6
ENDBRANCH   4   5
ENDBRANCH   3   4
ENDBRANCH   1   3
BRANCH   2  13
ATOM     13  C   UNL     1      -9.751  -1.671  27.166  1.00  0.00     0.027 C 
BRANCH  13  14
ATOM     14  C   UNL     1      -9.045  -0.425  27.727  1.00  0.00     0.004 C 
BRANCH  14  15
ATOM     15  C   UNL     1      -9.108   0.811  26.809  1.00  0.00     0.000 C 
BRANCH  15  16
ATOM     16  C   UNL     1      -7.719   1.359  26.449  1.00  0.00     0.000 C 
BRANCH  16  17
ATOM     17  C   UNL     1      -7.597   1.583  24.935  1.00  0.00    -0.000 C 
BRANCH  17  18
ATOM     18  C   UNL     1      -8.730   0.914  24.135  1.00  0.00    -0.000 C 
BRANCH  18  19
ATOM     19  C   UNL     1      -8.519   0.892  22.610  1.00  0.00    -0.003 C 
ATOM     20  C   UNL     1      -8.876   2.217  21.939  1.00  0.00     0.004 C 
ENDBRANCH  18  19
ENDBRANCH  17  18
ENDBRANCH  16  17
ENDBRANCH  15  16
ENDBRANCH  14  15
ENDBRANCH  13  14
ENDBRANCH   2  13
TORSDOF 15
ENDMDL
