MODEL 1
REMARK VINA RESULT:    -3.718      0.000      0.000
REMARK INTER + INTRA:          -9.718
REMARK INTER:                  -8.501
REMARK INTRA:                  -1.217
REMARK UNBOUND:                -1.217
REMARK SMILES CCCCCCCCCCCCCCCCCCCCCCCC(=O)[O-]
REMARK SMILES IDX 13 1 14 2 15 3 16 4 17 5 18 6 19 7 20 8 21 9 22 10 23 11
REMARK SMILES IDX 24 12 25 13 26 14 12 15 11 16 10 17 9 18 8 19 7 20 6 21 5 22
REMARK SMILES IDX 4 23 3 24 2 25 1 26
REMARK H PARENT
REMARK Flexibility Score: inf
ROOT
ATOM      1  C   UNL     1     -15.886  -6.457 -20.469  1.00  0.00     0.000 C 
ENDROOT
BRANCH   1   2
ATOM      2  C   UNL     1     -15.356  -7.903 -20.403  1.00  0.00     0.000 C 
BRANCH   2   3
ATOM      3  C   UNL     1     -16.391  -8.959 -19.973  1.00  0.00     0.000 C 
BRANCH   3   4
ATOM      4  C   UNL     1     -15.974 -10.390 -20.351  1.00  0.00     0.000 C 
BRANCH   4   5
ATOM      5  C   UNL     1     -16.957 -11.449 -19.825  1.00  0.00     0.000 C 
BRANCH   5   6
ATOM      6  C   UNL     1     -16.490 -12.886 -20.104  1.00  0.00     0.000 C 
BRANCH   6   7
ATOM      7  C   UNL     1     -17.666 -13.763 -20.557  1.00  0.00     0.000 C 
BRANCH   7   8
ATOM      8  C   UNL     1     -18.624 -13.028 -21.509  1.00  0.00     0.000 C 
BRANCH   8   9
ATOM      9  C   UNL     1     -19.168 -13.938 -22.620  1.00  0.00     0.000 C 
BRANCH   9  10
ATOM     10  C   UNL     1     -19.060 -13.255 -23.989  1.00  0.00     0.006 C 
BRANCH  10  11
ATOM     11  C   UNL     1     -17.826 -12.350 -24.057  1.00  0.00     0.053 C 
BRANCH  11  12
ATOM     12  C   UNL     1     -17.139 -12.502 -25.377  1.00  0.00     0.041 C 
ATOM     13  O   UNL     1     -15.996 -13.024 -25.440  1.00  0.00    -0.550 OA
ATOM     14  O   UNL     1     -17.740 -12.019 -26.533  1.00  0.00    -0.550 OA
ENDBRANCH  11  12
ENDBRANCH  10  11
ENDBRANCH   9  10
ENDBRANCH   8   9
ENDBRANCH   7   8
ENDBRANCH   6   7
ENDBRANCH   5   6
ENDBRANCH   4   5
ENDBRANCH   3   4
ENDBRANCH   2   3
ENDBRANCH   1   2
BRANCH   1  15
ATOM     15  C   UNL     1     -15.125  -5.442 -19.594  1.00  0.00     0.000 C 
BRANCH  15  16
ATOM     16  C   UNL     1     -13.970  -6.034 -18.762  1.00  0.00     0.000 C 
BRANCH  16  17
ATOM     17  C   UNL     1     -14.072  -5.794 -17.244  1.00  0.00     0.000 C 
BRANCH  17  18
ATOM     18  C   UNL     1     -14.409  -4.338 -16.890  1.00  0.00    -0.000 C 
BRANCH  18  19
ATOM     19  C   UNL     1     -14.514  -4.153 -15.372  1.00  0.00    -0.000 C 
BRANCH  19  20
ATOM     20  C   UNL     1     -14.344  -2.677 -14.984  1.00  0.00    -0.000 C 
BRANCH  20  21
ATOM     21  C   UNL     1     -13.467  -2.488 -13.736  1.00  0.00    -0.000 C 
BRANCH  21  22
ATOM     22  C   UNL     1     -13.517  -3.696 -12.788  1.00  0.00    -0.000 C 
BRANCH  22  23
ATOM     23  C   UNL     1     -13.184  -3.276 -11.348  1.00  0.00    -0.000 C 
BRANCH  23  24
ATOM     24  C   UNL     1     -14.324  -3.572 -10.358  1.00  0.00    -0.000 C 
BRANCH  24  25
ATOM     25  C   UNL     1     -13.896  -4.332  -9.089  1.00  0.00    -0.003 C 
ATOM     26  C   UNL     1     -14.003  -5.850  -9.237  1.00  0.00     0.004 C 
ENDBRANCH  24  25
ENDBRANCH  23  24
ENDBRANCH  22  23
ENDBRANCH  21  22
ENDBRANCH  20  21
ENDBRANCH  19  20
ENDBRANCH  18  19
ENDBRANCH  17  18
ENDBRANCH  16  17
ENDBRANCH  15  16
ENDBRANCH   1  15
TORSDOF 22
ENDMDL
MODEL 2
REMARK VINA RESULT:    -3.527      5.230     13.058
REMARK INTER + INTRA:          -9.281
REMARK INTER:                  -7.868
REMARK INTRA:                  -1.414
REMARK UNBOUND:                -1.217
REMARK SMILES CCCCCCCCCCCCCCCCCCCCCCCC(=O)[O-]
REMARK SMILES IDX 13 1 14 2 15 3 16 4 17 5 18 6 19 7 20 8 21 9 22 10 23 11
REMARK SMILES IDX 24 12 25 13 26 14 12 15 11 16 10 17 9 18 8 19 7 20 6 21 5 22
REMARK SMILES IDX 4 23 3 24 2 25 1 26
REMARK H PARENT
REMARK Flexibility Score: inf
ROOT
ATOM      1  C   UNL     1     -15.142  -8.043 -20.125  1.00  0.00     0.000 C 
ENDROOT
BRANCH   1   2
ATOM      2  C   UNL     1     -15.511  -6.595 -20.502  1.00  0.00     0.000 C 
BRANCH   2   3
ATOM      3  C   UNL     1     -14.791  -5.504 -19.688  1.00  0.00     0.000 C 
BRANCH   3   4
ATOM      4  C   UNL     1     -13.974  -6.075 -18.517  1.00  0.00     0.000 C 
BRANCH   4   5
ATOM      5  C   UNL     1     -14.271  -5.362 -17.188  1.00  0.00     0.000 C 
BRANCH   5   6
ATOM      6  C   UNL     1     -13.985  -6.243 -15.962  1.00  0.00     0.000 C 
BRANCH   6   7
ATOM      7  C   UNL     1     -14.207  -5.457 -14.662  1.00  0.00     0.000 C 
BRANCH   7   8
ATOM      8  C   UNL     1     -14.668  -4.012 -14.912  1.00  0.00     0.000 C 
BRANCH   8   9
ATOM      9  C   UNL     1     -13.940  -2.996 -14.019  1.00  0.00     0.000 C 
BRANCH   9  10
ATOM     10  C   UNL     1     -13.591  -3.612 -12.659  1.00  0.00     0.006 C 
BRANCH  10  11
ATOM     11  C   UNL     1     -14.701  -3.353 -11.636  1.00  0.00     0.053 C 
BRANCH  11  12
ATOM     12  C   UNL     1     -14.223  -3.671 -10.254  1.00  0.00     0.041 C 
ATOM     13  O   UNL     1     -15.030  -3.672  -9.289  1.00  0.00    -0.550 OA
ATOM     14  O   UNL     1     -12.875  -3.916 -10.025  1.00  0.00    -0.550 OA
ENDBRANCH  11  12
ENDBRANCH  10  11
ENDBRANCH   9  10
ENDBRANCH   8   9
ENDBRANCH   7   8
ENDBRANCH   6   7
ENDBRANCH   5   6
ENDBRANCH   4   5
ENDBRANCH   3   4
ENDBRANCH   2   3
ENDBRANCH   1   2
BRANCH   1  15
ATOM     15  C   UNL     1     -16.334  -8.944 -19.748  1.00  0.00     0.000 C 
BRANCH  15  16
ATOM     16  C   UNL     1     -16.261 -10.385 -20.293  1.00  0.00     0.000 C 
BRANCH  16  17
ATOM     17  C   UNL     1     -17.064 -11.425 -19.490  1.00  0.00     0.000 C 
BRANCH  17  18
ATOM     18  C   UNL     1     -16.449 -12.831 -19.552  1.00  0.00    -0.000 C 
BRANCH  18  19
ATOM     19  C   UNL     1     -17.400 -13.817 -20.241  1.00  0.00    -0.000 C 
BRANCH  19  20
ATOM     20  C   UNL     1     -17.384 -13.624 -21.764  1.00  0.00    -0.000 C 
BRANCH  20  21
ATOM     21  C   UNL     1     -18.760 -13.858 -22.407  1.00  0.00    -0.000 C 
BRANCH  21  22
ATOM     22  C   UNL     1     -19.118 -12.786 -23.448  1.00  0.00    -0.000 C 
BRANCH  22  23
ATOM     23  C   UNL     1     -19.288 -13.409 -24.841  1.00  0.00    -0.000 C 
BRANCH  23  24
ATOM     24  C   UNL     1     -18.598 -12.596 -25.950  1.00  0.00    -0.000 C 
BRANCH  24  25
ATOM     25  C   UNL     1     -17.155 -12.165 -25.633  1.00  0.00    -0.003 C 
ATOM     26  C   UNL     1     -16.171 -13.335 -25.616  1.00  0.00     0.004 C 
ENDBRANCH  24  25
ENDBRANCH  23  24
ENDBRANCH  22  23
ENDBRANCH  21  22
ENDBRANCH  20  21
ENDBRANCH  19  20
ENDBRANCH  18  19
ENDBRANCH  17  18
ENDBRANCH  16  17
ENDBRANCH  15  16
ENDBRANCH   1  15
TORSDOF 22
ENDMDL
MODEL 3
REMARK VINA RESULT:    -2.990      4.505     12.541
REMARK INTER + INTRA:          -8.053
REMARK INTER:                  -6.730
REMARK INTRA:                  -1.323
REMARK UNBOUND:                -1.217
REMARK SMILES CCCCCCCCCCCCCCCCCCCCCCCC(=O)[O-]
REMARK SMILES IDX 13 1 14 2 15 3 16 4 17 5 18 6 19 7 20 8 21 9 22 10 23 11
REMARK SMILES IDX 24 12 25 13 26 14 12 15 11 16 10 17 9 18 8 19 7 20 6 21 5 22
REMARK SMILES IDX 4 23 3 24 2 25 1 26
REMARK H PARENT
REMARK Flexibility Score: inf
ROOT
ATOM      1  C   UNL     1     -15.480  -8.011 -20.398  1.00  0.00     0.000 C 
ENDROOT
BRANCH   1   2
ATOM      2  C   UNL     1     -15.999  -6.559 -20.382  1.00  0.00     0.000 C 
BRANCH   2   3
ATOM      3  C   UNL     1     -14.949  -5.494 -20.015  1.00  0.00     0.000 C 
BRANCH   3   4
ATOM      4  C   UNL     1     -13.925  -5.997 -18.984  1.00  0.00     0.000 C 
BRANCH   4   5
ATOM      5  C   UNL     1     -14.375  -5.749 -17.536  1.00  0.00     0.000 C 
BRANCH   5   6
ATOM      6  C   UNL     1     -13.586  -6.585 -16.515  1.00  0.00     0.000 C 
BRANCH   6   7
ATOM      7  C   UNL     1     -14.418  -6.823 -15.246  1.00  0.00     0.000 C 
BRANCH   7   8
ATOM      8  C   UNL     1     -14.003  -5.907 -14.083  1.00  0.00     0.000 C 
BRANCH   8   9
ATOM      9  C   UNL     1     -14.430  -4.447 -14.299  1.00  0.00     0.000 C 
BRANCH   9  10
ATOM     10  C   UNL     1     -13.961  -3.562 -13.137  1.00  0.00     0.006 C 
BRANCH  10  11
ATOM     11  C   UNL     1     -13.005  -2.470 -13.628  1.00  0.00     0.053 C 
BRANCH  11  12
ATOM     12  C   UNL     1     -13.674  -1.615 -14.658  1.00  0.00     0.041 C 
ATOM     13  O   UNL     1     -14.583  -0.812 -14.321  1.00  0.00    -0.550 OA
ATOM     14  O   UNL     1     -13.329  -1.742 -15.997  1.00  0.00    -0.550 OA
ENDBRANCH  11  12
ENDBRANCH  10  11
ENDBRANCH   9  10
ENDBRANCH   8   9
ENDBRANCH   7   8
ENDBRANCH   6   7
ENDBRANCH   5   6
ENDBRANCH   4   5
ENDBRANCH   3   4
ENDBRANCH   2   3
ENDBRANCH   1   2
BRANCH   1  15
ATOM     15  C   UNL     1     -16.484  -9.070 -19.901  1.00  0.00     0.000 C 
BRANCH  15  16
ATOM     16  C   UNL     1     -16.137 -10.524 -20.275  1.00  0.00     0.000 C 
BRANCH  16  17
ATOM     17  C   UNL     1     -16.916 -11.600 -19.496  1.00  0.00     0.000 C 
BRANCH  17  18
ATOM     18  C   UNL     1     -16.433 -13.026 -19.801  1.00  0.00    -0.000 C 
BRANCH  18  19
ATOM     19  C   UNL     1     -16.909 -13.483 -21.185  1.00  0.00    -0.000 C 
BRANCH  19  20
ATOM     20  C   UNL     1     -18.440 -13.435 -21.284  1.00  0.00    -0.000 C 
BRANCH  20  21
ATOM     21  C   UNL     1     -18.931 -12.923 -22.648  1.00  0.00    -0.000 C 
BRANCH  21  22
ATOM     22  C   UNL     1     -19.020 -14.037 -23.703  1.00  0.00    -0.000 C 
BRANCH  22  23
ATOM     23  C   UNL     1     -17.819 -13.982 -24.659  1.00  0.00    -0.000 C 
BRANCH  23  24
ATOM     24  C   UNL     1     -17.384 -12.544 -24.993  1.00  0.00    -0.000 C 
BRANCH  24  25
ATOM     25  C   UNL     1     -17.682 -12.097 -26.435  1.00  0.00    -0.003 C 
ATOM     26  C   UNL     1     -19.153 -12.254 -26.818  1.00  0.00     0.004 C 
ENDBRANCH  24  25
ENDBRANCH  23  24
ENDBRANCH  22  23
ENDBRANCH  21  22
ENDBRANCH  20  21
ENDBRANCH  19  20
ENDBRANCH  18  19
ENDBRANCH  17  18
ENDBRANCH  16  17
ENDBRANCH  15  16
ENDBRANCH   1  15
TORSDOF 22
ENDMDL
MODEL 4
REMARK VINA RESULT:    -2.841      1.603      2.624
REMARK INTER + INTRA:          -7.711
REMARK INTER:                  -7.007
REMARK INTRA:                  -0.704
REMARK UNBOUND:                -1.217
REMARK SMILES CCCCCCCCCCCCCCCCCCCCCCCC(=O)[O-]
REMARK SMILES IDX 13 1 14 2 15 3 16 4 17 5 18 6 19 7 20 8 21 9 22 10 23 11
REMARK SMILES IDX 24 12 25 13 26 14 12 15 11 16 10 17 9 18 8 19 7 20 6 21 5 22
REMARK SMILES IDX 4 23 3 24 2 25 1 26
REMARK H PARENT
REMARK Flexibility Score: inf
ROOT
ATOM      1  C   UNL     1     -16.242  -6.563 -20.698  1.00  0.00     0.000 C 
ENDROOT
BRANCH   1   2
ATOM      2  C   UNL     1     -15.513  -7.904 -20.486  1.00  0.00     0.000 C 
BRANCH   2   3
ATOM      3  C   UNL     1     -16.356  -9.010 -19.826  1.00  0.00     0.000 C 
BRANCH   3   4
ATOM      4  C   UNL     1     -16.155 -10.386 -20.482  1.00  0.00     0.000 C 
BRANCH   4   5
ATOM      5  C   UNL     1     -16.968 -11.493 -19.793  1.00  0.00     0.000 C 
BRANCH   5   6
ATOM      6  C   UNL     1     -16.520 -12.905 -20.202  1.00  0.00     0.000 C 
BRANCH   6   7
ATOM      7  C   UNL     1     -17.734 -13.802 -20.483  1.00  0.00     0.000 C 
BRANCH   7   8
ATOM      8  C   UNL     1     -17.992 -14.001 -21.985  1.00  0.00     0.000 C 
BRANCH   8   9
ATOM      9  C   UNL     1     -19.097 -13.080 -22.523  1.00  0.00     0.000 C 
BRANCH   9  10
ATOM     10  C   UNL     1     -19.006 -12.948 -24.048  1.00  0.00     0.006 C 
BRANCH  10  11
ATOM     11  C   UNL     1     -17.765 -13.663 -24.590  1.00  0.00     0.053 C 
BRANCH  11  12
ATOM     12  C   UNL     1     -17.016 -12.771 -25.529  1.00  0.00     0.041 C 
ATOM     13  O   UNL     1     -17.619 -11.857 -26.150  1.00  0.00    -0.550 OA
ATOM     14  O   UNL     1     -15.663 -12.983 -25.758  1.00  0.00    -0.550 OA
ENDBRANCH  11  12
ENDBRANCH  10  11
ENDBRANCH   9  10
ENDBRANCH   8   9
ENDBRANCH   7   8
ENDBRANCH   6   7
ENDBRANCH   5   6
ENDBRANCH   4   5
ENDBRANCH   3   4
ENDBRANCH   2   3
ENDBRANCH   1   2
BRANCH   1  15
ATOM     15  C   UNL     1     -15.738  -5.399 -19.822  1.00  0.00     0.000 C 
BRANCH  15  16
ATOM     16  C   UNL     1     -14.207  -5.315 -19.666  1.00  0.00     0.000 C 
BRANCH  16  17
ATOM     17  C   UNL     1     -13.606  -6.266 -18.615  1.00  0.00     0.000 C 
BRANCH  17  18
ATOM     18  C   UNL     1     -14.009  -5.900 -17.178  1.00  0.00    -0.000 C 
BRANCH  18  19
ATOM     19  C   UNL     1     -13.656  -7.030 -16.204  1.00  0.00    -0.000 C 
BRANCH  19  20
ATOM     20  C   UNL     1     -14.392  -6.855 -14.868  1.00  0.00    -0.000 C 
BRANCH  20  21
ATOM     21  C   UNL     1     -13.890  -5.643 -14.068  1.00  0.00    -0.000 C 
BRANCH  21  22
ATOM     22  C   UNL     1     -14.754  -4.391 -14.285  1.00  0.00    -0.000 C 
BRANCH  22  23
ATOM     23  C   UNL     1     -14.454  -3.326 -13.219  1.00  0.00    -0.000 C 
BRANCH  23  24
ATOM     24  C   UNL     1     -13.136  -2.575 -13.477  1.00  0.00    -0.000 C 
BRANCH  24  25
ATOM     25  C   UNL     1     -13.253  -1.374 -14.432  1.00  0.00    -0.003 C 
ATOM     26  C   UNL     1     -13.674  -1.774 -15.846  1.00  0.00     0.004 C 
ENDBRANCH  24  25
ENDBRANCH  23  24
ENDBRANCH  22  23
ENDBRANCH  21  22
ENDBRANCH  20  21
ENDBRANCH  19  20
ENDBRANCH  18  19
ENDBRANCH  17  18
ENDBRANCH  16  17
ENDBRANCH  15  16
ENDBRANCH   1  15
TORSDOF 22
ENDMDL
MODEL 5
REMARK VINA RESULT:    -2.809      0.786      1.225
REMARK INTER + INTRA:          -7.638
REMARK INTER:                  -6.572
REMARK INTRA:                  -1.066
REMARK UNBOUND:                -1.217
REMARK SMILES CCCCCCCCCCCCCCCCCCCCCCCC(=O)[O-]
REMARK SMILES IDX 13 1 14 2 15 3 16 4 17 5 18 6 19 7 20 8 21 9 22 10 23 11
REMARK SMILES IDX 24 12 25 13 26 14 12 15 11 16 10 17 9 18 8 19 7 20 6 21 5 22
REMARK SMILES IDX 4 23 3 24 2 25 1 26
REMARK H PARENT
REMARK Flexibility Score: inf
ROOT
ATOM      1  C   UNL     1     -15.406  -5.634 -19.513  1.00  0.00     0.000 C 
ENDROOT
BRANCH   1   2
ATOM      2  C   UNL     1     -15.810  -6.724 -20.526  1.00  0.00     0.000 C 
BRANCH   2   3
ATOM      3  C   UNL     1     -15.376  -8.154 -20.156  1.00  0.00     0.000 C 
BRANCH   3   4
ATOM      4  C   UNL     1     -16.549  -9.149 -20.151  1.00  0.00     0.000 C 
BRANCH   4   5
ATOM      5  C   UNL     1     -16.082 -10.610 -20.264  1.00  0.00     0.000 C 
BRANCH   5   6
ATOM      6  C   UNL     1     -17.208 -11.618 -19.985  1.00  0.00     0.000 C 
BRANCH   6   7
ATOM      7  C   UNL     1     -16.785 -13.035 -20.399  1.00  0.00     0.000 C 
BRANCH   7   8
ATOM      8  C   UNL     1     -17.853 -13.751 -21.243  1.00  0.00     0.000 C 
BRANCH   8   9
ATOM      9  C   UNL     1     -18.564 -12.805 -22.223  1.00  0.00     0.000 C 
BRANCH   9  10
ATOM     10  C   UNL     1     -19.101 -13.576 -23.435  1.00  0.00     0.006 C 
BRANCH  10  11
ATOM     11  C   UNL     1     -17.992 -13.833 -24.460  1.00  0.00     0.053 C 
BRANCH  11  12
ATOM     12  C   UNL     1     -17.984 -12.760 -25.502  1.00  0.00     0.041 C 
ATOM     13  O   UNL     1     -17.033 -11.936 -25.556  1.00  0.00    -0.550 OA
ATOM     14  O   UNL     1     -19.052 -12.637 -26.381  1.00  0.00    -0.550 OA
ENDBRANCH  11  12
ENDBRANCH  10  11
ENDBRANCH   9  10
ENDBRANCH   8   9
ENDBRANCH   7   8
ENDBRANCH   6   7
ENDBRANCH   5   6
ENDBRANCH   4   5
ENDBRANCH   3   4
ENDBRANCH   2   3
ENDBRANCH   1   2
BRANCH   1  15
ATOM     15  C   UNL     1     -14.051  -5.861 -18.814  1.00  0.00     0.000 C 
BRANCH  15  16
ATOM     16  C   UNL     1     -13.871  -5.108 -17.481  1.00  0.00     0.000 C 
BRANCH  16  17
ATOM     17  C   UNL     1     -14.312  -5.887 -16.228  1.00  0.00     0.000 C 
BRANCH  17  18
ATOM     18  C   UNL     1     -14.327  -5.020 -14.961  1.00  0.00    -0.000 C 
BRANCH  18  19
ATOM     19  C   UNL     1     -14.663  -3.562 -15.297  1.00  0.00    -0.000 C 
BRANCH  19  20
ATOM     20  C   UNL     1     -14.003  -2.600 -14.299  1.00  0.00    -0.000 C 
BRANCH  20  21
ATOM     21  C   UNL     1     -13.209  -3.331 -13.205  1.00  0.00    -0.000 C 
BRANCH  21  22
ATOM     22  C   UNL     1     -14.030  -3.553 -11.926  1.00  0.00    -0.000 C 
BRANCH  22  23
ATOM     23  C   UNL     1     -13.206  -3.201 -10.678  1.00  0.00    -0.000 C 
BRANCH  23  24
ATOM     24  C   UNL     1     -13.810  -3.768  -9.381  1.00  0.00    -0.000 C 
BRANCH  24  25
ATOM     25  C   UNL     1     -13.153  -5.065  -8.875  1.00  0.00    -0.003 C 
ATOM     26  C   UNL     1     -13.979  -6.313  -9.182  1.00  0.00     0.004 C 
ENDBRANCH  24  25
ENDBRANCH  23  24
ENDBRANCH  22  23
ENDBRANCH  21  22
ENDBRANCH  20  21
ENDBRANCH  19  20
ENDBRANCH  18  19
ENDBRANCH  17  18
ENDBRANCH  16  17
ENDBRANCH  15  16
ENDBRANCH   1  15
TORSDOF 22
ENDMDL
MODEL 6
REMARK VINA RESULT:    -2.612      4.939     12.428
REMARK INTER + INTRA:          -7.189
REMARK INTER:                  -5.566
REMARK INTRA:                  -1.623
REMARK UNBOUND:                -1.217
REMARK SMILES CCCCCCCCCCCCCCCCCCCCCCCC(=O)[O-]
REMARK SMILES IDX 13 1 14 2 15 3 16 4 17 5 18 6 19 7 20 8 21 9 22 10 23 11
REMARK SMILES IDX 24 12 25 13 26 14 12 15 11 16 10 17 9 18 8 19 7 20 6 21 5 22
REMARK SMILES IDX 4 23 3 24 2 25 1 26
REMARK H PARENT
REMARK Flexibility Score: inf
ROOT
ATOM      1  C   UNL     1     -16.525  -9.089 -19.848  1.00  0.00     0.000 C 
ENDROOT
BRANCH   1   2
ATOM      2  C   UNL     1     -15.485  -8.048 -20.309  1.00  0.00     0.000 C 
BRANCH   2   3
ATOM      3  C   UNL     1     -16.070  -6.706 -20.786  1.00  0.00     0.000 C 
BRANCH   3   4
ATOM      4  C   UNL     1     -15.596  -5.514 -19.938  1.00  0.00     0.000 C 
BRANCH   4   5
ATOM      5  C   UNL     1     -14.253  -5.783 -19.240  1.00  0.00     0.000 C 
BRANCH   5   6
ATOM      6  C   UNL     1     -14.227  -5.289 -17.786  1.00  0.00     0.000 C 
BRANCH   6   7
ATOM      7  C   UNL     1     -13.686  -6.379 -16.849  1.00  0.00     0.000 C 
BRANCH   7   8
ATOM      8  C   UNL     1     -14.491  -6.495 -15.544  1.00  0.00     0.000 C 
BRANCH   8   9
ATOM      9  C   UNL     1     -13.765  -5.870 -14.343  1.00  0.00     0.000 C 
BRANCH   9  10
ATOM     10  C   UNL     1     -14.486  -4.604 -13.865  1.00  0.00     0.006 C 
BRANCH  10  11
ATOM     11  C   UNL     1     -14.203  -3.423 -14.798  1.00  0.00     0.053 C 
BRANCH  11  12
ATOM     12  C   UNL     1     -13.505  -2.327 -14.056  1.00  0.00     0.041 C 
ATOM     13  O   UNL     1     -12.897  -2.576 -12.983  1.00  0.00    -0.550 OA
ATOM     14  O   UNL     1     -13.570  -1.021 -14.524  1.00  0.00    -0.550 OA
ENDBRANCH  11  12
ENDBRANCH  10  11
ENDBRANCH   9  10
ENDBRANCH   8   9
ENDBRANCH   7   8
ENDBRANCH   6   7
ENDBRANCH   5   6
ENDBRANCH   4   5
ENDBRANCH   3   4
ENDBRANCH   2   3
ENDBRANCH   1   2
BRANCH   1  15
ATOM     15  C   UNL     1     -16.256 -10.532 -20.315  1.00  0.00     0.000 C 
BRANCH  15  16
ATOM     16  C   UNL     1     -17.022 -11.622 -19.540  1.00  0.00     0.000 C 
BRANCH  16  17
ATOM     17  C   UNL     1     -16.385 -13.024 -19.586  1.00  0.00     0.000 C 
BRANCH  17  18
ATOM     18  C   UNL     1     -17.388 -14.123 -19.968  1.00  0.00    -0.000 C 
BRANCH  18  19
ATOM     19  C   UNL     1     -17.765 -14.031 -21.451  1.00  0.00    -0.000 C 
BRANCH  19  20
ATOM     20  C   UNL     1     -19.288 -14.084 -21.637  1.00  0.00    -0.000 C 
BRANCH  20  21
ATOM     21  C   UNL     1     -19.814 -12.964 -22.549  1.00  0.00    -0.000 C 
BRANCH  21  22
ATOM     22  C   UNL     1     -18.741 -12.431 -23.512  1.00  0.00    -0.000 C 
BRANCH  22  23
ATOM     23  C   UNL     1     -19.019 -12.890 -24.951  1.00  0.00    -0.000 C 
BRANCH  23  24
ATOM     24  C   UNL     1     -17.734 -13.139 -25.760  1.00  0.00    -0.000 C 
BRANCH  24  25
ATOM     25  C   UNL     1     -16.430 -12.765 -25.032  1.00  0.00    -0.003 C 
ATOM     26  C   UNL     1     -15.178 -13.080 -25.850  1.00  0.00     0.004 C 
ENDBRANCH  24  25
ENDBRANCH  23  24
ENDBRANCH  22  23
ENDBRANCH  21  22
ENDBRANCH  20  21
ENDBRANCH  19  20
ENDBRANCH  18  19
ENDBRANCH  17  18
ENDBRANCH  16  17
ENDBRANCH  15  16
ENDBRANCH   1  15
TORSDOF 22
ENDMDL
MODEL 7
REMARK VINA RESULT:    -2.599      1.805      3.790
REMARK INTER + INTRA:          -7.159
REMARK INTER:                  -6.464
REMARK INTRA:                  -0.695
REMARK UNBOUND:                -1.217
REMARK SMILES CCCCCCCCCCCCCCCCCCCCCCCC(=O)[O-]
REMARK SMILES IDX 13 1 14 2 15 3 16 4 17 5 18 6 19 7 20 8 21 9 22 10 23 11
REMARK SMILES IDX 24 12 25 13 26 14 12 15 11 16 10 17 9 18 8 19 7 20 6 21 5 22
REMARK SMILES IDX 4 23 3 24 2 25 1 26
REMARK H PARENT
REMARK Flexibility Score: inf
ROOT
ATOM      1  C   UNL     1     -16.538 -10.646 -19.597  1.00  0.00     0.000 C 
ENDROOT
BRANCH   1   2
ATOM      2  C   UNL     1     -16.347 -11.756 -20.650  1.00  0.00     0.000 C 
BRANCH   2   3
ATOM      3  C   UNL     1     -16.470 -13.194 -20.114  1.00  0.00     0.000 C 
BRANCH   3   4
ATOM      4  C   UNL     1     -17.493 -14.035 -20.895  1.00  0.00     0.000 C 
BRANCH   4   5
ATOM      5  C   UNL     1     -18.602 -13.179 -21.527  1.00  0.00     0.000 C 
BRANCH   5   6
ATOM      6  C   UNL     1     -19.564 -13.999 -22.400  1.00  0.00     0.000 C 
BRANCH   6   7
ATOM      7  C   UNL     1     -19.077 -14.043 -23.856  1.00  0.00     0.000 C 
BRANCH   7   8
ATOM      8  C   UNL     1     -19.083 -12.660 -24.526  1.00  0.00     0.000 C 
BRANCH   8   9
ATOM      9  C   UNL     1     -19.206 -12.744 -26.055  1.00  0.00     0.000 C 
BRANCH   9  10
ATOM     10  C   UNL     1     -17.932 -12.228 -26.736  1.00  0.00     0.006 C 
BRANCH  10  11
ATOM     11  C   UNL     1     -16.856 -11.881 -25.702  1.00  0.00     0.053 C 
BRANCH  11  12
ATOM     12  C   UNL     1     -15.808 -12.947 -25.662  1.00  0.00     0.041 C 
ATOM     13  O   UNL     1     -16.052 -14.095 -26.118  1.00  0.00    -0.550 OA
ATOM     14  O   UNL     1     -14.577 -12.689 -25.073  1.00  0.00    -0.550 OA
ENDBRANCH  11  12
ENDBRANCH  10  11
ENDBRANCH   9  10
ENDBRANCH   8   9
ENDBRANCH   7   8
ENDBRANCH   6   7
ENDBRANCH   5   6
ENDBRANCH   4   5
ENDBRANCH   3   4
ENDBRANCH   2   3
ENDBRANCH   1   2
BRANCH   1  15
ATOM     15  C   UNL     1     -16.831  -9.245 -20.169  1.00  0.00     0.000 C 
BRANCH  15  16
ATOM     16  C   UNL     1     -15.647  -8.259 -20.117  1.00  0.00     0.000 C 
BRANCH  16  17
ATOM     17  C   UNL     1     -15.991  -6.809 -20.503  1.00  0.00     0.000 C 
BRANCH  17  18
ATOM     18  C   UNL     1     -15.077  -5.778 -19.824  1.00  0.00    -0.000 C 
BRANCH  18  19
ATOM     19  C   UNL     1     -13.963  -6.470 -19.031  1.00  0.00    -0.000 C 
BRANCH  19  20
ATOM     20  C   UNL     1     -13.577  -5.650 -17.791  1.00  0.00    -0.000 C 
BRANCH  20  21
ATOM     21  C   UNL     1     -14.752  -4.834 -17.230  1.00  0.00    -0.000 C 
BRANCH  21  22
ATOM     22  C   UNL     1     -14.449  -4.231 -15.850  1.00  0.00    -0.000 C 
BRANCH  22  23
ATOM     23  C   UNL     1     -14.205  -2.718 -15.955  1.00  0.00    -0.000 C 
BRANCH  23  24
ATOM     24  C   UNL     1     -13.313  -2.175 -14.824  1.00  0.00    -0.000 C 
BRANCH  24  25
ATOM     25  C   UNL     1     -13.807  -2.495 -13.402  1.00  0.00    -0.003 C 
ATOM     26  C   UNL     1     -15.276  -2.913 -13.359  1.00  0.00     0.004 C 
ENDBRANCH  24  25
ENDBRANCH  23  24
ENDBRANCH  22  23
ENDBRANCH  21  22
ENDBRANCH  20  21
ENDBRANCH  19  20
ENDBRANCH  18  19
ENDBRANCH  17  18
ENDBRANCH  16  17
ENDBRANCH  15  16
ENDBRANCH   1  15
TORSDOF 22
ENDMDL
MODEL 8
REMARK VINA RESULT:    -1.750      5.378     11.127
REMARK INTER + INTRA:          -5.217
REMARK INTER:                  -4.291
REMARK INTRA:                  -0.926
REMARK UNBOUND:                -1.217
REMARK SMILES CCCCCCCCCCCCCCCCCCCCCCCC(=O)[O-]
REMARK SMILES IDX 13 1 14 2 15 3 16 4 17 5 18 6 19 7 20 8 21 9 22 10 23 11
REMARK SMILES IDX 24 12 25 13 26 14 12 15 11 16 10 17 9 18 8 19 7 20 6 21 5 22
REMARK SMILES IDX 4 23 3 24 2 25 1 26
REMARK H PARENT
REMARK Flexibility Score: inf
ROOT
ATOM      1  C   UNL     1     -17.243 -14.082 -19.423  1.00  0.00     0.000 C 
ENDROOT
BRANCH   1   2
ATOM      2  C   UNL     1     -17.095 -13.537 -17.989  1.00  0.00     0.000 C 
BRANCH   2   3
ATOM      3  C   UNL     1     -17.662 -12.123 -17.766  1.00  0.00     0.000 C 
BRANCH   3   4
ATOM      4  C   UNL     1     -16.685 -11.015 -18.194  1.00  0.00     0.000 C 
BRANCH   4   5
ATOM      5  C   UNL     1     -17.101 -10.339 -19.511  1.00  0.00     0.000 C 
BRANCH   5   6
ATOM      6  C   UNL     1     -15.935  -9.619 -20.206  1.00  0.00     0.000 C 
BRANCH   6   7
ATOM      7  C   UNL     1     -16.124  -8.096 -20.152  1.00  0.00     0.000 C 
BRANCH   7   8
ATOM      8  C   UNL     1     -14.806  -7.342 -19.912  1.00  0.00     0.000 C 
BRANCH   8   9
ATOM      9  C   UNL     1     -14.986  -5.817 -19.926  1.00  0.00     0.000 C 
BRANCH   9  10
ATOM     10  C   UNL     1     -16.462  -5.441 -20.108  1.00  0.00     0.006 C 
BRANCH  10  11
ATOM     11  C   UNL     1     -16.642  -4.468 -21.277  1.00  0.00     0.053 C 
BRANCH  11  12
ATOM     12  C   UNL     1     -17.612  -5.021 -22.272  1.00  0.00     0.041 C 
ATOM     13  O   UNL     1     -18.553  -5.767 -21.893  1.00  0.00    -0.550 OA
ATOM     14  O   UNL     1     -17.447  -4.755 -23.625  1.00  0.00    -0.550 OA
ENDBRANCH  11  12
ENDBRANCH  10  11
ENDBRANCH   9  10
ENDBRANCH   8   9
ENDBRANCH   7   8
ENDBRANCH   6   7
ENDBRANCH   5   6
ENDBRANCH   4   5
ENDBRANCH   3   4
ENDBRANCH   2   3
ENDBRANCH   1   2
BRANCH   1  15
ATOM     15  C   UNL     1     -15.952 -14.067 -20.265  1.00  0.00     0.000 C 
BRANCH  15  16
ATOM     16  C   UNL     1     -15.804 -12.859 -21.211  1.00  0.00     0.000 C 
BRANCH  16  17
ATOM     17  C   UNL     1     -16.906 -12.730 -22.279  1.00  0.00     0.000 C 
BRANCH  17  18
ATOM     18  C   UNL     1     -18.183 -13.502 -21.916  1.00  0.00    -0.000 C 
BRANCH  18  19
ATOM     19  C   UNL     1     -19.433 -12.659 -22.200  1.00  0.00    -0.000 C 
BRANCH  19  20
ATOM     20  C   UNL     1     -19.943 -12.895 -23.629  1.00  0.00    -0.000 C 
BRANCH  20  21
ATOM     21  C   UNL     1     -18.824 -13.303 -24.600  1.00  0.00    -0.000 C 
BRANCH  21  22
ATOM     22  C   UNL     1     -19.136 -12.926 -26.056  1.00  0.00    -0.000 C 
BRANCH  22  23
ATOM     23  C   UNL     1     -18.034 -12.027 -26.637  1.00  0.00    -0.000 C 
BRANCH  23  24
ATOM     24  C   UNL     1     -16.799 -11.925 -25.724  1.00  0.00    -0.000 C 
BRANCH  24  25
ATOM     25  C   UNL     1     -15.692 -12.953 -26.019  1.00  0.00    -0.003 C 
ATOM     26  C   UNL     1     -14.552 -12.911 -25.002  1.00  0.00     0.004 C 
ENDBRANCH  24  25
ENDBRANCH  23  24
ENDBRANCH  22  23
ENDBRANCH  21  22
ENDBRANCH  20  21
ENDBRANCH  19  20
ENDBRANCH  18  19
ENDBRANCH  17  18
ENDBRANCH  16  17
ENDBRANCH  15  16
ENDBRANCH   1  15
TORSDOF 22
ENDMDL
MODEL 9
REMARK VINA RESULT:    -1.432      5.312     13.020
REMARK INTER + INTRA:          -4.492
REMARK INTER:                  -3.436
REMARK INTRA:                  -1.055
REMARK UNBOUND:                -1.217
REMARK SMILES CCCCCCCCCCCCCCCCCCCCCCCC(=O)[O-]
REMARK SMILES IDX 13 1 14 2 15 3 16 4 17 5 18 6 19 7 20 8 21 9 22 10 23 11
REMARK SMILES IDX 24 12 25 13 26 14 12 15 11 16 10 17 9 18 8 19 7 20 6 21 5 22
REMARK SMILES IDX 4 23 3 24 2 25 1 26
REMARK H PARENT
REMARK Flexibility Score: inf
ROOT
ATOM      1  C   UNL     1     -14.987  -4.974 -19.163  1.00  0.00     0.000 C 
ENDROOT
BRANCH   1   2
ATOM      2  C   UNL     1     -13.870  -5.918 -18.675  1.00  0.00     0.000 C 
BRANCH   2   3
ATOM      3  C   UNL     1     -13.888  -6.228 -17.167  1.00  0.00     0.000 C 
BRANCH   3   4
ATOM      4  C   UNL     1     -14.732  -5.225 -16.363  1.00  0.00     0.000 C 
BRANCH   4   5
ATOM      5  C   UNL     1     -13.875  -4.146 -15.682  1.00  0.00     0.000 C 
BRANCH   5   6
ATOM      6  C   UNL     1     -14.506  -2.747 -15.758  1.00  0.00     0.000 C 
BRANCH   6   7
ATOM      7  C   UNL     1     -14.317  -1.990 -14.436  1.00  0.00     0.000 C 
BRANCH   7   8
ATOM      8  C   UNL     1     -12.894  -2.128 -13.871  1.00  0.00     0.000 C 
BRANCH   8   9
ATOM      9  C   UNL     1     -12.875  -2.709 -12.449  1.00  0.00     0.000 C 
BRANCH   9  10
ATOM     10  C   UNL     1     -14.295  -3.046 -11.976  1.00  0.00     0.006 C 
BRANCH  10  11
ATOM     11  C   UNL     1     -14.316  -4.357 -11.186  1.00  0.00     0.053 C 
BRANCH  11  12
ATOM     12  C   UNL     1     -14.050  -4.098  -9.736  1.00  0.00     0.041 C 
ATOM     13  O   UNL     1     -13.870  -5.059  -8.944  1.00  0.00    -0.550 OA
ATOM     14  O   UNL     1     -14.054  -2.797  -9.251  1.00  0.00    -0.550 OA
ENDBRANCH  11  12
ENDBRANCH  10  11
ENDBRANCH   9  10
ENDBRANCH   8   9
ENDBRANCH   7   8
ENDBRANCH   6   7
ENDBRANCH   5   6
ENDBRANCH   4   5
ENDBRANCH   3   4
ENDBRANCH   2   3
ENDBRANCH   1   2
BRANCH   1  15
ATOM     15  C   UNL     1     -16.120  -5.654 -19.954  1.00  0.00     0.000 C 
BRANCH  15  16
ATOM     16  C   UNL     1     -15.683  -6.852 -20.821  1.00  0.00     0.000 C 
BRANCH  16  17
ATOM     17  C   UNL     1     -15.458  -8.166 -20.050  1.00  0.00     0.000 C 
BRANCH  17  18
ATOM     18  C   UNL     1     -16.677  -9.099 -20.093  1.00  0.00    -0.000 C 
BRANCH  18  19
ATOM     19  C   UNL     1     -16.241 -10.568 -20.162  1.00  0.00    -0.000 C 
BRANCH  19  20
ATOM     20  C   UNL     1     -17.432 -11.482 -20.481  1.00  0.00    -0.000 C 
BRANCH  20  21
ATOM     21  C   UNL     1     -17.028 -12.959 -20.617  1.00  0.00    -0.000 C 
BRANCH  21  22
ATOM     22  C   UNL     1     -17.653 -13.634 -21.848  1.00  0.00    -0.000 C 
BRANCH  22  23
ATOM     23  C   UNL     1     -17.228 -12.920 -23.139  1.00  0.00    -0.000 C 
BRANCH  23  24
ATOM     24  C   UNL     1     -18.408 -12.641 -24.087  1.00  0.00    -0.000 C 
BRANCH  24  25
ATOM     25  C   UNL     1     -18.033 -12.552 -25.577  1.00  0.00    -0.003 C 
ATOM     26  C   UNL     1     -19.222 -12.789 -26.508  1.00  0.00     0.004 C 
ENDBRANCH  24  25
ENDBRANCH  23  24
ENDBRANCH  22  23
ENDBRANCH  21  22
ENDBRANCH  20  21
ENDBRANCH  19  20
ENDBRANCH  18  19
ENDBRANCH  17  18
ENDBRANCH  16  17
ENDBRANCH  15  16
ENDBRANCH   1  15
TORSDOF 22
ENDMDL
