MODEL 1
REMARK VINA RESULT:    -1.740      0.000      0.000
REMARK INTER + INTRA:          -4.282
REMARK INTER:                  -2.758
REMARK INTRA:                  -1.524
REMARK UNBOUND:                -1.524
REMARK SMILES CCCCCCCCCCCC(=O)[O-]
REMARK SMILES IDX 7 1 8 2 9 3 10 4 11 5 12 6 13 7 14 8 6 9 5 10 4 11 3 12 2 13
REMARK SMILES IDX 1 14
REMARK H PARENT
REMARK Flexibility Score: inf
ROOT
ATOM      1  C   UNL     1     174.517 187.784 185.912  1.00  0.00     0.000 C 
ENDROOT
BRANCH   1   2
ATOM      2  C   UNL     1     173.230 188.306 185.255  1.00  0.00     0.000 C 
BRANCH   2   3
ATOM      3  C   UNL     1     173.008 187.720 183.849  1.00  0.00     0.000 C 
BRANCH   3   4
ATOM      4  C   UNL     1     171.777 188.319 183.143  1.00  0.00     0.006 C 
BRANCH   4   5
ATOM      5  C   UNL     1     172.062 188.865 181.734  1.00  0.00     0.053 C 
BRANCH   5   6
ATOM      6  C   UNL     1     172.108 190.362 181.713  1.00  0.00     0.041 C 
ATOM      7  O   UNL     1     172.089 191.012 182.791  1.00  0.00    -0.550 OA
ATOM      8  O   UNL     1     172.140 191.040 180.502  1.00  0.00    -0.550 OA
ENDBRANCH   5   6
ENDBRANCH   4   5
ENDBRANCH   3   4
ENDBRANCH   2   3
ENDBRANCH   1   2
BRANCH   1   9
ATOM      9  C   UNL     1     175.399 188.917 186.463  1.00  0.00     0.000 C 
BRANCH   9  10
ATOM     10  C   UNL     1     175.221 190.240 185.699  1.00  0.00    -0.000 C 
BRANCH  10  11
ATOM     11  C   UNL     1     176.240 190.482 184.569  1.00  0.00    -0.000 C 
BRANCH  11  12
ATOM     12  C   UNL     1     175.575 190.716 183.202  1.00  0.00    -0.000 C 
BRANCH  12  13
ATOM     13  C   UNL     1     175.785 189.539 182.237  1.00  0.00    -0.003 C 
ATOM     14  C   UNL     1     176.631 188.419 182.842  1.00  0.00     0.004 C 
ENDBRANCH  12  13
ENDBRANCH  11  12
ENDBRANCH  10  11
ENDBRANCH   9  10
ENDBRANCH   1   9
TORSDOF 10
ENDMDL
MODEL 2
REMARK VINA RESULT:    -1.740      2.913      5.332
REMARK INTER + INTRA:          -4.281
REMARK INTER:                  -2.899
REMARK INTRA:                  -1.383
REMARK UNBOUND:                -1.524
REMARK SMILES CCCCCCCCCCCC(=O)[O-]
REMARK SMILES IDX 7 1 8 2 9 3 10 4 11 5 12 6 13 7 14 8 6 9 5 10 4 11 3 12 2 13
REMARK SMILES IDX 1 14
REMARK H PARENT
REMARK Flexibility Score: inf
ROOT
ATOM      1  C   UNL     1     173.265 190.888 182.757  1.00  0.00     0.000 C 
ENDROOT
BRANCH   1   2
ATOM      2  C   UNL     1     174.493 190.014 182.459  1.00  0.00     0.000 C 
BRANCH   2   3
ATOM      3  C   UNL     1     175.295 189.674 183.728  1.00  0.00     0.000 C 
BRANCH   3   4
ATOM      4  C   UNL     1     174.664 190.258 185.005  1.00  0.00     0.006 C 
BRANCH   4   5
ATOM      5  C   UNL     1     175.396 189.876 186.302  1.00  0.00     0.053 C 
BRANCH   5   6
ATOM      6  C   UNL     1     176.278 190.983 186.793  1.00  0.00     0.041 C 
ATOM      7  O   UNL     1     175.806 191.892 187.526  1.00  0.00    -0.550 OA
ATOM      8  O   UNL     1     177.614 191.028 186.415  1.00  0.00    -0.550 OA
ENDBRANCH   5   6
ENDBRANCH   4   5
ENDBRANCH   3   4
ENDBRANCH   2   3
ENDBRANCH   1   2
BRANCH   1   9
ATOM      9  C   UNL     1     171.954 190.245 182.275  1.00  0.00     0.000 C 
BRANCH   9  10
ATOM     10  C   UNL     1     172.056 188.717 182.122  1.00  0.00    -0.000 C 
BRANCH  10  11
ATOM     11  C   UNL     1     171.217 187.904 183.125  1.00  0.00    -0.000 C 
BRANCH  11  12
ATOM     12  C   UNL     1     171.752 187.992 184.565  1.00  0.00    -0.000 C 
BRANCH  12  13
ATOM     13  C   UNL     1     172.909 187.015 184.822  1.00  0.00    -0.003 C 
ATOM     14  C   UNL     1     173.248 186.875 186.306  1.00  0.00     0.004 C 
ENDBRANCH  12  13
ENDBRANCH  11  12
ENDBRANCH  10  11
ENDBRANCH   9  10
ENDBRANCH   1   9
TORSDOF 10
ENDMDL
MODEL 3
REMARK VINA RESULT:    -1.725      1.831      3.489
REMARK INTER + INTRA:          -4.258
REMARK INTER:                  -3.069
REMARK INTRA:                  -1.190
REMARK UNBOUND:                -1.524
REMARK SMILES CCCCCCCCCCCC(=O)[O-]
REMARK SMILES IDX 7 1 8 2 9 3 10 4 11 5 12 6 13 7 14 8 6 9 5 10 4 11 3 12 2 13
REMARK SMILES IDX 1 14
REMARK H PARENT
REMARK Flexibility Score: inf
ROOT
ATOM      1  C   UNL     1     171.845 186.816 182.780  1.00  0.00     0.000 C 
ENDROOT
BRANCH   1   2
ATOM      2  C   UNL     1     173.031 187.680 182.328  1.00  0.00     0.000 C 
BRANCH   2   3
ATOM      3  C   UNL     1     172.682 188.576 181.126  1.00  0.00     0.000 C 
BRANCH   3   4
ATOM      4  C   UNL     1     171.685 189.692 181.485  1.00  0.00     0.006 C 
BRANCH   4   5
ATOM      5  C   UNL     1     172.233 190.732 182.476  1.00  0.00     0.053 C 
BRANCH   5   6
ATOM      6  C   UNL     1     173.481 191.386 181.968  1.00  0.00     0.041 C 
ATOM      7  O   UNL     1     173.441 192.123 180.947  1.00  0.00    -0.550 OA
ATOM      8  O   UNL     1     174.695 191.155 182.601  1.00  0.00    -0.550 OA
ENDBRANCH   5   6
ENDBRANCH   4   5
ENDBRANCH   3   4
ENDBRANCH   2   3
ENDBRANCH   1   2
BRANCH   1   9
ATOM      9  C   UNL     1     171.339 187.196 184.183  1.00  0.00     0.000 C 
BRANCH   9  10
ATOM     10  C   UNL     1     172.357 188.030 184.980  1.00  0.00    -0.000 C 
BRANCH  10  11
ATOM     11  C   UNL     1     173.179 187.239 186.015  1.00  0.00    -0.000 C 
BRANCH  11  12
ATOM     12  C   UNL     1     174.589 187.816 186.228  1.00  0.00    -0.000 C 
BRANCH  12  13
ATOM     13  C   UNL     1     174.836 189.087 185.401  1.00  0.00    -0.003 C 
ATOM     14  C   UNL     1     175.399 190.237 186.234  1.00  0.00     0.004 C 
ENDBRANCH  12  13
ENDBRANCH  11  12
ENDBRANCH  10  11
ENDBRANCH   9  10
ENDBRANCH   1   9
TORSDOF 10
ENDMDL
MODEL 4
REMARK VINA RESULT:    -1.720      1.483      2.218
REMARK INTER + INTRA:          -4.250
REMARK INTER:                  -2.812
REMARK INTRA:                  -1.438
REMARK UNBOUND:                -1.524
REMARK SMILES CCCCCCCCCCCC(=O)[O-]
REMARK SMILES IDX 7 1 8 2 9 3 10 4 11 5 12 6 13 7 14 8 6 9 5 10 4 11 3 12 2 13
REMARK SMILES IDX 1 14
REMARK H PARENT
REMARK Flexibility Score: inf
ROOT
ATOM      1  C   UNL     1     173.741 189.080 184.599  1.00  0.00     0.000 C 
ENDROOT
BRANCH   1   2
ATOM      2  C   UNL     1     173.870 188.471 183.194  1.00  0.00     0.000 C 
BRANCH   2   3
ATOM      3  C   UNL     1     173.281 189.381 182.102  1.00  0.00     0.000 C 
BRANCH   3   4
ATOM      4  C   UNL     1     172.880 190.768 182.636  1.00  0.00     0.006 C 
BRANCH   4   5
ATOM      5  C   UNL     1     173.088 191.914 181.632  1.00  0.00     0.053 C 
BRANCH   5   6
ATOM      6  C   UNL     1     172.247 191.741 180.404  1.00  0.00     0.041 C 
ATOM      7  O   UNL     1     172.775 191.789 179.262  1.00  0.00    -0.550 OA
ATOM      8  O   UNL     1     170.875 191.558 180.520  1.00  0.00    -0.550 OA
ENDBRANCH   5   6
ENDBRANCH   4   5
ENDBRANCH   3   4
ENDBRANCH   2   3
ENDBRANCH   1   2
BRANCH   1   9
ATOM      9  C   UNL     1     174.844 188.596 185.555  1.00  0.00     0.000 C 
BRANCH   9  10
ATOM     10  C   UNL     1     175.382 189.715 186.463  1.00  0.00    -0.000 C 
BRANCH  10  11
ATOM     11  C   UNL     1     175.811 190.999 185.730  1.00  0.00    -0.000 C 
BRANCH  11  12
ATOM     12  C   UNL     1     176.883 190.747 184.655  1.00  0.00    -0.000 C 
BRANCH  12  13
ATOM     13  C   UNL     1     176.508 191.356 183.296  1.00  0.00    -0.003 C 
ATOM     14  C   UNL     1     176.893 190.461 182.118  1.00  0.00     0.004 C 
ENDBRANCH  12  13
ENDBRANCH  11  12
ENDBRANCH  10  11
ENDBRANCH   9  10
ENDBRANCH   1   9
TORSDOF 10
ENDMDL
MODEL 5
REMARK VINA RESULT:    -1.716      2.750      4.826
REMARK INTER + INTRA:          -4.243
REMARK INTER:                  -2.995
REMARK INTRA:                  -1.248
REMARK UNBOUND:                -1.524
REMARK SMILES CCCCCCCCCCCC(=O)[O-]
REMARK SMILES IDX 7 1 8 2 9 3 10 4 11 5 12 6 13 7 14 8 6 9 5 10 4 11 3 12 2 13
REMARK SMILES IDX 1 14
REMARK H PARENT
REMARK Flexibility Score: inf
ROOT
ATOM      1  C   UNL     1     172.413 188.064 181.586  1.00  0.00     0.000 C 
ENDROOT
BRANCH   1   2
ATOM      2  C   UNL     1     171.578 187.822 182.852  1.00  0.00     0.000 C 
BRANCH   2   3
ATOM      3  C   UNL     1     171.856 188.865 183.949  1.00  0.00     0.000 C 
BRANCH   3   4
ATOM      4  C   UNL     1     173.000 188.447 184.891  1.00  0.00     0.006 C 
BRANCH   4   5
ATOM      5  C   UNL     1     174.272 189.300 184.754  1.00  0.00     0.053 C 
BRANCH   5   6
ATOM      6  C   UNL     1     175.014 189.411 186.051  1.00  0.00     0.041 C 
ATOM      7  O   UNL     1     175.230 188.384 186.748  1.00  0.00    -0.550 OA
ATOM      8  O   UNL     1     175.437 190.652 186.507  1.00  0.00    -0.550 OA
ENDBRANCH   5   6
ENDBRANCH   4   5
ENDBRANCH   3   4
ENDBRANCH   2   3
ENDBRANCH   1   2
BRANCH   1   9
ATOM      9  C   UNL     1     171.553 188.496 180.386  1.00  0.00     0.000 C 
BRANCH   9  10
ATOM     10  C   UNL     1     171.072 189.954 180.487  1.00  0.00    -0.000 C 
BRANCH  10  11
ATOM     11  C   UNL     1     172.160 191.017 180.244  1.00  0.00    -0.000 C 
BRANCH  11  12
ATOM     12  C   UNL     1     172.581 191.749 181.530  1.00  0.00    -0.000 C 
BRANCH  12  13
ATOM     13  C   UNL     1     174.053 191.501 181.893  1.00  0.00    -0.003 C 
ATOM     14  C   UNL     1     174.834 190.820 180.769  1.00  0.00     0.004 C 
ENDBRANCH  12  13
ENDBRANCH  11  12
ENDBRANCH  10  11
ENDBRANCH   9  10
ENDBRANCH   1   9
TORSDOF 10
ENDMDL
MODEL 6
REMARK VINA RESULT:    -1.706      2.711      4.508
REMARK INTER + INTRA:          -4.228
REMARK INTER:                  -2.595
REMARK INTRA:                  -1.633
REMARK UNBOUND:                -1.524
REMARK SMILES CCCCCCCCCCCC(=O)[O-]
REMARK SMILES IDX 7 1 8 2 9 3 10 4 11 5 12 6 13 7 14 8 6 9 5 10 4 11 3 12 2 13
REMARK SMILES IDX 1 14
REMARK H PARENT
REMARK Flexibility Score: inf
ROOT
ATOM      1  C   UNL     1     174.458 187.493 182.146  1.00  0.00     0.000 C 
ENDROOT
BRANCH   1   2
ATOM      2  C   UNL     1     175.051 187.544 183.563  1.00  0.00     0.000 C 
BRANCH   2   3
ATOM      3  C   UNL     1     173.990 187.314 184.653  1.00  0.00     0.000 C 
BRANCH   3   4
ATOM      4  C   UNL     1     173.963 188.439 185.704  1.00  0.00     0.006 C 
BRANCH   4   5
ATOM      5  C   UNL     1     174.804 189.671 185.330  1.00  0.00     0.053 C 
BRANCH   5   6
ATOM      6  C   UNL     1     175.662 190.129 186.469  1.00  0.00     0.041 C 
ATOM      7  O   UNL     1     175.655 191.337 186.823  1.00  0.00    -0.550 OA
ATOM      8  O   UNL     1     176.495 189.227 187.119  1.00  0.00    -0.550 OA
ENDBRANCH   5   6
ENDBRANCH   4   5
ENDBRANCH   3   4
ENDBRANCH   2   3
ENDBRANCH   1   2
BRANCH   1   9
ATOM      9  C   UNL     1     172.921 187.538 182.148  1.00  0.00     0.000 C 
BRANCH   9  10
ATOM     10  C   UNL     1     172.360 188.871 181.621  1.00  0.00    -0.000 C 
BRANCH  10  11
ATOM     11  C   UNL     1     172.073 189.929 182.702  1.00  0.00    -0.000 C 
BRANCH  11  12
ATOM     12  C   UNL     1     172.889 191.220 182.510  1.00  0.00    -0.000 C 
BRANCH  12  13
ATOM     13  C   UNL     1     173.945 191.088 181.403  1.00  0.00    -0.003 C 
ATOM     14  C   UNL     1     175.376 191.157 181.936  1.00  0.00     0.004 C 
ENDBRANCH  12  13
ENDBRANCH  11  12
ENDBRANCH  10  11
ENDBRANCH   9  10
ENDBRANCH   1   9
TORSDOF 10
ENDMDL
MODEL 7
REMARK VINA RESULT:    -1.698      2.491      5.439
REMARK INTER + INTRA:          -4.214
REMARK INTER:                  -2.656
REMARK INTRA:                  -1.559
REMARK UNBOUND:                -1.524
REMARK SMILES CCCCCCCCCCCC(=O)[O-]
REMARK SMILES IDX 7 1 8 2 9 3 10 4 11 5 12 6 13 7 14 8 6 9 5 10 4 11 3 12 2 13
REMARK SMILES IDX 1 14
REMARK H PARENT
REMARK Flexibility Score: inf
ROOT
ATOM      1  C   UNL     1     172.244 190.399 180.098  1.00  0.00     0.000 C 
ENDROOT
BRANCH   1   2
ATOM      2  C   UNL     1     171.764 191.322 181.228  1.00  0.00     0.000 C 
BRANCH   2   3
ATOM      3  C   UNL     1     172.565 191.126 182.528  1.00  0.00     0.000 C 
BRANCH   3   4
ATOM      4  C   UNL     1     174.060 190.860 182.271  1.00  0.00     0.006 C 
BRANCH   4   5
ATOM      5  C   UNL     1     174.649 189.715 183.112  1.00  0.00     0.053 C 
BRANCH   5   6
ATOM      6  C   UNL     1     175.227 190.209 184.403  1.00  0.00     0.041 C 
ATOM      7  O   UNL     1     176.142 191.074 184.398  1.00  0.00    -0.550 OA
ATOM      8  O   UNL     1     174.778 189.689 185.610  1.00  0.00    -0.550 OA
ENDBRANCH   5   6
ENDBRANCH   4   5
ENDBRANCH   3   4
ENDBRANCH   2   3
ENDBRANCH   1   2
BRANCH   1   9
ATOM      9  C   UNL     1     171.151 189.423 179.630  1.00  0.00     0.000 C 
BRANCH   9  10
ATOM     10  C   UNL     1     170.894 188.285 180.634  1.00  0.00    -0.000 C 
BRANCH  10  11
ATOM     11  C   UNL     1     172.115 187.396 180.936  1.00  0.00    -0.000 C 
BRANCH  11  12
ATOM     12  C   UNL     1     172.248 187.049 182.429  1.00  0.00    -0.000 C 
BRANCH  12  13
ATOM     13  C   UNL     1     171.059 187.556 183.259  1.00  0.00    -0.003 C 
ATOM     14  C   UNL     1     171.490 188.271 184.539  1.00  0.00     0.004 C 
ENDBRANCH  12  13
ENDBRANCH  11  12
ENDBRANCH  10  11
ENDBRANCH   9  10
ENDBRANCH   1   9
TORSDOF 10
ENDMDL
MODEL 8
REMARK VINA RESULT:    -1.698      1.441      3.036
REMARK INTER + INTRA:          -4.214
REMARK INTER:                  -2.692
REMARK INTRA:                  -1.522
REMARK UNBOUND:                -1.524
REMARK SMILES CCCCCCCCCCCC(=O)[O-]
REMARK SMILES IDX 7 1 8 2 9 3 10 4 11 5 12 6 13 7 14 8 6 9 5 10 4 11 3 12 2 13
REMARK SMILES IDX 1 14
REMARK H PARENT
REMARK Flexibility Score: inf
ROOT
ATOM      1  C   UNL     1     176.823 190.262 183.146  1.00  0.00     0.000 C 
ENDROOT
BRANCH   1   2
ATOM      2  C   UNL     1     175.877 191.351 182.616  1.00  0.00     0.000 C 
BRANCH   2   3
ATOM      3  C   UNL     1     174.659 190.765 181.879  1.00  0.00     0.000 C 
BRANCH   3   4
ATOM      4  C   UNL     1     173.333 191.417 182.310  1.00  0.00     0.006 C 
BRANCH   4   5
ATOM      5  C   UNL     1     172.159 190.432 182.441  1.00  0.00     0.053 C 
BRANCH   5   6
ATOM      6  C   UNL     1     171.529 190.135 181.115  1.00  0.00     0.041 C 
ATOM      7  O   UNL     1     170.875 191.025 180.509  1.00  0.00    -0.550 OA
ATOM      8  O   UNL     1     171.635 188.865 180.563  1.00  0.00    -0.550 OA
ENDBRANCH   5   6
ENDBRANCH   4   5
ENDBRANCH   3   4
ENDBRANCH   2   3
ENDBRANCH   1   2
BRANCH   1   9
ATOM      9  C   UNL     1     177.014 190.337 184.670  1.00  0.00     0.000 C 
BRANCH   9  10
ATOM     10  C   UNL     1     175.702 190.611 185.426  1.00  0.00    -0.000 C 
BRANCH  10  11
ATOM     11  C   UNL     1     175.064 189.378 186.091  1.00  0.00    -0.000 C 
BRANCH  11  12
ATOM     12  C   UNL     1     173.977 188.723 185.222  1.00  0.00    -0.000 C 
BRANCH  12  13
ATOM     13  C   UNL     1     174.449 187.409 184.580  1.00  0.00    -0.003 C 
ATOM     14  C   UNL     1     174.200 187.362 183.073  1.00  0.00     0.004 C 
ENDBRANCH  12  13
ENDBRANCH  11  12
ENDBRANCH  10  11
ENDBRANCH   9  10
ENDBRANCH   1   9
TORSDOF 10
ENDMDL
MODEL 9
REMARK VINA RESULT:    -1.684      3.113      5.585
REMARK INTER + INTRA:          -4.193
REMARK INTER:                  -2.851
REMARK INTRA:                  -1.342
REMARK UNBOUND:                -1.524
REMARK SMILES CCCCCCCCCCCC(=O)[O-]
REMARK SMILES IDX 7 1 8 2 9 3 10 4 11 5 12 6 13 7 14 8 6 9 5 10 4 11 3 12 2 13
REMARK SMILES IDX 1 14
REMARK H PARENT
REMARK Flexibility Score: inf
ROOT
ATOM      1  C   UNL     1     171.123 191.784 180.434  1.00  0.00     0.000 C 
ENDROOT
BRANCH   1   2
ATOM      2  C   UNL     1     172.614 192.008 180.729  1.00  0.00     0.000 C 
BRANCH   2   3
ATOM      3  C   UNL     1     173.034 191.446 182.098  1.00  0.00     0.000 C 
BRANCH   3   4
ATOM      4  C   UNL     1     172.006 190.457 182.676  1.00  0.00     0.006 C 
BRANCH   4   5
ATOM      5  C   UNL     1     172.573 189.058 182.968  1.00  0.00     0.053 C 
BRANCH   5   6
ATOM      6  C   UNL     1     172.166 188.560 184.321  1.00  0.00     0.041 C 
ATOM      7  O   UNL     1     170.949 188.385 184.593  1.00  0.00    -0.550 OA
ATOM      8  O   UNL     1     173.129 188.322 185.293  1.00  0.00    -0.550 OA
ENDBRANCH   5   6
ENDBRANCH   4   5
ENDBRANCH   3   4
ENDBRANCH   2   3
ENDBRANCH   1   2
BRANCH   1   9
ATOM      9  C   UNL     1     170.888 191.059 179.098  1.00  0.00     0.000 C 
BRANCH   9  10
ATOM     10  C   UNL     1     170.955 189.527 179.229  1.00  0.00    -0.000 C 
BRANCH  10  11
ATOM     11  C   UNL     1     171.730 188.811 178.107  1.00  0.00    -0.000 C 
BRANCH  11  12
ATOM     12  C   UNL     1     173.248 189.057 178.175  1.00  0.00    -0.000 C 
BRANCH  12  13
ATOM     13  C   UNL     1     173.838 188.708 179.550  1.00  0.00    -0.003 C 
ATOM     14  C   UNL     1     173.842 187.205 179.829  1.00  0.00     0.004 C 
ENDBRANCH  12  13
ENDBRANCH  11  12
ENDBRANCH  10  11
ENDBRANCH   9  10
ENDBRANCH   1   9
TORSDOF 10
ENDMDL
