MODEL 1
REMARK VINA RESULT:    -6.417      0.000      0.000
REMARK INTER + INTRA:         -10.868
REMARK INTER:                  -9.418
REMARK INTRA:                  -1.450
REMARK UNBOUND:                -1.450
REMARK SMILES O=c1c(O[C@H]2O[C@H](CO)[C@H](O)[C@@H](O)[C@@H]2O)c(-c2ccc(O)c(O)c2)oc2cc(O)cc(O)c12
REMARK SMILES IDX 4 1 3 2 16 3 25 4 2 5 26 6 1 7 33 8 27 9 31 10 28 11 30 12
REMARK SMILES IDX 17 13 18 14 19 15 20 16 24 17 22 18 21 19 23 21 32 23 29 25
REMARK SMILES IDX 5 27 14 28 6 29 12 30 7 31 10 32 15 33 13 35 8 37 9 38 11 40
REMARK H PARENT 21 20 23 22 32 24 29 26 15 34 13 36 9 39 11 41
REMARK Flexibility Score: inf
ROOT
ATOM      1  O   UNL     1      16.758  -2.948 -14.478  1.00  0.00    -0.454 OA
ENDROOT
BRANCH   1   2
ATOM      2  C   UNL     1      17.505  -2.818 -15.659  1.00  0.00     0.214 A 
ATOM      3  C   UNL     1      17.724  -3.941 -16.481  1.00  0.00     0.180 A 
ATOM      4  O   UNL     1      18.360  -3.800 -17.640  1.00  0.00    -0.452 OA
ATOM      5  C   UNL     1      18.054  -1.583 -16.044  1.00  0.00     0.239 A 
ATOM      6  C   UNL     1      18.851  -2.642 -18.066  1.00  0.00     0.146 A 
ATOM      7  O   UNL     1      17.959  -0.591 -15.271  1.00  0.00    -0.285 OA
ATOM      8  C   UNL     1      18.729  -1.474 -17.277  1.00  0.00     0.111 A 
ATOM      9  C   UNL     1      19.501  -2.592 -19.302  1.00  0.00     0.094 A 
ATOM     10  C   UNL     1      19.283  -0.261 -17.751  1.00  0.00     0.134 A 
ATOM     11  C   UNL     1      20.044  -1.389 -19.768  1.00  0.00     0.123 A 
ATOM     12  C   UNL     1      19.936  -0.232 -18.992  1.00  0.00     0.093 A 
BRANCH   3  13
ATOM     13  C   UNL     1      17.250  -5.288 -16.105  1.00  0.00     0.025 A 
ATOM     14  C   UNL     1      18.067  -6.165 -15.375  1.00  0.00     0.016 A 
ATOM     15  C   UNL     1      17.605  -7.438 -15.029  1.00  0.00     0.051 A 
ATOM     16  C   UNL     1      16.330  -7.858 -15.430  1.00  0.00     0.157 A 
ATOM     17  C   UNL     1      15.986  -5.723 -16.530  1.00  0.00     0.062 A 
ATOM     18  C   UNL     1      15.520  -6.999 -16.191  1.00  0.00     0.158 A 
BRANCH  16  19
ATOM     19  O   UNL     1      15.868  -9.125 -15.077  1.00  0.00    -0.504 OA
ATOM     20  H   UNL     1      14.890  -9.296 -14.871  1.00  0.00     0.293 HD
ENDBRANCH  16  19
BRANCH  18  21
ATOM     21  O   UNL     1      14.251  -7.390 -16.614  1.00  0.00    -0.504 OA
ATOM     22  H   UNL     1      13.483  -7.516 -15.965  1.00  0.00     0.293 HD
ENDBRANCH  18  21
ENDBRANCH   3  13
BRANCH  10  23
ATOM     23  O   UNL     1      19.184   0.914 -17.004  1.00  0.00    -0.507 OA
ATOM     24  H   UNL     1      19.899   1.181 -16.335  1.00  0.00     0.293 HD
ENDBRANCH  10  23
BRANCH  11  25
ATOM     25  O   UNL     1      20.693  -1.332 -20.998  1.00  0.00    -0.508 OA
ATOM     26  H   UNL     1      20.319  -0.793 -21.770  1.00  0.00     0.293 HD
ENDBRANCH  11  25
ENDBRANCH   1   2
BRANCH   1  27
ATOM     27  C   UNL     1      17.342  -3.221 -13.197  1.00  0.00     0.339 C 
ATOM     28  C   UNL     1      16.700  -4.464 -12.548  1.00  0.00     0.214 C 
ATOM     29  O   UNL     1      17.277  -2.083 -12.351  1.00  0.00    -0.332 OA
ATOM     30  C   UNL     1      15.278  -4.173 -12.013  1.00  0.00     0.180 C 
ATOM     31  C   UNL     1      15.936  -1.718 -12.069  1.00  0.00     0.179 C 
ATOM     32  C   UNL     1      15.219  -2.824 -11.261  1.00  0.00     0.177 C 
BRANCH  28  33
ATOM     33  O   UNL     1      17.522  -4.889 -11.488  1.00  0.00    -0.384 OA
ATOM     34  H   UNL     1      17.412  -5.875 -11.414  1.00  0.00     0.211 HD
ENDBRANCH  28  33
BRANCH  30  35
ATOM     35  O   UNL     1      14.317  -4.248 -13.039  1.00  0.00    -0.387 OA
ATOM     36  H   UNL     1      13.433  -4.012 -12.662  1.00  0.00     0.211 HD
ENDBRANCH  30  35
BRANCH  31  37
ATOM     37  C   UNL     1      15.935  -0.390 -11.296  1.00  0.00     0.191 C 
BRANCH  37  38
ATOM     38  O   UNL     1      14.762  -0.266 -10.537  1.00  0.00    -0.394 OA
ATOM     39  H   UNL     1      14.793  -0.980  -9.849  1.00  0.00     0.210 HD
ENDBRANCH  37  38
ENDBRANCH  31  37
BRANCH  32  40
ATOM     40  O   UNL     1      15.831  -2.962 -10.003  1.00  0.00    -0.387 OA
ATOM     41  H   UNL     1      15.529  -3.829  -9.628  1.00  0.00     0.211 HD
ENDBRANCH  32  40
ENDBRANCH   1  27
TORSDOF 12
ENDMDL
MODEL 2
REMARK VINA RESULT:    -6.191      1.662      5.176
REMARK INTER + INTRA:         -10.536
REMARK INTER:                  -9.345
REMARK INTRA:                  -1.192
REMARK UNBOUND:                -1.450
REMARK SMILES O=c1c(O[C@H]2O[C@H](CO)[C@H](O)[C@@H](O)[C@@H]2O)c(-c2ccc(O)c(O)c2)oc2cc(O)cc(O)c12
REMARK SMILES IDX 4 1 3 2 16 3 25 4 2 5 26 6 1 7 33 8 27 9 31 10 28 11 30 12
REMARK SMILES IDX 17 13 18 14 19 15 20 16 24 17 22 18 21 19 23 21 32 23 29 25
REMARK SMILES IDX 5 27 14 28 6 29 12 30 7 31 10 32 15 33 13 35 8 37 9 38 11 40
REMARK H PARENT 21 20 23 22 32 24 29 26 15 34 13 36 9 39 11 41
REMARK Flexibility Score: inf
ROOT
ATOM      1  O   UNL     1      17.232  -4.809 -14.520  1.00  0.00    -0.454 OA
ENDROOT
BRANCH   1   2
ATOM      2  C   UNL     1      17.633  -3.742 -15.339  1.00  0.00     0.214 A 
ATOM      3  C   UNL     1      17.571  -2.420 -14.857  1.00  0.00     0.180 A 
ATOM      4  O   UNL     1      18.028  -1.420 -15.604  1.00  0.00    -0.452 OA
ATOM      5  C   UNL     1      18.092  -3.960 -16.650  1.00  0.00     0.239 A 
ATOM      6  C   UNL     1      18.517  -1.587 -16.826  1.00  0.00     0.146 A 
ATOM      7  O   UNL     1      18.056  -5.123 -17.136  1.00  0.00    -0.285 OA
ATOM      8  C   UNL     1      18.562  -2.873 -17.414  1.00  0.00     0.111 A 
ATOM      9  C   UNL     1      18.979  -0.473 -17.534  1.00  0.00     0.094 A 
ATOM     10  C   UNL     1      19.070  -3.013 -18.728  1.00  0.00     0.134 A 
ATOM     11  C   UNL     1      19.483  -0.618 -18.830  1.00  0.00     0.123 A 
ATOM     12  C   UNL     1      19.524  -1.882 -19.423  1.00  0.00     0.093 A 
BRANCH   3  13
ATOM     13  C   UNL     1      17.024  -2.102 -13.522  1.00  0.00     0.025 A 
ATOM     14  C   UNL     1      17.833  -2.164 -12.376  1.00  0.00     0.016 A 
ATOM     15  C   UNL     1      17.301  -1.862 -11.120  1.00  0.00     0.051 A 
ATOM     16  C   UNL     1      15.948  -1.519 -10.990  1.00  0.00     0.157 A 
ATOM     17  C   UNL     1      15.664  -1.787 -13.386  1.00  0.00     0.062 A 
ATOM     18  C   UNL     1      15.125  -1.489 -12.128  1.00  0.00     0.158 A 
BRANCH  16  19
ATOM     19  O   UNL     1      15.421  -1.211  -9.737  1.00  0.00    -0.504 OA
ATOM     20  H   UNL     1      14.424  -1.098  -9.593  1.00  0.00     0.293 HD
ENDBRANCH  16  19
BRANCH  18  21
ATOM     21  O   UNL     1      13.774  -1.161 -12.032  1.00  0.00    -0.504 OA
ATOM     22  H   UNL     1      13.096  -1.787 -11.613  1.00  0.00     0.293 HD
ENDBRANCH  18  21
ENDBRANCH   3  13
BRANCH  10  23
ATOM     23  O   UNL     1      19.131  -4.264 -19.344  1.00  0.00    -0.507 OA
ATOM     24  H   UNL     1      18.503  -4.517 -20.099  1.00  0.00     0.293 HD
ENDBRANCH  10  23
BRANCH  11  25
ATOM     25  O   UNL     1      19.944   0.488 -19.540  1.00  0.00    -0.508 OA
ATOM     26  H   UNL     1      19.376   1.319 -19.653  1.00  0.00     0.293 HD
ENDBRANCH  11  25
ENDBRANCH   1   2
BRANCH   1  27
ATOM     27  C   UNL     1      15.860  -5.148 -14.276  1.00  0.00     0.339 C 
ATOM     28  C   UNL     1      15.727  -6.065 -13.042  1.00  0.00     0.214 C 
ATOM     29  O   UNL     1      15.260  -5.716 -15.430  1.00  0.00    -0.332 OA
ATOM     30  C   UNL     1      16.196  -7.509 -13.335  1.00  0.00     0.180 C 
ATOM     31  C   UNL     1      15.879  -6.940 -15.792  1.00  0.00     0.179 C 
ATOM     32  C   UNL     1      15.669  -8.012 -14.698  1.00  0.00     0.177 C 
BRANCH  28  33
ATOM     33  O   UNL     1      14.378  -6.081 -12.642  1.00  0.00    -0.384 OA
ATOM     34  H   UNL     1      14.365  -5.930 -11.660  1.00  0.00     0.211 HD
ENDBRANCH  28  33
BRANCH  30  35
ATOM     35  O   UNL     1      17.595  -7.626 -13.235  1.00  0.00    -0.387 OA
ATOM     36  H   UNL     1      18.012  -6.940 -13.812  1.00  0.00     0.211 HD
ENDBRANCH  30  35
BRANCH  31  37
ATOM     37  C   UNL     1      15.299  -7.410 -17.135  1.00  0.00     0.191 C 
BRANCH  37  38
ATOM     38  O   UNL     1      15.474  -6.423 -18.116  1.00  0.00    -0.394 OA
ATOM     39  H   UNL     1      16.384  -6.555 -18.490  1.00  0.00     0.210 HD
ENDBRANCH  37  38
ENDBRANCH  31  37
BRANCH  32  40
ATOM     40  O   UNL     1      14.301  -8.314 -14.589  1.00  0.00    -0.387 OA
ATOM     41  H   UNL     1      14.096  -8.380 -13.621  1.00  0.00     0.211 HD
ENDBRANCH  32  40
ENDBRANCH   1  27
TORSDOF 12
ENDMDL
MODEL 3
REMARK VINA RESULT:    -6.154      2.119      4.719
REMARK INTER + INTRA:         -10.482
REMARK INTER:                  -8.867
REMARK INTRA:                  -1.615
REMARK UNBOUND:                -1.450
REMARK SMILES O=c1c(O[C@H]2O[C@H](CO)[C@H](O)[C@@H](O)[C@@H]2O)c(-c2ccc(O)c(O)c2)oc2cc(O)cc(O)c12
REMARK SMILES IDX 4 1 3 2 16 3 25 4 2 5 26 6 1 7 33 8 27 9 31 10 28 11 30 12
REMARK SMILES IDX 17 13 18 14 19 15 20 16 24 17 22 18 21 19 23 21 32 23 29 25
REMARK SMILES IDX 5 27 14 28 6 29 12 30 7 31 10 32 15 33 13 35 8 37 9 38 11 40
REMARK H PARENT 21 20 23 22 32 24 29 26 15 34 13 36 9 39 11 41
REMARK Flexibility Score: inf
ROOT
ATOM      1  O   UNL     1      16.906  -2.985 -13.996  1.00  0.00    -0.454 OA
ENDROOT
BRANCH   1   2
ATOM      2  C   UNL     1      17.458  -2.327 -15.106  1.00  0.00     0.214 A 
ATOM      3  C   UNL     1      17.604  -0.926 -15.095  1.00  0.00     0.180 A 
ATOM      4  O   UNL     1      18.203  -0.314 -16.111  1.00  0.00    -0.452 OA
ATOM      5  C   UNL     1      17.867  -3.038 -16.247  1.00  0.00     0.239 A 
ATOM      6  C   UNL     1      18.649  -0.952 -17.186  1.00  0.00     0.146 A 
ATOM      7  O   UNL     1      17.648  -4.278 -16.319  1.00  0.00    -0.285 OA
ATOM      8  C   UNL     1      18.491  -2.353 -17.309  1.00  0.00     0.111 A 
ATOM      9  C   UNL     1      19.270  -0.222 -18.203  1.00  0.00     0.094 A 
ATOM     10  C   UNL     1      18.959  -3.000 -18.478  1.00  0.00     0.134 A 
ATOM     11  C   UNL     1      19.735  -0.867 -19.355  1.00  0.00     0.123 A 
ATOM     12  C   UNL     1      19.575  -2.248 -19.490  1.00  0.00     0.093 A 
BRANCH   3  13
ATOM     13  C   UNL     1      17.125  -0.101 -13.967  1.00  0.00     0.025 A 
ATOM     14  C   UNL     1      18.024   0.447 -13.038  1.00  0.00     0.016 A 
ATOM     15  C   UNL     1      17.556   1.223 -11.976  1.00  0.00     0.051 A 
ATOM     16  C   UNL     1      16.181   1.442 -11.814  1.00  0.00     0.157 A 
ATOM     17  C   UNL     1      15.748   0.095 -13.786  1.00  0.00     0.062 A 
ATOM     18  C   UNL     1      15.273   0.868 -12.719  1.00  0.00     0.158 A 
BRANCH  16  19
ATOM     19  O   UNL     1      15.716   2.224 -10.758  1.00  0.00    -0.504 OA
ATOM     20  H   UNL     1      15.518   3.211 -10.874  1.00  0.00     0.293 HD
ENDBRANCH  16  19
BRANCH  18  21
ATOM     21  O   UNL     1      13.899   1.058 -12.581  1.00  0.00    -0.504 OA
ATOM     22  H   UNL     1      13.230   0.618 -13.201  1.00  0.00     0.293 HD
ENDBRANCH  18  21
ENDBRANCH   3  13
BRANCH  10  23
ATOM     23  O   UNL     1      18.822  -4.380 -18.639  1.00  0.00    -0.507 OA
ATOM     24  H   UNL     1      19.598  -5.014 -18.479  1.00  0.00     0.293 HD
ENDBRANCH  10  23
BRANCH  11  25
ATOM     25  O   UNL     1      20.354  -0.145 -20.372  1.00  0.00    -0.508 OA
ATOM     26  H   UNL     1      21.022  -0.580 -20.998  1.00  0.00     0.293 HD
ENDBRANCH  11  25
ENDBRANCH   1   2
BRANCH   1  27
ATOM     27  C   UNL     1      17.690  -3.656 -13.000  1.00  0.00     0.339 C 
ATOM     28  C   UNL     1      17.149  -5.075 -12.731  1.00  0.00     0.214 C 
ATOM     29  O   UNL     1      17.780  -2.884 -11.813  1.00  0.00    -0.332 OA
ATOM     30  C   UNL     1      15.839  -5.052 -11.909  1.00  0.00     0.180 C 
ATOM     31  C   UNL     1      16.508  -2.701 -11.211  1.00  0.00     0.179 C 
ATOM     32  C   UNL     1      15.922  -4.050 -10.735  1.00  0.00     0.177 C 
BRANCH  28  33
ATOM     33  O   UNL     1      18.130  -5.801 -12.031  1.00  0.00    -0.384 OA
ATOM     34  H   UNL     1      17.668  -6.265 -11.282  1.00  0.00     0.211 HD
ENDBRANCH  28  33
BRANCH  30  35
ATOM     35  O   UNL     1      14.720  -4.813 -12.729  1.00  0.00    -0.387 OA
ATOM     36  H   UNL     1      14.601  -3.836 -12.823  1.00  0.00     0.211 HD
ENDBRANCH  30  35
BRANCH  31  37
ATOM     37  C   UNL     1      16.652  -1.723 -10.035  1.00  0.00     0.191 C 
BRANCH  37  38
ATOM     38  O   UNL     1      15.398  -1.216  -9.664  1.00  0.00    -0.394 OA
ATOM     39  H   UNL     1      15.564  -0.338  -9.235  1.00  0.00     0.210 HD
ENDBRANCH  37  38
ENDBRANCH  31  37
BRANCH  32  40
ATOM     40  O   UNL     1      16.732  -4.585  -9.718  1.00  0.00    -0.387 OA
ATOM     41  H   UNL     1      16.621  -4.002  -8.924  1.00  0.00     0.211 HD
ENDBRANCH  32  40
ENDBRANCH   1  27
TORSDOF 12
ENDMDL
MODEL 4
REMARK VINA RESULT:    -6.150      3.318      9.040
REMARK INTER + INTRA:         -10.476
REMARK INTER:                  -9.010
REMARK INTRA:                  -1.467
REMARK UNBOUND:                -1.450
REMARK SMILES O=c1c(O[C@H]2O[C@H](CO)[C@H](O)[C@@H](O)[C@@H]2O)c(-c2ccc(O)c(O)c2)oc2cc(O)cc(O)c12
REMARK SMILES IDX 4 1 3 2 16 3 25 4 2 5 26 6 1 7 33 8 27 9 31 10 28 11 30 12
REMARK SMILES IDX 17 13 18 14 19 15 20 16 24 17 22 18 21 19 23 21 32 23 29 25
REMARK SMILES IDX 5 27 14 28 6 29 12 30 7 31 10 32 15 33 13 35 8 37 9 38 11 40
REMARK H PARENT 21 20 23 22 32 24 29 26 15 34 13 36 9 39 11 41
REMARK Flexibility Score: inf
ROOT
ATOM      1  O   UNL     1      15.580  -5.626 -13.081  1.00  0.00    -0.454 OA
ENDROOT
BRANCH   1   2
ATOM      2  C   UNL     1      14.613  -5.838 -12.086  1.00  0.00     0.214 A 
ATOM      3  C   UNL     1      14.507  -4.943 -11.003  1.00  0.00     0.180 A 
ATOM      4  O   UNL     1      13.538  -5.099 -10.107  1.00  0.00    -0.452 OA
ATOM      5  C   UNL     1      13.742  -6.939 -12.137  1.00  0.00     0.239 A 
ATOM      6  C   UNL     1      12.662  -6.096 -10.145  1.00  0.00     0.146 A 
ATOM      7  O   UNL     1      13.890  -7.808 -13.039  1.00  0.00    -0.285 OA
ATOM      8  C   UNL     1      12.731  -7.075 -11.163  1.00  0.00     0.111 A 
ATOM      9  C   UNL     1      11.675  -6.174  -9.159  1.00  0.00     0.094 A 
ATOM     10  C   UNL     1      11.796  -8.138 -11.162  1.00  0.00     0.134 A 
ATOM     11  C   UNL     1      10.751  -7.224  -9.165  1.00  0.00     0.123 A 
ATOM     12  C   UNL     1      10.816  -8.201 -10.161  1.00  0.00     0.093 A 
BRANCH   3  13
ATOM     13  C   UNL     1      15.438  -3.808 -10.835  1.00  0.00     0.025 A 
ATOM     14  C   UNL     1      15.310  -2.647 -11.615  1.00  0.00     0.016 A 
ATOM     15  C   UNL     1      16.200  -1.583 -11.447  1.00  0.00     0.051 A 
ATOM     16  C   UNL     1      17.242  -1.675 -10.515  1.00  0.00     0.157 A 
ATOM     17  C   UNL     1      16.500  -3.909  -9.925  1.00  0.00     0.062 A 
ATOM     18  C   UNL     1      17.397  -2.848  -9.756  1.00  0.00     0.158 A 
BRANCH  16  19
ATOM     19  O   UNL     1      18.123  -0.609 -10.342  1.00  0.00    -0.504 OA
ATOM     20  H   UNL     1      18.762  -0.323 -11.076  1.00  0.00     0.293 HD
ENDBRANCH  16  19
BRANCH  18  21
ATOM     21  O   UNL     1      18.428  -2.975  -8.827  1.00  0.00    -0.504 OA
ATOM     22  H   UNL     1      19.387  -2.736  -9.051  1.00  0.00     0.293 HD
ENDBRANCH  18  21
ENDBRANCH   3  13
BRANCH  10  23
ATOM     23  O   UNL     1      11.829  -9.125 -12.149  1.00  0.00    -0.507 OA
ATOM     24  H   UNL     1      12.324  -8.987 -13.023  1.00  0.00     0.293 HD
ENDBRANCH  10  23
BRANCH  11  25
ATOM     25  O   UNL     1       9.765  -7.307  -8.185  1.00  0.00    -0.508 OA
ATOM     26  H   UNL     1       9.994  -7.520  -7.221  1.00  0.00     0.293 HD
ENDBRANCH  11  25
ENDBRANCH   1   2
BRANCH   1  27
ATOM     27  C   UNL     1      16.935  -6.084 -12.980  1.00  0.00     0.339 C 
ATOM     28  C   UNL     1      17.930  -4.949 -13.297  1.00  0.00     0.214 C 
ATOM     29  O   UNL     1      17.151  -7.226 -13.796  1.00  0.00    -0.332 OA
ATOM     30  C   UNL     1      17.985  -4.627 -14.809  1.00  0.00     0.180 C 
ATOM     31  C   UNL     1      16.968  -6.929 -15.170  1.00  0.00     0.179 C 
ATOM     32  C   UNL     1      18.026  -5.915 -15.663  1.00  0.00     0.177 C 
BRANCH  28  33
ATOM     33  O   UNL     1      19.207  -5.339 -12.853  1.00  0.00    -0.384 OA
ATOM     34  H   UNL     1      19.222  -5.212 -11.867  1.00  0.00     0.211 HD
ENDBRANCH  28  33
BRANCH  30  35
ATOM     35  O   UNL     1      16.934  -3.773 -15.192  1.00  0.00    -0.387 OA
ATOM     36  H   UNL     1      17.319  -2.915 -15.496  1.00  0.00     0.211 HD
ENDBRANCH  30  35
BRANCH  31  37
ATOM     37  C   UNL     1      17.048  -8.235 -15.975  1.00  0.00     0.191 C 
BRANCH  37  38
ATOM     38  O   UNL     1      17.479  -7.977 -17.285  1.00  0.00    -0.394 OA
ATOM     39  H   UNL     1      18.268  -7.381 -17.211  1.00  0.00     0.210 HD
ENDBRANCH  37  38
ENDBRANCH  31  37
BRANCH  32  40
ATOM     40  O   UNL     1      19.306  -6.491 -15.581  1.00  0.00    -0.387 OA
ATOM     41  H   UNL     1      19.599  -6.675 -16.510  1.00  0.00     0.211 HD
ENDBRANCH  32  40
ENDBRANCH   1  27
TORSDOF 12
ENDMDL
MODEL 5
REMARK VINA RESULT:    -5.991      2.829      5.787
REMARK INTER + INTRA:         -10.243
REMARK INTER:                  -8.982
REMARK INTRA:                  -1.262
REMARK UNBOUND:                -1.450
REMARK SMILES O=c1c(O[C@H]2O[C@H](CO)[C@H](O)[C@@H](O)[C@@H]2O)c(-c2ccc(O)c(O)c2)oc2cc(O)cc(O)c12
REMARK SMILES IDX 4 1 3 2 16 3 25 4 2 5 26 6 1 7 33 8 27 9 31 10 28 11 30 12
REMARK SMILES IDX 17 13 18 14 19 15 20 16 24 17 22 18 21 19 23 21 32 23 29 25
REMARK SMILES IDX 5 27 14 28 6 29 12 30 7 31 10 32 15 33 13 35 8 37 9 38 11 40
REMARK H PARENT 21 20 23 22 32 24 29 26 15 34 13 36 9 39 11 41
REMARK Flexibility Score: inf
ROOT
ATOM      1  O   UNL     1      17.053  -2.774 -11.859  1.00  0.00    -0.454 OA
ENDROOT
BRANCH   1   2
ATOM      2  C   UNL     1      17.363  -3.543 -12.991  1.00  0.00     0.214 A 
ATOM      3  C   UNL     1      17.326  -2.960 -14.272  1.00  0.00     0.180 A 
ATOM      4  O   UNL     1      17.700  -3.667 -15.334  1.00  0.00    -0.452 OA
ATOM      5  C   UNL     1      17.705  -4.902 -12.879  1.00  0.00     0.239 A 
ATOM      6  C   UNL     1      18.079  -4.938 -15.267  1.00  0.00     0.146 A 
ATOM      7  O   UNL     1      17.641  -5.469 -11.754  1.00  0.00    -0.285 OA
ATOM      8  C   UNL     1      18.089  -5.622 -14.029  1.00  0.00     0.111 A 
ATOM      9  C   UNL     1      18.459  -5.598 -16.439  1.00  0.00     0.094 A 
ATOM     10  C   UNL     1      18.477  -6.983 -13.996  1.00  0.00     0.134 A 
ATOM     11  C   UNL     1      18.845  -6.942 -16.400  1.00  0.00     0.123 A 
ATOM     12  C   UNL     1      18.850  -7.629 -15.184  1.00  0.00     0.093 A 
BRANCH   3  13
ATOM     13  C   UNL     1      16.899  -1.562 -14.481  1.00  0.00     0.025 A 
ATOM     14  C   UNL     1      15.588  -1.154 -14.182  1.00  0.00     0.016 A 
ATOM     15  C   UNL     1      15.198   0.172 -14.388  1.00  0.00     0.051 A 
ATOM     16  C   UNL     1      16.104   1.101 -14.917  1.00  0.00     0.157 A 
ATOM     17  C   UNL     1      17.794  -0.637 -15.037  1.00  0.00     0.062 A 
ATOM     18  C   UNL     1      17.406   0.691 -15.250  1.00  0.00     0.158 A 
BRANCH  16  19
ATOM     19  O   UNL     1      15.715   2.424 -15.113  1.00  0.00    -0.504 OA
ATOM     20  H   UNL     1      15.687   2.839 -16.037  1.00  0.00     0.293 HD
ENDBRANCH  16  19
BRANCH  18  21
ATOM     21  O   UNL     1      18.329   1.588 -15.786  1.00  0.00    -0.504 OA
ATOM     22  H   UNL     1      18.562   2.460 -15.326  1.00  0.00     0.293 HD
ENDBRANCH  18  21
ENDBRANCH   3  13
BRANCH  10  23
ATOM     23  O   UNL     1      18.500  -7.694 -12.795  1.00  0.00    -0.507 OA
ATOM     24  H   UNL     1      19.044  -8.543 -12.690  1.00  0.00     0.293 HD
ENDBRANCH  10  23
BRANCH  11  25
ATOM     25  O   UNL     1      19.224  -7.605 -17.564  1.00  0.00    -0.508 OA
ATOM     26  H   UNL     1      20.063  -8.173 -17.601  1.00  0.00     0.293 HD
ENDBRANCH  11  25
ENDBRANCH   1   2
BRANCH   1  27
ATOM     27  C   UNL     1      17.987  -1.893 -11.220  1.00  0.00     0.339 C 
ATOM     28  C   UNL     1      18.728  -2.607 -10.071  1.00  0.00     0.214 C 
ATOM     29  O   UNL     1      17.351  -0.701 -10.785  1.00  0.00    -0.332 OA
ATOM     30  C   UNL     1      17.825  -2.807  -8.830  1.00  0.00     0.180 C 
ATOM     31  C   UNL     1      16.366  -0.964  -9.799  1.00  0.00     0.179 C 
ATOM     32  C   UNL     1      17.007  -1.534  -8.513  1.00  0.00     0.177 C 
BRANCH  28  33
ATOM     33  O   UNL     1      19.850  -1.837  -9.716  1.00  0.00    -0.384 OA
ATOM     34  H   UNL     1      19.525  -0.913  -9.544  1.00  0.00     0.211 HD
ENDBRANCH  28  33
BRANCH  30  35
ATOM     35  O   UNL     1      17.004  -3.941  -8.968  1.00  0.00    -0.387 OA
ATOM     36  H   UNL     1      16.059  -3.651  -8.949  1.00  0.00     0.211 HD
ENDBRANCH  30  35
BRANCH  31  37
ATOM     37  C   UNL     1      15.605   0.336  -9.499  1.00  0.00     0.191 C 
BRANCH  37  38
ATOM     38  O   UNL     1      14.296   0.264 -10.001  1.00  0.00    -0.394 OA
ATOM     39  H   UNL     1      13.865   1.132  -9.791  1.00  0.00     0.210 HD
ENDBRANCH  37  38
ENDBRANCH  31  37
BRANCH  32  40
ATOM     40  O   UNL     1      17.850  -0.567  -7.937  1.00  0.00    -0.387 OA
ATOM     41  H   UNL     1      18.514  -1.054  -7.385  1.00  0.00     0.211 HD
ENDBRANCH  32  40
ENDBRANCH   1  27
TORSDOF 12
ENDMDL
MODEL 6
REMARK VINA RESULT:    -5.974      3.086      7.554
REMARK INTER + INTRA:         -10.218
REMARK INTER:                  -8.605
REMARK INTRA:                  -1.613
REMARK UNBOUND:                -1.450
REMARK SMILES O=c1c(O[C@H]2O[C@H](CO)[C@H](O)[C@@H](O)[C@@H]2O)c(-c2ccc(O)c(O)c2)oc2cc(O)cc(O)c12
REMARK SMILES IDX 4 1 3 2 16 3 25 4 2 5 26 6 1 7 33 8 27 9 31 10 28 11 30 12
REMARK SMILES IDX 17 13 18 14 19 15 20 16 24 17 22 18 21 19 23 21 32 23 29 25
REMARK SMILES IDX 5 27 14 28 6 29 12 30 7 31 10 32 15 33 13 35 8 37 9 38 11 40
REMARK H PARENT 21 20 23 22 32 24 29 26 15 34 13 36 9 39 11 41
REMARK Flexibility Score: inf
ROOT
ATOM      1  O   UNL     1      16.223  -3.554 -12.388  1.00  0.00    -0.454 OA
ENDROOT
BRANCH   1   2
ATOM      2  C   UNL     1      15.418  -2.449 -12.074  1.00  0.00     0.214 A 
ATOM      3  C   UNL     1      15.805  -1.563 -11.049  1.00  0.00     0.180 A 
ATOM      4  O   UNL     1      15.085  -0.472 -10.809  1.00  0.00    -0.452 OA
ATOM      5  C   UNL     1      14.215  -2.203 -12.758  1.00  0.00     0.239 A 
ATOM      6  C   UNL     1      13.969  -0.175 -11.466  1.00  0.00     0.146 A 
ATOM      7  O   UNL     1      13.799  -3.040 -13.605  1.00  0.00    -0.285 OA
ATOM      8  C   UNL     1      13.474  -1.039 -12.470  1.00  0.00     0.111 A 
ATOM      9  C   UNL     1      13.282   0.999 -11.145  1.00  0.00     0.094 A 
ATOM     10  C   UNL     1      12.270  -0.704 -13.136  1.00  0.00     0.134 A 
ATOM     11  C   UNL     1      12.095   1.327 -11.809  1.00  0.00     0.123 A 
ATOM     12  C   UNL     1      11.593   0.477 -12.796  1.00  0.00     0.093 A 
BRANCH   3  13
ATOM     13  C   UNL     1      17.012  -1.797 -10.231  1.00  0.00     0.025 A 
ATOM     14  C   UNL     1      18.220  -1.143 -10.520  1.00  0.00     0.016 A 
ATOM     15  C   UNL     1      19.354  -1.376  -9.739  1.00  0.00     0.051 A 
ATOM     16  C   UNL     1      19.302  -2.285  -8.673  1.00  0.00     0.157 A 
ATOM     17  C   UNL     1      16.970  -2.727  -9.182  1.00  0.00     0.062 A 
ATOM     18  C   UNL     1      18.106  -2.969  -8.399  1.00  0.00     0.158 A 
BRANCH  16  19
ATOM     19  O   UNL     1      20.432  -2.510  -7.889  1.00  0.00    -0.504 OA
ATOM     20  H   UNL     1      20.625  -1.955  -7.063  1.00  0.00     0.293 HD
ENDBRANCH  16  19
BRANCH  18  21
ATOM     21  O   UNL     1      18.022  -3.885  -7.352  1.00  0.00    -0.504 OA
ATOM     22  H   UNL     1      18.821  -4.431  -7.050  1.00  0.00     0.293 HD
ENDBRANCH  18  21
ENDBRANCH   3  13
BRANCH  10  23
ATOM     23  O   UNL     1      11.748  -1.529 -14.133  1.00  0.00    -0.507 OA
ATOM     24  H   UNL     1      11.912  -2.530 -14.136  1.00  0.00     0.293 HD
ENDBRANCH  10  23
BRANCH  11  25
ATOM     25  O   UNL     1      11.405   2.495 -11.493  1.00  0.00    -0.508 OA
ATOM     26  H   UNL     1      10.680   2.862 -12.100  1.00  0.00     0.293 HD
ENDBRANCH  11  25
ENDBRANCH   1   2
BRANCH   1  27
ATOM     27  C   UNL     1      17.379  -3.479 -13.233  1.00  0.00     0.339 C 
ATOM     28  C   UNL     1      16.987  -3.590 -14.721  1.00  0.00     0.214 C 
ATOM     29  O   UNL     1      18.349  -4.447 -12.863  1.00  0.00    -0.332 OA
ATOM     30  C   UNL     1      16.599  -5.035 -15.115  1.00  0.00     0.180 C 
ATOM     31  C   UNL     1      17.860  -5.767 -13.032  1.00  0.00     0.179 C 
ATOM     32  C   UNL     1      17.583  -6.069 -14.524  1.00  0.00     0.177 C 
BRANCH  28  33
ATOM     33  O   UNL     1      18.078  -3.167 -15.503  1.00  0.00    -0.384 OA
ATOM     34  H   UNL     1      18.903  -3.419 -15.009  1.00  0.00     0.211 HD
ENDBRANCH  28  33
BRANCH  30  35
ATOM     35  O   UNL     1      15.264  -5.321 -14.771  1.00  0.00    -0.387 OA
ATOM     36  H   UNL     1      15.003  -6.173 -15.200  1.00  0.00     0.211 HD
ENDBRANCH  30  35
BRANCH  31  37
ATOM     37  C   UNL     1      18.887  -6.754 -12.457  1.00  0.00     0.191 C 
BRANCH  37  38
ATOM     38  O   UNL     1      20.143  -6.141 -12.342  1.00  0.00    -0.394 OA
ATOM     39  H   UNL     1      20.447  -6.292 -11.410  1.00  0.00     0.210 HD
ENDBRANCH  37  38
ENDBRANCH  31  37
BRANCH  32  40
ATOM     40  O   UNL     1      18.790  -6.032 -15.244  1.00  0.00    -0.387 OA
ATOM     41  H   UNL     1      19.105  -5.091 -15.233  1.00  0.00     0.211 HD
ENDBRANCH  32  40
ENDBRANCH   1  27
TORSDOF 12
ENDMDL
MODEL 7
REMARK VINA RESULT:    -5.949     12.012     13.666
REMARK INTER + INTRA:         -10.181
REMARK INTER:                  -9.171
REMARK INTRA:                  -1.010
REMARK UNBOUND:                -1.450
REMARK SMILES O=c1c(O[C@H]2O[C@H](CO)[C@H](O)[C@@H](O)[C@@H]2O)c(-c2ccc(O)c(O)c2)oc2cc(O)cc(O)c12
REMARK SMILES IDX 4 1 3 2 16 3 25 4 2 5 26 6 1 7 33 8 27 9 31 10 28 11 30 12
REMARK SMILES IDX 17 13 18 14 19 15 20 16 24 17 22 18 21 19 23 21 32 23 29 25
REMARK SMILES IDX 5 27 14 28 6 29 12 30 7 31 10 32 15 33 13 35 8 37 9 38 11 40
REMARK H PARENT 21 20 23 22 32 24 29 26 15 34 13 36 9 39 11 41
REMARK Flexibility Score: inf
ROOT
ATOM      1  O   UNL     1       7.438   4.889 -16.512  1.00  0.00    -0.454 OA
ENDROOT
BRANCH   1   2
ATOM      2  C   UNL     1       7.807   5.977 -17.318  1.00  0.00     0.214 A 
ATOM      3  C   UNL     1       9.044   5.969 -17.991  1.00  0.00     0.180 A 
ATOM      4  O   UNL     1       9.354   6.963 -18.819  1.00  0.00    -0.452 OA
ATOM      5  C   UNL     1       6.966   7.094 -17.465  1.00  0.00     0.239 A 
ATOM      6  C   UNL     1       8.568   8.012 -19.026  1.00  0.00     0.146 A 
ATOM      7  O   UNL     1       5.904   7.167 -16.789  1.00  0.00    -0.285 OA
ATOM      8  C   UNL     1       7.334   8.132 -18.346  1.00  0.00     0.111 A 
ATOM      9  C   UNL     1       8.979   9.005 -19.919  1.00  0.00     0.094 A 
ATOM     10  C   UNL     1       6.529   9.274 -18.574  1.00  0.00     0.134 A 
ATOM     11  C   UNL     1       8.179  10.130 -20.144  1.00  0.00     0.123 A 
ATOM     12  C   UNL     1       6.962  10.262 -19.470  1.00  0.00     0.093 A 
BRANCH   3  13
ATOM     13  C   UNL     1      10.016   4.871 -17.823  1.00  0.00     0.025 A 
ATOM     14  C   UNL     1      10.735   4.717 -16.626  1.00  0.00     0.016 A 
ATOM     15  C   UNL     1      11.654   3.675 -16.484  1.00  0.00     0.051 A 
ATOM     16  C   UNL     1      11.884   2.787 -17.544  1.00  0.00     0.157 A 
ATOM     17  C   UNL     1      10.271   3.999 -18.892  1.00  0.00     0.062 A 
ATOM     18  C   UNL     1      11.194   2.955 -18.756  1.00  0.00     0.158 A 
BRANCH  16  19
ATOM     19  O   UNL     1      12.795   1.743 -17.396  1.00  0.00    -0.504 OA
ATOM     20  H   UNL     1      12.923   1.269 -16.509  1.00  0.00     0.293 HD
ENDBRANCH  16  19
BRANCH  18  21
ATOM     21  O   UNL     1      11.407   2.096 -19.832  1.00  0.00    -0.504 OA
ATOM     22  H   UNL     1      12.010   1.285 -19.762  1.00  0.00     0.293 HD
ENDBRANCH  18  21
ENDBRANCH   3  13
BRANCH  10  23
ATOM     23  O   UNL     1       5.304   9.431 -17.923  1.00  0.00    -0.507 OA
ATOM     24  H   UNL     1       4.799   8.639 -17.541  1.00  0.00     0.293 HD
ENDBRANCH  10  23
BRANCH  11  25
ATOM     25  O   UNL     1       8.583  11.123 -21.032  1.00  0.00    -0.508 OA
ATOM     26  H   UNL     1       9.484  11.578 -20.943  1.00  0.00     0.293 HD
ENDBRANCH  11  25
ENDBRANCH   1   2
BRANCH   1  27
ATOM     27  C   UNL     1       6.127   4.309 -16.514  1.00  0.00     0.339 C 
ATOM     28  C   UNL     1       6.025   3.161 -15.488  1.00  0.00     0.214 C 
ATOM     29  O   UNL     1       5.752   3.893 -17.818  1.00  0.00    -0.332 OA
ATOM     30  C   UNL     1       6.761   1.887 -15.965  1.00  0.00     0.180 C 
ATOM     31  C   UNL     1       6.604   2.869 -18.305  1.00  0.00     0.179 C 
ATOM     32  C   UNL     1       6.469   1.586 -17.452  1.00  0.00     0.177 C 
BRANCH  28  33
ATOM     33  O   UNL     1       4.665   2.869 -15.279  1.00  0.00    -0.384 OA
ATOM     34  H   UNL     1       4.156   3.700 -15.477  1.00  0.00     0.211 HD
ENDBRANCH  28  33
BRANCH  30  35
ATOM     35  O   UNL     1       8.142   1.961 -15.703  1.00  0.00    -0.387 OA
ATOM     36  H   UNL     1       8.304   1.658 -14.776  1.00  0.00     0.211 HD
ENDBRANCH  30  35
BRANCH  31  37
ATOM     37  C   UNL     1       6.252   2.588 -19.773  1.00  0.00     0.191 C 
BRANCH  37  38
ATOM     38  O   UNL     1       4.935   2.986 -20.046  1.00  0.00    -0.394 OA
ATOM     39  H   UNL     1       4.977   3.575 -20.843  1.00  0.00     0.210 HD
ENDBRANCH  37  38
ENDBRANCH  31  37
BRANCH  32  40
ATOM     40  O   UNL     1       5.167   1.069 -17.579  1.00  0.00    -0.387 OA
ATOM     41  H   UNL     1       4.568   1.838 -17.763  1.00  0.00     0.211 HD
ENDBRANCH  32  40
ENDBRANCH   1  27
TORSDOF 12
ENDMDL
MODEL 8
REMARK VINA RESULT:    -5.893      2.256      6.082
REMARK INTER + INTRA:         -10.098
REMARK INTER:                  -9.083
REMARK INTRA:                  -1.015
REMARK UNBOUND:                -1.450
REMARK SMILES O=c1c(O[C@H]2O[C@H](CO)[C@H](O)[C@@H](O)[C@@H]2O)c(-c2ccc(O)c(O)c2)oc2cc(O)cc(O)c12
REMARK SMILES IDX 4 1 3 2 16 3 25 4 2 5 26 6 1 7 33 8 27 9 31 10 28 11 30 12
REMARK SMILES IDX 17 13 18 14 19 15 20 16 24 17 22 18 21 19 23 21 32 23 29 25
REMARK SMILES IDX 5 27 14 28 6 29 12 30 7 31 10 32 15 33 13 35 8 37 9 38 11 40
REMARK H PARENT 21 20 23 22 32 24 29 26 15 34 13 36 9 39 11 41
REMARK Flexibility Score: inf
ROOT
ATOM      1  O   UNL     1      16.432  -3.164 -12.209  1.00  0.00    -0.454 OA
ENDROOT
BRANCH   1   2
ATOM      2  C   UNL     1      16.306  -3.948 -13.366  1.00  0.00     0.214 A 
ATOM      3  C   UNL     1      16.588  -3.392 -14.629  1.00  0.00     0.180 A 
ATOM      4  O   UNL     1      16.549  -4.158 -15.714  1.00  0.00    -0.452 OA
ATOM      5  C   UNL     1      15.891  -5.289 -13.298  1.00  0.00     0.239 A 
ATOM      6  C   UNL     1      16.211  -5.442 -15.689  1.00  0.00     0.146 A 
ATOM      7  O   UNL     1      15.533  -5.774 -12.190  1.00  0.00    -0.285 OA
ATOM      8  C   UNL     1      15.854  -6.068 -14.472  1.00  0.00     0.111 A 
ATOM      9  C   UNL     1      16.202  -6.168 -16.883  1.00  0.00     0.094 A 
ATOM     10  C   UNL     1      15.478  -7.433 -14.483  1.00  0.00     0.134 A 
ATOM     11  C   UNL     1      15.834  -7.517 -16.888  1.00  0.00     0.123 A 
ATOM     12  C   UNL     1      15.471  -8.142 -15.693  1.00  0.00     0.093 A 
BRANCH   3  13
ATOM     13  C   UNL     1      16.951  -1.969 -14.791  1.00  0.00     0.025 A 
ATOM     14  C   UNL     1      16.221  -0.958 -14.146  1.00  0.00     0.016 A 
ATOM     15  C   UNL     1      16.574   0.383 -14.312  1.00  0.00     0.051 A 
ATOM     16  C   UNL     1      17.646   0.733 -15.144  1.00  0.00     0.157 A 
ATOM     17  C   UNL     1      18.004  -1.615 -15.647  1.00  0.00     0.062 A 
ATOM     18  C   UNL     1      18.359  -0.271 -15.821  1.00  0.00     0.158 A 
BRANCH  16  19
ATOM     19  O   UNL     1      18.003   2.071 -15.302  1.00  0.00    -0.504 OA
ATOM     20  H   UNL     1      17.623   2.637 -16.052  1.00  0.00     0.293 HD
ENDBRANCH  16  19
BRANCH  18  21
ATOM     21  O   UNL     1      19.425   0.043 -16.663  1.00  0.00    -0.504 OA
ATOM     22  H   UNL     1      20.244  -0.548 -16.737  1.00  0.00     0.293 HD
ENDBRANCH  18  21
ENDBRANCH   3  13
BRANCH  10  23
ATOM     23  O   UNL     1      15.119  -8.088 -13.304  1.00  0.00    -0.507 OA
ATOM     24  H   UNL     1      15.768  -8.691 -12.811  1.00  0.00     0.293 HD
ENDBRANCH  10  23
BRANCH  11  25
ATOM     25  O   UNL     1      15.822  -8.245 -18.075  1.00  0.00    -0.508 OA
ATOM     26  H   UNL     1      16.286  -7.905 -18.910  1.00  0.00     0.293 HD
ENDBRANCH  11  25
ENDBRANCH   1   2
BRANCH   1  27
ATOM     27  C   UNL     1      17.304  -3.493 -11.119  1.00  0.00     0.339 C 
ATOM     28  C   UNL     1      16.619  -3.232  -9.762  1.00  0.00     0.214 C 
ATOM     29  O   UNL     1      18.544  -2.812 -11.231  1.00  0.00    -0.332 OA
ATOM     30  C   UNL     1      16.526  -1.722  -9.437  1.00  0.00     0.180 C 
ATOM     31  C   UNL     1      18.377  -1.406 -11.151  1.00  0.00     0.179 C 
ATOM     32  C   UNL     1      17.848  -0.990  -9.759  1.00  0.00     0.177 C 
BRANCH  28  33
ATOM     33  O   UNL     1      17.358  -3.883  -8.757  1.00  0.00    -0.384 OA
ATOM     34  H   UNL     1      16.820  -3.831  -7.922  1.00  0.00     0.211 HD
ENDBRANCH  28  33
BRANCH  30  35
ATOM     35  O   UNL     1      15.423  -1.125 -10.076  1.00  0.00    -0.387 OA
ATOM     36  H   UNL     1      15.344  -1.502 -10.987  1.00  0.00     0.211 HD
ENDBRANCH  30  35
BRANCH  31  37
ATOM     37  C   UNL     1      19.724  -0.729 -11.449  1.00  0.00     0.191 C 
BRANCH  37  38
ATOM     38  O   UNL     1      20.782  -1.507 -10.955  1.00  0.00    -0.394 OA
ATOM     39  H   UNL     1      21.244  -1.889 -11.745  1.00  0.00     0.210 HD
ENDBRANCH  37  38
ENDBRANCH  31  37
BRANCH  32  40
ATOM     40  O   UNL     1      18.807  -1.299  -8.778  1.00  0.00    -0.387 OA
ATOM     41  H   UNL     1      19.378  -0.495  -8.668  1.00  0.00     0.211 HD
ENDBRANCH  32  40
ENDBRANCH   1  27
TORSDOF 12
ENDMDL
MODEL 9
REMARK VINA RESULT:    -5.890     11.575     14.051
REMARK INTER + INTRA:         -10.094
REMARK INTER:                  -8.592
REMARK INTRA:                  -1.502
REMARK UNBOUND:                -1.450
REMARK SMILES O=c1c(O[C@H]2O[C@H](CO)[C@H](O)[C@@H](O)[C@@H]2O)c(-c2ccc(O)c(O)c2)oc2cc(O)cc(O)c12
REMARK SMILES IDX 4 1 3 2 16 3 25 4 2 5 26 6 1 7 33 8 27 9 31 10 28 11 30 12
REMARK SMILES IDX 17 13 18 14 19 15 20 16 24 17 22 18 21 19 23 21 32 23 29 25
REMARK SMILES IDX 5 27 14 28 6 29 12 30 7 31 10 32 15 33 13 35 8 37 9 38 11 40
REMARK H PARENT 21 20 23 22 32 24 29 26 15 34 13 36 9 39 11 41
REMARK Flexibility Score: inf
ROOT
ATOM      1  O   UNL     1       8.173   4.615 -17.869  1.00  0.00    -0.454 OA
ENDROOT
BRANCH   1   2
ATOM      2  C   UNL     1       7.270   5.229 -16.987  1.00  0.00     0.214 A 
ATOM      3  C   UNL     1       6.081   4.569 -16.623  1.00  0.00     0.180 A 
ATOM      4  O   UNL     1       5.267   5.115 -15.724  1.00  0.00    -0.452 OA
ATOM      5  C   UNL     1       7.520   6.507 -16.459  1.00  0.00     0.239 A 
ATOM      6  C   UNL     1       5.490   6.297 -15.162  1.00  0.00     0.146 A 
ATOM      7  O   UNL     1       8.525   7.159 -16.854  1.00  0.00    -0.285 OA
ATOM      8  C   UNL     1       6.630   7.058 -15.514  1.00  0.00     0.111 A 
ATOM      9  C   UNL     1       4.579   6.788 -14.223  1.00  0.00     0.094 A 
ATOM     10  C   UNL     1       6.826   8.324 -14.912  1.00  0.00     0.134 A 
ATOM     11  C   UNL     1       4.780   8.038 -13.628  1.00  0.00     0.123 A 
ATOM     12  C   UNL     1       5.897   8.801 -13.976  1.00  0.00     0.093 A 
BRANCH   3  13
ATOM     13  C   UNL     1       5.708   3.260 -17.197  1.00  0.00     0.025 A 
ATOM     14  C   UNL     1       4.956   3.177 -18.380  1.00  0.00     0.016 A 
ATOM     15  C   UNL     1       4.608   1.932 -18.910  1.00  0.00     0.051 A 
ATOM     16  C   UNL     1       4.985   0.754 -18.251  1.00  0.00     0.157 A 
ATOM     17  C   UNL     1       6.059   2.080 -16.524  1.00  0.00     0.062 A 
ATOM     18  C   UNL     1       5.708   0.830 -17.048  1.00  0.00     0.158 A 
BRANCH  16  19
ATOM     19  O   UNL     1       4.645  -0.487 -18.785  1.00  0.00    -0.504 OA
ATOM     20  H   UNL     1       3.919  -1.062 -18.372  1.00  0.00     0.293 HD
ENDBRANCH  16  19
BRANCH  18  21
ATOM     21  O   UNL     1       6.090  -0.322 -16.363  1.00  0.00    -0.504 OA
ATOM     22  H   UNL     1       6.462  -0.289 -15.420  1.00  0.00     0.293 HD
ENDBRANCH  18  21
ENDBRANCH   3  13
BRANCH  10  23
ATOM     23  O   UNL     1       7.937   9.106 -15.232  1.00  0.00    -0.507 OA
ATOM     24  H   UNL     1       7.994  10.084 -14.970  1.00  0.00     0.293 HD
ENDBRANCH  10  23
BRANCH  11  25
ATOM     25  O   UNL     1       3.875   8.533 -12.693  1.00  0.00    -0.508 OA
ATOM     26  H   UNL     1       4.103   8.574 -11.706  1.00  0.00     0.293 HD
ENDBRANCH  11  25
ENDBRANCH   1   2
BRANCH   1  27
ATOM     27  C   UNL     1       9.002   3.502 -17.507  1.00  0.00     0.339 C 
ATOM     28  C   UNL     1      10.321   3.978 -16.865  1.00  0.00     0.214 C 
ATOM     29  O   UNL     1       9.226   2.648 -18.618  1.00  0.00    -0.332 OA
ATOM     30  C   UNL     1      11.298   4.568 -17.910  1.00  0.00     0.180 C 
ATOM     31  C   UNL     1       9.937   3.310 -19.651  1.00  0.00     0.179 C 
ATOM     32  C   UNL     1      11.360   3.696 -19.184  1.00  0.00     0.177 C 
BRANCH  28  33
ATOM     33  O   UNL     1      10.926   2.882 -16.223  1.00  0.00    -0.384 OA
ATOM     34  H   UNL     1      11.204   3.193 -15.320  1.00  0.00     0.211 HD
ENDBRANCH  28  33
BRANCH  30  35
ATOM     35  O   UNL     1      10.990   5.909 -18.203  1.00  0.00    -0.387 OA
ATOM     36  H   UNL     1      11.222   6.088 -19.147  1.00  0.00     0.211 HD
ENDBRANCH  30  35
BRANCH  31  37
ATOM     37  C   UNL     1       9.996   2.391 -20.880  1.00  0.00     0.191 C 
BRANCH  37  38
ATOM     38  O   UNL     1      10.983   2.832 -21.774  1.00  0.00    -0.394 OA
ATOM     39  H   UNL     1      11.651   2.101 -21.841  1.00  0.00     0.210 HD
ENDBRANCH  37  38
ENDBRANCH  31  37
BRANCH  32  40
ATOM     40  O   UNL     1      12.102   2.531 -18.920  1.00  0.00    -0.387 OA
ATOM     41  H   UNL     1      12.946   2.818 -18.485  1.00  0.00     0.211 HD
ENDBRANCH  32  40
ENDBRANCH   1  27
TORSDOF 12
ENDMDL
