MODEL 1
REMARK VINA RESULT:    -4.707      0.000      0.000
REMARK INTER + INTRA:          -9.765
REMARK INTER:                  -8.010
REMARK INTRA:                  -1.755
REMARK UNBOUND:                -1.755
REMARK SMILES CCCCCCCCCCCCCC(=O)[O-]
REMARK SMILES IDX 8 1 9 2 10 3 11 4 12 5 13 6 14 7 15 8 16 9 7 10 6 11 5 12
REMARK SMILES IDX 4 13 3 14 2 15 1 16
REMARK H PARENT
REMARK Flexibility Score: inf
ROOT
ATOM      1  C   UNL     1      -2.241 -49.010  17.722  1.00  0.00     0.000 C 
ENDROOT
BRANCH   1   2
ATOM      2  C   UNL     1      -1.395 -47.771  17.379  1.00  0.00     0.000 C 
BRANCH   2   3
ATOM      3  C   UNL     1      -1.569 -46.630  18.396  1.00  0.00     0.000 C 
BRANCH   3   4
ATOM      4  C   UNL     1      -2.159 -45.359  17.761  1.00  0.00     0.000 C 
BRANCH   4   5
ATOM      5  C   UNL     1      -1.757 -45.187  16.283  1.00  0.00     0.006 C 
BRANCH   5   6
ATOM      6  C   UNL     1      -2.896 -44.684  15.381  1.00  0.00     0.053 C 
BRANCH   6   7
ATOM      7  C   UNL     1      -3.862 -45.768  15.013  1.00  0.00     0.041 C 
ATOM      8  O   UNL     1      -3.465 -46.783  14.383  1.00  0.00    -0.550 OA
ATOM      9  O   UNL     1      -5.201 -45.655  15.365  1.00  0.00    -0.550 OA
ENDBRANCH   6   7
ENDBRANCH   5   6
ENDBRANCH   4   5
ENDBRANCH   3   4
ENDBRANCH   2   3
ENDBRANCH   1   2
BRANCH   1  10
ATOM     10  C   UNL     1      -3.571 -49.041  16.941  1.00  0.00     0.000 C 
BRANCH  10  11
ATOM     11  C   UNL     1      -4.801 -48.703  17.802  1.00  0.00    -0.000 C 
BRANCH  11  12
ATOM     12  C   UNL     1      -4.479 -48.622  19.301  1.00  0.00    -0.000 C 
BRANCH  12  13
ATOM     13  C   UNL     1      -4.794 -47.225  19.855  1.00  0.00    -0.000 C 
BRANCH  13  14
ATOM     14  C   UNL     1      -5.477 -46.317  18.819  1.00  0.00    -0.000 C 
BRANCH  14  15
ATOM     15  C   UNL     1      -6.237 -45.150  19.465  1.00  0.00    -0.003 C 
ATOM     16  C   UNL     1      -6.217 -45.257  20.988  1.00  0.00     0.004 C 
ENDBRANCH  14  15
ENDBRANCH  13  14
ENDBRANCH  12  13
ENDBRANCH  11  12
ENDBRANCH  10  11
ENDBRANCH   1  10
TORSDOF 12
ENDMDL
MODEL 2
REMARK VINA RESULT:    -4.679      1.781      4.544
REMARK INTER + INTRA:          -9.717
REMARK INTER:                  -7.875
REMARK INTRA:                  -1.843
REMARK UNBOUND:                -1.755
REMARK SMILES CCCCCCCCCCCCCC(=O)[O-]
REMARK SMILES IDX 8 1 9 2 10 3 11 4 12 5 13 6 14 7 15 8 16 9 7 10 6 11 5 12
REMARK SMILES IDX 4 13 3 14 2 15 1 16
REMARK H PARENT
REMARK Flexibility Score: inf
ROOT
ATOM      1  C   UNL     1      -3.824 -48.768  16.798  1.00  0.00     0.000 C 
ENDROOT
BRANCH   1   2
ATOM      2  C   UNL     1      -4.992 -48.549  17.777  1.00  0.00     0.000 C 
BRANCH   2   3
ATOM      3  C   UNL     1      -4.568 -48.688  19.249  1.00  0.00     0.000 C 
BRANCH   3   4
ATOM      4  C   UNL     1      -4.636 -47.353  20.011  1.00  0.00     0.000 C 
BRANCH   4   5
ATOM      5  C   UNL     1      -5.510 -46.302  19.298  1.00  0.00     0.006 C 
BRANCH   5   6
ATOM      6  C   UNL     1      -6.204 -45.317  20.253  1.00  0.00     0.053 C 
BRANCH   6   7
ATOM      7  C   UNL     1      -6.869 -44.185  19.531  1.00  0.00     0.041 C 
ATOM      8  O   UNL     1      -7.266 -43.174  20.167  1.00  0.00    -0.550 OA
ATOM      9  O   UNL     1      -7.051 -44.249  18.156  1.00  0.00    -0.550 OA
ENDBRANCH   6   7
ENDBRANCH   5   6
ENDBRANCH   4   5
ENDBRANCH   3   4
ENDBRANCH   2   3
ENDBRANCH   1   2
BRANCH   1  10
ATOM     10  C   UNL     1      -2.488 -49.011  17.530  1.00  0.00     0.000 C 
BRANCH  10  11
ATOM     11  C   UNL     1      -1.462 -47.881  17.332  1.00  0.00    -0.000 C 
BRANCH  11  12
ATOM     12  C   UNL     1      -1.574 -46.777  18.393  1.00  0.00    -0.000 C 
BRANCH  12  13
ATOM     13  C   UNL     1      -2.198 -45.506  17.799  1.00  0.00    -0.000 C 
BRANCH  13  14
ATOM     14  C   UNL     1      -1.706 -45.217  16.370  1.00  0.00    -0.000 C 
BRANCH  14  15
ATOM     15  C   UNL     1      -2.831 -44.732  15.445  1.00  0.00    -0.003 C 
ATOM     16  C   UNL     1      -4.201 -45.115  15.998  1.00  0.00     0.004 C 
ENDBRANCH  14  15
ENDBRANCH  13  14
ENDBRANCH  12  13
ENDBRANCH  11  12
ENDBRANCH  10  11
ENDBRANCH   1  10
TORSDOF 12
ENDMDL
MODEL 3
REMARK VINA RESULT:    -4.595      1.422      2.716
REMARK INTER + INTRA:          -9.574
REMARK INTER:                  -7.620
REMARK INTRA:                  -1.954
REMARK UNBOUND:                -1.755
REMARK SMILES CCCCCCCCCCCCCC(=O)[O-]
REMARK SMILES IDX 8 1 9 2 10 3 11 4 12 5 13 6 14 7 15 8 16 9 7 10 6 11 5 12
REMARK SMILES IDX 4 13 3 14 2 15 1 16
REMARK H PARENT
REMARK Flexibility Score: inf
ROOT
ATOM      1  C   UNL     1      -1.623 -46.681  18.385  1.00  0.00     0.000 C 
ENDROOT
BRANCH   1   2
ATOM      2  C   UNL     1      -2.136 -45.375  17.754  1.00  0.00     0.000 C 
BRANCH   2   3
ATOM      3  C   UNL     1      -1.705 -45.213  16.287  1.00  0.00     0.000 C 
BRANCH   3   4
ATOM      4  C   UNL     1      -2.808 -44.591  15.413  1.00  0.00     0.000 C 
BRANCH   4   5
ATOM      5  C   UNL     1      -4.195 -44.628  16.085  1.00  0.00     0.006 C 
BRANCH   5   6
ATOM      6  C   UNL     1      -5.147 -45.680  15.492  1.00  0.00     0.053 C 
BRANCH   6   7
ATOM      7  C   UNL     1      -6.578 -45.238  15.508  1.00  0.00     0.041 C 
ATOM      8  O   UNL     1      -7.161 -45.018  16.602  1.00  0.00    -0.550 OA
ATOM      9  O   UNL     1      -7.266 -45.069  14.314  1.00  0.00    -0.550 OA
ENDBRANCH   6   7
ENDBRANCH   5   6
ENDBRANCH   4   5
ENDBRANCH   3   4
ENDBRANCH   2   3
ENDBRANCH   1   2
BRANCH   1  10
ATOM     10  C   UNL     1      -1.469 -47.810  17.344  1.00  0.00     0.000 C 
BRANCH  10  11
ATOM     11  C   UNL     1      -2.388 -49.017  17.603  1.00  0.00    -0.000 C 
BRANCH  11  12
ATOM     12  C   UNL     1      -3.707 -48.944  16.820  1.00  0.00    -0.000 C 
BRANCH  12  13
ATOM     13  C   UNL     1      -4.861 -48.500  17.730  1.00  0.00    -0.000 C 
BRANCH  13  14
ATOM     14  C   UNL     1      -4.560 -48.725  19.221  1.00  0.00    -0.000 C 
BRANCH  14  15
ATOM     15  C   UNL     1      -4.644 -47.430  20.043  1.00  0.00    -0.003 C 
ATOM     16  C   UNL     1      -5.423 -46.353  19.293  1.00  0.00     0.004 C 
ENDBRANCH  14  15
ENDBRANCH  13  14
ENDBRANCH  12  13
ENDBRANCH  11  12
ENDBRANCH  10  11
ENDBRANCH   1  10
TORSDOF 12
ENDMDL
MODEL 4
REMARK VINA RESULT:    -4.560      0.979      1.735
REMARK INTER + INTRA:          -9.514
REMARK INTER:                  -7.629
REMARK INTRA:                  -1.885
REMARK UNBOUND:                -1.755
REMARK SMILES CCCCCCCCCCCCCC(=O)[O-]
REMARK SMILES IDX 8 1 9 2 10 3 11 4 12 5 13 6 14 7 15 8 16 9 7 10 6 11 5 12
REMARK SMILES IDX 4 13 3 14 2 15 1 16
REMARK H PARENT
REMARK Flexibility Score: inf
ROOT
ATOM      1  C   UNL     1      -1.460 -47.908  17.373  1.00  0.00     0.000 C 
ENDROOT
BRANCH   1   2
ATOM      2  C   UNL     1      -1.684 -46.763  18.376  1.00  0.00     0.000 C 
BRANCH   2   3
ATOM      3  C   UNL     1      -2.048 -45.435  17.691  1.00  0.00     0.000 C 
BRANCH   3   4
ATOM      4  C   UNL     1      -1.770 -45.455  16.178  1.00  0.00     0.000 C 
BRANCH   4   5
ATOM      5  C   UNL     1      -2.881 -44.770  15.358  1.00  0.00     0.006 C 
BRANCH   5   6
ATOM      6  C   UNL     1      -4.201 -44.588  16.126  1.00  0.00     0.053 C 
BRANCH   6   7
ATOM      7  C   UNL     1      -5.390 -45.067  15.351  1.00  0.00     0.041 C 
ATOM      8  O   UNL     1      -6.369 -45.585  15.950  1.00  0.00    -0.550 OA
ATOM      9  O   UNL     1      -5.415 -44.942  13.968  1.00  0.00    -0.550 OA
ENDBRANCH   6   7
ENDBRANCH   5   6
ENDBRANCH   4   5
ENDBRANCH   3   4
ENDBRANCH   2   3
ENDBRANCH   1   2
BRANCH   1  10
ATOM     10  C   UNL     1      -2.479 -49.052  17.556  1.00  0.00     0.000 C 
BRANCH  10  11
ATOM     11  C   UNL     1      -3.811 -48.815  16.823  1.00  0.00    -0.000 C 
BRANCH  11  12
ATOM     12  C   UNL     1      -5.006 -48.684  17.779  1.00  0.00    -0.000 C 
BRANCH  12  13
ATOM     13  C   UNL     1      -4.550 -48.781  19.242  1.00  0.00    -0.000 C 
BRANCH  13  14
ATOM     14  C   UNL     1      -4.648 -47.437  19.984  1.00  0.00    -0.000 C 
BRANCH  14  15
ATOM     15  C   UNL     1      -5.379 -46.363  19.165  1.00  0.00    -0.003 C 
ATOM     16  C   UNL     1      -5.247 -44.990  19.818  1.00  0.00     0.004 C 
ENDBRANCH  14  15
ENDBRANCH  13  14
ENDBRANCH  12  13
ENDBRANCH  11  12
ENDBRANCH  10  11
ENDBRANCH   1  10
TORSDOF 12
ENDMDL
MODEL 5
REMARK VINA RESULT:    -4.488      2.193      4.688
REMARK INTER + INTRA:          -9.391
REMARK INTER:                  -7.439
REMARK INTRA:                  -1.952
REMARK UNBOUND:                -1.755
REMARK SMILES CCCCCCCCCCCCCC(=O)[O-]
REMARK SMILES IDX 8 1 9 2 10 3 11 4 12 5 13 6 14 7 15 8 16 9 7 10 6 11 5 12
REMARK SMILES IDX 4 13 3 14 2 15 1 16
REMARK H PARENT
REMARK Flexibility Score: inf
ROOT
ATOM      1  C   UNL     1      -2.939 -44.730  15.508  1.00  0.00     0.000 C 
ENDROOT
BRANCH   1   2
ATOM      2  C   UNL     1      -3.986 -45.825  15.233  1.00  0.00     0.000 C 
BRANCH   2   3
ATOM      3  C   UNL     1      -5.285 -45.619  16.030  1.00  0.00     0.000 C 
BRANCH   3   4
ATOM      4  C   UNL     1      -5.381 -44.215  16.651  1.00  0.00     0.000 C 
BRANCH   4   5
ATOM      5  C   UNL     1      -5.749 -44.247  18.148  1.00  0.00     0.006 C 
BRANCH   5   6
ATOM      6  C   UNL     1      -6.047 -45.656  18.686  1.00  0.00     0.053 C 
BRANCH   6   7
ATOM      7  C   UNL     1      -5.640 -45.824  20.118  1.00  0.00     0.041 C 
ATOM      8  O   UNL     1      -4.642 -46.534  20.413  1.00  0.00    -0.550 OA
ATOM      9  O   UNL     1      -6.362 -45.198  21.125  1.00  0.00    -0.550 OA
ENDBRANCH   6   7
ENDBRANCH   5   6
ENDBRANCH   4   5
ENDBRANCH   3   4
ENDBRANCH   2   3
ENDBRANCH   1   2
BRANCH   1  10
ATOM     10  C   UNL     1      -1.779 -45.242  16.388  1.00  0.00     0.000 C 
BRANCH  10  11
ATOM     11  C   UNL     1      -2.130 -45.327  17.884  1.00  0.00    -0.000 C 
BRANCH  11  12
ATOM     12  C   UNL     1      -1.732 -46.669  18.517  1.00  0.00    -0.000 C 
BRANCH  12  13
ATOM     13  C   UNL     1      -1.581 -47.757  17.444  1.00  0.00    -0.000 C 
BRANCH  13  14
ATOM     14  C   UNL     1      -2.453 -48.992  17.727  1.00  0.00    -0.000 C 
BRANCH  14  15
ATOM     15  C   UNL     1      -3.740 -49.011  16.889  1.00  0.00    -0.003 C 
ATOM     16  C   UNL     1      -4.977 -48.945  17.781  1.00  0.00     0.004 C 
ENDBRANCH  14  15
ENDBRANCH  13  14
ENDBRANCH  12  13
ENDBRANCH  11  12
ENDBRANCH  10  11
ENDBRANCH   1  10
TORSDOF 12
ENDMDL
MODEL 6
REMARK VINA RESULT:    -4.462      2.422      4.268
REMARK INTER + INTRA:          -9.347
REMARK INTER:                  -7.614
REMARK INTRA:                  -1.733
REMARK UNBOUND:                -1.755
REMARK SMILES CCCCCCCCCCCCCC(=O)[O-]
REMARK SMILES IDX 8 1 9 2 10 3 11 4 12 5 13 6 14 7 15 8 16 9 7 10 6 11 5 12
REMARK SMILES IDX 4 13 3 14 2 15 1 16
REMARK H PARENT
REMARK Flexibility Score: inf
ROOT
ATOM      1  C   UNL     1      -4.915 -48.244  18.062  1.00  0.00     0.000 C 
ENDROOT
BRANCH   1   2
ATOM      2  C   UNL     1      -3.806 -48.872  17.200  1.00  0.00     0.000 C 
BRANCH   2   3
ATOM      3  C   UNL     1      -2.439 -48.883  17.904  1.00  0.00     0.000 C 
BRANCH   3   4
ATOM      4  C   UNL     1      -1.299 -49.335  16.974  1.00  0.00     0.000 C 
BRANCH   4   5
ATOM      5  C   UNL     1      -1.413 -48.740  15.557  1.00  0.00     0.006 C 
BRANCH   5   6
ATOM      6  C   UNL     1      -1.653 -49.787  14.457  1.00  0.00     0.053 C 
BRANCH   6   7
ATOM      7  C   UNL     1      -0.538 -49.841  13.459  1.00  0.00     0.041 C 
ATOM      8  O   UNL     1       0.659 -49.901  13.847  1.00  0.00    -0.550 OA
ATOM      9  O   UNL     1      -0.821 -49.824  12.099  1.00  0.00    -0.550 OA
ENDBRANCH   6   7
ENDBRANCH   5   6
ENDBRANCH   4   5
ENDBRANCH   3   4
ENDBRANCH   2   3
ENDBRANCH   1   2
BRANCH   1  10
ATOM     10  C   UNL     1      -4.573 -48.276  19.566  1.00  0.00     0.000 C 
BRANCH  10  11
ATOM     11  C   UNL     1      -4.760 -46.922  20.271  1.00  0.00    -0.000 C 
BRANCH  11  12
ATOM     12  C   UNL     1      -4.190 -45.744  19.467  1.00  0.00    -0.000 C 
BRANCH  12  13
ATOM     13  C   UNL     1      -2.663 -45.672  19.608  1.00  0.00    -0.000 C 
BRANCH  13  14
ATOM     14  C   UNL     1      -1.970 -45.202  18.318  1.00  0.00    -0.000 C 
BRANCH  14  15
ATOM     15  C   UNL     1      -2.908 -45.223  17.103  1.00  0.00    -0.003 C 
ATOM     16  C   UNL     1      -2.128 -45.045  15.803  1.00  0.00     0.004 C 
ENDBRANCH  14  15
ENDBRANCH  13  14
ENDBRANCH  12  13
ENDBRANCH  11  12
ENDBRANCH  10  11
ENDBRANCH   1  10
TORSDOF 12
ENDMDL
MODEL 7
REMARK VINA RESULT:    -4.416      2.023      4.433
REMARK INTER + INTRA:          -9.269
REMARK INTER:                  -7.273
REMARK INTRA:                  -1.995
REMARK UNBOUND:                -1.755
REMARK SMILES CCCCCCCCCCCCCC(=O)[O-]
REMARK SMILES IDX 8 1 9 2 10 3 11 4 12 5 13 6 14 7 15 8 16 9 7 10 6 11 5 12
REMARK SMILES IDX 4 13 3 14 2 15 1 16
REMARK H PARENT
REMARK Flexibility Score: inf
ROOT
ATOM      1  C   UNL     1      -1.440 -47.857  17.085  1.00  0.00     0.000 C 
ENDROOT
BRANCH   1   2
ATOM      2  C   UNL     1      -2.294 -49.096  17.410  1.00  0.00     0.000 C 
BRANCH   2   3
ATOM      3  C   UNL     1      -3.709 -49.015  16.815  1.00  0.00     0.000 C 
BRANCH   3   4
ATOM      4  C   UNL     1      -4.804 -48.986  17.896  1.00  0.00     0.000 C 
BRANCH   4   5
ATOM      5  C   UNL     1      -5.344 -47.567  18.161  1.00  0.00     0.006 C 
BRANCH   5   6
ATOM      6  C   UNL     1      -4.902 -46.971  19.508  1.00  0.00     0.053 C 
BRANCH   6   7
ATOM      7  C   UNL     1      -5.405 -45.576  19.715  1.00  0.00     0.041 C 
ATOM      8  O   UNL     1      -4.603 -44.651  20.009  1.00  0.00    -0.550 OA
ATOM      9  O   UNL     1      -6.760 -45.299  19.585  1.00  0.00    -0.550 OA
ENDBRANCH   6   7
ENDBRANCH   5   6
ENDBRANCH   4   5
ENDBRANCH   3   4
ENDBRANCH   2   3
ENDBRANCH   1   2
BRANCH   1  10
ATOM     10  C   UNL     1      -1.558 -46.768  18.171  1.00  0.00     0.000 C 
BRANCH  10  11
ATOM     11  C   UNL     1      -2.099 -45.427  17.644  1.00  0.00    -0.000 C 
BRANCH  11  12
ATOM     12  C   UNL     1      -1.557 -45.068  16.253  1.00  0.00    -0.000 C 
BRANCH  12  13
ATOM     13  C   UNL     1      -2.694 -44.629  15.318  1.00  0.00    -0.000 C 
BRANCH  13  14
ATOM     14  C   UNL     1      -3.904 -45.578  15.370  1.00  0.00    -0.000 C 
BRANCH  14  15
ATOM     15  C   UNL     1      -5.241 -44.827  15.444  1.00  0.00    -0.003 C 
ATOM     16  C   UNL     1      -5.228 -43.790  16.563  1.00  0.00     0.004 C 
ENDBRANCH  14  15
ENDBRANCH  13  14
ENDBRANCH  12  13
ENDBRANCH  11  12
ENDBRANCH  10  11
ENDBRANCH   1  10
TORSDOF 12
ENDMDL
MODEL 8
REMARK VINA RESULT:    -4.369      1.346      3.755
REMARK INTER + INTRA:          -9.190
REMARK INTER:                  -7.342
REMARK INTRA:                  -1.848
REMARK UNBOUND:                -1.755
REMARK SMILES CCCCCCCCCCCCCC(=O)[O-]
REMARK SMILES IDX 8 1 9 2 10 3 11 4 12 5 13 6 14 7 15 8 16 9 7 10 6 11 5 12
REMARK SMILES IDX 4 13 3 14 2 15 1 16
REMARK H PARENT
REMARK Flexibility Score: inf
ROOT
ATOM      1  C   UNL     1      -3.512 -45.676  19.682  1.00  0.00     0.000 C 
ENDROOT
BRANCH   1   2
ATOM      2  C   UNL     1      -3.261 -44.936  18.356  1.00  0.00     0.000 C 
BRANCH   2   3
ATOM      3  C   UNL     1      -1.933 -45.338  17.692  1.00  0.00     0.000 C 
BRANCH   3   4
ATOM      4  C   UNL     1      -1.944 -45.117  16.170  1.00  0.00     0.000 C 
BRANCH   4   5
ATOM      5  C   UNL     1      -3.029 -45.945  15.454  1.00  0.00     0.006 C 
BRANCH   5   6
ATOM      6  C   UNL     1      -3.979 -45.108  14.581  1.00  0.00     0.053 C 
BRANCH   6   7
ATOM      7  C   UNL     1      -5.198 -44.655  15.324  1.00  0.00     0.041 C 
ATOM      8  O   UNL     1      -6.099 -45.481  15.625  1.00  0.00    -0.550 OA
ATOM      9  O   UNL     1      -5.338 -43.321  15.683  1.00  0.00    -0.550 OA
ENDBRANCH   6   7
ENDBRANCH   5   6
ENDBRANCH   4   5
ENDBRANCH   3   4
ENDBRANCH   2   3
ENDBRANCH   1   2
BRANCH   1  10
ATOM     10  C   UNL     1      -4.798 -46.527  19.640  1.00  0.00     0.000 C 
BRANCH  10  11
ATOM     11  C   UNL     1      -4.549 -48.005  19.290  1.00  0.00    -0.000 C 
BRANCH  11  12
ATOM     12  C   UNL     1      -4.892 -48.341  17.831  1.00  0.00    -0.000 C 
BRANCH  12  13
ATOM     13  C   UNL     1      -3.723 -49.063  17.146  1.00  0.00    -0.000 C 
BRANCH  13  14
ATOM     14  C   UNL     1      -2.406 -48.934  17.929  1.00  0.00    -0.000 C 
BRANCH  14  15
ATOM     15  C   UNL     1      -1.175 -48.885  17.011  1.00  0.00    -0.003 C 
ATOM     16  C   UNL     1      -1.173 -50.056  16.032  1.00  0.00     0.004 C 
ENDBRANCH  14  15
ENDBRANCH  13  14
ENDBRANCH  12  13
ENDBRANCH  11  12
ENDBRANCH  10  11
ENDBRANCH   1  10
TORSDOF 12
ENDMDL
MODEL 9
REMARK VINA RESULT:    -4.322      2.093      4.588
REMARK INTER + INTRA:          -9.109
REMARK INTER:                  -7.210
REMARK INTRA:                  -1.900
REMARK UNBOUND:                -1.755
REMARK SMILES CCCCCCCCCCCCCC(=O)[O-]
REMARK SMILES IDX 8 1 9 2 10 3 11 4 12 5 13 6 14 7 15 8 16 9 7 10 6 11 5 12
REMARK SMILES IDX 4 13 3 14 2 15 1 16
REMARK H PARENT
REMARK Flexibility Score: inf
ROOT
ATOM      1  C   UNL     1      -4.418 -46.780  19.482  1.00  0.00     0.000 C 
ENDROOT
BRANCH   1   2
ATOM      2  C   UNL     1      -4.305 -48.302  19.283  1.00  0.00     0.000 C 
BRANCH   2   3
ATOM      3  C   UNL     1      -5.066 -48.798  18.042  1.00  0.00     0.000 C 
BRANCH   3   4
ATOM      4  C   UNL     1      -4.154 -48.947  16.811  1.00  0.00     0.000 C 
BRANCH   4   5
ATOM      5  C   UNL     1      -2.690 -49.252  17.186  1.00  0.00     0.006 C 
BRANCH   5   6
ATOM      6  C   UNL     1      -1.949 -50.117  16.152  1.00  0.00     0.053 C 
BRANCH   6   7
ATOM      7  C   UNL     1      -0.839 -49.378  15.471  1.00  0.00     0.041 C 
ATOM      8  O   UNL     1      -0.403 -48.301  15.957  1.00  0.00    -0.550 OA
ATOM      9  O   UNL     1      -0.287 -49.878  14.299  1.00  0.00    -0.550 OA
ENDBRANCH   6   7
ENDBRANCH   5   6
ENDBRANCH   4   5
ENDBRANCH   3   4
ENDBRANCH   2   3
ENDBRANCH   1   2
BRANCH   1  10
ATOM     10  C   UNL     1      -3.037 -46.109  19.634  1.00  0.00     0.000 C 
BRANCH  10  11
ATOM     11  C   UNL     1      -2.761 -45.020  18.582  1.00  0.00    -0.000 C 
BRANCH  11  12
ATOM     12  C   UNL     1      -1.925 -45.529  17.399  1.00  0.00    -0.000 C 
BRANCH  12  13
ATOM     13  C   UNL     1      -2.453 -44.966  16.071  1.00  0.00    -0.000 C 
BRANCH  13  14
ATOM     14  C   UNL     1      -3.103 -46.043  15.187  1.00  0.00    -0.000 C 
BRANCH  14  15
ATOM     15  C   UNL     1      -4.551 -45.699  14.806  1.00  0.00    -0.003 C 
ATOM     16  C   UNL     1      -5.429 -45.564  16.046  1.00  0.00     0.004 C 
ENDBRANCH  14  15
ENDBRANCH  13  14
ENDBRANCH  12  13
ENDBRANCH  11  12
ENDBRANCH  10  11
ENDBRANCH   1  10
TORSDOF 12
ENDMDL
