MODEL 1
REMARK VINA RESULT:     5.708      0.000      0.000
REMARK INTER + INTRA:           7.788
REMARK INTER:                   7.543
REMARK INTRA:                   0.245
REMARK UNBOUND:                 0.245
REMARK SMILES CC[C@@H](C=C[C@H](C)[C@@H]1CC[C@@H]2C3=CC[C@H]4C[C@H](O)CC[C@@]4(C)[C@H]3CC[C@]21C)C(C)C
REMARK SMILES IDX 6 1 7 2 5 3 4 4 3 5 2 6 1 7 28 8 29 9 30 10 8 11 9 12 26 13
REMARK SMILES IDX 10 14 11 15 25 16 27 17 12 18 24 19 23 20 13 21 21 22 14 23
REMARK SMILES IDX 15 24 20 25 22 26 16 27 19 28 17 29 18 30
REMARK H PARENT 18 31
REMARK Flexibility Score: inf
ROOT
ATOM      1  C   UNL     1     130.506 128.196 137.791  1.00  0.00     0.012 C 
ATOM      2  C   UNL     1     129.542 127.771 138.906  1.00  0.00     0.012 C 
ENDROOT
BRANCH   1   3
ATOM      3  C   UNL     1     130.412 129.697 137.639  1.00  0.00    -0.028 C 
ATOM      4  C   UNL     1     131.486 130.492 137.792  1.00  0.00    -0.027 C 
BRANCH   4   5
ATOM      5  C   UNL     1     131.446 132.001 137.629  1.00  0.00     0.014 C 
BRANCH   5   6
ATOM      6  C   UNL     1     131.421 132.448 136.144  1.00  0.00     0.004 C 
ATOM      7  C   UNL     1     131.041 131.304 135.201  1.00  0.00     0.004 C 
ENDBRANCH   5   6
BRANCH   5   8
ATOM      8  C   UNL     1     132.548 132.698 138.490  1.00  0.00    -0.011 C 
ATOM      9  C   UNL     1     133.960 132.117 138.302  1.00  0.00     0.008 C 
ATOM     10  C   UNL     1     132.574 134.218 138.255  1.00  0.00     0.008 C 
ENDBRANCH   5   8
ENDBRANCH   4   5
ENDBRANCH   1   3
BRANCH   1  11
ATOM     11  C   UNL     1     131.981 127.786 138.091  1.00  0.00     0.002 C 
ATOM     12  C   UNL     1     132.859 127.783 136.810  1.00  0.00     0.005 C 
ATOM     13  C   UNL     1     132.231 126.388 138.728  1.00  0.00    -0.023 C 
ATOM     14  C   UNL     1     133.895 126.662 136.973  1.00  0.00     0.009 C 
ATOM     15  C   UNL     1     133.728 126.214 138.420  1.00  0.00     0.021 C 
ATOM     16  C   UNL     1     132.006 126.307 140.277  1.00  0.00     0.008 C 
ATOM     17  C   UNL     1     131.370 125.291 138.023  1.00  0.00     0.012 C 
ATOM     18  C   UNL     1     134.193 124.847 138.862  1.00  0.00    -0.067 C 
ATOM     19  C   UNL     1     133.139 125.582 141.055  1.00  0.00     0.009 C 
ATOM     20  C   UNL     1     133.804 124.405 140.267  1.00  0.00     0.021 C 
ATOM     21  C   UNL     1     134.861 123.993 138.073  1.00  0.00    -0.027 C 
ATOM     22  C   UNL     1     135.021 123.700 141.006  1.00  0.00    -0.023 C 
ATOM     23  C   UNL     1     135.203 122.636 138.611  1.00  0.00     0.031 C 
ATOM     24  C   UNL     1     135.849 122.763 140.008  1.00  0.00     0.002 C 
ATOM     25  C   UNL     1     135.958 124.770 141.655  1.00  0.00     0.010 C 
ATOM     26  C   UNL     1     134.441 122.810 142.138  1.00  0.00     0.012 C 
ATOM     27  C   UNL     1     137.325 123.196 139.846  1.00  0.00     0.036 C 
ATOM     28  C   UNL     1     137.274 124.194 142.203  1.00  0.00     0.032 C 
ATOM     29  C   UNL     1     138.036 123.298 141.200  1.00  0.00     0.114 C 
BRANCH  29  30
ATOM     30  O   UNL     1     138.204 122.008 141.731  1.00  0.00    -0.393 OA
ATOM     31  H   UNL     1     137.298 121.679 141.977  1.00  0.00     0.210 HD
ENDBRANCH  29  30
ENDBRANCH   1  11
TORSDOF 6
ENDMDL
MODEL 2
REMARK VINA RESULT:     5.819      3.363      8.889
REMARK INTER + INTRA:           7.935
REMARK INTER:                   7.303
REMARK INTRA:                   0.632
REMARK UNBOUND:                 0.245
REMARK SMILES CC[C@@H](C=C[C@H](C)[C@@H]1CC[C@@H]2C3=CC[C@H]4C[C@H](O)CC[C@@]4(C)[C@H]3CC[C@]21C)C(C)C
REMARK SMILES IDX 6 1 7 2 5 3 4 4 3 5 2 6 1 7 28 8 29 9 30 10 8 11 9 12 26 13
REMARK SMILES IDX 10 14 11 15 25 16 27 17 12 18 24 19 23 20 13 21 21 22 14 23
REMARK SMILES IDX 15 24 20 25 22 26 16 27 19 28 17 29 18 30
REMARK H PARENT 18 31
REMARK Flexibility Score: inf
ROOT
ATOM      1  C   UNL     1     138.471 123.258 140.767  1.00  0.00     0.012 C 
ATOM      2  C   UNL     1     139.147 123.103 139.399  1.00  0.00     0.012 C 
ENDROOT
BRANCH   1   3
ATOM      3  C   UNL     1     139.553 123.491 141.798  1.00  0.00    -0.028 C 
ATOM      4  C   UNL     1     140.325 124.591 141.778  1.00  0.00    -0.027 C 
BRANCH   4   5
ATOM      5  C   UNL     1     141.409 124.879 142.801  1.00  0.00     0.014 C 
BRANCH   5   6
ATOM      6  C   UNL     1     140.875 125.631 144.049  1.00  0.00     0.004 C 
ATOM      7  C   UNL     1     142.005 126.201 144.909  1.00  0.00     0.004 C 
ENDBRANCH   5   6
BRANCH   5   8
ATOM      8  C   UNL     1     142.659 125.540 142.139  1.00  0.00    -0.011 C 
ATOM      9  C   UNL     1     143.006 126.933 142.690  1.00  0.00     0.008 C 
ATOM     10  C   UNL     1     143.894 124.626 142.221  1.00  0.00     0.008 C 
ENDBRANCH   5   8
ENDBRANCH   4   5
ENDBRANCH   1   3
BRANCH   1  11
ATOM     11  C   UNL     1     137.451 124.438 140.797  1.00  0.00     0.002 C 
ATOM     12  C   UNL     1     137.050 124.828 142.245  1.00  0.00     0.005 C 
ATOM     13  C   UNL     1     136.092 124.241 140.064  1.00  0.00    -0.023 C 
ATOM     14  C   UNL     1     135.586 125.290 142.201  1.00  0.00     0.009 C 
ATOM     15  C   UNL     1     135.269 125.368 140.713  1.00  0.00     0.021 C 
ATOM     16  C   UNL     1     136.130 124.454 138.512  1.00  0.00     0.008 C 
ATOM     17  C   UNL     1     135.486 122.835 140.379  1.00  0.00     0.012 C 
ATOM     18  C   UNL     1     133.841 125.313 140.226  1.00  0.00    -0.067 C 
ATOM     19  C   UNL     1     134.982 125.341 137.955  1.00  0.00     0.009 C 
ATOM     20  C   UNL     1     133.627 125.190 138.723  1.00  0.00     0.021 C 
ATOM     21  C   UNL     1     132.774 125.301 141.037  1.00  0.00    -0.027 C 
ATOM     22  C   UNL     1     132.460 126.147 138.227  1.00  0.00    -0.023 C 
ATOM     23  C   UNL     1     131.409 125.172 140.429  1.00  0.00     0.031 C 
ATOM     24  C   UNL     1     131.246 126.178 139.268  1.00  0.00     0.002 C 
ATOM     25  C   UNL     1     133.007 127.592 137.982  1.00  0.00     0.010 C 
ATOM     26  C   UNL     1     131.929 125.592 136.878  1.00  0.00     0.012 C 
ATOM     27  C   UNL     1     130.977 127.585 139.852  1.00  0.00     0.036 C 
ATOM     28  C   UNL     1     131.911 128.634 137.711  1.00  0.00     0.032 C 
ATOM     29  C   UNL     1     130.762 128.624 138.746  1.00  0.00     0.114 C 
BRANCH  29  30
ATOM     30  O   UNL     1     129.536 128.372 138.109  1.00  0.00    -0.393 OA
ATOM     31  H   UNL     1     129.496 128.971 137.317  1.00  0.00     0.210 HD
ENDBRANCH  29  30
ENDBRANCH   1  11
TORSDOF 6
ENDMDL
MODEL 3
REMARK VINA RESULT:     6.012      2.682      5.411
REMARK INTER + INTRA:           8.191
REMARK INTER:                   7.950
REMARK INTRA:                   0.241
REMARK UNBOUND:                 0.245
REMARK SMILES CC[C@@H](C=C[C@H](C)[C@@H]1CC[C@@H]2C3=CC[C@H]4C[C@H](O)CC[C@@]4(C)[C@H]3CC[C@]21C)C(C)C
REMARK SMILES IDX 6 1 7 2 5 3 4 4 3 5 2 6 1 7 28 8 29 9 30 10 8 11 9 12 26 13
REMARK SMILES IDX 10 14 11 15 25 16 27 17 12 18 24 19 23 20 13 21 21 22 14 23
REMARK SMILES IDX 15 24 20 25 22 26 16 27 19 28 17 29 18 30
REMARK H PARENT 18 31
REMARK Flexibility Score: inf
ROOT
ATOM      1  C   UNL     1     134.949 124.019 137.804  1.00  0.00     0.012 C 
ATOM      2  C   UNL     1     134.485 122.622 138.234  1.00  0.00     0.012 C 
ENDROOT
BRANCH   1   3
ATOM      3  C   UNL     1     133.733 124.795 137.349  1.00  0.00    -0.028 C 
ATOM      4  C   UNL     1     133.450 126.016 137.836  1.00  0.00    -0.027 C 
BRANCH   4   5
ATOM      5  C   UNL     1     132.255 126.842 137.396  1.00  0.00     0.014 C 
BRANCH   5   6
ATOM      6  C   UNL     1     132.658 128.213 136.794  1.00  0.00     0.004 C 
ATOM      7  C   UNL     1     131.898 129.375 137.437  1.00  0.00     0.004 C 
ENDBRANCH   5   6
BRANCH   5   8
ATOM      8  C   UNL     1     131.175 126.927 138.521  1.00  0.00    -0.011 C 
ATOM      9  C   UNL     1     129.788 126.406 138.108  1.00  0.00     0.008 C 
ATOM     10  C   UNL     1     131.637 126.217 139.805  1.00  0.00     0.008 C 
ENDBRANCH   5   8
ENDBRANCH   4   5
ENDBRANCH   1   3
BRANCH   1  11
ATOM     11  C   UNL     1     135.667 124.788 138.955  1.00  0.00     0.002 C 
ATOM     12  C   UNL     1     137.210 124.799 138.780  1.00  0.00     0.005 C 
ATOM     13  C   UNL     1     135.453 124.281 140.411  1.00  0.00    -0.023 C 
ATOM     14  C   UNL     1     137.827 124.767 140.185  1.00  0.00     0.009 C 
ATOM     15  C   UNL     1     136.636 124.968 141.114  1.00  0.00     0.021 C 
ATOM     16  C   UNL     1     134.113 124.732 141.089  1.00  0.00     0.008 C 
ATOM     17  C   UNL     1     135.570 122.724 140.483  1.00  0.00     0.012 C 
ATOM     18  C   UNL     1     136.705 124.533 142.559  1.00  0.00    -0.067 C 
ATOM     19  C   UNL     1     134.275 125.278 142.534  1.00  0.00     0.009 C 
ATOM     20  C   UNL     1     135.409 124.582 143.358  1.00  0.00     0.021 C 
ATOM     21  C   UNL     1     137.812 124.054 143.144  1.00  0.00    -0.027 C 
ATOM     22  C   UNL     1     135.651 125.178 144.811  1.00  0.00    -0.023 C 
ATOM     23  C   UNL     1     137.728 123.588 144.567  1.00  0.00     0.031 C 
ATOM     24  C   UNL     1     137.027 124.656 145.436  1.00  0.00     0.002 C 
ATOM     25  C   UNL     1     135.628 126.742 144.769  1.00  0.00     0.010 C 
ATOM     26  C   UNL     1     134.490 124.698 145.723  1.00  0.00     0.012 C 
ATOM     27  C   UNL     1     138.029 125.793 145.747  1.00  0.00     0.036 C 
ATOM     28  C   UNL     1     136.068 127.405 146.084  1.00  0.00     0.032 C 
ATOM     29  C   UNL     1     137.404 126.866 146.646  1.00  0.00     0.114 C 
BRANCH  29  30
ATOM     30  O   UNL     1     137.212 126.335 147.932  1.00  0.00    -0.393 OA
ATOM     31  H   UNL     1     137.020 127.103 148.533  1.00  0.00     0.210 HD
ENDBRANCH  29  30
ENDBRANCH   1  11
TORSDOF 6
ENDMDL
MODEL 4
REMARK VINA RESULT:     7.971      3.419      8.169
REMARK INTER + INTRA:          10.779
REMARK INTER:                  10.655
REMARK INTRA:                   0.124
REMARK UNBOUND:                 0.245
REMARK SMILES CC[C@@H](C=C[C@H](C)[C@@H]1CC[C@@H]2C3=CC[C@H]4C[C@H](O)CC[C@@]4(C)[C@H]3CC[C@]21C)C(C)C
REMARK SMILES IDX 6 1 7 2 5 3 4 4 3 5 2 6 1 7 28 8 29 9 30 10 8 11 9 12 26 13
REMARK SMILES IDX 10 14 11 15 25 16 27 17 12 18 24 19 23 20 13 21 21 22 14 23
REMARK SMILES IDX 15 24 20 25 22 26 16 27 19 28 17 29 18 30
REMARK H PARENT 18 31
REMARK Flexibility Score: inf
ROOT
ATOM      1  C   UNL     1     137.553 123.074 140.485  1.00  0.00     0.012 C 
ATOM      2  C   UNL     1     138.797 123.426 139.661  1.00  0.00     0.012 C 
ENDROOT
BRANCH   1   3
ATOM      3  C   UNL     1     137.501 124.008 141.673  1.00  0.00    -0.028 C 
ATOM      4  C   UNL     1     137.264 123.558 142.918  1.00  0.00    -0.027 C 
BRANCH   4   5
ATOM      5  C   UNL     1     137.223 124.452 144.144  1.00  0.00     0.014 C 
BRANCH   5   6
ATOM      6  C   UNL     1     137.955 123.836 145.365  1.00  0.00     0.004 C 
ATOM      7  C   UNL     1     137.269 124.185 146.688  1.00  0.00     0.004 C 
ENDBRANCH   5   6
BRANCH   5   8
ATOM      8  C   UNL     1     135.771 124.942 144.445  1.00  0.00    -0.011 C 
ATOM      9  C   UNL     1     135.493 126.396 144.029  1.00  0.00     0.008 C 
ATOM     10  C   UNL     1     134.718 124.011 143.820  1.00  0.00     0.008 C 
ENDBRANCH   5   8
ENDBRANCH   4   5
ENDBRANCH   1   3
BRANCH   1  11
ATOM     11  C   UNL     1     136.236 123.196 139.659  1.00  0.00     0.002 C 
ATOM     12  C   UNL     1     136.475 122.974 138.140  1.00  0.00     0.005 C 
ATOM     13  C   UNL     1     135.458 124.543 139.729  1.00  0.00    -0.023 C 
ATOM     14  C   UNL     1     135.485 123.875 137.389  1.00  0.00     0.009 C 
ATOM     15  C   UNL     1     134.567 124.405 138.482  1.00  0.00     0.021 C 
ATOM     16  C   UNL     1     134.554 124.730 140.995  1.00  0.00     0.008 C 
ATOM     17  C   UNL     1     136.432 125.758 139.605  1.00  0.00     0.012 C 
ATOM     18  C   UNL     1     133.770 125.671 138.272  1.00  0.00    -0.067 C 
ATOM     19  C   UNL     1     133.121 125.249 140.693  1.00  0.00     0.009 C 
ATOM     20  C   UNL     1     133.041 126.239 139.483  1.00  0.00     0.021 C 
ATOM     21  C   UNL     1     133.726 126.344 137.113  1.00  0.00    -0.027 C 
ATOM     22  C   UNL     1     131.576 126.720 139.101  1.00  0.00    -0.023 C 
ATOM     23  C   UNL     1     132.955 127.628 137.057  1.00  0.00     0.031 C 
ATOM     24  C   UNL     1     131.550 127.433 137.669  1.00  0.00     0.002 C 
ATOM     25  C   UNL     1     130.582 125.513 139.127  1.00  0.00     0.010 C 
ATOM     26  C   UNL     1     131.119 127.751 140.166  1.00  0.00     0.012 C 
ATOM     27  C   UNL     1     130.646 126.712 136.643  1.00  0.00     0.036 C 
ATOM     28  C   UNL     1     129.191 125.840 138.561  1.00  0.00     0.032 C 
ATOM     29  C   UNL     1     129.221 126.527 137.176  1.00  0.00     0.114 C 
BRANCH  29  30
ATOM     30  O   UNL     1     128.587 127.779 137.241  1.00  0.00    -0.393 OA
ATOM     31  H   UNL     1     128.302 127.908 138.184  1.00  0.00     0.210 HD
ENDBRANCH  29  30
ENDBRANCH   1  11
TORSDOF 6
ENDMDL
MODEL 5
REMARK VINA RESULT:     8.606      2.046      4.727
REMARK INTER + INTRA:          11.618
REMARK INTER:                  11.610
REMARK INTRA:                   0.008
REMARK UNBOUND:                 0.245
REMARK SMILES CC[C@@H](C=C[C@H](C)[C@@H]1CC[C@@H]2C3=CC[C@H]4C[C@H](O)CC[C@@]4(C)[C@H]3CC[C@]21C)C(C)C
REMARK SMILES IDX 6 1 7 2 5 3 4 4 3 5 2 6 1 7 28 8 29 9 30 10 8 11 9 12 26 13
REMARK SMILES IDX 10 14 11 15 25 16 27 17 12 18 24 19 23 20 13 21 21 22 14 23
REMARK SMILES IDX 15 24 20 25 22 26 16 27 19 28 17 29 18 30
REMARK H PARENT 18 31
REMARK Flexibility Score: inf
ROOT
ATOM      1  C   UNL     1     131.684 125.444 141.759  1.00  0.00     0.012 C 
ATOM      2  C   UNL     1     132.171 126.700 142.492  1.00  0.00     0.012 C 
ENDROOT
BRANCH   1   3
ATOM      3  C   UNL     1     131.121 125.874 140.423  1.00  0.00    -0.028 C 
ATOM      4  C   UNL     1     131.467 127.040 139.851  1.00  0.00    -0.027 C 
BRANCH   4   5
ATOM      5  C   UNL     1     130.946 127.505 138.503  1.00  0.00     0.014 C 
BRANCH   5   6
ATOM      6  C   UNL     1     130.283 126.365 137.686  1.00  0.00     0.004 C 
ATOM      7  C   UNL     1     128.772 126.557 137.544  1.00  0.00     0.004 C 
ENDBRANCH   5   6
BRANCH   5   8
ATOM      8  C   UNL     1     132.030 128.310 137.718  1.00  0.00    -0.011 C 
ATOM      9  C   UNL     1     132.581 127.588 136.477  1.00  0.00     0.008 C 
ATOM     10  C   UNL     1     131.523 129.709 137.325  1.00  0.00     0.008 C 
ENDBRANCH   5   8
ENDBRANCH   4   5
ENDBRANCH   1   3
BRANCH   1  11
ATOM     11  C   UNL     1     132.823 124.402 141.541  1.00  0.00     0.002 C 
ATOM     12  C   UNL     1     133.014 123.476 142.774  1.00  0.00     0.005 C 
ATOM     13  C   UNL     1     134.253 124.941 141.245  1.00  0.00    -0.023 C 
ATOM     14  C   UNL     1     134.509 123.140 142.862  1.00  0.00     0.009 C 
ATOM     15  C   UNL     1     135.086 123.686 141.562  1.00  0.00     0.021 C 
ATOM     16  C   UNL     1     134.512 125.374 139.761  1.00  0.00     0.008 C 
ATOM     17  C   UNL     1     134.613 126.124 142.199  1.00  0.00     0.012 C 
ATOM     18  C   UNL     1     136.559 123.999 141.445  1.00  0.00    -0.067 C 
ATOM     19  C   UNL     1     135.842 124.842 139.157  1.00  0.00     0.009 C 
ATOM     20  C   UNL     1     137.013 124.731 140.189  1.00  0.00     0.021 C 
ATOM     21  C   UNL     1     137.459 123.730 142.402  1.00  0.00    -0.027 C 
ATOM     22  C   UNL     1     138.360 124.111 139.616  1.00  0.00    -0.023 C 
ATOM     23  C   UNL     1     138.881 124.157 142.191  1.00  0.00     0.031 C 
ATOM     24  C   UNL     1     139.368 123.716 140.793  1.00  0.00     0.002 C 
ATOM     25  C   UNL     1     138.050 122.866 138.722  1.00  0.00     0.010 C 
ATOM     26  C   UNL     1     139.043 125.188 138.733  1.00  0.00     0.012 C 
ATOM     27  C   UNL     1     139.707 122.208 140.828  1.00  0.00     0.036 C 
ATOM     28  C   UNL     1     139.299 122.075 138.304  1.00  0.00     0.032 C 
ATOM     29  C   UNL     1     140.240 121.716 139.477  1.00  0.00     0.114 C 
BRANCH  29  30
ATOM     30  O   UNL     1     141.517 122.261 139.260  1.00  0.00    -0.393 OA
ATOM     31  H   UNL     1     141.401 123.246 139.198  1.00  0.00     0.210 HD
ENDBRANCH  29  30
ENDBRANCH   1  11
TORSDOF 6
ENDMDL
