MODEL 1
REMARK VINA RESULT:    -4.662      0.000      0.000
REMARK INTER + INTRA:          -5.798
REMARK INTER:                  -5.480
REMARK INTRA:                  -0.318
REMARK UNBOUND:                -0.318
REMARK SMILES O=c1cc(-c2ccc(O)c(O)c2)oc2cc(O)cc(O)c12
REMARK SMILES IDX 4 1 3 2 2 3 1 4 21 5 19 6 18 7 16 8 15 9 14 10 13 11 5 12
REMARK SMILES IDX 6 13 7 14 8 15 12 16 10 17 9 18 11 20 20 22 17 24
REMARK H PARENT 9 19 11 21 20 23 17 25
REMARK Flexibility Score: inf
ROOT
ATOM      1  C   UNL     1      34.321  25.153  37.705  1.00  0.00     0.138 A 
ATOM      2  C   UNL     1      35.351  24.428  38.320  1.00  0.00     0.100 A 
ATOM      3  C   UNL     1      35.054  23.252  39.008  1.00  0.00     0.197 A 
ATOM      4  O   UNL     1      36.008  22.591  39.495  1.00  0.00    -0.289 OA
ATOM      5  C   UNL     1      33.711  22.815  39.106  1.00  0.00     0.107 A 
ATOM      6  C   UNL     1      33.284  21.653  39.816  1.00  0.00     0.134 A 
ATOM      7  C   UNL     1      31.943  21.256  39.747  1.00  0.00     0.093 A 
ATOM      8  C   UNL     1      31.003  22.012  39.043  1.00  0.00     0.123 A 
ATOM      9  C   UNL     1      31.400  23.177  38.391  1.00  0.00     0.094 A 
ATOM     10  C   UNL     1      32.737  23.581  38.413  1.00  0.00     0.146 A 
ATOM     11  O   UNL     1      33.076  24.692  37.766  1.00  0.00    -0.456 OA
ENDROOT
BRANCH   1  12
ATOM     12  C   UNL     1      34.581  26.411  36.962  1.00  0.00     0.021 A 
ATOM     13  C   UNL     1      35.887  26.903  36.776  1.00  0.00     0.016 A 
ATOM     14  C   UNL     1      36.103  28.096  36.081  1.00  0.00     0.051 A 
ATOM     15  C   UNL     1      35.025  28.821  35.566  1.00  0.00     0.157 A 
ATOM     16  C   UNL     1      33.499  27.152  36.453  1.00  0.00     0.062 A 
ATOM     17  C   UNL     1      33.716  28.349  35.754  1.00  0.00     0.158 A 
BRANCH  15  18
ATOM     18  O   UNL     1      35.272  30.007  34.876  1.00  0.00    -0.504 OA
ATOM     19  H   UNL     1      36.202  30.396  34.790  1.00  0.00     0.293 HD
ENDBRANCH  15  18
BRANCH  17  20
ATOM     20  O   UNL     1      32.634  29.068  35.247  1.00  0.00    -0.504 OA
ATOM     21  H   UNL     1      31.720  28.646  35.136  1.00  0.00     0.293 HD
ENDBRANCH  17  20
ENDBRANCH   1  12
BRANCH   6  22
ATOM     22  O   UNL     1      34.125  20.875  40.618  1.00  0.00    -0.507 OA
ATOM     23  H   UNL     1      34.683  20.102  40.289  1.00  0.00     0.293 HD
ENDBRANCH   6  22
BRANCH   8  24
ATOM     24  O   UNL     1      29.668  21.617  38.992  1.00  0.00    -0.508 OA
ATOM     25  H   UNL     1      29.371  20.708  39.326  1.00  0.00     0.293 HD
ENDBRANCH   8  24
TORSDOF 5
ENDMDL
MODEL 2
REMARK VINA RESULT:    -2.562      1.835      3.415
REMARK INTER + INTRA:          -3.329
REMARK INTER:                  -3.020
REMARK INTRA:                  -0.309
REMARK UNBOUND:                -0.318
REMARK SMILES O=c1cc(-c2ccc(O)c(O)c2)oc2cc(O)cc(O)c12
REMARK SMILES IDX 4 1 3 2 2 3 1 4 21 5 19 6 18 7 16 8 15 9 14 10 13 11 5 12
REMARK SMILES IDX 6 13 7 14 8 15 12 16 10 17 9 18 11 20 20 22 17 24
REMARK H PARENT 9 19 11 21 20 23 17 25
REMARK Flexibility Score: inf
ROOT
ATOM      1  C   UNL     1      32.130  25.341  37.935  1.00  0.00     0.138 A 
ATOM      2  C   UNL     1      31.328  24.976  39.025  1.00  0.00     0.100 A 
ATOM      3  C   UNL     1      31.612  23.807  39.731  1.00  0.00     0.197 A 
ATOM      4  O   UNL     1      30.912  23.538  40.742  1.00  0.00    -0.289 OA
ATOM      5  C   UNL     1      32.688  22.983  39.323  1.00  0.00     0.107 A 
ATOM      6  C   UNL     1      33.047  21.748  39.942  1.00  0.00     0.134 A 
ATOM      7  C   UNL     1      34.203  21.077  39.525  1.00  0.00     0.093 A 
ATOM      8  C   UNL     1      34.979  21.565  38.471  1.00  0.00     0.123 A 
ATOM      9  C   UNL     1      34.607  22.742  37.825  1.00  0.00     0.094 A 
ATOM     10  C   UNL     1      33.479  23.453  38.241  1.00  0.00     0.146 A 
ATOM     11  O   UNL     1      33.167  24.579  37.607  1.00  0.00    -0.456 OA
ENDROOT
BRANCH   1  12
ATOM     12  C   UNL     1      31.871  26.573  37.149  1.00  0.00     0.021 A 
ATOM     13  C   UNL     1      30.580  27.122  37.038  1.00  0.00     0.016 A 
ATOM     14  C   UNL     1      30.363  28.278  36.282  1.00  0.00     0.051 A 
ATOM     15  C   UNL     1      31.424  28.900  35.620  1.00  0.00     0.157 A 
ATOM     16  C   UNL     1      32.933  27.197  36.469  1.00  0.00     0.062 A 
ATOM     17  C   UNL     1      32.716  28.357  35.711  1.00  0.00     0.158 A 
BRANCH  15  18
ATOM     18  O   UNL     1      31.177  30.053  34.875  1.00  0.00    -0.504 OA
ATOM     19  H   UNL     1      30.385  30.130  34.249  1.00  0.00     0.293 HD
ENDBRANCH  15  18
BRANCH  17  20
ATOM     20  O   UNL     1      33.779  28.970  35.049  1.00  0.00    -0.504 OA
ATOM     21  H   UNL     1      34.718  28.592  35.089  1.00  0.00     0.293 HD
ENDBRANCH  17  20
ENDBRANCH   1  12
BRANCH   6  22
ATOM     22  O   UNL     1      32.294  21.130  40.945  1.00  0.00    -0.507 OA
ATOM     23  H   UNL     1      31.359  21.396  41.211  1.00  0.00     0.293 HD
ENDBRANCH   6  22
BRANCH   8  24
ATOM     24  O   UNL     1      36.119  20.883  38.053  1.00  0.00    -0.508 OA
ATOM     25  H   UNL     1      36.285  19.918  38.314  1.00  0.00     0.293 HD
ENDBRANCH   8  24
TORSDOF 5
ENDMDL
MODEL 3
REMARK VINA RESULT:    -2.324      1.801      6.975
REMARK INTER + INTRA:          -3.049
REMARK INTER:                  -2.785
REMARK INTRA:                  -0.264
REMARK UNBOUND:                -0.318
REMARK SMILES O=c1cc(-c2ccc(O)c(O)c2)oc2cc(O)cc(O)c12
REMARK SMILES IDX 4 1 3 2 2 3 1 4 21 5 19 6 18 7 16 8 15 9 14 10 13 11 5 12
REMARK SMILES IDX 6 13 7 14 8 15 12 16 10 17 9 18 11 20 20 22 17 24
REMARK H PARENT 9 19 11 21 20 23 17 25
REMARK Flexibility Score: inf
ROOT
ATOM      1  C   UNL     1      32.778  24.903  37.704  1.00  0.00     0.138 A 
ATOM      2  C   UNL     1      34.177  24.861  37.632  1.00  0.00     0.100 A 
ATOM      3  C   UNL     1      34.866  25.880  36.976  1.00  0.00     0.197 A 
ATOM      4  O   UNL     1      36.125  25.846  36.983  1.00  0.00    -0.289 OA
ATOM      5  C   UNL     1      34.148  26.934  36.362  1.00  0.00     0.107 A 
ATOM      6  C   UNL     1      34.743  28.006  35.631  1.00  0.00     0.134 A 
ATOM      7  C   UNL     1      33.938  29.054  35.167  1.00  0.00     0.093 A 
ATOM      8  C   UNL     1      32.554  29.038  35.354  1.00  0.00     0.123 A 
ATOM      9  C   UNL     1      31.958  27.969  36.020  1.00  0.00     0.094 A 
ATOM     10  C   UNL     1      32.737  26.926  36.525  1.00  0.00     0.146 A 
ATOM     11  O   UNL     1      32.130  25.932  37.166  1.00  0.00    -0.456 OA
ENDROOT
BRANCH   1  12
ATOM     12  C   UNL     1      31.994  23.845  38.388  1.00  0.00     0.021 A 
ATOM     13  C   UNL     1      31.136  22.984  37.677  1.00  0.00     0.016 A 
ATOM     14  C   UNL     1      30.402  22.002  38.348  1.00  0.00     0.051 A 
ATOM     15  C   UNL     1      30.504  21.865  39.735  1.00  0.00     0.157 A 
ATOM     16  C   UNL     1      32.082  23.711  39.785  1.00  0.00     0.062 A 
ATOM     17  C   UNL     1      31.346  22.725  40.459  1.00  0.00     0.158 A 
BRANCH  15  18
ATOM     18  O   UNL     1      29.761  20.875  40.376  1.00  0.00    -0.504 OA
ATOM     19  H   UNL     1      29.940  19.889  40.232  1.00  0.00     0.293 HD
ENDBRANCH  15  18
BRANCH  17  20
ATOM     20  O   UNL     1      31.450  22.598  41.844  1.00  0.00    -0.504 OA
ATOM     21  H   UNL     1      30.782  23.032  42.468  1.00  0.00     0.293 HD
ENDBRANCH  17  20
ENDBRANCH   1  12
BRANCH   6  22
ATOM     22  O   UNL     1      36.103  28.075  35.316  1.00  0.00    -0.507 OA
ATOM     23  H   UNL     1      36.812  27.458  35.679  1.00  0.00     0.293 HD
ENDBRANCH   6  22
BRANCH   8  24
ATOM     24  O   UNL     1      31.760  30.077  34.875  1.00  0.00    -0.508 OA
ATOM     25  H   UNL     1      31.626  30.930  35.406  1.00  0.00     0.293 HD
ENDBRANCH   8  24
TORSDOF 5
ENDMDL
