MODEL 1
REMARK VINA RESULT:    -5.599      0.000      0.000
REMARK INTER + INTRA:          -7.024
REMARK INTER:                  -6.745
REMARK INTRA:                  -0.279
REMARK UNBOUND:                -0.279
REMARK SMILES O=c1c(O)c(-c2ccc(O)cc2O)oc2cc(O)cc(O)c12
REMARK SMILES IDX 5 1 3 2 2 3 1 4 22 5 20 6 19 7 17 8 16 9 15 10 14 11 6 12
REMARK SMILES IDX 8 13 7 14 9 15 11 16 12 17 10 18 13 20 4 22 21 24 18 26
REMARK H PARENT 10 19 13 21 4 23 21 25 18 27
REMARK Flexibility Score: inf
ROOT
ATOM      1  C   UNL     1      15.590   7.427  31.530  1.00  0.00     0.184 A 
ATOM      2  C   UNL     1      14.809   6.260  31.571  1.00  0.00     0.208 A 
ATOM      3  C   UNL     1      14.983   5.363  32.636  1.00  0.00     0.238 A 
ATOM      4  O   UNL     1      14.243   4.346  32.695  1.00  0.00    -0.285 OA
ATOM      5  C   UNL     1      15.946   5.637  33.637  1.00  0.00     0.111 A 
ATOM      6  C   UNL     1      16.234   4.777  34.740  1.00  0.00     0.134 A 
ATOM      7  C   UNL     1      17.114   5.210  35.740  1.00  0.00     0.093 A 
ATOM      8  C   UNL     1      17.765   6.438  35.645  1.00  0.00     0.123 A 
ATOM      9  C   UNL     1      17.536   7.262  34.541  1.00  0.00     0.094 A 
ATOM     10  C   UNL     1      16.636   6.873  33.545  1.00  0.00     0.146 A 
ATOM     11  O   UNL     1      16.438   7.689  32.516  1.00  0.00    -0.451 OA
ENDROOT
BRANCH   1  12
ATOM     12  C   UNL     1      15.469   8.404  30.428  1.00  0.00     0.063 A 
ATOM     13  C   UNL     1      16.457   9.466  28.478  1.00  0.00     0.047 A 
ATOM     14  C   UNL     1      16.540   8.556  29.533  1.00  0.00     0.020 A 
ATOM     15  C   UNL     1      15.297  10.228  28.294  1.00  0.00     0.119 A 
ATOM     16  C   UNL     1      14.216  10.066  29.166  1.00  0.00     0.093 A 
ATOM     17  C   UNL     1      14.288   9.149  30.226  1.00  0.00     0.130 A 
BRANCH  15  18
ATOM     18  O   UNL     1      15.205  11.142  27.247  1.00  0.00    -0.508 OA
ATOM     19  H   UNL     1      15.707  12.021  27.267  1.00  0.00     0.293 HD
ENDBRANCH  15  18
BRANCH  17  20
ATOM     20  O   UNL     1      13.185   8.962  31.058  1.00  0.00    -0.507 OA
ATOM     21  H   UNL     1      12.553   9.722  31.282  1.00  0.00     0.293 HD
ENDBRANCH  17  20
ENDBRANCH   1  12
BRANCH   2  22
ATOM     22  O   UNL     1      13.853   6.024  30.579  1.00  0.00    -0.502 OA
ATOM     23  H   UNL     1      13.632   5.092  30.249  1.00  0.00     0.293 HD
ENDBRANCH   2  22
BRANCH   6  24
ATOM     24  O   UNL     1      15.708   3.490  34.886  1.00  0.00    -0.507 OA
ATOM     25  H   UNL     1      15.132   3.024  34.201  1.00  0.00     0.293 HD
ENDBRANCH   6  24
BRANCH   8  26
ATOM     26  O   UNL     1      18.646   6.829  36.651  1.00  0.00    -0.508 OA
ATOM     27  H   UNL     1      19.586   7.145  36.439  1.00  0.00     0.293 HD
ENDBRANCH   8  26
TORSDOF 6
ENDMDL
MODEL 2
REMARK VINA RESULT:    -5.388      3.066      3.379
REMARK INTER + INTRA:          -6.769
REMARK INTER:                  -6.367
REMARK INTRA:                  -0.402
REMARK UNBOUND:                -0.279
REMARK SMILES O=c1c(O)c(-c2ccc(O)cc2O)oc2cc(O)cc(O)c12
REMARK SMILES IDX 5 1 3 2 2 3 1 4 22 5 20 6 19 7 17 8 16 9 15 10 14 11 6 12
REMARK SMILES IDX 8 13 7 14 9 15 11 16 12 17 10 18 13 20 4 22 21 24 18 26
REMARK H PARENT 10 19 13 21 4 23 21 25 18 27
REMARK Flexibility Score: inf
ROOT
ATOM      1  C   UNL     1      14.196   8.165  31.319  1.00  0.00     0.184 A 
ATOM      2  C   UNL     1      13.829   6.810  31.353  1.00  0.00     0.208 A 
ATOM      3  C   UNL     1      13.156   6.316  32.482  1.00  0.00     0.238 A 
ATOM      4  O   UNL     1      12.782   5.114  32.483  1.00  0.00    -0.285 OA
ATOM      5  C   UNL     1      12.874   7.181  33.568  1.00  0.00     0.111 A 
ATOM      6  C   UNL     1      12.233   6.778  34.778  1.00  0.00     0.134 A 
ATOM      7  C   UNL     1      11.889   7.744  35.731  1.00  0.00     0.093 A 
ATOM      8  C   UNL     1      12.220   9.086  35.549  1.00  0.00     0.123 A 
ATOM      9  C   UNL     1      12.899   9.483  34.395  1.00  0.00     0.094 A 
ATOM     10  C   UNL     1      13.224   8.547  33.411  1.00  0.00     0.146 A 
ATOM     11  O   UNL     1      13.861   8.966  32.323  1.00  0.00    -0.451 OA
ENDROOT
BRANCH   1  12
ATOM     12  C   UNL     1      14.921   8.744  30.169  1.00  0.00     0.063 A 
ATOM     13  C   UNL     1      16.954   8.861  28.842  1.00  0.00     0.047 A 
ATOM     14  C   UNL     1      16.242   8.337  29.923  1.00  0.00     0.020 A 
ATOM     15  C   UNL     1      16.351   9.788  27.983  1.00  0.00     0.119 A 
ATOM     16  C   UNL     1      15.028  10.181  28.207  1.00  0.00     0.093 A 
ATOM     17  C   UNL     1      14.303   9.656  29.288  1.00  0.00     0.130 A 
BRANCH  15  18
ATOM     18  O   UNL     1      17.053  10.320  26.905  1.00  0.00    -0.508 OA
ATOM     19  H   UNL     1      18.035  10.116  26.760  1.00  0.00     0.293 HD
ENDBRANCH  15  18
BRANCH  17  20
ATOM     20  O   UNL     1      12.968  10.019  29.471  1.00  0.00    -0.507 OA
ATOM     21  H   UNL     1      12.210   9.469  29.085  1.00  0.00     0.293 HD
ENDBRANCH  17  20
ENDBRANCH   1  12
BRANCH   2  22
ATOM     22  O   UNL     1      14.103   5.984  30.260  1.00  0.00    -0.502 OA
ATOM     23  H   UNL     1      14.531   5.072  30.363  1.00  0.00     0.293 HD
ENDBRANCH   2  22
BRANCH   6  24
ATOM     24  O   UNL     1      11.940   5.450  35.102  1.00  0.00    -0.507 OA
ATOM     25  H   UNL     1      12.553   4.836  35.618  1.00  0.00     0.293 HD
ENDBRANCH   6  24
BRANCH   8  26
ATOM     26  O   UNL     1      11.875  10.018  36.525  1.00  0.00    -0.508 OA
ATOM     27  H   UNL     1      11.247   9.781  37.286  1.00  0.00     0.293 HD
ENDBRANCH   8  26
TORSDOF 6
ENDMDL
MODEL 3
REMARK VINA RESULT:    -5.354      1.823      2.834
REMARK INTER + INTRA:          -6.729
REMARK INTER:                  -6.336
REMARK INTRA:                  -0.392
REMARK UNBOUND:                -0.279
REMARK SMILES O=c1c(O)c(-c2ccc(O)cc2O)oc2cc(O)cc(O)c12
REMARK SMILES IDX 5 1 3 2 2 3 1 4 22 5 20 6 19 7 17 8 16 9 15 10 14 11 6 12
REMARK SMILES IDX 8 13 7 14 9 15 11 16 12 17 10 18 13 20 4 22 21 24 18 26
REMARK H PARENT 10 19 13 21 4 23 21 25 18 27
REMARK Flexibility Score: inf
ROOT
ATOM      1  C   UNL     1      15.968   6.996  33.412  1.00  0.00     0.184 A 
ATOM      2  C   UNL     1      15.258   6.281  34.389  1.00  0.00     0.208 A 
ATOM      3  C   UNL     1      15.963   5.703  35.457  1.00  0.00     0.238 A 
ATOM      4  O   UNL     1      15.314   5.110  36.357  1.00  0.00    -0.285 OA
ATOM      5  C   UNL     1      17.371   5.834  35.523  1.00  0.00     0.111 A 
ATOM      6  C   UNL     1      18.191   5.255  36.537  1.00  0.00     0.134 A 
ATOM      7  C   UNL     1      19.558   5.558  36.576  1.00  0.00     0.093 A 
ATOM      8  C   UNL     1      20.145   6.364  35.602  1.00  0.00     0.123 A 
ATOM      9  C   UNL     1      19.363   6.888  34.571  1.00  0.00     0.094 A 
ATOM     10  C   UNL     1      17.991   6.632  34.526  1.00  0.00     0.146 A 
ATOM     11  O   UNL     1      17.280   7.158  33.535  1.00  0.00    -0.451 OA
ENDROOT
BRANCH   1  12
ATOM     12  C   UNL     1      15.289   7.614  32.254  1.00  0.00     0.063 A 
ATOM     13  C   UNL     1      14.373   9.606  31.205  1.00  0.00     0.047 A 
ATOM     14  C   UNL     1      15.009   8.989  32.285  1.00  0.00     0.020 A 
ATOM     15  C   UNL     1      14.022   8.859  30.074  1.00  0.00     0.119 A 
ATOM     16  C   UNL     1      14.318   7.494  30.025  1.00  0.00     0.093 A 
ATOM     17  C   UNL     1      14.962   6.867  31.103  1.00  0.00     0.130 A 
BRANCH  15  18
ATOM     18  O   UNL     1      13.384   9.463  28.994  1.00  0.00    -0.508 OA
ATOM     19  H   UNL     1      13.688  10.360  28.632  1.00  0.00     0.293 HD
ENDBRANCH  15  18
BRANCH  17  20
ATOM     20  O   UNL     1      15.296   5.515  31.021  1.00  0.00    -0.507 OA
ATOM     21  H   UNL     1      14.628   4.821  30.706  1.00  0.00     0.293 HD
ENDBRANCH  17  20
ENDBRANCH   1  12
BRANCH   2  22
ATOM     22  O   UNL     1      13.866   6.183  34.309  1.00  0.00    -0.502 OA
ATOM     23  H   UNL     1      13.291   5.943  35.108  1.00  0.00     0.293 HD
ENDBRANCH   2  22
BRANCH   6  24
ATOM     24  O   UNL     1      17.723   4.362  37.506  1.00  0.00    -0.507 OA
ATOM     25  H   UNL     1      16.750   4.222  37.735  1.00  0.00     0.293 HD
ENDBRANCH   6  24
BRANCH   8  26
ATOM     26  O   UNL     1      21.511   6.632  35.663  1.00  0.00    -0.508 OA
ATOM     27  H   UNL     1      21.860   7.564  35.856  1.00  0.00     0.293 HD
ENDBRANCH   8  26
TORSDOF 6
ENDMDL
MODEL 4
REMARK VINA RESULT:    -5.201      2.069      3.557
REMARK INTER + INTRA:          -6.544
REMARK INTER:                  -6.143
REMARK INTRA:                  -0.401
REMARK UNBOUND:                -0.279
REMARK SMILES O=c1c(O)c(-c2ccc(O)cc2O)oc2cc(O)cc(O)c12
REMARK SMILES IDX 5 1 3 2 2 3 1 4 22 5 20 6 19 7 17 8 16 9 15 10 14 11 6 12
REMARK SMILES IDX 8 13 7 14 9 15 11 16 12 17 10 18 13 20 4 22 21 24 18 26
REMARK H PARENT 10 19 13 21 4 23 21 25 18 27
REMARK Flexibility Score: inf
ROOT
ATOM      1  C   UNL     1      16.206   6.869  33.889  1.00  0.00     0.184 A 
ATOM      2  C   UNL     1      15.661   7.002  35.176  1.00  0.00     0.208 A 
ATOM      3  C   UNL     1      16.404   6.550  36.278  1.00  0.00     0.238 A 
ATOM      4  O   UNL     1      15.933   6.721  37.433  1.00  0.00    -0.285 OA
ATOM      5  C   UNL     1      17.674   5.958  36.076  1.00  0.00     0.111 A 
ATOM      6  C   UNL     1      18.495   5.429  37.117  1.00  0.00     0.134 A 
ATOM      7  C   UNL     1      19.788   4.984  36.816  1.00  0.00     0.093 A 
ATOM      8  C   UNL     1      20.266   4.987  35.507  1.00  0.00     0.123 A 
ATOM      9  C   UNL     1      19.449   5.447  34.472  1.00  0.00     0.094 A 
ATOM     10  C   UNL     1      18.167   5.930  34.746  1.00  0.00     0.146 A 
ATOM     11  O   UNL     1      17.426   6.370  33.735  1.00  0.00    -0.451 OA
ENDROOT
BRANCH   1  12
ATOM     12  C   UNL     1      15.470   7.308  32.684  1.00  0.00     0.063 A 
ATOM     13  C   UNL     1      14.624   9.131  31.318  1.00  0.00     0.047 A 
ATOM     14  C   UNL     1      15.309   8.683  32.449  1.00  0.00     0.020 A 
ATOM     15  C   UNL     1      14.101   8.212  30.400  1.00  0.00     0.119 A 
ATOM     16  C   UNL     1      14.277   6.842  30.614  1.00  0.00     0.093 A 
ATOM     17  C   UNL     1      14.969   6.382  31.745  1.00  0.00     0.130 A 
BRANCH  15  18
ATOM     18  O   UNL     1      13.412   8.649  29.271  1.00  0.00    -0.508 OA
ATOM     19  H   UNL     1      12.399   8.655  29.239  1.00  0.00     0.293 HD
ENDBRANCH  15  18
BRANCH  17  20
ATOM     20  O   UNL     1      15.180   5.014  31.921  1.00  0.00    -0.507 OA
ATOM     21  H   UNL     1      15.147   4.367  31.142  1.00  0.00     0.293 HD
ENDBRANCH  17  20
ENDBRANCH   1  12
BRANCH   2  22
ATOM     22  O   UNL     1      14.414   7.607  35.348  1.00  0.00    -0.502 OA
ATOM     23  H   UNL     1      14.277   8.606  35.251  1.00  0.00     0.293 HD
ENDBRANCH   2  22
BRANCH   6  24
ATOM     24  O   UNL     1      18.082   5.294  38.446  1.00  0.00    -0.507 OA
ATOM     25  H   UNL     1      18.690   5.048  39.213  1.00  0.00     0.293 HD
ENDBRANCH   6  24
BRANCH   8  26
ATOM     26  O   UNL     1      21.552   4.522  35.242  1.00  0.00    -0.508 OA
ATOM     27  H   UNL     1      22.190   5.038  34.645  1.00  0.00     0.293 HD
ENDBRANCH   8  26
TORSDOF 6
ENDMDL
MODEL 5
REMARK VINA RESULT:    -5.096      2.173      6.550
REMARK INTER + INTRA:          -6.418
REMARK INTER:                  -6.006
REMARK INTRA:                  -0.412
REMARK UNBOUND:                -0.279
REMARK SMILES O=c1c(O)c(-c2ccc(O)cc2O)oc2cc(O)cc(O)c12
REMARK SMILES IDX 5 1 3 2 2 3 1 4 22 5 20 6 19 7 17 8 16 9 15 10 14 11 6 12
REMARK SMILES IDX 8 13 7 14 9 15 11 16 12 17 10 18 13 20 4 22 21 24 18 26
REMARK H PARENT 10 19 13 21 4 23 21 25 18 27
REMARK Flexibility Score: inf
ROOT
ATOM      1  C   UNL     1      16.760   7.040  33.888  1.00  0.00     0.184 A 
ATOM      2  C   UNL     1      15.633   7.108  34.724  1.00  0.00     0.208 A 
ATOM      3  C   UNL     1      14.460   7.704  34.235  1.00  0.00     0.238 A 
ATOM      4  O   UNL     1      13.438   7.715  34.970  1.00  0.00    -0.285 OA
ATOM      5  C   UNL     1      14.435   8.238  32.924  1.00  0.00     0.111 A 
ATOM      6  C   UNL     1      13.313   8.901  32.341  1.00  0.00     0.134 A 
ATOM      7  C   UNL     1      13.357   9.273  30.992  1.00  0.00     0.093 A 
ATOM      8  C   UNL     1      14.502   9.068  30.224  1.00  0.00     0.123 A 
ATOM      9  C   UNL     1      15.626   8.475  30.801  1.00  0.00     0.094 A 
ATOM     10  C   UNL     1      15.600   8.060  32.134  1.00  0.00     0.146 A 
ATOM     11  O   UNL     1      16.687   7.489  32.642  1.00  0.00    -0.451 OA
ENDROOT
BRANCH   1  12
ATOM     12  C   UNL     1      18.031   6.441  34.346  1.00  0.00     0.063 A 
ATOM     13  C   UNL     1      20.178   6.719  35.451  1.00  0.00     0.047 A 
ATOM     14  C   UNL     1      18.969   7.254  35.001  1.00  0.00     0.020 A 
ATOM     15  C   UNL     1      20.459   5.360  35.266  1.00  0.00     0.119 A 
ATOM     16  C   UNL     1      19.521   4.538  34.636  1.00  0.00     0.093 A 
ATOM     17  C   UNL     1      18.301   5.065  34.185  1.00  0.00     0.130 A 
BRANCH  15  18
ATOM     18  O   UNL     1      21.663   4.817  35.707  1.00  0.00    -0.508 OA
ATOM     19  H   UNL     1      22.344   5.376  36.208  1.00  0.00     0.293 HD
ENDBRANCH  15  18
BRANCH  17  20
ATOM     20  O   UNL     1      17.353   4.224  33.603  1.00  0.00    -0.507 OA
ATOM     21  H   UNL     1      17.494   3.222  33.549  1.00  0.00     0.293 HD
ENDBRANCH  17  20
ENDBRANCH   1  12
BRANCH   2  22
ATOM     22  O   UNL     1      15.680   6.557  36.007  1.00  0.00    -0.502 OA
ATOM     23  H   UNL     1      15.651   7.127  36.844  1.00  0.00     0.293 HD
ENDBRANCH   2  22
BRANCH   6  24
ATOM     24  O   UNL     1      12.152   9.237  33.044  1.00  0.00    -0.507 OA
ATOM     25  H   UNL     1      11.971  10.141  33.454  1.00  0.00     0.293 HD
ENDBRANCH   6  24
BRANCH   8  26
ATOM     26  O   UNL     1      14.515   9.466  28.889  1.00  0.00    -0.508 OA
ATOM     27  H   UNL     1      13.679   9.426  28.316  1.00  0.00     0.293 HD
ENDBRANCH   8  26
TORSDOF 6
ENDMDL
MODEL 6
REMARK VINA RESULT:    -5.034      1.554      6.561
REMARK INTER + INTRA:          -6.343
REMARK INTER:                  -5.935
REMARK INTRA:                  -0.408
REMARK UNBOUND:                -0.279
REMARK SMILES O=c1c(O)c(-c2ccc(O)cc2O)oc2cc(O)cc(O)c12
REMARK SMILES IDX 5 1 3 2 2 3 1 4 22 5 20 6 19 7 17 8 16 9 15 10 14 11 6 12
REMARK SMILES IDX 8 13 7 14 9 15 11 16 12 17 10 18 13 20 4 22 21 24 18 26
REMARK H PARENT 10 19 13 21 4 23 21 25 18 27
REMARK Flexibility Score: inf
ROOT
ATOM      1  C   UNL     1      16.155   6.299  33.713  1.00  0.00     0.184 A 
ATOM      2  C   UNL     1      14.909   5.654  33.741  1.00  0.00     0.208 A 
ATOM      3  C   UNL     1      13.951   5.980  32.768  1.00  0.00     0.238 A 
ATOM      4  O   UNL     1      12.856   5.360  32.766  1.00  0.00    -0.285 OA
ATOM      5  C   UNL     1      14.248   6.961  31.790  1.00  0.00     0.111 A 
ATOM      6  C   UNL     1      13.338   7.399  30.781  1.00  0.00     0.134 A 
ATOM      7  C   UNL     1      13.782   8.280  29.787  1.00  0.00     0.093 A 
ATOM      8  C   UNL     1      15.080   8.788  29.802  1.00  0.00     0.123 A 
ATOM      9  C   UNL     1      15.961   8.411  30.818  1.00  0.00     0.094 A 
ATOM     10  C   UNL     1      15.558   7.507  31.803  1.00  0.00     0.146 A 
ATOM     11  O   UNL     1      16.429   7.166  32.745  1.00  0.00    -0.451 OA
ENDROOT
BRANCH   1  12
ATOM     12  C   UNL     1      17.201   6.014  34.718  1.00  0.00     0.063 A 
ATOM     13  C   UNL     1      18.214   6.535  36.864  1.00  0.00     0.047 A 
ATOM     14  C   UNL     1      17.243   6.782  35.892  1.00  0.00     0.020 A 
ATOM     15  C   UNL     1      19.148   5.508  36.682  1.00  0.00     0.119 A 
ATOM     16  C   UNL     1      19.099   4.723  35.527  1.00  0.00     0.093 A 
ATOM     17  C   UNL     1      18.123   4.960  34.547  1.00  0.00     0.130 A 
BRANCH  15  18
ATOM     18  O   UNL     1      20.124   5.257  37.643  1.00  0.00    -0.508 OA
ATOM     19  H   UNL     1      20.882   4.606  37.471  1.00  0.00     0.293 HD
ENDBRANCH  15  18
BRANCH  17  20
ATOM     20  O   UNL     1      18.054   4.138  33.422  1.00  0.00    -0.507 OA
ATOM     21  H   UNL     1      18.887   3.849  32.923  1.00  0.00     0.293 HD
ENDBRANCH  17  20
ENDBRANCH   1  12
BRANCH   2  22
ATOM     22  O   UNL     1      14.649   4.677  34.706  1.00  0.00    -0.502 OA
ATOM     23  H   UNL     1      15.130   3.785  34.719  1.00  0.00     0.293 HD
ENDBRANCH   2  22
BRANCH   6  24
ATOM     24  O   UNL     1      11.992   7.025  30.727  1.00  0.00    -0.507 OA
ATOM     25  H   UNL     1      11.459   6.682  31.512  1.00  0.00     0.293 HD
ENDBRANCH   6  24
BRANCH   8  26
ATOM     26  O   UNL     1      15.483   9.674  28.805  1.00  0.00    -0.508 OA
ATOM     27  H   UNL     1      14.809  10.202  28.262  1.00  0.00     0.293 HD
ENDBRANCH   8  26
TORSDOF 6
ENDMDL
MODEL 7
REMARK VINA RESULT:    -5.013      2.470      6.688
REMARK INTER + INTRA:          -6.318
REMARK INTER:                  -5.904
REMARK INTRA:                  -0.414
REMARK UNBOUND:                -0.279
REMARK SMILES O=c1c(O)c(-c2ccc(O)cc2O)oc2cc(O)cc(O)c12
REMARK SMILES IDX 5 1 3 2 2 3 1 4 22 5 20 6 19 7 17 8 16 9 15 10 14 11 6 12
REMARK SMILES IDX 8 13 7 14 9 15 11 16 12 17 10 18 13 20 4 22 21 24 18 26
REMARK H PARENT 10 19 13 21 4 23 21 25 18 27
REMARK Flexibility Score: inf
ROOT
ATOM      1  C   UNL     1      17.127   6.638  34.455  1.00  0.00     0.184 A 
ATOM      2  C   UNL     1      16.113   6.701  35.424  1.00  0.00     0.208 A 
ATOM      3  C   UNL     1      14.904   7.340  35.104  1.00  0.00     0.238 A 
ATOM      4  O   UNL     1      13.980   7.346  35.958  1.00  0.00    -0.285 OA
ATOM      5  C   UNL     1      14.734   7.922  33.824  1.00  0.00     0.111 A 
ATOM      6  C   UNL     1      13.567   8.630  33.405  1.00  0.00     0.134 A 
ATOM      7  C   UNL     1      13.455   9.050  32.075  1.00  0.00     0.093 A 
ATOM      8  C   UNL     1      14.493   8.848  31.165  1.00  0.00     0.123 A 
ATOM      9  C   UNL     1      15.663   8.210  31.579  1.00  0.00     0.094 A 
ATOM     10  C   UNL     1      15.789   7.747  32.891  1.00  0.00     0.146 A 
ATOM     11  O   UNL     1      16.914   7.134  33.242  1.00  0.00    -0.451 OA
ENDROOT
BRANCH   1  12
ATOM     12  C   UNL     1      18.428   5.995  34.733  1.00  0.00     0.063 A 
ATOM     13  C   UNL     1      19.842   4.023  34.592  1.00  0.00     0.047 A 
ATOM     14  C   UNL     1      18.622   4.659  34.349  1.00  0.00     0.020 A 
ATOM     15  C   UNL     1      20.889   4.719  35.208  1.00  0.00     0.119 A 
ATOM     16  C   UNL     1      20.712   6.057  35.573  1.00  0.00     0.093 A 
ATOM     17  C   UNL     1      19.492   6.706  35.328  1.00  0.00     0.130 A 
BRANCH  15  18
ATOM     18  O   UNL     1      22.107   4.093  35.459  1.00  0.00    -0.508 OA
ATOM     19  H   UNL     1      22.987   4.523  35.199  1.00  0.00     0.293 HD
ENDBRANCH  15  18
BRANCH  17  20
ATOM     20  O   UNL     1      19.346   8.055  35.651  1.00  0.00    -0.507 OA
ATOM     21  H   UNL     1      20.117   8.599  36.019  1.00  0.00     0.293 HD
ENDBRANCH  17  20
ENDBRANCH   1  12
BRANCH   2  22
ATOM     22  O   UNL     1      16.301   6.103  36.672  1.00  0.00    -0.502 OA
ATOM     23  H   UNL     1      16.752   5.202  36.780  1.00  0.00     0.293 HD
ENDBRANCH   2  22
BRANCH   6  24
ATOM     24  O   UNL     1      12.509   8.966  34.257  1.00  0.00    -0.507 OA
ATOM     25  H   UNL     1      12.320   8.518  35.141  1.00  0.00     0.293 HD
ENDBRANCH   6  24
BRANCH   8  26
ATOM     26  O   UNL     1      14.353   9.294  29.853  1.00  0.00    -0.508 OA
ATOM     27  H   UNL     1      14.297  10.283  29.632  1.00  0.00     0.293 HD
ENDBRANCH   8  26
TORSDOF 6
ENDMDL
MODEL 8
REMARK VINA RESULT:    -4.967      5.956      9.328
REMARK INTER + INTRA:          -6.263
REMARK INTER:                  -5.857
REMARK INTRA:                  -0.406
REMARK UNBOUND:                -0.279
REMARK SMILES O=c1c(O)c(-c2ccc(O)cc2O)oc2cc(O)cc(O)c12
REMARK SMILES IDX 5 1 3 2 2 3 1 4 22 5 20 6 19 7 17 8 16 9 15 10 14 11 6 12
REMARK SMILES IDX 8 13 7 14 9 15 11 16 12 17 10 18 13 20 4 22 21 24 18 26
REMARK H PARENT 10 19 13 21 4 23 21 25 18 27
REMARK Flexibility Score: inf
ROOT
ATOM      1  C   UNL     1      21.780   4.590  36.721  1.00  0.00     0.184 A 
ATOM      2  C   UNL     1      21.808   4.822  38.106  1.00  0.00     0.208 A 
ATOM      3  C   UNL     1      23.001   4.594  38.810  1.00  0.00     0.238 A 
ATOM      4  O   UNL     1      23.034   4.855  40.041  1.00  0.00    -0.285 OA
ATOM      5  C   UNL     1      24.145   4.121  38.122  1.00  0.00     0.111 A 
ATOM      6  C   UNL     1      25.394   3.817  38.742  1.00  0.00     0.134 A 
ATOM      7  C   UNL     1      26.495   3.480  37.945  1.00  0.00     0.093 A 
ATOM      8  C   UNL     1      26.377   3.372  36.560  1.00  0.00     0.123 A 
ATOM      9  C   UNL     1      25.145   3.609  35.949  1.00  0.00     0.094 A 
ATOM     10  C   UNL     1      24.037   3.982  36.713  1.00  0.00     0.146 A 
ATOM     11  O   UNL     1      22.885   4.210  36.092  1.00  0.00    -0.451 OA
ENDROOT
BRANCH   1  12
ATOM     12  C   UNL     1      20.553   4.794  35.924  1.00  0.00     0.063 A 
ATOM     13  C   UNL     1      18.442   3.915  35.100  1.00  0.00     0.047 A 
ATOM     14  C   UNL     1      19.615   3.753  35.841  1.00  0.00     0.020 A 
ATOM     15  C   UNL     1      18.184   5.125  34.444  1.00  0.00     0.119 A 
ATOM     16  C   UNL     1      19.101   6.176  34.542  1.00  0.00     0.093 A 
ATOM     17  C   UNL     1      20.279   6.024  35.288  1.00  0.00     0.130 A 
BRANCH  15  18
ATOM     18  O   UNL     1      17.020   5.295  33.700  1.00  0.00    -0.508 OA
ATOM     19  H   UNL     1      16.264   5.887  34.025  1.00  0.00     0.293 HD
ENDBRANCH  15  18
BRANCH  17  20
ATOM     20  O   UNL     1      21.162   7.096  35.417  1.00  0.00    -0.507 OA
ATOM     21  H   UNL     1      21.558   7.560  34.608  1.00  0.00     0.293 HD
ENDBRANCH  17  20
ENDBRANCH   1  12
BRANCH   2  22
ATOM     22  O   UNL     1      20.670   5.306  38.756  1.00  0.00    -0.502 OA
ATOM     23  H   UNL     1      19.948   5.827  38.273  1.00  0.00     0.293 HD
ENDBRANCH   2  22
BRANCH   6  24
ATOM     24  O   UNL     1      25.597   3.805  40.125  1.00  0.00    -0.507 OA
ATOM     25  H   UNL     1      24.898   4.048  40.810  1.00  0.00     0.293 HD
ENDBRANCH   6  24
BRANCH   8  26
ATOM     26  O   UNL     1      27.490   3.019  35.801  1.00  0.00    -0.508 OA
ATOM     27  H   UNL     1      28.178   2.357  36.144  1.00  0.00     0.293 HD
ENDBRANCH   8  26
TORSDOF 6
ENDMDL
MODEL 9
REMARK VINA RESULT:    -4.831      3.132      6.025
REMARK INTER + INTRA:          -6.098
REMARK INTER:                  -5.809
REMARK INTRA:                  -0.289
REMARK UNBOUND:                -0.279
REMARK SMILES O=c1c(O)c(-c2ccc(O)cc2O)oc2cc(O)cc(O)c12
REMARK SMILES IDX 5 1 3 2 2 3 1 4 22 5 20 6 19 7 17 8 16 9 15 10 14 11 6 12
REMARK SMILES IDX 8 13 7 14 9 15 11 16 12 17 10 18 13 20 4 22 21 24 18 26
REMARK H PARENT 10 19 13 21 4 23 21 25 18 27
REMARK Flexibility Score: inf
ROOT
ATOM      1  C   UNL     1      14.073   8.119  32.793  1.00  0.00     0.184 A 
ATOM      2  C   UNL     1      14.155   6.775  32.395  1.00  0.00     0.208 A 
ATOM      3  C   UNL     1      14.714   6.469  31.144  1.00  0.00     0.238 A 
ATOM      4  O   UNL     1      14.833   5.259  30.816  1.00  0.00    -0.285 OA
ATOM      5  C   UNL     1      15.168   7.513  30.302  1.00  0.00     0.111 A 
ATOM      6  C   UNL     1      15.715   7.320  28.997  1.00  0.00     0.134 A 
ATOM      7  C   UNL     1      16.251   8.414  28.306  1.00  0.00     0.093 A 
ATOM      8  C   UNL     1      16.203   9.700  28.842  1.00  0.00     0.123 A 
ATOM      9  C   UNL     1      15.617   9.908  30.092  1.00  0.00     0.094 A 
ATOM     10  C   UNL     1      15.105   8.832  30.821  1.00  0.00     0.146 A 
ATOM     11  O   UNL     1      14.567   9.071  32.011  1.00  0.00    -0.451 OA
ENDROOT
BRANCH   1  12
ATOM     12  C   UNL     1      13.480   8.511  34.089  1.00  0.00     0.063 A 
ATOM     13  C   UNL     1      13.502   8.352  36.514  1.00  0.00     0.047 A 
ATOM     14  C   UNL     1      14.034   7.998  35.272  1.00  0.00     0.020 A 
ATOM     15  C   UNL     1      12.418   9.235  36.590  1.00  0.00     0.119 A 
ATOM     16  C   UNL     1      11.875   9.769  35.417  1.00  0.00     0.093 A 
ATOM     17  C   UNL     1      12.407   9.423  34.166  1.00  0.00     0.130 A 
BRANCH  15  18
ATOM     18  O   UNL     1      11.876   9.591  37.822  1.00  0.00    -0.508 OA
ATOM     19  H   UNL     1      10.879   9.721  37.945  1.00  0.00     0.293 HD
ENDBRANCH  15  18
BRANCH  17  20
ATOM     20  O   UNL     1      11.888  10.001  33.007  1.00  0.00    -0.507 OA
ATOM     21  H   UNL     1      10.953  10.391  32.980  1.00  0.00     0.293 HD
ENDBRANCH  17  20
ENDBRANCH   1  12
BRANCH   2  22
ATOM     22  O   UNL     1      13.716   5.764  33.253  1.00  0.00    -0.502 OA
ATOM     23  H   UNL     1      13.050   5.934  33.997  1.00  0.00     0.293 HD
ENDBRANCH   2  22
BRANCH   6  24
ATOM     24  O   UNL     1      15.730   6.092  28.330  1.00  0.00    -0.507 OA
ATOM     25  H   UNL     1      14.935   5.476  28.242  1.00  0.00     0.293 HD
ENDBRANCH   6  24
BRANCH   8  26
ATOM     26  O   UNL     1      16.732  10.766  28.119  1.00  0.00    -0.508 OA
ATOM     27  H   UNL     1      16.137  11.400  27.596  1.00  0.00     0.293 HD
ENDBRANCH   8  26
TORSDOF 6
ENDMDL
