MODEL 1
REMARK VINA RESULT:    -4.364      0.000      0.000
REMARK INTER + INTRA:         -12.937
REMARK INTER:                  -9.976
REMARK INTRA:                  -2.961
REMARK UNBOUND:                -2.961
REMARK SMILES CCCCCCCCCCCCCCCCCCCCCCCC(=O)[O-]
REMARK SMILES IDX 13 1 14 2 15 3 16 4 17 5 18 6 19 7 20 8 21 9 22 10 23 11
REMARK SMILES IDX 24 12 25 13 26 14 12 15 11 16 10 17 9 18 8 19 7 20 6 21 5 22
REMARK SMILES IDX 4 23 3 24 2 25 1 26
REMARK H PARENT
REMARK Flexibility Score: inf
ROOT
ATOM      1  C   UNL     1       7.007  -3.700  -3.842  1.00  0.00     0.000 C 
ENDROOT
BRANCH   1   2
ATOM      2  C   UNL     1       8.192  -2.737  -3.641  1.00  0.00     0.000 C 
BRANCH   2   3
ATOM      3  C   UNL     1       8.640  -2.551  -2.174  1.00  0.00     0.000 C 
BRANCH   3   4
ATOM      4  C   UNL     1       7.547  -2.808  -1.119  1.00  0.00     0.000 C 
BRANCH   4   5
ATOM      5  C   UNL     1       7.114  -1.565  -0.316  1.00  0.00     0.000 C 
BRANCH   5   6
ATOM      6  C   UNL     1       5.865  -0.861  -0.888  1.00  0.00     0.000 C 
BRANCH   6   7
ATOM      7  C   UNL     1       6.218   0.338  -1.785  1.00  0.00     0.000 C 
BRANCH   7   8
ATOM      8  C   UNL     1       6.940   1.463  -1.020  1.00  0.00     0.000 C 
BRANCH   8   9
ATOM      9  C   UNL     1       6.013   2.483  -0.326  1.00  0.00     0.000 C 
BRANCH   9  10
ATOM     10  C   UNL     1       5.447   2.029   1.031  1.00  0.00     0.006 C 
BRANCH  10  11
ATOM     11  C   UNL     1       6.521   1.938   2.123  1.00  0.00     0.053 C 
BRANCH  11  12
ATOM     12  C   UNL     1       6.448   0.616   2.821  1.00  0.00     0.041 C 
ATOM     13  O   UNL     1       7.382   0.250   3.585  1.00  0.00    -0.550 OA
ATOM     14  O   UNL     1       5.381  -0.240   2.581  1.00  0.00    -0.550 OA
ENDBRANCH  11  12
ENDBRANCH  10  11
ENDBRANCH   9  10
ENDBRANCH   8   9
ENDBRANCH   7   8
ENDBRANCH   6   7
ENDBRANCH   5   6
ENDBRANCH   4   5
ENDBRANCH   3   4
ENDBRANCH   2   3
ENDBRANCH   1   2
BRANCH   1  15
ATOM     15  C   UNL     1       5.968  -3.165  -4.839  1.00  0.00     0.000 C 
BRANCH  15  16
ATOM     16  C   UNL     1       6.075  -1.642  -4.984  1.00  0.00     0.000 C 
BRANCH  16  17
ATOM     17  C   UNL     1       4.718  -0.932  -4.831  1.00  0.00     0.000 C 
BRANCH  17  18
ATOM     18  C   UNL     1       3.774  -1.622  -3.824  1.00  0.00    -0.000 C 
BRANCH  18  19
ATOM     19  C   UNL     1       2.347  -1.784  -4.377  1.00  0.00    -0.000 C 
BRANCH  19  20
ATOM     20  C   UNL     1       2.190  -3.050  -5.236  1.00  0.00    -0.000 C 
BRANCH  20  21
ATOM     21  C   UNL     1       2.048  -4.323  -4.383  1.00  0.00    -0.000 C 
BRANCH  21  22
ATOM     22  C   UNL     1       1.090  -4.143  -3.193  1.00  0.00    -0.000 C 
BRANCH  22  23
ATOM     23  C   UNL     1      -0.182  -5.016  -3.234  1.00  0.00    -0.000 C 
BRANCH  23  24
ATOM     24  C   UNL     1      -0.188  -6.205  -2.256  1.00  0.00    -0.000 C 
BRANCH  24  25
ATOM     25  C   UNL     1       1.044  -6.232  -1.340  1.00  0.00    -0.003 C 
ATOM     26  C   UNL     1       1.922  -7.445  -1.638  1.00  0.00     0.004 C 
ENDBRANCH  24  25
ENDBRANCH  23  24
ENDBRANCH  22  23
ENDBRANCH  21  22
ENDBRANCH  20  21
ENDBRANCH  19  20
ENDBRANCH  18  19
ENDBRANCH  17  18
ENDBRANCH  16  17
ENDBRANCH  15  16
ENDBRANCH   1  15
TORSDOF 22
ENDMDL
MODEL 2
REMARK VINA RESULT:    -4.282      1.510      2.437
REMARK INTER + INTRA:         -12.751
REMARK INTER:                  -9.957
REMARK INTRA:                  -2.794
REMARK UNBOUND:                -2.961
REMARK SMILES CCCCCCCCCCCCCCCCCCCCCCCC(=O)[O-]
REMARK SMILES IDX 13 1 14 2 15 3 16 4 17 5 18 6 19 7 20 8 21 9 22 10 23 11
REMARK SMILES IDX 24 12 25 13 26 14 12 15 11 16 10 17 9 18 8 19 7 20 6 21 5 22
REMARK SMILES IDX 4 23 3 24 2 25 1 26
REMARK H PARENT
REMARK Flexibility Score: inf
ROOT
ATOM      1  C   UNL     1       6.181  -0.222  -3.322  1.00  0.00     0.000 C 
ENDROOT
BRANCH   1   2
ATOM      2  C   UNL     1       5.439  -0.914  -2.163  1.00  0.00     0.000 C 
BRANCH   2   3
ATOM      3  C   UNL     1       6.058  -0.688  -0.766  1.00  0.00     0.000 C 
BRANCH   3   4
ATOM      4  C   UNL     1       6.814  -1.897  -0.182  1.00  0.00     0.000 C 
BRANCH   4   5
ATOM      5  C   UNL     1       7.919  -2.472  -1.091  1.00  0.00     0.000 C 
BRANCH   5   6
ATOM      6  C   UNL     1       9.350  -2.146  -0.610  1.00  0.00     0.000 C 
BRANCH   6   7
ATOM      7  C   UNL     1       9.764  -0.697  -0.923  1.00  0.00     0.000 C 
BRANCH   7   8
ATOM      8  C   UNL     1       9.698   0.222   0.311  1.00  0.00     0.000 C 
BRANCH   8   9
ATOM      9  C   UNL     1       9.729  -0.506   1.671  1.00  0.00     0.000 C 
BRANCH   9  10
ATOM     10  C   UNL     1       8.942   0.189   2.798  1.00  0.00     0.006 C 
BRANCH  10  11
ATOM     11  C   UNL     1       7.613   0.786   2.314  1.00  0.00     0.053 C 
BRANCH  11  12
ATOM     12  C   UNL     1       6.487   0.334   3.190  1.00  0.00     0.041 C 
ATOM     13  O   UNL     1       6.556   0.486   4.440  1.00  0.00    -0.550 OA
ATOM     14  O   UNL     1       5.388  -0.309   2.636  1.00  0.00    -0.550 OA
ENDBRANCH  11  12
ENDBRANCH  10  11
ENDBRANCH   9  10
ENDBRANCH   8   9
ENDBRANCH   7   8
ENDBRANCH   6   7
ENDBRANCH   5   6
ENDBRANCH   4   5
ENDBRANCH   3   4
ENDBRANCH   2   3
ENDBRANCH   1   2
BRANCH   1  15
ATOM     15  C   UNL     1       6.724  -1.216  -4.359  1.00  0.00     0.000 C 
BRANCH  15  16
ATOM     16  C   UNL     1       5.709  -2.334  -4.636  1.00  0.00     0.000 C 
BRANCH  16  17
ATOM     17  C   UNL     1       5.069  -2.225  -6.032  1.00  0.00     0.000 C 
BRANCH  17  18
ATOM     18  C   UNL     1       3.531  -2.342  -6.013  1.00  0.00    -0.000 C 
BRANCH  18  19
ATOM     19  C   UNL     1       2.900  -1.577  -4.835  1.00  0.00    -0.000 C 
BRANCH  19  20
ATOM     20  C   UNL     1       2.061  -2.489  -3.924  1.00  0.00    -0.000 C 
BRANCH  20  21
ATOM     21  C   UNL     1       2.129  -3.966  -4.352  1.00  0.00    -0.000 C 
BRANCH  21  22
ATOM     22  C   UNL     1       0.883  -4.767  -3.934  1.00  0.00    -0.000 C 
BRANCH  22  23
ATOM     23  C   UNL     1       0.386  -4.510  -2.496  1.00  0.00    -0.000 C 
BRANCH  23  24
ATOM     24  C   UNL     1       0.875  -5.523  -1.445  1.00  0.00    -0.000 C 
BRANCH  24  25
ATOM     25  C   UNL     1       1.447  -6.803  -2.072  1.00  0.00    -0.003 C 
ATOM     26  C   UNL     1       1.321  -7.986  -1.114  1.00  0.00     0.004 C 
ENDBRANCH  24  25
ENDBRANCH  23  24
ENDBRANCH  22  23
ENDBRANCH  21  22
ENDBRANCH  20  21
ENDBRANCH  19  20
ENDBRANCH  18  19
ENDBRANCH  17  18
ENDBRANCH  16  17
ENDBRANCH  15  16
ENDBRANCH   1  15
TORSDOF 22
ENDMDL
MODEL 3
REMARK VINA RESULT:    -4.278      1.458      3.026
REMARK INTER + INTRA:         -12.741
REMARK INTER:                  -9.807
REMARK INTRA:                  -2.934
REMARK UNBOUND:                -2.961
REMARK SMILES CCCCCCCCCCCCCCCCCCCCCCCC(=O)[O-]
REMARK SMILES IDX 13 1 14 2 15 3 16 4 17 5 18 6 19 7 20 8 21 9 22 10 23 11
REMARK SMILES IDX 24 12 25 13 26 14 12 15 11 16 10 17 9 18 8 19 7 20 6 21 5 22
REMARK SMILES IDX 4 23 3 24 2 25 1 26
REMARK H PARENT
REMARK Flexibility Score: inf
ROOT
ATOM      1  C   UNL     1       3.645  -1.520  -3.523  1.00  0.00     0.000 C 
ENDROOT
BRANCH   1   2
ATOM      2  C   UNL     1       5.039  -1.211  -2.945  1.00  0.00     0.000 C 
BRANCH   2   3
ATOM      3  C   UNL     1       6.133  -0.928  -3.998  1.00  0.00     0.000 C 
BRANCH   3   4
ATOM      4  C   UNL     1       7.150  -2.065  -4.208  1.00  0.00     0.000 C 
BRANCH   4   5
ATOM      5  C   UNL     1       6.907  -3.321  -3.346  1.00  0.00     0.000 C 
BRANCH   5   6
ATOM      6  C   UNL     1       8.191  -3.894  -2.709  1.00  0.00     0.000 C 
BRANCH   6   7
ATOM      7  C   UNL     1       8.160  -3.853  -1.171  1.00  0.00     0.000 C 
BRANCH   7   8
ATOM      8  C   UNL     1       7.383  -2.641  -0.623  1.00  0.00     0.000 C 
BRANCH   8   9
ATOM      9  C   UNL     1       8.169  -1.314  -0.603  1.00  0.00     0.000 C 
BRANCH   9  10
ATOM     10  C   UNL     1       7.654  -0.269   0.404  1.00  0.00     0.006 C 
BRANCH  10  11
ATOM     11  C   UNL     1       6.122  -0.208   0.467  1.00  0.00     0.053 C 
BRANCH  11  12
ATOM     12  C   UNL     1       5.675   0.372   1.773  1.00  0.00     0.041 C 
ATOM     13  O   UNL     1       5.349  -0.387   2.725  1.00  0.00    -0.550 OA
ATOM     14  O   UNL     1       5.559   1.748   1.920  1.00  0.00    -0.550 OA
ENDBRANCH  11  12
ENDBRANCH  10  11
ENDBRANCH   9  10
ENDBRANCH   8   9
ENDBRANCH   7   8
ENDBRANCH   6   7
ENDBRANCH   5   6
ENDBRANCH   4   5
ENDBRANCH   3   4
ENDBRANCH   2   3
ENDBRANCH   1   2
BRANCH   1  15
ATOM     15  C   UNL     1       3.454  -0.971  -4.944  1.00  0.00     0.000 C 
BRANCH  15  16
ATOM     16  C   UNL     1       2.329  -1.715  -5.676  1.00  0.00     0.000 C 
BRANCH  16  17
ATOM     17  C   UNL     1       2.858  -2.725  -6.710  1.00  0.00     0.000 C 
BRANCH  17  18
ATOM     18  C   UNL     1       3.937  -3.673  -6.146  1.00  0.00    -0.000 C 
BRANCH  18  19
ATOM     19  C   UNL     1       3.334  -4.799  -5.285  1.00  0.00    -0.000 C 
BRANCH  19  20
ATOM     20  C   UNL     1       1.991  -5.305  -5.836  1.00  0.00    -0.000 C 
BRANCH  20  21
ATOM     21  C   UNL     1       0.850  -5.176  -4.810  1.00  0.00    -0.000 C 
BRANCH  21  22
ATOM     22  C   UNL     1       1.264  -4.395  -3.551  1.00  0.00    -0.000 C 
BRANCH  22  23
ATOM     23  C   UNL     1       0.450  -4.715  -2.280  1.00  0.00    -0.000 C 
BRANCH  23  24
ATOM     24  C   UNL     1      -0.496  -5.924  -2.399  1.00  0.00    -0.000 C 
BRANCH  24  25
ATOM     25  C   UNL     1       0.022  -7.162  -1.650  1.00  0.00    -0.003 C 
ATOM     26  C   UNL     1       1.425  -6.922  -1.098  1.00  0.00     0.004 C 
ENDBRANCH  24  25
ENDBRANCH  23  24
ENDBRANCH  22  23
ENDBRANCH  21  22
ENDBRANCH  20  21
ENDBRANCH  19  20
ENDBRANCH  18  19
ENDBRANCH  17  18
ENDBRANCH  16  17
ENDBRANCH  15  16
ENDBRANCH   1  15
TORSDOF 22
ENDMDL
MODEL 4
REMARK VINA RESULT:    -4.260      1.569      2.119
REMARK INTER + INTRA:         -12.699
REMARK INTER:                 -10.271
REMARK INTRA:                  -2.428
REMARK UNBOUND:                -2.961
REMARK SMILES CCCCCCCCCCCCCCCCCCCCCCCC(=O)[O-]
REMARK SMILES IDX 13 1 14 2 15 3 16 4 17 5 18 6 19 7 20 8 21 9 22 10 23 11
REMARK SMILES IDX 24 12 25 13 26 14 12 15 11 16 10 17 9 18 8 19 7 20 6 21 5 22
REMARK SMILES IDX 4 23 3 24 2 25 1 26
REMARK H PARENT
REMARK Flexibility Score: inf
ROOT
ATOM      1  C   UNL     1       5.992  -3.219  -4.827  1.00  0.00     0.000 C 
ENDROOT
BRANCH   1   2
ATOM      2  C   UNL     1       7.010  -4.180  -4.185  1.00  0.00     0.000 C 
BRANCH   2   3
ATOM      3  C   UNL     1       8.093  -3.499  -3.319  1.00  0.00     0.000 C 
BRANCH   3   4
ATOM      4  C   UNL     1       8.309  -4.125  -1.929  1.00  0.00     0.000 C 
BRANCH   4   5
ATOM      5  C   UNL     1       7.763  -3.293  -0.750  1.00  0.00     0.000 C 
BRANCH   5   6
ATOM      6  C   UNL     1       7.318  -1.870  -1.150  1.00  0.00     0.000 C 
BRANCH   6   7
ATOM      7  C   UNL     1       6.354  -1.242  -0.127  1.00  0.00     0.000 C 
BRANCH   7   8
ATOM      8  C   UNL     1       5.503  -0.108  -0.729  1.00  0.00     0.000 C 
BRANCH   8   9
ATOM      9  C   UNL     1       6.293   1.147  -1.158  1.00  0.00     0.000 C 
BRANCH   9  10
ATOM     10  C   UNL     1       6.494   2.197  -0.051  1.00  0.00     0.006 C 
BRANCH  10  11
ATOM     11  C   UNL     1       5.491   2.047   1.101  1.00  0.00     0.053 C 
BRANCH  11  12
ATOM     12  C   UNL     1       4.604   3.250   1.182  1.00  0.00     0.041 C 
ATOM     13  O   UNL     1       4.622   4.114   0.264  1.00  0.00    -0.550 OA
ATOM     14  O   UNL     1       3.802   3.451   2.299  1.00  0.00    -0.550 OA
ENDBRANCH  11  12
ENDBRANCH  10  11
ENDBRANCH   9  10
ENDBRANCH   8   9
ENDBRANCH   7   8
ENDBRANCH   6   7
ENDBRANCH   5   6
ENDBRANCH   4   5
ENDBRANCH   3   4
ENDBRANCH   2   3
ENDBRANCH   1   2
BRANCH   1  15
ATOM     15  C   UNL     1       6.331  -1.741  -4.582  1.00  0.00     0.000 C 
BRANCH  15  16
ATOM     16  C   UNL     1       5.059  -0.918  -4.336  1.00  0.00     0.000 C 
BRANCH  16  17
ATOM     17  C   UNL     1       3.908  -1.303  -5.282  1.00  0.00     0.000 C 
BRANCH  17  18
ATOM     18  C   UNL     1       2.518  -1.240  -4.615  1.00  0.00    -0.000 C 
BRANCH  18  19
ATOM     19  C   UNL     1       2.158  -2.549  -3.888  1.00  0.00    -0.000 C 
BRANCH  19  20
ATOM     20  C   UNL     1       2.241  -3.776  -4.811  1.00  0.00    -0.000 C 
BRANCH  20  21
ATOM     21  C   UNL     1       1.430  -4.969  -4.274  1.00  0.00    -0.000 C 
BRANCH  21  22
ATOM     22  C   UNL     1       0.515  -4.589  -3.096  1.00  0.00    -0.000 C 
BRANCH  22  23
ATOM     23  C   UNL     1       0.957  -5.127  -1.719  1.00  0.00    -0.000 C 
BRANCH  23  24
ATOM     24  C   UNL     1       0.551  -6.582  -1.426  1.00  0.00    -0.000 C 
BRANCH  24  25
ATOM     25  C   UNL     1       1.757  -7.496  -1.160  1.00  0.00    -0.003 C 
ATOM     26  C   UNL     1       2.368  -7.992  -2.468  1.00  0.00     0.004 C 
ENDBRANCH  24  25
ENDBRANCH  23  24
ENDBRANCH  22  23
ENDBRANCH  21  22
ENDBRANCH  20  21
ENDBRANCH  19  20
ENDBRANCH  18  19
ENDBRANCH  17  18
ENDBRANCH  16  17
ENDBRANCH  15  16
ENDBRANCH   1  15
TORSDOF 22
ENDMDL
MODEL 5
REMARK VINA RESULT:    -4.139      1.057      2.212
REMARK INTER + INTRA:         -12.422
REMARK INTER:                  -9.786
REMARK INTRA:                  -2.636
REMARK UNBOUND:                -2.961
REMARK SMILES CCCCCCCCCCCCCCCCCCCCCCCC(=O)[O-]
REMARK SMILES IDX 13 1 14 2 15 3 16 4 17 5 18 6 19 7 20 8 21 9 22 10 23 11
REMARK SMILES IDX 24 12 25 13 26 14 12 15 11 16 10 17 9 18 8 19 7 20 6 21 5 22
REMARK SMILES IDX 4 23 3 24 2 25 1 26
REMARK H PARENT
REMARK Flexibility Score: inf
ROOT
ATOM      1  C   UNL     1       5.993  -3.168  -4.392  1.00  0.00     0.000 C 
ENDROOT
BRANCH   1   2
ATOM      2  C   UNL     1       7.221  -4.097  -4.393  1.00  0.00     0.000 C 
BRANCH   2   3
ATOM      3  C   UNL     1       8.492  -3.498  -3.751  1.00  0.00     0.000 C 
BRANCH   3   4
ATOM      4  C   UNL     1       9.118  -4.345  -2.628  1.00  0.00     0.000 C 
BRANCH   4   5
ATOM      5  C   UNL     1       9.011  -3.734  -1.216  1.00  0.00     0.000 C 
BRANCH   5   6
ATOM      6  C   UNL     1       7.568  -3.366  -0.808  1.00  0.00     0.000 C 
BRANCH   6   7
ATOM      7  C   UNL     1       7.421  -1.883  -0.424  1.00  0.00     0.000 C 
BRANCH   7   8
ATOM      8  C   UNL     1       6.574  -1.087  -1.435  1.00  0.00     0.000 C 
BRANCH   8   9
ATOM      9  C   UNL     1       5.489  -0.183  -0.814  1.00  0.00     0.000 C 
BRANCH   9  10
ATOM     10  C   UNL     1       5.989   1.188  -0.324  1.00  0.00     0.006 C 
BRANCH  10  11
ATOM     11  C   UNL     1       5.512   1.523   1.096  1.00  0.00     0.053 C 
BRANCH  11  12
ATOM     12  C   UNL     1       6.107   0.570   2.085  1.00  0.00     0.041 C 
ATOM     13  O   UNL     1       5.403  -0.353   2.578  1.00  0.00    -0.550 OA
ATOM     14  O   UNL     1       7.418   0.737   2.511  1.00  0.00    -0.550 OA
ENDBRANCH  11  12
ENDBRANCH  10  11
ENDBRANCH   9  10
ENDBRANCH   8   9
ENDBRANCH   7   8
ENDBRANCH   6   7
ENDBRANCH   5   6
ENDBRANCH   4   5
ENDBRANCH   3   4
ENDBRANCH   2   3
ENDBRANCH   1   2
BRANCH   1  15
ATOM     15  C   UNL     1       6.260  -1.826  -5.090  1.00  0.00     0.000 C 
BRANCH  15  16
ATOM     16  C   UNL     1       5.151  -0.812  -4.778  1.00  0.00     0.000 C 
BRANCH  16  17
ATOM     17  C   UNL     1       3.946  -1.449  -4.062  1.00  0.00     0.000 C 
BRANCH  17  18
ATOM     18  C   UNL     1       2.610  -1.246  -4.808  1.00  0.00    -0.000 C 
BRANCH  18  19
ATOM     19  C   UNL     1       2.280  -2.421  -5.747  1.00  0.00    -0.000 C 
BRANCH  19  20
ATOM     20  C   UNL     1       2.453  -3.787  -5.062  1.00  0.00    -0.000 C 
BRANCH  20  21
ATOM     21  C   UNL     1       1.322  -4.088  -4.062  1.00  0.00    -0.000 C 
BRANCH  21  22
ATOM     22  C   UNL     1       1.455  -5.476  -3.410  1.00  0.00    -0.000 C 
BRANCH  22  23
ATOM     23  C   UNL     1       0.614  -5.685  -2.133  1.00  0.00    -0.000 C 
BRANCH  23  24
ATOM     24  C   UNL     1      -0.738  -6.390  -2.351  1.00  0.00    -0.000 C 
BRANCH  24  25
ATOM     25  C   UNL     1      -1.867  -5.416  -2.717  1.00  0.00    -0.003 C 
ATOM     26  C   UNL     1      -2.411  -5.708  -4.114  1.00  0.00     0.004 C 
ENDBRANCH  24  25
ENDBRANCH  23  24
ENDBRANCH  22  23
ENDBRANCH  21  22
ENDBRANCH  20  21
ENDBRANCH  19  20
ENDBRANCH  18  19
ENDBRANCH  17  18
ENDBRANCH  16  17
ENDBRANCH  15  16
ENDBRANCH   1  15
TORSDOF 22
ENDMDL
MODEL 6
REMARK VINA RESULT:    -4.102      2.432      4.074
REMARK INTER + INTRA:         -12.339
REMARK INTER:                  -8.583
REMARK INTRA:                  -3.756
REMARK UNBOUND:                -2.961
REMARK SMILES CCCCCCCCCCCCCCCCCCCCCCCC(=O)[O-]
REMARK SMILES IDX 13 1 14 2 15 3 16 4 17 5 18 6 19 7 20 8 21 9 22 10 23 11
REMARK SMILES IDX 24 12 25 13 26 14 12 15 11 16 10 17 9 18 8 19 7 20 6 21 5 22
REMARK SMILES IDX 4 23 3 24 2 25 1 26
REMARK H PARENT
REMARK Flexibility Score: inf
ROOT
ATOM      1  C   UNL     1       7.193  -2.157  -0.485  1.00  0.00     0.000 C 
ENDROOT
BRANCH   1   2
ATOM      2  C   UNL     1       8.701  -1.863  -0.581  1.00  0.00     0.000 C 
BRANCH   2   3
ATOM      3  C   UNL     1       9.202  -1.472  -1.989  1.00  0.00     0.000 C 
BRANCH   3   4
ATOM      4  C   UNL     1       9.817  -0.064  -2.097  1.00  0.00     0.000 C 
BRANCH   4   5
ATOM      5  C   UNL     1       8.795   1.084  -2.221  1.00  0.00     0.000 C 
BRANCH   5   6
ATOM      6  C   UNL     1       9.069   2.265  -1.265  1.00  0.00     0.000 C 
BRANCH   6   7
ATOM      7  C   UNL     1       8.700   1.943   0.195  1.00  0.00     0.000 C 
BRANCH   7   8
ATOM      8  C   UNL     1       7.407   2.644   0.651  1.00  0.00     0.000 C 
BRANCH   8   9
ATOM      9  C   UNL     1       6.429   3.017  -0.484  1.00  0.00     0.000 C 
BRANCH   9  10
ATOM     10  C   UNL     1       5.206   3.841  -0.042  1.00  0.00     0.006 C 
BRANCH  10  11
ATOM     11  C   UNL     1       4.788   3.557   1.407  1.00  0.00     0.053 C 
BRANCH  11  12
ATOM     12  C   UNL     1       3.373   3.987   1.637  1.00  0.00     0.041 C 
ATOM     13  O   UNL     1       2.860   4.888   0.919  1.00  0.00    -0.550 OA
ATOM     14  O   UNL     1       2.640   3.439   2.682  1.00  0.00    -0.550 OA
ENDBRANCH  11  12
ENDBRANCH  10  11
ENDBRANCH   9  10
ENDBRANCH   8   9
ENDBRANCH   7   8
ENDBRANCH   6   7
ENDBRANCH   5   6
ENDBRANCH   4   5
ENDBRANCH   3   4
ENDBRANCH   2   3
ENDBRANCH   1   2
BRANCH   1  15
ATOM     15  C   UNL     1       6.386  -0.968   0.057  1.00  0.00     0.000 C 
BRANCH  15  16
ATOM     16  C   UNL     1       5.521  -0.341  -1.045  1.00  0.00     0.000 C 
BRANCH  16  17
ATOM     17  C   UNL     1       5.516  -1.169  -2.342  1.00  0.00     0.000 C 
BRANCH  17  18
ATOM     18  C   UNL     1       5.965  -0.370  -3.583  1.00  0.00    -0.000 C 
BRANCH  18  19
ATOM     19  C   UNL     1       6.202  -1.274  -4.807  1.00  0.00    -0.000 C 
BRANCH  19  20
ATOM     20  C   UNL     1       5.873  -2.748  -4.520  1.00  0.00    -0.000 C 
BRANCH  20  21
ATOM     21  C   UNL     1       5.221  -3.449  -5.726  1.00  0.00    -0.000 C 
BRANCH  21  22
ATOM     22  C   UNL     1       4.414  -2.485  -6.613  1.00  0.00    -0.000 C 
BRANCH  22  23
ATOM     23  C   UNL     1       2.907  -2.401  -6.293  1.00  0.00    -0.000 C 
BRANCH  23  24
ATOM     24  C   UNL     1       2.531  -1.408  -5.178  1.00  0.00    -0.000 C 
BRANCH  24  25
ATOM     25  C   UNL     1       2.288  -2.093  -3.825  1.00  0.00    -0.003 C 
ATOM     26  C   UNL     1       1.755  -3.511  -4.017  1.00  0.00     0.004 C 
ENDBRANCH  24  25
ENDBRANCH  23  24
ENDBRANCH  22  23
ENDBRANCH  21  22
ENDBRANCH  20  21
ENDBRANCH  19  20
ENDBRANCH  18  19
ENDBRANCH  17  18
ENDBRANCH  16  17
ENDBRANCH  15  16
ENDBRANCH   1  15
TORSDOF 22
ENDMDL
MODEL 7
REMARK VINA RESULT:    -4.072      1.757      2.577
REMARK INTER + INTRA:         -12.271
REMARK INTER:                  -9.336
REMARK INTRA:                  -2.935
REMARK UNBOUND:                -2.961
REMARK SMILES CCCCCCCCCCCCCCCCCCCCCCCC(=O)[O-]
REMARK SMILES IDX 13 1 14 2 15 3 16 4 17 5 18 6 19 7 20 8 21 9 22 10 23 11
REMARK SMILES IDX 24 12 25 13 26 14 12 15 11 16 10 17 9 18 8 19 7 20 6 21 5 22
REMARK SMILES IDX 4 23 3 24 2 25 1 26
REMARK H PARENT
REMARK Flexibility Score: inf
ROOT
ATOM      1  C   UNL     1       6.421  -1.478  -4.713  1.00  0.00     0.000 C 
ENDROOT
BRANCH   1   2
ATOM      2  C   UNL     1       6.575  -0.113  -4.016  1.00  0.00     0.000 C 
BRANCH   2   3
ATOM      3  C   UNL     1       8.029   0.394  -3.890  1.00  0.00     0.000 C 
BRANCH   3   4
ATOM      4  C   UNL     1       8.672   0.198  -2.504  1.00  0.00     0.000 C 
BRANCH   4   5
ATOM      5  C   UNL     1       9.086  -1.251  -2.179  1.00  0.00     0.000 C 
BRANCH   5   6
ATOM      6  C   UNL     1       8.580  -1.747  -0.807  1.00  0.00     0.000 C 
BRANCH   6   7
ATOM      7  C   UNL     1       7.064  -2.013  -0.795  1.00  0.00     0.000 C 
BRANCH   7   8
ATOM      8  C   UNL     1       6.306  -1.097   0.184  1.00  0.00     0.000 C 
BRANCH   8   9
ATOM      9  C   UNL     1       5.567   0.090  -0.469  1.00  0.00     0.000 C 
BRANCH   9  10
ATOM     10  C   UNL     1       6.037   1.481  -0.006  1.00  0.00     0.006 C 
BRANCH  10  11
ATOM     11  C   UNL     1       5.520   1.849   1.392  1.00  0.00     0.053 C 
BRANCH  11  12
ATOM     12  C   UNL     1       4.647   3.064   1.324  1.00  0.00     0.041 C 
ATOM     13  O   UNL     1       3.834   3.313   2.254  1.00  0.00    -0.550 OA
ATOM     14  O   UNL     1       4.687   3.888   0.206  1.00  0.00    -0.550 OA
ENDBRANCH  11  12
ENDBRANCH  10  11
ENDBRANCH   9  10
ENDBRANCH   8   9
ENDBRANCH   7   8
ENDBRANCH   6   7
ENDBRANCH   5   6
ENDBRANCH   4   5
ENDBRANCH   3   4
ENDBRANCH   2   3
ENDBRANCH   1   2
BRANCH   1  15
ATOM     15  C   UNL     1       5.294  -2.331  -4.110  1.00  0.00     0.000 C 
BRANCH  15  16
ATOM     16  C   UNL     1       4.257  -1.451  -3.398  1.00  0.00     0.000 C 
BRANCH  16  17
ATOM     17  C   UNL     1       2.813  -1.771  -3.824  1.00  0.00     0.000 C 
BRANCH  17  18
ATOM     18  C   UNL     1       2.520  -1.439  -5.302  1.00  0.00    -0.000 C 
BRANCH  18  19
ATOM     19  C   UNL     1       2.618  -2.678  -6.211  1.00  0.00    -0.000 C 
BRANCH  19  20
ATOM     20  C   UNL     1       1.745  -3.842  -5.713  1.00  0.00    -0.000 C 
BRANCH  20  21
ATOM     21  C   UNL     1       2.582  -4.987  -5.115  1.00  0.00    -0.000 C 
BRANCH  21  22
ATOM     22  C   UNL     1       1.889  -5.679  -3.928  1.00  0.00    -0.000 C 
BRANCH  22  23
ATOM     23  C   UNL     1       0.761  -4.866  -3.260  1.00  0.00    -0.000 C 
BRANCH  23  24
ATOM     24  C   UNL     1       0.696  -4.979  -1.726  1.00  0.00    -0.000 C 
BRANCH  24  25
ATOM     25  C   UNL     1       1.128  -6.360  -1.210  1.00  0.00    -0.003 C 
ATOM     26  C   UNL     1       0.022  -7.392  -1.415  1.00  0.00     0.004 C 
ENDBRANCH  24  25
ENDBRANCH  23  24
ENDBRANCH  22  23
ENDBRANCH  21  22
ENDBRANCH  20  21
ENDBRANCH  19  20
ENDBRANCH  18  19
ENDBRANCH  17  18
ENDBRANCH  16  17
ENDBRANCH  15  16
ENDBRANCH   1  15
TORSDOF 22
ENDMDL
MODEL 8
REMARK VINA RESULT:    -4.049      1.678      3.272
REMARK INTER + INTRA:         -12.218
REMARK INTER:                  -9.237
REMARK INTRA:                  -2.981
REMARK UNBOUND:                -2.961
REMARK SMILES CCCCCCCCCCCCCCCCCCCCCCCC(=O)[O-]
REMARK SMILES IDX 13 1 14 2 15 3 16 4 17 5 18 6 19 7 20 8 21 9 22 10 23 11
REMARK SMILES IDX 24 12 25 13 26 14 12 15 11 16 10 17 9 18 8 19 7 20 6 21 5 22
REMARK SMILES IDX 4 23 3 24 2 25 1 26
REMARK H PARENT
REMARK Flexibility Score: inf
ROOT
ATOM      1  C   UNL     1       6.675   0.124  -5.852  1.00  0.00     0.000 C 
ENDROOT
BRANCH   1   2
ATOM      2  C   UNL     1       5.460  -0.339  -5.028  1.00  0.00     0.000 C 
BRANCH   2   3
ATOM      3  C   UNL     1       5.798  -1.208  -3.797  1.00  0.00     0.000 C 
BRANCH   3   4
ATOM      4  C   UNL     1       5.946  -2.715  -4.082  1.00  0.00     0.000 C 
BRANCH   4   5
ATOM      5  C   UNL     1       7.397  -3.237  -4.080  1.00  0.00     0.000 C 
BRANCH   5   6
ATOM      6  C   UNL     1       7.752  -4.079  -2.836  1.00  0.00     0.000 C 
BRANCH   6   7
ATOM      7  C   UNL     1       8.410  -3.244  -1.723  1.00  0.00     0.000 C 
BRANCH   7   8
ATOM      8  C   UNL     1       7.404  -2.784  -0.650  1.00  0.00     0.000 C 
BRANCH   8   9
ATOM      9  C   UNL     1       7.338  -1.259  -0.425  1.00  0.00     0.000 C 
BRANCH   9  10
ATOM     10  C   UNL     1       5.918  -0.690  -0.247  1.00  0.00     0.006 C 
BRANCH  10  11
ATOM     11  C   UNL     1       5.918   0.771   0.223  1.00  0.00     0.053 C 
BRANCH  11  12
ATOM     12  C   UNL     1       5.629   0.849   1.690  1.00  0.00     0.041 C 
ATOM     13  O   UNL     1       5.343  -0.195   2.335  1.00  0.00    -0.550 OA
ATOM     14  O   UNL     1       5.615   2.080   2.332  1.00  0.00    -0.550 OA
ENDBRANCH  11  12
ENDBRANCH  10  11
ENDBRANCH   9  10
ENDBRANCH   8   9
ENDBRANCH   7   8
ENDBRANCH   6   7
ENDBRANCH   5   6
ENDBRANCH   4   5
ENDBRANCH   3   4
ENDBRANCH   2   3
ENDBRANCH   1   2
BRANCH   1  15
ATOM     15  C   UNL     1       6.655  -0.406  -7.294  1.00  0.00     0.000 C 
BRANCH  15  16
ATOM     16  C   UNL     1       7.202  -1.837  -7.364  1.00  0.00     0.000 C 
BRANCH  16  17
ATOM     17  C   UNL     1       6.134  -2.863  -7.783  1.00  0.00     0.000 C 
BRANCH  17  18
ATOM     18  C   UNL     1       4.723  -2.256  -7.931  1.00  0.00    -0.000 C 
BRANCH  18  19
ATOM     19  C   UNL     1       3.642  -3.332  -8.139  1.00  0.00    -0.000 C 
BRANCH  19  20
ATOM     20  C   UNL     1       2.753  -3.519  -6.898  1.00  0.00    -0.000 C 
BRANCH  20  21
ATOM     21  C   UNL     1       2.689  -2.252  -6.027  1.00  0.00    -0.000 C 
BRANCH  21  22
ATOM     22  C   UNL     1       2.183  -2.532  -4.601  1.00  0.00    -0.000 C 
BRANCH  22  23
ATOM     23  C   UNL     1       1.861  -4.009  -4.294  1.00  0.00    -0.000 C 
BRANCH  23  24
ATOM     24  C   UNL     1       1.044  -4.246  -3.011  1.00  0.00    -0.000 C 
BRANCH  24  25
ATOM     25  C   UNL     1       0.982  -5.727  -2.608  1.00  0.00    -0.003 C 
ATOM     26  C   UNL     1       1.011  -5.884  -1.090  1.00  0.00     0.004 C 
ENDBRANCH  24  25
ENDBRANCH  23  24
ENDBRANCH  22  23
ENDBRANCH  21  22
ENDBRANCH  20  21
ENDBRANCH  19  20
ENDBRANCH  18  19
ENDBRANCH  17  18
ENDBRANCH  16  17
ENDBRANCH  15  16
ENDBRANCH   1  15
TORSDOF 22
ENDMDL
MODEL 9
REMARK VINA RESULT:    -4.048      3.142      7.684
REMARK INTER + INTRA:         -12.214
REMARK INTER:                  -7.668
REMARK INTRA:                  -4.547
REMARK UNBOUND:                -2.961
REMARK SMILES CCCCCCCCCCCCCCCCCCCCCCCC(=O)[O-]
REMARK SMILES IDX 13 1 14 2 15 3 16 4 17 5 18 6 19 7 20 8 21 9 22 10 23 11
REMARK SMILES IDX 24 12 25 13 26 14 12 15 11 16 10 17 9 18 8 19 7 20 6 21 5 22
REMARK SMILES IDX 4 23 3 24 2 25 1 26
REMARK H PARENT
REMARK Flexibility Score: inf
ROOT
ATOM      1  C   UNL     1       5.842  -0.909  -1.435  1.00  0.00     0.000 C 
ENDROOT
BRANCH   1   2
ATOM      2  C   UNL     1       6.577  -1.576  -0.257  1.00  0.00     0.000 C 
BRANCH   2   3
ATOM      3  C   UNL     1       7.727  -2.525  -0.660  1.00  0.00     0.000 C 
BRANCH   3   4
ATOM      4  C   UNL     1       7.558  -3.213  -2.028  1.00  0.00     0.000 C 
BRANCH   4   5
ATOM      5  C   UNL     1       8.552  -2.752  -3.114  1.00  0.00     0.000 C 
BRANCH   5   6
ATOM      6  C   UNL     1       7.882  -2.409  -4.462  1.00  0.00     0.000 C 
BRANCH   6   7
ATOM      7  C   UNL     1       6.401  -2.825  -4.511  1.00  0.00     0.000 C 
BRANCH   7   8
ATOM      8  C   UNL     1       5.590  -2.021  -5.545  1.00  0.00     0.000 C 
BRANCH   8   9
ATOM      9  C   UNL     1       4.667  -0.936  -4.952  1.00  0.00     0.000 C 
BRANCH   9  10
ATOM     10  C   UNL     1       3.162  -1.253  -5.024  1.00  0.00     0.006 C 
BRANCH  10  11
ATOM     11  C   UNL     1       2.629  -1.903  -3.740  1.00  0.00     0.053 C 
BRANCH  11  12
ATOM     12  C   UNL     1       2.125  -3.284  -4.024  1.00  0.00     0.041 C 
ATOM     13  O   UNL     1       1.048  -3.684  -3.504  1.00  0.00    -0.550 OA
ATOM     14  O   UNL     1       2.872  -4.151  -4.811  1.00  0.00    -0.550 OA
ENDBRANCH  11  12
ENDBRANCH  10  11
ENDBRANCH   9  10
ENDBRANCH   8   9
ENDBRANCH   7   8
ENDBRANCH   6   7
ENDBRANCH   5   6
ENDBRANCH   4   5
ENDBRANCH   3   4
ENDBRANCH   2   3
ENDBRANCH   1   2
BRANCH   1  15
ATOM     15  C   UNL     1       6.209   0.573  -1.604  1.00  0.00     0.000 C 
BRANCH  15  16
ATOM     16  C   UNL     1       7.439   0.736  -2.507  1.00  0.00     0.000 C 
BRANCH  16  17
ATOM     17  C   UNL     1       8.582   1.507  -1.823  1.00  0.00     0.000 C 
BRANCH  17  18
ATOM     18  C   UNL     1       9.804   0.625  -1.491  1.00  0.00    -0.000 C 
BRANCH  18  19
ATOM     19  C   UNL     1       9.851   0.226  -0.004  1.00  0.00    -0.000 C 
BRANCH  19  20
ATOM     20  C   UNL     1       8.965   1.126   0.873  1.00  0.00    -0.000 C 
BRANCH  20  21
ATOM     21  C   UNL     1       8.409   0.382   2.101  1.00  0.00    -0.000 C 
BRANCH  21  22
ATOM     22  C   UNL     1       7.014   0.878   2.521  1.00  0.00    -0.000 C 
BRANCH  22  23
ATOM     23  C   UNL     1       6.623   2.272   1.988  1.00  0.00    -0.000 C 
BRANCH  23  24
ATOM     24  C   UNL     1       5.246   2.347   1.304  1.00  0.00    -0.000 C 
BRANCH  24  25
ATOM     25  C   UNL     1       5.074   3.608   0.445  1.00  0.00    -0.003 C 
ATOM     26  C   UNL     1       6.388   3.995  -0.230  1.00  0.00     0.004 C 
ENDBRANCH  24  25
ENDBRANCH  23  24
ENDBRANCH  22  23
ENDBRANCH  21  22
ENDBRANCH  20  21
ENDBRANCH  19  20
ENDBRANCH  18  19
ENDBRANCH  17  18
ENDBRANCH  16  17
ENDBRANCH  15  16
ENDBRANCH   1  15
TORSDOF 22
ENDMDL
