MODEL 1
REMARK VINA RESULT:    -5.835      0.000      0.000
REMARK INTER + INTRA:         -12.231
REMARK INTER:                 -11.293
REMARK INTRA:                  -0.938
REMARK UNBOUND:                -0.938
REMARK SMILES CCCCCCCCCCCCCCCCCC(=O)[O-]
REMARK SMILES IDX 10 1 11 2 12 3 13 4 14 5 15 6 16 7 17 8 18 9 19 10 20 11
REMARK SMILES IDX 9 12 8 13 7 14 6 15 5 16 4 17 3 18 2 19 1 20
REMARK H PARENT
REMARK Flexibility Score: inf
ROOT
ATOM      1  C   UNL     1     103.632 313.220 195.960  1.00  0.00     0.000 C 
ENDROOT
BRANCH   1   2
ATOM      2  C   UNL     1     103.436 313.073 197.480  1.00  0.00     0.000 C 
BRANCH   2   3
ATOM      3  C   UNL     1     103.677 311.657 198.035  1.00  0.00     0.000 C 
BRANCH   3   4
ATOM      4  C   UNL     1     103.647 311.603 199.572  1.00  0.00     0.000 C 
BRANCH   4   5
ATOM      5  C   UNL     1     102.325 312.134 200.153  1.00  0.00     0.000 C 
BRANCH   5   6
ATOM      6  C   UNL     1     101.677 311.146 201.137  1.00  0.00     0.000 C 
BRANCH   6   7
ATOM      7  C   UNL     1     102.105 311.383 202.597  1.00  0.00     0.006 C 
BRANCH   7   8
ATOM      8  C   UNL     1     103.354 310.588 203.020  1.00  0.00     0.053 C 
BRANCH   8   9
ATOM      9  C   UNL     1     103.871 310.995 204.367  1.00  0.00     0.041 C 
ATOM     10  O   UNL     1     103.288 310.611 205.415  1.00  0.00    -0.550 OA
ATOM     11  O   UNL     1     104.979 311.829 204.463  1.00  0.00    -0.550 OA
ENDBRANCH   8   9
ENDBRANCH   7   8
ENDBRANCH   6   7
ENDBRANCH   5   6
ENDBRANCH   4   5
ENDBRANCH   3   4
ENDBRANCH   2   3
ENDBRANCH   1   2
BRANCH   1  12
ATOM     12  C   UNL     1     104.007 311.894 195.273  1.00  0.00     0.000 C 
BRANCH  12  13
ATOM     13  C   UNL     1     105.468 311.881 194.770  1.00  0.00    -0.000 C 
BRANCH  13  14
ATOM     14  C   UNL     1     105.613 311.444 193.300  1.00  0.00    -0.000 C 
BRANCH  14  15
ATOM     15  C   UNL     1     105.598 312.595 192.276  1.00  0.00    -0.000 C 
BRANCH  15  16
ATOM     16  C   UNL     1     104.207 312.953 191.713  1.00  0.00    -0.000 C 
BRANCH  16  17
ATOM     17  C   UNL     1     103.762 314.405 191.957  1.00  0.00    -0.000 C 
BRANCH  17  18
ATOM     18  C   UNL     1     103.234 315.089 190.685  1.00  0.00    -0.000 C 
BRANCH  18  19
ATOM     19  C   UNL     1     104.171 314.897 189.482  1.00  0.00    -0.003 C 
ATOM     20  C   UNL     1     103.487 315.198 188.149  1.00  0.00     0.004 C 
ENDBRANCH  18  19
ENDBRANCH  17  18
ENDBRANCH  16  17
ENDBRANCH  15  16
ENDBRANCH  14  15
ENDBRANCH  13  14
ENDBRANCH  12  13
ENDBRANCH   1  12
TORSDOF 16
ENDMDL
MODEL 2
REMARK VINA RESULT:    -5.825      5.456     11.369
REMARK INTER + INTRA:         -12.211
REMARK INTER:                 -11.349
REMARK INTRA:                  -0.862
REMARK UNBOUND:                -0.938
REMARK SMILES CCCCCCCCCCCCCCCCCC(=O)[O-]
REMARK SMILES IDX 10 1 11 2 12 3 13 4 14 5 15 6 16 7 17 8 18 9 19 10 20 11
REMARK SMILES IDX 9 12 8 13 7 14 6 15 5 16 4 17 3 18 2 19 1 20
REMARK H PARENT
REMARK Flexibility Score: inf
ROOT
ATOM      1  C   UNL     1     103.910 313.330 195.662  1.00  0.00     0.000 C 
ENDROOT
BRANCH   1   2
ATOM      2  C   UNL     1     104.795 313.775 194.484  1.00  0.00     0.000 C 
BRANCH   2   3
ATOM      3  C   UNL     1     105.787 312.711 193.976  1.00  0.00     0.000 C 
BRANCH   3   4
ATOM      4  C   UNL     1     105.573 312.351 192.496  1.00  0.00     0.000 C 
BRANCH   4   5
ATOM      5  C   UNL     1     104.273 312.947 191.928  1.00  0.00     0.000 C 
BRANCH   5   6
ATOM      6  C   UNL     1     104.526 313.863 190.718  1.00  0.00     0.000 C 
BRANCH   6   7
ATOM      7  C   UNL     1     103.234 314.472 190.144  1.00  0.00     0.006 C 
BRANCH   7   8
ATOM      8  C   UNL     1     103.308 314.793 188.640  1.00  0.00     0.053 C 
BRANCH   8   9
ATOM      9  C   UNL     1     104.162 315.989 188.344  1.00  0.00     0.041 C 
ATOM     10  O   UNL     1     104.062 317.031 189.043  1.00  0.00    -0.550 OA
ATOM     11  O   UNL     1     105.046 315.963 187.272  1.00  0.00    -0.550 OA
ENDBRANCH   8   9
ENDBRANCH   7   8
ENDBRANCH   6   7
ENDBRANCH   5   6
ENDBRANCH   4   5
ENDBRANCH   3   4
ENDBRANCH   2   3
ENDBRANCH   1   2
BRANCH   1  12
ATOM     12  C   UNL     1     103.644 311.814 195.675  1.00  0.00     0.000 C 
BRANCH  12  13
ATOM     13  C   UNL     1     103.878 311.183 197.065  1.00  0.00    -0.000 C 
BRANCH  13  14
ATOM     14  C   UNL     1     103.671 312.164 198.235  1.00  0.00    -0.000 C 
BRANCH  14  15
ATOM     15  C   UNL     1     103.145 311.524 199.533  1.00  0.00    -0.000 C 
BRANCH  15  16
ATOM     16  C   UNL     1     104.057 311.697 200.765  1.00  0.00    -0.000 C 
BRANCH  16  17
ATOM     17  C   UNL     1     103.317 311.940 202.092  1.00  0.00    -0.000 C 
BRANCH  17  18
ATOM     18  C   UNL     1     103.311 310.704 203.007  1.00  0.00    -0.000 C 
BRANCH  18  19
ATOM     19  C   UNL     1     104.390 310.774 204.099  1.00  0.00    -0.003 C 
ATOM     20  C   UNL     1     103.831 311.221 205.450  1.00  0.00     0.004 C 
ENDBRANCH  18  19
ENDBRANCH  17  18
ENDBRANCH  16  17
ENDBRANCH  15  16
ENDBRANCH  14  15
ENDBRANCH  13  14
ENDBRANCH  12  13
ENDBRANCH   1  12
TORSDOF 16
ENDMDL
MODEL 3
REMARK VINA RESULT:    -5.769     19.020     20.172
REMARK INTER + INTRA:         -12.103
REMARK INTER:                 -10.750
REMARK INTRA:                  -1.353
REMARK UNBOUND:                -0.938
REMARK SMILES CCCCCCCCCCCCCCCCCC(=O)[O-]
REMARK SMILES IDX 10 1 11 2 12 3 13 4 14 5 15 6 16 7 17 8 18 9 19 10 20 11
REMARK SMILES IDX 9 12 8 13 7 14 6 15 5 16 4 17 3 18 2 19 1 20
REMARK H PARENT
REMARK Flexibility Score: inf
ROOT
ATOM      1  C   UNL     1      89.216 324.820 198.415  1.00  0.00     0.000 C 
ENDROOT
BRANCH   1   2
ATOM      2  C   UNL     1      88.926 326.197 199.039  1.00  0.00     0.000 C 
BRANCH   2   3
ATOM      3  C   UNL     1      89.731 326.517 200.313  1.00  0.00     0.000 C 
BRANCH   3   4
ATOM      4  C   UNL     1      90.496 325.300 200.860  1.00  0.00     0.000 C 
BRANCH   4   5
ATOM      5  C   UNL     1      91.654 325.704 201.789  1.00  0.00     0.000 C 
BRANCH   5   6
ATOM      6  C   UNL     1      91.512 327.143 202.313  1.00  0.00     0.000 C 
BRANCH   6   7
ATOM      7  C   UNL     1      91.184 327.207 203.816  1.00  0.00     0.006 C 
BRANCH   7   8
ATOM      8  C   UNL     1      89.677 327.240 204.127  1.00  0.00     0.053 C 
BRANCH   8   9
ATOM      9  C   UNL     1      89.197 325.991 204.803  1.00  0.00     0.041 C 
ATOM     10  O   UNL     1      89.773 324.892 204.592  1.00  0.00    -0.550 OA
ATOM     11  O   UNL     1      88.089 326.036 205.642  1.00  0.00    -0.550 OA
ENDBRANCH   8   9
ENDBRANCH   7   8
ENDBRANCH   6   7
ENDBRANCH   5   6
ENDBRANCH   4   5
ENDBRANCH   3   4
ENDBRANCH   2   3
ENDBRANCH   1   2
BRANCH   1  12
ATOM     12  C   UNL     1      88.939 324.777 196.901  1.00  0.00     0.000 C 
BRANCH  12  13
ATOM     13  C   UNL     1      88.583 326.164 196.325  1.00  0.00    -0.000 C 
BRANCH  13  14
ATOM     14  C   UNL     1      87.141 326.264 195.793  1.00  0.00    -0.000 C 
BRANCH  14  15
ATOM     15  C   UNL     1      87.023 326.519 194.279  1.00  0.00    -0.000 C 
BRANCH  15  16
ATOM     16  C   UNL     1      86.302 325.412 193.482  1.00  0.00    -0.000 C 
BRANCH  16  17
ATOM     17  C   UNL     1      86.895 324.002 193.647  1.00  0.00    -0.000 C 
BRANCH  17  18
ATOM     18  C   UNL     1      88.186 323.800 192.834  1.00  0.00    -0.000 C 
BRANCH  18  19
ATOM     19  C   UNL     1      88.088 324.390 191.418  1.00  0.00    -0.003 C 
ATOM     20  C   UNL     1      88.672 323.463 190.353  1.00  0.00     0.004 C 
ENDBRANCH  18  19
ENDBRANCH  17  18
ENDBRANCH  16  17
ENDBRANCH  15  16
ENDBRANCH  14  15
ENDBRANCH  13  14
ENDBRANCH  12  13
ENDBRANCH   1  12
TORSDOF 16
ENDMDL
MODEL 4
REMARK VINA RESULT:    -5.751      6.238      9.956
REMARK INTER + INTRA:         -12.068
REMARK INTER:                 -10.055
REMARK INTRA:                  -2.013
REMARK UNBOUND:                -0.938
REMARK SMILES CCCCCCCCCCCCCCCCCC(=O)[O-]
REMARK SMILES IDX 10 1 11 2 12 3 13 4 14 5 15 6 16 7 17 8 18 9 19 10 20 11
REMARK SMILES IDX 9 12 8 13 7 14 6 15 5 16 4 17 3 18 2 19 1 20
REMARK H PARENT
REMARK Flexibility Score: inf
ROOT
ATOM      1  C   UNL     1     105.691 311.686 193.474  1.00  0.00     0.000 C 
ENDROOT
BRANCH   1   2
ATOM      2  C   UNL     1     104.346 311.795 192.734  1.00  0.00     0.000 C 
BRANCH   2   3
ATOM      3  C   UNL     1     104.190 313.042 191.844  1.00  0.00     0.000 C 
BRANCH   3   4
ATOM      4  C   UNL     1     105.528 313.539 191.270  1.00  0.00     0.000 C 
BRANCH   4   5
ATOM      5  C   UNL     1     105.340 314.635 190.207  1.00  0.00     0.000 C 
BRANCH   5   6
ATOM      6  C   UNL     1     103.869 315.061 190.057  1.00  0.00     0.000 C 
BRANCH   6   7
ATOM      7  C   UNL     1     103.400 315.098 188.591  1.00  0.00     0.006 C 
BRANCH   7   8
ATOM      8  C   UNL     1     102.077 314.351 188.338  1.00  0.00     0.053 C 
BRANCH   8   9
ATOM      9  C   UNL     1     100.913 315.279 188.163  1.00  0.00     0.041 C 
ATOM     10  O   UNL     1     101.088 316.525 188.154  1.00  0.00    -0.550 OA
ATOM     11  O   UNL     1      99.627 314.764 188.043  1.00  0.00    -0.550 OA
ENDBRANCH   8   9
ENDBRANCH   7   8
ENDBRANCH   6   7
ENDBRANCH   5   6
ENDBRANCH   4   5
ENDBRANCH   3   4
ENDBRANCH   2   3
ENDBRANCH   1   2
BRANCH   1  12
ATOM     12  C   UNL     1     105.544 311.771 195.004  1.00  0.00     0.000 C 
BRANCH  12  13
ATOM     13  C   UNL     1     104.067 311.773 195.457  1.00  0.00    -0.000 C 
BRANCH  13  14
ATOM     14  C   UNL     1     103.880 311.499 196.962  1.00  0.00    -0.000 C 
BRANCH  14  15
ATOM     15  C   UNL     1     103.500 312.731 197.803  1.00  0.00    -0.000 C 
BRANCH  15  16
ATOM     16  C   UNL     1     102.991 313.944 196.997  1.00  0.00    -0.000 C 
BRANCH  16  17
ATOM     17  C   UNL     1     104.035 315.048 196.755  1.00  0.00    -0.000 C 
BRANCH  17  18
ATOM     18  C   UNL     1     103.910 315.691 195.363  1.00  0.00    -0.000 C 
BRANCH  18  19
ATOM     19  C   UNL     1     105.133 315.414 194.474  1.00  0.00    -0.003 C 
ATOM     20  C   UNL     1     105.435 316.564 193.514  1.00  0.00     0.004 C 
ENDBRANCH  18  19
ENDBRANCH  17  18
ENDBRANCH  16  17
ENDBRANCH  15  16
ENDBRANCH  14  15
ENDBRANCH  13  14
ENDBRANCH  12  13
ENDBRANCH   1  12
TORSDOF 16
ENDMDL
MODEL 5
REMARK VINA RESULT:    -5.729      1.337      2.160
REMARK INTER + INTRA:         -12.026
REMARK INTER:                 -10.464
REMARK INTRA:                  -1.563
REMARK UNBOUND:                -0.938
REMARK SMILES CCCCCCCCCCCCCCCCCC(=O)[O-]
REMARK SMILES IDX 10 1 11 2 12 3 13 4 14 5 15 6 16 7 17 8 18 9 19 10 20 11
REMARK SMILES IDX 9 12 8 13 7 14 6 15 5 16 4 17 3 18 2 19 1 20
REMARK H PARENT
REMARK Flexibility Score: inf
ROOT
ATOM      1  C   UNL     1     103.422 314.696 196.655  1.00  0.00     0.000 C 
ENDROOT
BRANCH   1   2
ATOM      2  C   UNL     1     104.201 314.988 197.951  1.00  0.00     0.000 C 
BRANCH   2   3
ATOM      3  C   UNL     1     103.645 314.305 199.214  1.00  0.00     0.000 C 
BRANCH   3   4
ATOM      4  C   UNL     1     102.729 313.111 198.895  1.00  0.00     0.000 C 
BRANCH   4   5
ATOM      5  C   UNL     1     103.353 311.766 199.308  1.00  0.00     0.000 C 
BRANCH   5   6
ATOM      6  C   UNL     1     104.397 311.922 200.427  1.00  0.00     0.000 C 
BRANCH   6   7
ATOM      7  C   UNL     1     103.919 311.360 201.778  1.00  0.00     0.006 C 
BRANCH   7   8
ATOM      8  C   UNL     1     104.243 312.263 202.982  1.00  0.00     0.053 C 
BRANCH   8   9
ATOM      9  C   UNL     1     104.154 311.537 204.291  1.00  0.00     0.041 C 
ATOM     10  O   UNL     1     105.048 311.688 205.164  1.00  0.00    -0.550 OA
ATOM     11  O   UNL     1     103.097 310.667 204.532  1.00  0.00    -0.550 OA
ENDBRANCH   8   9
ENDBRANCH   7   8
ENDBRANCH   6   7
ENDBRANCH   5   6
ENDBRANCH   4   5
ENDBRANCH   3   4
ENDBRANCH   2   3
ENDBRANCH   1   2
BRANCH   1  12
ATOM     12  C   UNL     1     104.277 313.991 195.587  1.00  0.00     0.000 C 
BRANCH  12  13
ATOM     13  C   UNL     1     103.984 312.477 195.498  1.00  0.00    -0.000 C 
BRANCH  13  14
ATOM     14  C   UNL     1     105.073 311.677 194.758  1.00  0.00    -0.000 C 
BRANCH  14  15
ATOM     15  C   UNL     1     104.987 311.731 193.221  1.00  0.00    -0.000 C 
BRANCH  15  16
ATOM     16  C   UNL     1     106.125 312.510 192.529  1.00  0.00    -0.000 C 
BRANCH  16  17
ATOM     17  C   UNL     1     105.668 313.501 191.445  1.00  0.00    -0.000 C 
BRANCH  17  18
ATOM     18  C   UNL     1     104.173 313.368 191.108  1.00  0.00    -0.000 C 
BRANCH  18  19
ATOM     19  C   UNL     1     103.459 314.727 191.049  1.00  0.00    -0.003 C 
ATOM     20  C   UNL     1     103.413 315.427 192.406  1.00  0.00     0.004 C 
ENDBRANCH  18  19
ENDBRANCH  17  18
ENDBRANCH  16  17
ENDBRANCH  15  16
ENDBRANCH  14  15
ENDBRANCH  13  14
ENDBRANCH  12  13
ENDBRANCH   1  12
TORSDOF 16
ENDMDL
MODEL 6
REMARK VINA RESULT:    -5.722     18.713     20.339
REMARK INTER + INTRA:         -12.012
REMARK INTER:                  -9.507
REMARK INTRA:                  -2.505
REMARK UNBOUND:                -0.938
REMARK SMILES CCCCCCCCCCCCCCCCCC(=O)[O-]
REMARK SMILES IDX 10 1 11 2 12 3 13 4 14 5 15 6 16 7 17 8 18 9 19 10 20 11
REMARK SMILES IDX 9 12 8 13 7 14 6 15 5 16 4 17 3 18 2 19 1 20
REMARK H PARENT
REMARK Flexibility Score: inf
ROOT
ATOM      1  C   UNL     1      87.760 325.029 192.497  1.00  0.00     0.000 C 
ENDROOT
BRANCH   1   2
ATOM      2  C   UNL     1      87.948 326.100 193.587  1.00  0.00     0.000 C 
BRANCH   2   3
ATOM      3  C   UNL     1      86.707 326.366 194.460  1.00  0.00     0.000 C 
BRANCH   3   4
ATOM      4  C   UNL     1      87.019 326.344 195.966  1.00  0.00     0.000 C 
BRANCH   4   5
ATOM      5  C   UNL     1      88.523 326.191 196.253  1.00  0.00     0.000 C 
BRANCH   5   6
ATOM      6  C   UNL     1      88.842 326.244 197.757  1.00  0.00     0.000 C 
BRANCH   6   7
ATOM      7  C   UNL     1      89.013 324.848 198.384  1.00  0.00     0.006 C 
BRANCH   7   8
ATOM      8  C   UNL     1      89.892 324.833 199.648  1.00  0.00     0.053 C 
BRANCH   8   9
ATOM      9  C   UNL     1      89.568 325.951 200.592  1.00  0.00     0.041 C 
ATOM     10  O   UNL     1      90.422 326.841 200.842  1.00  0.00    -0.550 OA
ATOM     11  O   UNL     1      88.331 325.989 201.225  1.00  0.00    -0.550 OA
ENDBRANCH   8   9
ENDBRANCH   7   8
ENDBRANCH   6   7
ENDBRANCH   5   6
ENDBRANCH   4   5
ENDBRANCH   3   4
ENDBRANCH   2   3
ENDBRANCH   1   2
BRANCH   1  12
ATOM     12  C   UNL     1      86.328 324.468 192.447  1.00  0.00     0.000 C 
BRANCH  12  13
ATOM     13  C   UNL     1      86.173 323.328 191.416  1.00  0.00    -0.000 C 
BRANCH  13  14
ATOM     14  C   UNL     1      87.481 322.973 190.683  1.00  0.00    -0.000 C 
BRANCH  14  15
ATOM     15  C   UNL     1      88.030 321.565 190.980  1.00  0.00    -0.000 C 
BRANCH  15  16
ATOM     16  C   UNL     1      89.043 321.489 192.141  1.00  0.00    -0.000 C 
BRANCH  16  17
ATOM     17  C   UNL     1      88.431 321.188 193.520  1.00  0.00    -0.000 C 
BRANCH  17  18
ATOM     18  C   UNL     1      88.823 322.225 194.585  1.00  0.00    -0.000 C 
BRANCH  18  19
ATOM     19  C   UNL     1      87.639 322.627 195.479  1.00  0.00    -0.003 C 
ATOM     20  C   UNL     1      86.377 321.818 195.183  1.00  0.00     0.004 C 
ENDBRANCH  18  19
ENDBRANCH  17  18
ENDBRANCH  16  17
ENDBRANCH  15  16
ENDBRANCH  14  15
ENDBRANCH  13  14
ENDBRANCH  12  13
ENDBRANCH   1  12
TORSDOF 16
ENDMDL
MODEL 7
REMARK VINA RESULT:    -5.720      5.101     11.221
REMARK INTER + INTRA:         -12.009
REMARK INTER:                 -11.011
REMARK INTRA:                  -0.998
REMARK UNBOUND:                -0.938
REMARK SMILES CCCCCCCCCCCCCCCCCC(=O)[O-]
REMARK SMILES IDX 10 1 11 2 12 3 13 4 14 5 15 6 16 7 17 8 18 9 19 10 20 11
REMARK SMILES IDX 9 12 8 13 7 14 6 15 5 16 4 17 3 18 2 19 1 20
REMARK H PARENT
REMARK Flexibility Score: inf
ROOT
ATOM      1  C   UNL     1     103.900 311.274 197.203  1.00  0.00     0.000 C 
ENDROOT
BRANCH   1   2
ATOM      2  C   UNL     1     103.621 312.656 196.585  1.00  0.00     0.000 C 
BRANCH   2   3
ATOM      3  C   UNL     1     104.018 312.801 195.104  1.00  0.00     0.000 C 
BRANCH   3   4
ATOM      4  C   UNL     1     103.930 311.475 194.328  1.00  0.00     0.000 C 
BRANCH   4   5
ATOM      5  C   UNL     1     104.309 311.636 192.846  1.00  0.00     0.000 C 
BRANCH   5   6
ATOM      6  C   UNL     1     105.486 312.606 192.643  1.00  0.00     0.000 C 
BRANCH   6   7
ATOM      7  C   UNL     1     105.300 313.532 191.427  1.00  0.00     0.006 C 
BRANCH   7   8
ATOM      8  C   UNL     1     103.838 313.671 190.964  1.00  0.00     0.053 C 
BRANCH   8   9
ATOM      9  C   UNL     1     103.678 314.642 189.834  1.00  0.00     0.041 C 
ATOM     10  O   UNL     1     104.416 315.658 189.759  1.00  0.00    -0.550 OA
ATOM     11  O   UNL     1     102.687 314.441 188.880  1.00  0.00    -0.550 OA
ENDBRANCH   8   9
ENDBRANCH   7   8
ENDBRANCH   6   7
ENDBRANCH   5   6
ENDBRANCH   4   5
ENDBRANCH   3   4
ENDBRANCH   2   3
ENDBRANCH   1   2
BRANCH   1  12
ATOM     12  C   UNL     1     103.513 311.192 198.690  1.00  0.00     0.000 C 
BRANCH  12  13
ATOM     13  C   UNL     1     103.273 312.583 199.317  1.00  0.00    -0.000 C 
BRANCH  13  14
ATOM     14  C   UNL     1     102.214 312.585 200.436  1.00  0.00    -0.000 C 
BRANCH  14  15
ATOM     15  C   UNL     1     102.030 311.237 201.159  1.00  0.00    -0.000 C 
BRANCH  15  16
ATOM     16  C   UNL     1     102.442 311.229 202.646  1.00  0.00    -0.000 C 
BRANCH  16  17
ATOM     17  C   UNL     1     103.864 310.713 202.923  1.00  0.00    -0.000 C 
BRANCH  17  18
ATOM     18  C   UNL     1     104.271 310.852 204.400  1.00  0.00    -0.000 C 
BRANCH  18  19
ATOM     19  C   UNL     1     103.071 311.144 205.316  1.00  0.00    -0.003 C 
ATOM     20  C   UNL     1     103.484 311.785 206.641  1.00  0.00     0.004 C 
ENDBRANCH  18  19
ENDBRANCH  17  18
ENDBRANCH  16  17
ENDBRANCH  15  16
ENDBRANCH  14  15
ENDBRANCH  13  14
ENDBRANCH  12  13
ENDBRANCH   1  12
TORSDOF 16
ENDMDL
MODEL 8
REMARK VINA RESULT:    -5.708      6.269     10.067
REMARK INTER + INTRA:         -11.985
REMARK INTER:                  -9.621
REMARK INTRA:                  -2.364
REMARK UNBOUND:                -0.938
REMARK SMILES CCCCCCCCCCCCCCCCCC(=O)[O-]
REMARK SMILES IDX 10 1 11 2 12 3 13 4 14 5 15 6 16 7 17 8 18 9 19 10 20 11
REMARK SMILES IDX 9 12 8 13 7 14 6 15 5 16 4 17 3 18 2 19 1 20
REMARK H PARENT
REMARK Flexibility Score: inf
ROOT
ATOM      1  C   UNL     1     104.229 313.180 191.464  1.00  0.00     0.000 C 
ENDROOT
BRANCH   1   2
ATOM      2  C   UNL     1     105.616 313.814 191.248  1.00  0.00     0.000 C 
BRANCH   2   3
ATOM      3  C   UNL     1     105.703 314.808 190.075  1.00  0.00     0.000 C 
BRANCH   3   4
ATOM      4  C   UNL     1     104.371 315.526 189.798  1.00  0.00     0.000 C 
BRANCH   4   5
ATOM      5  C   UNL     1     103.759 315.127 188.444  1.00  0.00     0.000 C 
BRANCH   5   6
ATOM      6  C   UNL     1     102.338 314.554 188.588  1.00  0.00     0.000 C 
BRANCH   6   7
ATOM      7  C   UNL     1     101.298 315.306 187.737  1.00  0.00     0.006 C 
BRANCH   7   8
ATOM      8  C   UNL     1     101.184 316.805 188.070  1.00  0.00     0.053 C 
BRANCH   8   9
ATOM      9  C   UNL     1     100.520 317.057 189.390  1.00  0.00     0.041 C 
ATOM     10  O   UNL     1     101.191 317.471 190.371  1.00  0.00    -0.550 OA
ATOM     11  O   UNL     1      99.162 316.800 189.545  1.00  0.00    -0.550 OA
ENDBRANCH   8   9
ENDBRANCH   7   8
ENDBRANCH   6   7
ENDBRANCH   5   6
ENDBRANCH   4   5
ENDBRANCH   3   4
ENDBRANCH   2   3
ENDBRANCH   1   2
BRANCH   1  12
ATOM     12  C   UNL     1     104.237 312.067 192.527  1.00  0.00     0.000 C 
BRANCH  12  13
ATOM     13  C   UNL     1     105.630 311.866 193.164  1.00  0.00    -0.000 C 
BRANCH  13  14
ATOM     14  C   UNL     1     105.614 311.864 194.704  1.00  0.00    -0.000 C 
BRANCH  14  15
ATOM     15  C   UNL     1     104.213 311.939 195.339  1.00  0.00    -0.000 C 
BRANCH  15  16
ATOM     16  C   UNL     1     103.902 313.250 196.089  1.00  0.00    -0.000 C 
BRANCH  16  17
ATOM     17  C   UNL     1     103.527 314.440 195.189  1.00  0.00    -0.000 C 
BRANCH  17  18
ATOM     18  C   UNL     1     104.696 315.417 194.976  1.00  0.00    -0.000 C 
BRANCH  18  19
ATOM     19  C   UNL     1     104.565 316.215 193.668  1.00  0.00    -0.003 C 
ATOM     20  C   UNL     1     103.116 316.341 193.199  1.00  0.00     0.004 C 
ENDBRANCH  18  19
ENDBRANCH  17  18
ENDBRANCH  16  17
ENDBRANCH  15  16
ENDBRANCH  14  15
ENDBRANCH  13  14
ENDBRANCH  12  13
ENDBRANCH   1  12
TORSDOF 16
ENDMDL
MODEL 9
REMARK VINA RESULT:    -5.678      1.813      3.594
REMARK INTER + INTRA:         -11.927
REMARK INTER:                 -10.095
REMARK INTRA:                  -1.831
REMARK UNBOUND:                -0.938
REMARK SMILES CCCCCCCCCCCCCCCCCC(=O)[O-]
REMARK SMILES IDX 10 1 11 2 12 3 13 4 14 5 15 6 16 7 17 8 18 9 19 10 20 11
REMARK SMILES IDX 9 12 8 13 7 14 6 15 5 16 4 17 3 18 2 19 1 20
REMARK H PARENT
REMARK Flexibility Score: inf
ROOT
ATOM      1  C   UNL     1     105.581 312.147 192.830  1.00  0.00     0.000 C 
ENDROOT
BRANCH   1   2
ATOM      2  C   UNL     1     105.450 312.171 194.364  1.00  0.00     0.000 C 
BRANCH   2   3
ATOM      3  C   UNL     1     104.041 311.858 194.903  1.00  0.00     0.000 C 
BRANCH   3   4
ATOM      4  C   UNL     1     103.764 312.510 196.268  1.00  0.00     0.000 C 
BRANCH   4   5
ATOM      5  C   UNL     1     103.798 311.493 197.422  1.00  0.00     0.000 C 
BRANCH   5   6
ATOM      6  C   UNL     1     103.652 312.163 198.799  1.00  0.00     0.000 C 
BRANCH   6   7
ATOM      7  C   UNL     1     102.962 311.260 199.837  1.00  0.00     0.006 C 
BRANCH   7   8
ATOM      8  C   UNL     1     103.281 311.627 201.298  1.00  0.00     0.053 C 
BRANCH   8   9
ATOM      9  C   UNL     1     102.364 310.959 202.277  1.00  0.00     0.041 C 
ATOM     10  O   UNL     1     101.118 310.970 202.092  1.00  0.00    -0.550 OA
ATOM     11  O   UNL     1     102.884 310.353 203.415  1.00  0.00    -0.550 OA
ENDBRANCH   8   9
ENDBRANCH   7   8
ENDBRANCH   6   7
ENDBRANCH   5   6
ENDBRANCH   4   5
ENDBRANCH   3   4
ENDBRANCH   2   3
ENDBRANCH   1   2
BRANCH   1  12
ATOM     12  C   UNL     1     104.244 312.397 192.109  1.00  0.00     0.000 C 
BRANCH  12  13
ATOM     13  C   UNL     1     104.345 313.511 191.045  1.00  0.00    -0.000 C 
BRANCH  13  14
ATOM     14  C   UNL     1     105.719 314.205 191.000  1.00  0.00    -0.000 C 
BRANCH  14  15
ATOM     15  C   UNL     1     105.711 315.625 190.403  1.00  0.00    -0.000 C 
BRANCH  15  16
ATOM     16  C   UNL     1     104.409 316.421 190.625  1.00  0.00    -0.000 C 
BRANCH  16  17
ATOM     17  C   UNL     1     104.213 316.961 192.053  1.00  0.00    -0.000 C 
BRANCH  17  18
ATOM     18  C   UNL     1     103.088 316.240 192.814  1.00  0.00    -0.000 C 
BRANCH  18  19
ATOM     19  C   UNL     1     103.541 315.731 194.191  1.00  0.00    -0.003 C 
ATOM     20  C   UNL     1     105.060 315.762 194.360  1.00  0.00     0.004 C 
ENDBRANCH  18  19
ENDBRANCH  17  18
ENDBRANCH  16  17
ENDBRANCH  15  16
ENDBRANCH  14  15
ENDBRANCH  13  14
ENDBRANCH  12  13
ENDBRANCH   1  12
TORSDOF 16
ENDMDL
