MODEL 1
REMARK VINA RESULT:    -6.195      0.000      0.000
REMARK INTER + INTRA:          -7.452
REMARK INTER:                  -7.282
REMARK INTRA:                  -0.170
REMARK UNBOUND:                -0.170
REMARK SMILES O=c1c(O)c(-c2ccc(O)cc2)oc2cc(O)cc(O)c12
REMARK SMILES IDX 5 1 3 2 2 3 1 4 21 5 19 6 18 7 16 8 15 9 14 10 13 11 6 12
REMARK SMILES IDX 7 13 8 14 9 15 12 16 11 17 10 18 4 20 20 22 17 24
REMARK H PARENT 10 19 4 21 20 23 17 25
REMARK Flexibility Score: inf
ROOT
ATOM      1  C   UNL     1      26.776  25.615 -12.788  1.00  0.00     0.180 A 
ATOM      2  C   UNL     1      26.402  25.859 -14.120  1.00  0.00     0.208 A 
ATOM      3  C   UNL     1      26.242  27.187 -14.550  1.00  0.00     0.238 A 
ATOM      4  O   UNL     1      25.854  27.398 -15.729  1.00  0.00    -0.285 OA
ATOM      5  C   UNL     1      26.476  28.253 -13.647  1.00  0.00     0.111 A 
ATOM      6  C   UNL     1      26.382  29.636 -13.986  1.00  0.00     0.134 A 
ATOM      7  C   UNL     1      26.506  30.603 -12.980  1.00  0.00     0.093 A 
ATOM      8  C   UNL     1      26.784  30.240 -11.663  1.00  0.00     0.123 A 
ATOM      9  C   UNL     1      26.935  28.893 -11.332  1.00  0.00     0.094 A 
ATOM     10  C   UNL     1      26.782  27.904 -12.306  1.00  0.00     0.146 A 
ATOM     11  O   UNL     1      26.924  26.634 -11.948  1.00  0.00    -0.452 OA
ENDROOT
BRANCH   1  12
ATOM     12  C   UNL     1      26.988  24.244 -12.268  1.00  0.00     0.021 A 
ATOM     13  C   UNL     1      26.165  23.760 -11.237  1.00  0.00     0.016 A 
ATOM     14  C   UNL     1      26.361  22.479 -10.717  1.00  0.00     0.047 A 
ATOM     15  C   UNL     1      27.395  21.670 -11.208  1.00  0.00     0.115 A 
ATOM     16  C   UNL     1      28.037  23.434 -12.742  1.00  0.00     0.016 A 
ATOM     17  C   UNL     1      28.232  22.153 -12.219  1.00  0.00     0.047 A 
BRANCH  15  18
ATOM     18  O   UNL     1      27.600  20.391 -10.697  1.00  0.00    -0.508 OA
ATOM     19  H   UNL     1      28.524  19.976 -10.665  1.00  0.00     0.293 HD
ENDBRANCH  15  18
ENDBRANCH   1  12
BRANCH   2  20
ATOM     20  O   UNL     1      26.155  24.792 -14.988  1.00  0.00    -0.502 OA
ATOM     21  H   UNL     1      25.298  24.713 -15.522  1.00  0.00     0.293 HD
ENDBRANCH   2  20
BRANCH   6  22
ATOM     22  O   UNL     1      26.199  30.110 -15.288  1.00  0.00    -0.507 OA
ATOM     23  H   UNL     1      26.798  30.779 -15.746  1.00  0.00     0.293 HD
ENDBRANCH   6  22
BRANCH   8  24
ATOM     24  O   UNL     1      26.916  31.229 -10.691  1.00  0.00    -0.508 OA
ATOM     25  H   UNL     1      26.143  31.487 -10.087  1.00  0.00     0.293 HD
ENDBRANCH   8  24
TORSDOF 5
ENDMDL
MODEL 2
REMARK VINA RESULT:    -6.179      5.301      6.798
REMARK INTER + INTRA:          -7.433
REMARK INTER:                  -7.182
REMARK INTRA:                  -0.251
REMARK UNBOUND:                -0.170
REMARK SMILES O=c1c(O)c(-c2ccc(O)cc2)oc2cc(O)cc(O)c12
REMARK SMILES IDX 5 1 3 2 2 3 1 4 21 5 19 6 18 7 16 8 15 9 14 10 13 11 6 12
REMARK SMILES IDX 7 13 8 14 9 15 12 16 11 17 10 18 4 20 20 22 17 24
REMARK H PARENT 10 19 4 21 20 23 17 25
REMARK Flexibility Score: inf
ROOT
ATOM      1  C   UNL     1      24.241  30.744 -11.543  1.00  0.00     0.180 A 
ATOM      2  C   UNL     1      24.077  30.886 -12.931  1.00  0.00     0.208 A 
ATOM      3  C   UNL     1      25.205  30.804 -13.762  1.00  0.00     0.238 A 
ATOM      4  O   UNL     1      25.060  30.987 -15.000  1.00  0.00    -0.285 OA
ATOM      5  C   UNL     1      26.481  30.565 -13.196  1.00  0.00     0.111 A 
ATOM      6  C   UNL     1      27.687  30.424 -13.947  1.00  0.00     0.134 A 
ATOM      7  C   UNL     1      28.911  30.319 -13.274  1.00  0.00     0.093 A 
ATOM      8  C   UNL     1      28.967  30.286 -11.882  1.00  0.00     0.123 A 
ATOM      9  C   UNL     1      27.788  30.364 -11.139  1.00  0.00     0.094 A 
ATOM     10  C   UNL     1      26.555  30.505 -11.780  1.00  0.00     0.146 A 
ATOM     11  O   UNL     1      25.459  30.586 -11.036  1.00  0.00    -0.452 OA
ENDROOT
BRANCH   1  12
ATOM     12  C   UNL     1      23.096  30.794 -10.604  1.00  0.00     0.021 A 
ATOM     13  C   UNL     1      22.542  29.594 -10.125  1.00  0.00     0.016 A 
ATOM     14  C   UNL     1      21.447  29.617  -9.257  1.00  0.00     0.047 A 
ATOM     15  C   UNL     1      20.881  30.839  -8.869  1.00  0.00     0.115 A 
ATOM     16  C   UNL     1      22.510  32.016 -10.227  1.00  0.00     0.016 A 
ATOM     17  C   UNL     1      21.414  32.036  -9.359  1.00  0.00     0.047 A 
BRANCH  15  18
ATOM     18  O   UNL     1      19.790  30.875  -8.004  1.00  0.00    -0.508 OA
ATOM     19  H   UNL     1      19.287  31.736  -7.823  1.00  0.00     0.293 HD
ENDBRANCH  15  18
ENDBRANCH   1  12
BRANCH   2  20
ATOM     20  O   UNL     1      22.812  31.144 -13.466  1.00  0.00    -0.502 OA
ATOM     21  H   UNL     1      22.329  32.024 -13.322  1.00  0.00     0.293 HD
ENDBRANCH   2  20
BRANCH   6  22
ATOM     22  O   UNL     1      27.734  30.351 -15.342  1.00  0.00    -0.507 OA
ATOM     23  H   UNL     1      27.937  31.128 -15.952  1.00  0.00     0.293 HD
ENDBRANCH   6  22
BRANCH   8  24
ATOM     24  O   UNL     1      30.201  30.166 -11.246  1.00  0.00    -0.508 OA
ATOM     25  H   UNL     1      30.317  29.596 -10.415  1.00  0.00     0.293 HD
ENDBRANCH   8  24
TORSDOF 5
ENDMDL
MODEL 3
REMARK VINA RESULT:    -5.648      5.070      6.523
REMARK INTER + INTRA:          -6.809
REMARK INTER:                  -6.517
REMARK INTRA:                  -0.292
REMARK UNBOUND:                -0.170
REMARK SMILES O=c1c(O)c(-c2ccc(O)cc2)oc2cc(O)cc(O)c12
REMARK SMILES IDX 5 1 3 2 2 3 1 4 21 5 19 6 18 7 16 8 15 9 14 10 13 11 6 12
REMARK SMILES IDX 7 13 8 14 9 15 12 16 11 17 10 18 4 20 20 22 17 24
REMARK H PARENT 10 19 4 21 20 23 17 25
REMARK Flexibility Score: inf
ROOT
ATOM      1  C   UNL     1      24.548  30.085 -13.707  1.00  0.00     0.180 A 
ATOM      2  C   UNL     1      25.567  30.232 -14.663  1.00  0.00     0.208 A 
ATOM      3  C   UNL     1      26.904  30.268 -14.234  1.00  0.00     0.238 A 
ATOM      4  O   UNL     1      27.809  30.454 -15.089  1.00  0.00    -0.285 OA
ATOM      5  C   UNL     1      27.205  30.139 -12.856  1.00  0.00     0.111 A 
ATOM      6  C   UNL     1      28.526  30.122 -12.314  1.00  0.00     0.134 A 
ATOM      7  C   UNL     1      28.701  30.122 -10.925  1.00  0.00     0.093 A 
ATOM      8  C   UNL     1      27.608  30.073 -10.061  1.00  0.00     0.123 A 
ATOM      9  C   UNL     1      26.315  30.030 -10.581  1.00  0.00     0.094 A 
ATOM     10  C   UNL     1      26.106  30.066 -11.962  1.00  0.00     0.146 A 
ATOM     11  O   UNL     1      24.859  30.034 -12.416  1.00  0.00    -0.452 OA
ENDROOT
BRANCH   1  12
ATOM     12  C   UNL     1      23.117  30.014 -14.084  1.00  0.00     0.021 A 
ATOM     13  C   UNL     1      22.318  31.166 -13.986  1.00  0.00     0.016 A 
ATOM     14  C   UNL     1      20.961  31.116 -14.316  1.00  0.00     0.047 A 
ATOM     15  C   UNL     1      20.381  29.910 -14.732  1.00  0.00     0.115 A 
ATOM     16  C   UNL     1      22.524  28.802 -14.483  1.00  0.00     0.016 A 
ATOM     17  C   UNL     1      21.166  28.755 -14.811  1.00  0.00     0.047 A 
BRANCH  15  18
ATOM     18  O   UNL     1      19.030  29.847 -15.063  1.00  0.00    -0.508 OA
ATOM     19  H   UNL     1      18.639  29.044 -15.542  1.00  0.00     0.293 HD
ENDBRANCH  15  18
ENDBRANCH   1  12
BRANCH   2  20
ATOM     20  O   UNL     1      25.246  30.379 -16.015  1.00  0.00    -0.502 OA
ATOM     21  H   UNL     1      25.812  30.927 -16.652  1.00  0.00     0.293 HD
ENDBRANCH   2  20
BRANCH   6  22
ATOM     22  O   UNL     1      29.687  30.075 -13.090  1.00  0.00    -0.507 OA
ATOM     23  H   UNL     1      30.495  30.663 -12.952  1.00  0.00     0.293 HD
ENDBRANCH   6  22
BRANCH   8  24
ATOM     24  O   UNL     1      27.820  30.059  -8.684  1.00  0.00    -0.508 OA
ATOM     25  H   UNL     1      28.702  29.757  -8.286  1.00  0.00     0.293 HD
ENDBRANCH   8  24
TORSDOF 5
ENDMDL
MODEL 4
REMARK VINA RESULT:    -5.536      4.710      6.655
REMARK INTER + INTRA:          -6.677
REMARK INTER:                  -6.391
REMARK INTRA:                  -0.286
REMARK UNBOUND:                -0.170
REMARK SMILES O=c1c(O)c(-c2ccc(O)cc2)oc2cc(O)cc(O)c12
REMARK SMILES IDX 5 1 3 2 2 3 1 4 21 5 19 6 18 7 16 8 15 9 14 10 13 11 6 12
REMARK SMILES IDX 7 13 8 14 9 15 12 16 11 17 10 18 4 20 20 22 17 24
REMARK H PARENT 10 19 4 21 20 23 17 25
REMARK Flexibility Score: inf
ROOT
ATOM      1  C   UNL     1      25.430  30.053 -13.682  1.00  0.00     0.180 A 
ATOM      2  C   UNL     1      24.632  31.178 -13.949  1.00  0.00     0.208 A 
ATOM      3  C   UNL     1      23.391  30.998 -14.581  1.00  0.00     0.238 A 
ATOM      4  O   UNL     1      22.705  32.014 -14.868  1.00  0.00    -0.285 OA
ATOM      5  C   UNL     1      22.958  29.694 -14.923  1.00  0.00     0.111 A 
ATOM      6  C   UNL     1      21.702  29.391 -15.531  1.00  0.00     0.134 A 
ATOM      7  C   UNL     1      21.434  28.080 -15.944  1.00  0.00     0.093 A 
ATOM      8  C   UNL     1      22.346  27.051 -15.714  1.00  0.00     0.123 A 
ATOM      9  C   UNL     1      23.551  27.326 -15.068  1.00  0.00     0.094 A 
ATOM     10  C   UNL     1      23.864  28.630 -14.676  1.00  0.00     0.146 A 
ATOM     11  O   UNL     1      25.026  28.850 -14.074  1.00  0.00    -0.452 OA
ENDROOT
BRANCH   1  12
ATOM     12  C   UNL     1      26.739  30.161 -12.996  1.00  0.00     0.021 A 
ATOM     13  C   UNL     1      27.900  30.395 -13.752  1.00  0.00     0.016 A 
ATOM     14  C   UNL     1      29.147  30.478 -13.128  1.00  0.00     0.047 A 
ATOM     15  C   UNL     1      29.253  30.311 -11.741  1.00  0.00     0.115 A 
ATOM     16  C   UNL     1      26.856  29.974 -11.606  1.00  0.00     0.016 A 
ATOM     17  C   UNL     1      28.105  30.057 -10.984  1.00  0.00     0.047 A 
BRANCH  15  18
ATOM     18  O   UNL     1      30.490  30.392 -11.107  1.00  0.00    -0.508 OA
ATOM     19  H   UNL     1      31.125  31.162 -11.282  1.00  0.00     0.293 HD
ENDBRANCH  15  18
ENDBRANCH   1  12
BRANCH   2  20
ATOM     20  O   UNL     1      25.089  32.458 -13.623  1.00  0.00    -0.502 OA
ATOM     21  H   UNL     1      25.673  33.002 -14.248  1.00  0.00     0.293 HD
ENDBRANCH   2  20
BRANCH   6  22
ATOM     22  O   UNL     1      20.682  30.327 -15.723  1.00  0.00    -0.507 OA
ATOM     23  H   UNL     1      20.300  30.917 -15.001  1.00  0.00     0.293 HD
ENDBRANCH   6  22
BRANCH   8  24
ATOM     24  O   UNL     1      22.039  25.756 -16.125  1.00  0.00    -0.508 OA
ATOM     25  H   UNL     1      21.847  25.018 -15.457  1.00  0.00     0.293 HD
ENDBRANCH   8  24
TORSDOF 5
ENDMDL
MODEL 5
REMARK VINA RESULT:    -5.530      2.084      6.480
REMARK INTER + INTRA:          -6.671
REMARK INTER:                  -6.383
REMARK INTRA:                  -0.288
REMARK UNBOUND:                -0.170
REMARK SMILES O=c1c(O)c(-c2ccc(O)cc2)oc2cc(O)cc(O)c12
REMARK SMILES IDX 5 1 3 2 2 3 1 4 21 5 19 6 18 7 16 8 15 9 14 10 13 11 6 12
REMARK SMILES IDX 7 13 8 14 9 15 12 16 11 17 10 18 4 20 20 22 17 24
REMARK H PARENT 10 19 4 21 20 23 17 25
REMARK Flexibility Score: inf
ROOT
ATOM      1  C   UNL     1      26.411  26.930 -12.359  1.00  0.00     0.180 A 
ATOM      2  C   UNL     1      26.980  25.802 -12.974  1.00  0.00     0.208 A 
ATOM      3  C   UNL     1      26.962  24.574 -12.293  1.00  0.00     0.238 A 
ATOM      4  O   UNL     1      27.521  23.579 -12.824  1.00  0.00    -0.285 OA
ATOM      5  C   UNL     1      26.360  24.487 -11.013  1.00  0.00     0.111 A 
ATOM      6  C   UNL     1      26.249  23.285 -10.250  1.00  0.00     0.134 A 
ATOM      7  C   UNL     1      25.752  23.342  -8.942  1.00  0.00     0.093 A 
ATOM      8  C   UNL     1      25.302  24.542  -8.394  1.00  0.00     0.123 A 
ATOM      9  C   UNL     1      25.351  25.712  -9.153  1.00  0.00     0.094 A 
ATOM     10  C   UNL     1      25.875  25.695 -10.448  1.00  0.00     0.146 A 
ATOM     11  O   UNL     1      25.913  26.831 -11.131  1.00  0.00    -0.452 OA
ENDROOT
BRANCH   1  12
ATOM     12  C   UNL     1      26.371  28.253 -13.025  1.00  0.00     0.021 A 
ATOM     13  C   UNL     1      25.304  28.561 -13.887  1.00  0.00     0.016 A 
ATOM     14  C   UNL     1      25.258  29.795 -14.542  1.00  0.00     0.047 A 
ATOM     15  C   UNL     1      26.284  30.730 -14.357  1.00  0.00     0.115 A 
ATOM     16  C   UNL     1      27.408  29.189 -12.860  1.00  0.00     0.016 A 
ATOM     17  C   UNL     1      27.359  30.422 -13.517  1.00  0.00     0.047 A 
BRANCH  15  18
ATOM     18  O   UNL     1      26.249  31.962 -15.005  1.00  0.00    -0.508 OA
ATOM     19  H   UNL     1      25.992  32.811 -14.514  1.00  0.00     0.293 HD
ENDBRANCH  15  18
ENDBRANCH   1  12
BRANCH   2  20
ATOM     20  O   UNL     1      27.588  25.915 -14.227  1.00  0.00    -0.502 OA
ATOM     21  H   UNL     1      28.515  26.306 -14.348  1.00  0.00     0.293 HD
ENDBRANCH   2  20
BRANCH   6  22
ATOM     22  O   UNL     1      26.584  22.019 -10.737  1.00  0.00    -0.507 OA
ATOM     23  H   UNL     1      27.509  21.620 -10.714  1.00  0.00     0.293 HD
ENDBRANCH   6  22
BRANCH   8  24
ATOM     24  O   UNL     1      24.800  24.558  -7.095  1.00  0.00    -0.508 OA
ATOM     25  H   UNL     1      24.995  25.324  -6.460  1.00  0.00     0.293 HD
ENDBRANCH   8  24
TORSDOF 5
ENDMDL
MODEL 6
REMARK VINA RESULT:    -5.370      1.555      3.002
REMARK INTER + INTRA:          -6.483
REMARK INTER:                  -6.194
REMARK INTRA:                  -0.288
REMARK UNBOUND:                -0.170
REMARK SMILES O=c1c(O)c(-c2ccc(O)cc2)oc2cc(O)cc(O)c12
REMARK SMILES IDX 5 1 3 2 2 3 1 4 21 5 19 6 18 7 16 8 15 9 14 10 13 11 6 12
REMARK SMILES IDX 7 13 8 14 9 15 12 16 11 17 10 18 4 20 20 22 17 24
REMARK H PARENT 10 19 4 21 20 23 17 25
REMARK Flexibility Score: inf
ROOT
ATOM      1  C   UNL     1      26.270  25.918 -12.013  1.00  0.00     0.180 A 
ATOM      2  C   UNL     1      26.164  26.506 -10.741  1.00  0.00     0.208 A 
ATOM      3  C   UNL     1      26.203  27.905 -10.632  1.00  0.00     0.238 A 
ATOM      4  O   UNL     1      26.163  28.425  -9.486  1.00  0.00    -0.285 OA
ATOM      5  C   UNL     1      26.330  28.699 -11.798  1.00  0.00     0.111 A 
ATOM      6  C   UNL     1      26.340  30.127 -11.809  1.00  0.00     0.134 A 
ATOM      7  C   UNL     1      26.602  30.806 -13.005  1.00  0.00     0.093 A 
ATOM      8  C   UNL     1      26.790  30.113 -14.200  1.00  0.00     0.123 A 
ATOM      9  C   UNL     1      26.723  28.720 -14.211  1.00  0.00     0.094 A 
ATOM     10  C   UNL     1      26.499  28.012 -13.028  1.00  0.00     0.146 A 
ATOM     11  O   UNL     1      26.454  26.687 -13.080  1.00  0.00    -0.452 OA
ENDROOT
BRANCH   1  12
ATOM     12  C   UNL     1      26.212  24.451 -12.210  1.00  0.00     0.021 A 
ATOM     13  C   UNL     1      24.969  23.828 -12.409  1.00  0.00     0.016 A 
ATOM     14  C   UNL     1      24.889  22.443 -12.575  1.00  0.00     0.047 A 
ATOM     15  C   UNL     1      26.050  21.660 -12.528  1.00  0.00     0.115 A 
ATOM     16  C   UNL     1      27.372  23.656 -12.143  1.00  0.00     0.016 A 
ATOM     17  C   UNL     1      27.289  22.271 -12.309  1.00  0.00     0.047 A 
BRANCH  15  18
ATOM     18  O   UNL     1      25.984  20.279 -12.692  1.00  0.00    -0.508 OA
ATOM     19  H   UNL     1      25.896  19.655 -11.898  1.00  0.00     0.293 HD
ENDBRANCH  15  18
ENDBRANCH   1  12
BRANCH   2  20
ATOM     20  O   UNL     1      26.062  25.703  -9.602  1.00  0.00    -0.502 OA
ATOM     21  H   UNL     1      26.618  24.865  -9.475  1.00  0.00     0.293 HD
ENDBRANCH   2  20
BRANCH   6  22
ATOM     22  O   UNL     1      26.072  30.917 -10.688  1.00  0.00    -0.507 OA
ATOM     23  H   UNL     1      25.821  31.893 -10.719  1.00  0.00     0.293 HD
ENDBRANCH   6  22
BRANCH   8  24
ATOM     24  O   UNL     1      27.034  30.822 -15.375  1.00  0.00    -0.508 OA
ATOM     25  H   UNL     1      27.816  31.461 -15.456  1.00  0.00     0.293 HD
ENDBRANCH   8  24
TORSDOF 5
ENDMDL
MODEL 7
REMARK VINA RESULT:    -5.341      4.946      6.240
REMARK INTER + INTRA:          -6.448
REMARK INTER:                  -6.583
REMARK INTRA:                   0.135
REMARK UNBOUND:                -0.170
REMARK SMILES O=c1c(O)c(-c2ccc(O)cc2)oc2cc(O)cc(O)c12
REMARK SMILES IDX 5 1 3 2 2 3 1 4 21 5 19 6 18 7 16 8 15 9 14 10 13 11 6 12
REMARK SMILES IDX 7 13 8 14 9 15 12 16 11 17 10 18 4 20 20 22 17 24
REMARK H PARENT 10 19 4 21 20 23 17 25
REMARK Flexibility Score: inf
ROOT
ATOM      1  C   UNL     1      25.057  30.188 -13.289  1.00  0.00     0.180 A 
ATOM      2  C   UNL     1      24.707  29.730 -14.571  1.00  0.00     0.208 A 
ATOM      3  C   UNL     1      23.365  29.804 -14.977  1.00  0.00     0.238 A 
ATOM      4  O   UNL     1      23.047  29.342 -16.104  1.00  0.00    -0.285 OA
ATOM      5  C   UNL     1      22.393  30.351 -14.103  1.00  0.00     0.111 A 
ATOM      6  C   UNL     1      21.012  30.510 -14.426  1.00  0.00     0.134 A 
ATOM      7  C   UNL     1      20.118  30.941 -13.438  1.00  0.00     0.093 A 
ATOM      8  C   UNL     1      20.563  31.279 -12.161  1.00  0.00     0.123 A 
ATOM      9  C   UNL     1      21.921  31.182 -11.852  1.00  0.00     0.094 A 
ATOM     10  C   UNL     1      22.832  30.721 -12.806  1.00  0.00     0.146 A 
ATOM     11  O   UNL     1      24.113  30.634 -12.468  1.00  0.00    -0.452 OA
ENDROOT
BRANCH   1  12
ATOM     12  C   UNL     1      26.455  30.165 -12.800  1.00  0.00     0.021 A 
ATOM     13  C   UNL     1      26.712  29.848 -11.455  1.00  0.00     0.016 A 
ATOM     14  C   UNL     1      28.021  29.843 -10.967  1.00  0.00     0.047 A 
ATOM     15  C   UNL     1      29.090  30.171 -11.812  1.00  0.00     0.115 A 
ATOM     16  C   UNL     1      27.531  30.513 -13.637  1.00  0.00     0.016 A 
ATOM     17  C   UNL     1      28.839  30.508 -13.146  1.00  0.00     0.047 A 
BRANCH  15  18
ATOM     18  O   UNL     1      30.399  30.169 -11.337  1.00  0.00    -0.508 OA
ATOM     19  H   UNL     1      31.162  30.544 -11.887  1.00  0.00     0.293 HD
ENDBRANCH  15  18
ENDBRANCH   1  12
BRANCH   2  20
ATOM     20  O   UNL     1      25.677  29.174 -15.408  1.00  0.00    -0.502 OA
ATOM     21  H   UNL     1      26.476  28.662 -15.051  1.00  0.00     0.293 HD
ENDBRANCH   2  20
BRANCH   6  22
ATOM     22  O   UNL     1      20.477  30.290 -15.698  1.00  0.00    -0.507 OA
ATOM     23  H   UNL     1      19.984  30.980 -16.242  1.00  0.00     0.293 HD
ENDBRANCH   6  22
BRANCH   8  24
ATOM     24  O   UNL     1      19.648  31.718 -11.207  1.00  0.00    -0.508 OA
ATOM     25  H   UNL     1      19.151  31.068 -10.609  1.00  0.00     0.293 HD
ENDBRANCH   8  24
TORSDOF 5
ENDMDL
MODEL 8
REMARK VINA RESULT:    -5.332     15.003     17.046
REMARK INTER + INTRA:          -6.437
REMARK INTER:                  -6.147
REMARK INTRA:                  -0.290
REMARK UNBOUND:                -0.170
REMARK SMILES O=c1c(O)c(-c2ccc(O)cc2)oc2cc(O)cc(O)c12
REMARK SMILES IDX 5 1 3 2 2 3 1 4 21 5 19 6 18 7 16 8 15 9 14 10 13 11 6 12
REMARK SMILES IDX 7 13 8 14 9 15 12 16 11 17 10 18 4 20 20 22 17 24
REMARK H PARENT 10 19 4 21 20 23 17 25
REMARK Flexibility Score: inf
ROOT
ATOM      1  C   UNL     1      21.627  19.196   0.936  1.00  0.00     0.180 A 
ATOM      2  C   UNL     1      22.477  19.581   1.987  1.00  0.00     0.208 A 
ATOM      3  C   UNL     1      23.843  19.265   1.909  1.00  0.00     0.238 A 
ATOM      4  O   UNL     1      24.590  19.564   2.878  1.00  0.00    -0.285 OA
ATOM      5  C   UNL     1      24.344  18.582   0.774  1.00  0.00     0.111 A 
ATOM      6  C   UNL     1      25.716  18.245   0.572  1.00  0.00     0.134 A 
ATOM      7  C   UNL     1      26.078  17.455  -0.526  1.00  0.00     0.093 A 
ATOM      8  C   UNL     1      25.130  17.043  -1.462  1.00  0.00     0.123 A 
ATOM      9  C   UNL     1      23.795  17.416  -1.305  1.00  0.00     0.094 A 
ATOM     10  C   UNL     1      23.396  18.174  -0.201  1.00  0.00     0.146 A 
ATOM     11  O   UNL     1      22.115  18.499  -0.084  1.00  0.00    -0.452 OA
ENDROOT
BRANCH   1  12
ATOM     12  C   UNL     1      20.180  19.516   0.935  1.00  0.00     0.021 A 
ATOM     13  C   UNL     1      19.273  18.618   1.522  1.00  0.00     0.016 A 
ATOM     14  C   UNL     1      17.902  18.889   1.512  1.00  0.00     0.047 A 
ATOM     15  C   UNL     1      17.419  20.054   0.902  1.00  0.00     0.115 A 
ATOM     16  C   UNL     1      19.686  20.673   0.306  1.00  0.00     0.016 A 
ATOM     17  C   UNL     1      18.314  20.942   0.298  1.00  0.00     0.047 A 
BRANCH  15  18
ATOM     18  O   UNL     1      16.055  20.335   0.886  1.00  0.00    -0.508 OA
ATOM     19  H   UNL     1      15.701  21.254   1.125  1.00  0.00     0.293 HD
ENDBRANCH  15  18
ENDBRANCH   1  12
BRANCH   2  20
ATOM     20  O   UNL     1      21.957  20.235   3.108  1.00  0.00    -0.502 OA
ATOM     21  H   UNL     1      21.533  21.154   3.053  1.00  0.00     0.293 HD
ENDBRANCH   2  20
BRANCH   6  22
ATOM     22  O   UNL     1      26.756  18.683   1.395  1.00  0.00    -0.507 OA
ATOM     23  H   UNL     1      27.645  19.027   1.066  1.00  0.00     0.293 HD
ENDBRANCH   6  22
BRANCH   8  24
ATOM     24  O   UNL     1      25.528  16.270  -2.550  1.00  0.00    -0.508 OA
ATOM     25  H   UNL     1      25.221  15.310  -2.660  1.00  0.00     0.293 HD
ENDBRANCH   8  24
TORSDOF 5
ENDMDL
MODEL 9
REMARK VINA RESULT:    -5.183      4.308      5.178
REMARK INTER + INTRA:          -6.262
REMARK INTER:                  -5.986
REMARK INTRA:                  -0.276
REMARK UNBOUND:                -0.170
REMARK SMILES O=c1c(O)c(-c2ccc(O)cc2)oc2cc(O)cc(O)c12
REMARK SMILES IDX 5 1 3 2 2 3 1 4 21 5 19 6 18 7 16 8 15 9 14 10 13 11 6 12
REMARK SMILES IDX 7 13 8 14 9 15 12 16 11 17 10 18 4 20 20 22 17 24
REMARK H PARENT 10 19 4 21 20 23 17 25
REMARK Flexibility Score: inf
ROOT
ATOM      1  C   UNL     1      25.404  28.718  -9.730  1.00  0.00     0.180 A 
ATOM      2  C   UNL     1      24.431  29.041 -10.690  1.00  0.00     0.208 A 
ATOM      3  C   UNL     1      24.843  29.566 -11.926  1.00  0.00     0.238 A 
ATOM      4  O   UNL     1      23.964  29.906 -12.762  1.00  0.00    -0.285 OA
ATOM      5  C   UNL     1      26.222  29.745 -12.191  1.00  0.00     0.111 A 
ATOM      6  C   UNL     1      26.754  30.233 -13.423  1.00  0.00     0.134 A 
ATOM      7  C   UNL     1      28.126  30.493 -13.528  1.00  0.00     0.093 A 
ATOM      8  C   UNL     1      28.993  30.223 -12.471  1.00  0.00     0.123 A 
ATOM      9  C   UNL     1      28.492  29.692 -11.282  1.00  0.00     0.094 A 
ATOM     10  C   UNL     1      27.123  29.455 -11.134  1.00  0.00     0.146 A 
ATOM     11  O   UNL     1      26.686  28.959  -9.983  1.00  0.00    -0.452 OA
ENDROOT
BRANCH   1  12
ATOM     12  C   UNL     1      25.050  28.137  -8.414  1.00  0.00     0.021 A 
ATOM     13  C   UNL     1      24.698  28.989  -7.353  1.00  0.00     0.016 A 
ATOM     14  C   UNL     1      24.382  28.464  -6.098  1.00  0.00     0.047 A 
ATOM     15  C   UNL     1      24.429  27.080  -5.881  1.00  0.00     0.115 A 
ATOM     16  C   UNL     1      25.115  26.750  -8.183  1.00  0.00     0.016 A 
ATOM     17  C   UNL     1      24.798  26.227  -6.926  1.00  0.00     0.047 A 
BRANCH  15  18
ATOM     18  O   UNL     1      24.116  26.545  -4.634  1.00  0.00    -0.508 OA
ATOM     19  H   UNL     1      24.297  25.572  -4.415  1.00  0.00     0.293 HD
ENDBRANCH  15  18
ENDBRANCH   1  12
BRANCH   2  20
ATOM     20  O   UNL     1      23.075  28.877 -10.399  1.00  0.00    -0.502 OA
ATOM     21  H   UNL     1      22.524  29.598  -9.947  1.00  0.00     0.293 HD
ENDBRANCH   2  20
BRANCH   6  22
ATOM     22  O   UNL     1      25.988  30.447 -14.573  1.00  0.00    -0.507 OA
ATOM     23  H   UNL     1      26.159  31.174 -15.251  1.00  0.00     0.293 HD
ENDBRANCH   6  22
BRANCH   8  24
ATOM     24  O   UNL     1      30.354  30.481 -12.615  1.00  0.00    -0.508 OA
ATOM     25  H   UNL     1      30.991  30.426 -11.829  1.00  0.00     0.293 HD
ENDBRANCH   8  24
TORSDOF 5
ENDMDL
