MODEL 1
REMARK VINA RESULT:    -5.092      0.000      0.000
REMARK INTER + INTRA:         -11.501
REMARK INTER:                  -9.259
REMARK INTRA:                  -2.242
REMARK UNBOUND:                -2.242
REMARK SMILES CCCCCCCCCCCCCCCC(=O)[O-]
REMARK SMILES IDX 9 1 10 2 11 3 12 4 13 5 14 6 15 7 16 8 17 9 18 10 8 11 7 12
REMARK SMILES IDX 6 13 5 14 4 15 3 16 2 17 1 18
REMARK H PARENT
REMARK Flexibility Score: inf
ROOT
ATOM      1  C   UNL     1      -8.220   9.512 -10.635  1.00  0.00     0.000 C 
ENDROOT
BRANCH   1   2
ATOM      2  C   UNL     1      -6.913   9.107 -11.337  1.00  0.00     0.000 C 
BRANCH   2   3
ATOM      3  C   UNL     1      -6.171   7.977 -10.606  1.00  0.00     0.000 C 
BRANCH   3   4
ATOM      4  C   UNL     1      -7.159   7.046  -9.891  1.00  0.00     0.000 C 
BRANCH   4   5
ATOM      5  C   UNL     1      -6.420   6.052  -8.982  1.00  0.00     0.000 C 
BRANCH   5   6
ATOM      6  C   UNL     1      -6.525   6.420  -7.494  1.00  0.00     0.006 C 
BRANCH   6   7
ATOM      7  C   UNL     1      -7.707   7.353  -7.197  1.00  0.00     0.053 C 
BRANCH   7   8
ATOM      8  C   UNL     1      -8.794   6.609  -6.488  1.00  0.00     0.041 C 
ATOM      9  O   UNL     1      -9.751   6.112  -7.138  1.00  0.00    -0.550 OA
ATOM     10  O   UNL     1      -8.729   6.428  -5.113  1.00  0.00    -0.550 OA
ENDBRANCH   7   8
ENDBRANCH   6   7
ENDBRANCH   5   6
ENDBRANCH   4   5
ENDBRANCH   3   4
ENDBRANCH   2   3
ENDBRANCH   1   2
BRANCH   1  11
ATOM     11  C   UNL     1      -8.215  10.982 -10.178  1.00  0.00     0.000 C 
BRANCH  11  12
ATOM     12  C   UNL     1      -7.327  11.210  -8.944  1.00  0.00    -0.000 C 
BRANCH  12  13
ATOM     13  C   UNL     1      -6.020  11.941  -9.283  1.00  0.00    -0.000 C 
BRANCH  13  14
ATOM     14  C   UNL     1      -4.801  11.091  -8.903  1.00  0.00    -0.000 C 
BRANCH  14  15
ATOM     15  C   UNL     1      -5.180  10.014  -7.877  1.00  0.00    -0.000 C 
BRANCH  15  16
ATOM     16  C   UNL     1      -3.930   9.466  -7.170  1.00  0.00    -0.000 C 
BRANCH  16  17
ATOM     17  C   UNL     1      -3.535   8.068  -7.671  1.00  0.00    -0.003 C 
ATOM     18  C   UNL     1      -3.120   7.130  -6.538  1.00  0.00     0.004 C 
ENDBRANCH  16  17
ENDBRANCH  15  16
ENDBRANCH  14  15
ENDBRANCH  13  14
ENDBRANCH  12  13
ENDBRANCH  11  12
ENDBRANCH   1  11
TORSDOF 14
ENDMDL
MODEL 2
REMARK VINA RESULT:    -5.027      1.141      2.261
REMARK INTER + INTRA:         -11.384
REMARK INTER:                  -9.578
REMARK INTRA:                  -1.806
REMARK UNBOUND:                -2.242
REMARK SMILES CCCCCCCCCCCCCCCC(=O)[O-]
REMARK SMILES IDX 9 1 10 2 11 3 12 4 13 5 14 6 15 7 16 8 17 9 18 10 8 11 7 12
REMARK SMILES IDX 6 13 5 14 4 15 3 16 2 17 1 18
REMARK H PARENT
REMARK Flexibility Score: inf
ROOT
ATOM      1  C   UNL     1      -7.526  11.301  -9.649  1.00  0.00     0.000 C 
ENDROOT
BRANCH   1   2
ATOM      2  C   UNL     1      -7.944  10.215 -10.654  1.00  0.00     0.000 C 
BRANCH   2   3
ATOM      3  C   UNL     1      -6.747   9.591 -11.388  1.00  0.00     0.000 C 
BRANCH   3   4
ATOM      4  C   UNL     1      -6.548   8.129 -10.967  1.00  0.00     0.000 C 
BRANCH   4   5
ATOM      5  C   UNL     1      -7.575   7.718  -9.902  1.00  0.00     0.000 C 
BRANCH   5   6
ATOM      6  C   UNL     1      -6.942   6.936  -8.740  1.00  0.00     0.006 C 
BRANCH   6   7
ATOM      7  C   UNL     1      -7.365   7.475  -7.365  1.00  0.00     0.053 C 
BRANCH   7   8
ATOM      8  C   UNL     1      -8.506   6.675  -6.820  1.00  0.00     0.041 C 
ATOM      9  O   UNL     1      -8.842   6.791  -5.612  1.00  0.00    -0.550 OA
ATOM     10  O   UNL     1      -9.227   5.833  -7.656  1.00  0.00    -0.550 OA
ENDBRANCH   7   8
ENDBRANCH   6   7
ENDBRANCH   5   6
ENDBRANCH   4   5
ENDBRANCH   3   4
ENDBRANCH   2   3
ENDBRANCH   1   2
BRANCH   1  11
ATOM     11  C   UNL     1      -6.002  11.362  -9.443  1.00  0.00     0.000 C 
BRANCH  11  12
ATOM     12  C   UNL     1      -5.548  10.602  -8.186  1.00  0.00    -0.000 C 
BRANCH  12  13
ATOM     13  C   UNL     1      -4.357   9.672  -8.456  1.00  0.00    -0.000 C 
BRANCH  13  14
ATOM     14  C   UNL     1      -3.706   9.218  -7.143  1.00  0.00    -0.000 C 
BRANCH  14  15
ATOM     15  C   UNL     1      -3.674   7.688  -7.045  1.00  0.00    -0.000 C 
BRANCH  15  16
ATOM     16  C   UNL     1      -2.344   7.203  -6.448  1.00  0.00    -0.000 C 
BRANCH  16  17
ATOM     17  C   UNL     1      -1.394   8.362  -6.108  1.00  0.00    -0.003 C 
ATOM     18  C   UNL     1      -0.342   7.979  -5.068  1.00  0.00     0.004 C 
ENDBRANCH  16  17
ENDBRANCH  15  16
ENDBRANCH  14  15
ENDBRANCH  13  14
ENDBRANCH  12  13
ENDBRANCH  11  12
ENDBRANCH   1  11
TORSDOF 14
ENDMDL
MODEL 3
REMARK VINA RESULT:    -4.905      1.340      2.163
REMARK INTER + INTRA:         -11.161
REMARK INTER:                  -8.676
REMARK INTRA:                  -2.485
REMARK UNBOUND:                -2.242
REMARK SMILES CCCCCCCCCCCCCCCC(=O)[O-]
REMARK SMILES IDX 9 1 10 2 11 3 12 4 13 5 14 6 15 7 16 8 17 9 18 10 8 11 7 12
REMARK SMILES IDX 6 13 5 14 4 15 3 16 2 17 1 18
REMARK H PARENT
REMARK Flexibility Score: inf
ROOT
ATOM      1  C   UNL     1      -6.624   8.086 -11.118  1.00  0.00     0.000 C 
ENDROOT
BRANCH   1   2
ATOM      2  C   UNL     1      -7.357   7.565  -9.871  1.00  0.00     0.000 C 
BRANCH   2   3
ATOM      3  C   UNL     1      -6.603   6.423  -9.172  1.00  0.00     0.000 C 
BRANCH   3   4
ATOM      4  C   UNL     1      -6.747   6.524  -7.648  1.00  0.00     0.000 C 
BRANCH   4   5
ATOM      5  C   UNL     1      -7.988   7.344  -7.265  1.00  0.00     0.000 C 
BRANCH   5   6
ATOM      6  C   UNL     1      -8.945   6.573  -6.342  1.00  0.00     0.006 C 
BRANCH   6   7
ATOM      7  C   UNL     1     -10.330   6.364  -6.970  1.00  0.00     0.053 C 
BRANCH   7   8
ATOM      8  C   UNL     1     -10.208   5.644  -8.275  1.00  0.00     0.041 C 
ATOM      9  O   UNL     1     -10.596   6.192  -9.341  1.00  0.00    -0.550 OA
ATOM     10  O   UNL     1      -9.627   4.384  -8.322  1.00  0.00    -0.550 OA
ENDBRANCH   7   8
ENDBRANCH   6   7
ENDBRANCH   5   6
ENDBRANCH   4   5
ENDBRANCH   3   4
ENDBRANCH   2   3
ENDBRANCH   1   2
BRANCH   1  11
ATOM     11  C   UNL     1      -7.009   9.534 -11.468  1.00  0.00     0.000 C 
BRANCH  11  12
ATOM     12  C   UNL     1      -7.411  10.352 -10.229  1.00  0.00    -0.000 C 
BRANCH  12  13
ATOM     13  C   UNL     1      -6.218  11.075  -9.587  1.00  0.00    -0.000 C 
BRANCH  13  14
ATOM     14  C   UNL     1      -6.253  10.942  -8.059  1.00  0.00    -0.000 C 
BRANCH  14  15
ATOM     15  C   UNL     1      -5.274   9.862  -7.579  1.00  0.00    -0.000 C 
BRANCH  15  16
ATOM     16  C   UNL     1      -4.351   9.410  -8.722  1.00  0.00    -0.000 C 
BRANCH  16  17
ATOM     17  C   UNL     1      -3.557   8.142  -8.371  1.00  0.00    -0.003 C 
ATOM     18  C   UNL     1      -3.391   7.946  -6.864  1.00  0.00     0.004 C 
ENDBRANCH  16  17
ENDBRANCH  15  16
ENDBRANCH  14  15
ENDBRANCH  13  14
ENDBRANCH  12  13
ENDBRANCH  11  12
ENDBRANCH   1  11
TORSDOF 14
ENDMDL
MODEL 4
REMARK VINA RESULT:    -4.863     12.221     13.887
REMARK INTER + INTRA:         -11.086
REMARK INTER:                  -8.779
REMARK INTRA:                  -2.307
REMARK UNBOUND:                -2.242
REMARK SMILES CCCCCCCCCCCCCCCC(=O)[O-]
REMARK SMILES IDX 9 1 10 2 11 3 12 4 13 5 14 6 15 7 16 8 17 9 18 10 8 11 7 12
REMARK SMILES IDX 6 13 5 14 4 15 3 16 2 17 1 18
REMARK H PARENT
REMARK Flexibility Score: inf
ROOT
ATOM      1  C   UNL     1       5.953  14.667 -16.295  1.00  0.00     0.000 C 
ENDROOT
BRANCH   1   2
ATOM      2  C   UNL     1       4.456  14.944 -16.507  1.00  0.00     0.000 C 
BRANCH   2   3
ATOM      3  C   UNL     1       3.983  14.606 -17.929  1.00  0.00     0.000 C 
BRANCH   3   4
ATOM      4  C   UNL     1       2.859  13.564 -17.900  1.00  0.00     0.000 C 
BRANCH   4   5
ATOM      5  C   UNL     1       2.391  13.298 -16.462  1.00  0.00     0.000 C 
BRANCH   5   6
ATOM      6  C   UNL     1       1.157  12.384 -16.400  1.00  0.00     0.006 C 
BRANCH   6   7
ATOM      7  C   UNL     1       1.478  10.931 -16.776  1.00  0.00     0.053 C 
BRANCH   7   8
ATOM      8  C   UNL     1       1.204  10.019 -15.622  1.00  0.00     0.041 C 
ATOM      9  O   UNL     1       0.854   8.827 -15.824  1.00  0.00    -0.550 OA
ATOM     10  O   UNL     1       1.374  10.474 -14.321  1.00  0.00    -0.550 OA
ENDBRANCH   7   8
ENDBRANCH   6   7
ENDBRANCH   5   6
ENDBRANCH   4   5
ENDBRANCH   3   4
ENDBRANCH   2   3
ENDBRANCH   1   2
BRANCH   1  11
ATOM     11  C   UNL     1       6.543  13.747 -17.378  1.00  0.00     0.000 C 
BRANCH  11  12
ATOM     12  C   UNL     1       6.882  12.348 -16.840  1.00  0.00    -0.000 C 
BRANCH  12  13
ATOM     13  C   UNL     1       5.643  11.591 -16.339  1.00  0.00    -0.000 C 
BRANCH  13  14
ATOM     14  C   UNL     1       6.042  10.446 -15.401  1.00  0.00    -0.000 C 
BRANCH  14  15
ATOM     15  C   UNL     1       5.535  10.701 -13.975  1.00  0.00    -0.000 C 
BRANCH  15  16
ATOM     16  C   UNL     1       4.645  11.952 -13.924  1.00  0.00    -0.000 C 
BRANCH  16  17
ATOM     17  C   UNL     1       5.205  13.036 -12.988  1.00  0.00    -0.003 C 
ATOM     18  C   UNL     1       6.729  13.134 -13.042  1.00  0.00     0.004 C 
ENDBRANCH  16  17
ENDBRANCH  15  16
ENDBRANCH  14  15
ENDBRANCH  13  14
ENDBRANCH  12  13
ENDBRANCH  11  12
ENDBRANCH   1  11
TORSDOF 14
ENDMDL
MODEL 5
REMARK VINA RESULT:    -4.853      1.838      4.202
REMARK INTER + INTRA:         -11.067
REMARK INTER:                  -8.999
REMARK INTRA:                  -2.068
REMARK UNBOUND:                -2.242
REMARK SMILES CCCCCCCCCCCCCCCC(=O)[O-]
REMARK SMILES IDX 9 1 10 2 11 3 12 4 13 5 14 6 15 7 16 8 17 9 18 10 8 11 7 12
REMARK SMILES IDX 6 13 5 14 4 15 3 16 2 17 1 18
REMARK H PARENT
REMARK Flexibility Score: inf
ROOT
ATOM      1  C   UNL     1      -4.355   6.576  -6.799  1.00  0.00     0.000 C 
ENDROOT
BRANCH   1   2
ATOM      2  C   UNL     1      -5.407   5.838  -7.643  1.00  0.00     0.000 C 
BRANCH   2   3
ATOM      3  C   UNL     1      -5.510   6.383  -9.076  1.00  0.00     0.000 C 
BRANCH   3   4
ATOM      4  C   UNL     1      -6.938   6.851  -9.383  1.00  0.00     0.000 C 
BRANCH   4   5
ATOM      5  C   UNL     1      -7.769   6.965  -8.097  1.00  0.00     0.000 C 
BRANCH   5   6
ATOM      6  C   UNL     1      -9.152   6.307  -8.225  1.00  0.00     0.006 C 
BRANCH   6   7
ATOM      7  C   UNL     1      -9.278   5.439  -9.485  1.00  0.00     0.053 C 
BRANCH   7   8
ATOM      8  C   UNL     1      -9.154   3.990  -9.135  1.00  0.00     0.041 C 
ATOM      9  O   UNL     1     -10.142   3.363  -8.669  1.00  0.00    -0.550 OA
ATOM     10  O   UNL     1      -7.959   3.320  -9.362  1.00  0.00    -0.550 OA
ENDBRANCH   7   8
ENDBRANCH   6   7
ENDBRANCH   5   6
ENDBRANCH   4   5
ENDBRANCH   3   4
ENDBRANCH   2   3
ENDBRANCH   1   2
BRANCH   1  11
ATOM     11  C   UNL     1      -3.592   7.642  -7.605  1.00  0.00     0.000 C 
BRANCH  11  12
ATOM     12  C   UNL     1      -3.809   9.061  -7.054  1.00  0.00    -0.000 C 
BRANCH  12  13
ATOM     13  C   UNL     1      -4.768   9.890  -7.920  1.00  0.00    -0.000 C 
BRANCH  13  14
ATOM     14  C   UNL     1      -4.477   9.687  -9.412  1.00  0.00    -0.000 C 
BRANCH  14  15
ATOM     15  C   UNL     1      -5.501  10.432 -10.278  1.00  0.00    -0.000 C 
BRANCH  15  16
ATOM     16  C   UNL     1      -6.409  11.321  -9.414  1.00  0.00    -0.000 C 
BRANCH  16  17
ATOM     17  C   UNL     1      -7.901  11.092  -9.699  1.00  0.00    -0.003 C 
ATOM     18  C   UNL     1      -8.149   9.920 -10.647  1.00  0.00     0.004 C 
ENDBRANCH  16  17
ENDBRANCH  15  16
ENDBRANCH  14  15
ENDBRANCH  13  14
ENDBRANCH  12  13
ENDBRANCH  11  12
ENDBRANCH   1  11
TORSDOF 14
ENDMDL
MODEL 6
REMARK VINA RESULT:    -4.762      2.481      4.284
REMARK INTER + INTRA:         -10.901
REMARK INTER:                  -8.768
REMARK INTRA:                  -2.133
REMARK UNBOUND:                -2.242
REMARK SMILES CCCCCCCCCCCCCCCC(=O)[O-]
REMARK SMILES IDX 9 1 10 2 11 3 12 4 13 5 14 6 15 7 16 8 17 9 18 10 8 11 7 12
REMARK SMILES IDX 6 13 5 14 4 15 3 16 2 17 1 18
REMARK H PARENT
REMARK Flexibility Score: inf
ROOT
ATOM      1  C   UNL     1      -5.528   6.346  -8.975  1.00  0.00     0.000 C 
ENDROOT
BRANCH   1   2
ATOM      2  C   UNL     1      -7.039   6.517  -9.204  1.00  0.00     0.000 C 
BRANCH   2   3
ATOM      3  C   UNL     1      -7.808   6.815  -7.908  1.00  0.00     0.000 C 
BRANCH   3   4
ATOM      4  C   UNL     1      -9.250   6.301  -7.996  1.00  0.00     0.000 C 
BRANCH   4   5
ATOM      5  C   UNL     1      -9.634   5.981  -9.448  1.00  0.00     0.000 C 
BRANCH   5   6
ATOM      6  C   UNL     1     -10.313   4.610  -9.592  1.00  0.00     0.006 C 
BRANCH   6   7
ATOM      7  C   UNL     1      -9.335   3.442  -9.402  1.00  0.00     0.053 C 
BRANCH   7   8
ATOM      8  C   UNL     1      -9.869   2.471  -8.397  1.00  0.00     0.041 C 
ATOM      9  O   UNL     1      -9.819   1.233  -8.622  1.00  0.00    -0.550 OA
ATOM     10  O   UNL     1     -10.385   2.931  -7.193  1.00  0.00    -0.550 OA
ENDBRANCH   7   8
ENDBRANCH   6   7
ENDBRANCH   5   6
ENDBRANCH   4   5
ENDBRANCH   3   4
ENDBRANCH   2   3
ENDBRANCH   1   2
BRANCH   1  11
ATOM     11  C   UNL     1      -5.047   7.019  -7.678  1.00  0.00     0.000 C 
BRANCH  11  12
ATOM     12  C   UNL     1      -3.778   7.860  -7.888  1.00  0.00    -0.000 C 
BRANCH  12  13
ATOM     13  C   UNL     1      -4.062   9.369  -7.891  1.00  0.00    -0.000 C 
BRANCH  13  14
ATOM     14  C   UNL     1      -5.489   9.660  -7.409  1.00  0.00    -0.000 C 
BRANCH  14  15
ATOM     15  C   UNL     1      -6.288  10.415  -8.480  1.00  0.00    -0.000 C 
BRANCH  15  16
ATOM     16  C   UNL     1      -5.629  10.271  -9.860  1.00  0.00    -0.000 C 
BRANCH  16  17
ATOM     17  C   UNL     1      -6.593   9.710 -10.918  1.00  0.00    -0.003 C 
ATOM     18  C   UNL     1      -8.059   9.824 -10.502  1.00  0.00     0.004 C 
ENDBRANCH  16  17
ENDBRANCH  15  16
ENDBRANCH  14  15
ENDBRANCH  13  14
ENDBRANCH  12  13
ENDBRANCH  11  12
ENDBRANCH   1  11
TORSDOF 14
ENDMDL
MODEL 7
REMARK VINA RESULT:    -4.736      3.052      5.962
REMARK INTER + INTRA:         -10.854
REMARK INTER:                  -9.221
REMARK INTRA:                  -1.632
REMARK UNBOUND:                -2.242
REMARK SMILES CCCCCCCCCCCCCCCC(=O)[O-]
REMARK SMILES IDX 9 1 10 2 11 3 12 4 13 5 14 6 15 7 16 8 17 9 18 10 8 11 7 12
REMARK SMILES IDX 6 13 5 14 4 15 3 16 2 17 1 18
REMARK H PARENT
REMARK Flexibility Score: inf
ROOT
ATOM      1  C   UNL     1      -5.497   6.373  -9.064  1.00  0.00     0.000 C 
ENDROOT
BRANCH   1   2
ATOM      2  C   UNL     1      -5.036   7.066  -7.772  1.00  0.00     0.000 C 
BRANCH   2   3
ATOM      3  C   UNL     1      -3.814   7.972  -7.985  1.00  0.00     0.000 C 
BRANCH   3   4
ATOM      4  C   UNL     1      -4.041   9.355  -7.363  1.00  0.00     0.000 C 
BRANCH   4   5
ATOM      5  C   UNL     1      -5.352   9.977  -7.866  1.00  0.00     0.000 C 
BRANCH   5   6
ATOM      6  C   UNL     1      -5.191  10.681  -9.222  1.00  0.00     0.006 C 
BRANCH   6   7
ATOM      7  C   UNL     1      -6.005  10.010 -10.337  1.00  0.00     0.053 C 
BRANCH   7   8
ATOM      8  C   UNL     1      -7.445  10.407 -10.244  1.00  0.00     0.041 C 
ATOM      9  O   UNL     1      -8.336   9.688 -10.769  1.00  0.00    -0.550 OA
ATOM     10  O   UNL     1      -7.807  11.548  -9.541  1.00  0.00    -0.550 OA
ENDBRANCH   7   8
ENDBRANCH   6   7
ENDBRANCH   5   6
ENDBRANCH   4   5
ENDBRANCH   3   4
ENDBRANCH   2   3
ENDBRANCH   1   2
BRANCH   1  11
ATOM     11  C   UNL     1      -6.952   6.713  -9.431  1.00  0.00     0.000 C 
BRANCH  11  12
ATOM     12  C   UNL     1      -7.799   7.077  -8.200  1.00  0.00    -0.000 C 
BRANCH  12  13
ATOM     13  C   UNL     1      -9.087   6.246  -8.103  1.00  0.00    -0.000 C 
BRANCH  13  14
ATOM     14  C   UNL     1      -9.798   6.175  -9.460  1.00  0.00    -0.000 C 
BRANCH  14  15
ATOM     15  C   UNL     1     -10.392   4.780  -9.696  1.00  0.00    -0.000 C 
BRANCH  15  16
ATOM     16  C   UNL     1      -9.371   3.683  -9.358  1.00  0.00    -0.000 C 
BRANCH  16  17
ATOM     17  C   UNL     1      -9.923   2.651  -8.362  1.00  0.00    -0.003 C 
ATOM     18  C   UNL     1      -9.135   1.341  -8.369  1.00  0.00     0.004 C 
ENDBRANCH  16  17
ENDBRANCH  15  16
ENDBRANCH  14  15
ENDBRANCH  13  14
ENDBRANCH  12  13
ENDBRANCH  11  12
ENDBRANCH   1  11
TORSDOF 14
ENDMDL
MODEL 8
REMARK VINA RESULT:    -4.733      1.753      3.865
REMARK INTER + INTRA:         -10.848
REMARK INTER:                  -8.972
REMARK INTRA:                  -1.876
REMARK UNBOUND:                -2.242
REMARK SMILES CCCCCCCCCCCCCCCC(=O)[O-]
REMARK SMILES IDX 9 1 10 2 11 3 12 4 13 5 14 6 15 7 16 8 17 9 18 10 8 11 7 12
REMARK SMILES IDX 6 13 5 14 4 15 3 16 2 17 1 18
REMARK H PARENT
REMARK Flexibility Score: inf
ROOT
ATOM      1  C   UNL     1      -4.899   6.862  -7.860  1.00  0.00     0.000 C 
ENDROOT
BRANCH   1   2
ATOM      2  C   UNL     1      -5.946   6.651  -8.965  1.00  0.00     0.000 C 
BRANCH   2   3
ATOM      3  C   UNL     1      -7.369   7.018  -8.514  1.00  0.00     0.000 C 
BRANCH   3   4
ATOM      4  C   UNL     1      -8.412   6.480  -9.502  1.00  0.00     0.000 C 
BRANCH   4   5
ATOM      5  C   UNL     1      -9.521   5.712  -8.769  1.00  0.00     0.000 C 
BRANCH   5   6
ATOM      6  C   UNL     1      -9.608   6.077  -7.278  1.00  0.00     0.006 C 
BRANCH   6   7
ATOM      7  C   UNL     1     -10.907   5.586  -6.625  1.00  0.00     0.053 C 
BRANCH   7   8
ATOM      8  C   UNL     1     -10.703   4.239  -6.005  1.00  0.00     0.041 C 
ATOM      9  O   UNL     1     -10.903   3.194  -6.678  1.00  0.00    -0.550 OA
ATOM     10  O   UNL     1     -10.251   4.138  -4.696  1.00  0.00    -0.550 OA
ENDBRANCH   7   8
ENDBRANCH   6   7
ENDBRANCH   5   6
ENDBRANCH   4   5
ENDBRANCH   3   4
ENDBRANCH   2   3
ENDBRANCH   1   2
BRANCH   1  11
ATOM     11  C   UNL     1      -3.797   7.854  -8.271  1.00  0.00     0.000 C 
BRANCH  11  12
ATOM     12  C   UNL     1      -4.361   9.229  -8.665  1.00  0.00    -0.000 C 
BRANCH  12  13
ATOM     13  C   UNL     1      -5.145   9.895  -7.525  1.00  0.00    -0.000 C 
BRANCH  13  14
ATOM     14  C   UNL     1      -6.128  10.938  -8.071  1.00  0.00    -0.000 C 
BRANCH  14  15
ATOM     15  C   UNL     1      -6.235  10.846  -9.599  1.00  0.00    -0.000 C 
BRANCH  15  16
ATOM     16  C   UNL     1      -7.698  10.676 -10.038  1.00  0.00    -0.000 C 
BRANCH  16  17
ATOM     17  C   UNL     1      -7.854   9.670 -11.190  1.00  0.00    -0.003 C 
ATOM     18  C   UNL     1      -6.512   9.195 -11.746  1.00  0.00     0.004 C 
ENDBRANCH  16  17
ENDBRANCH  15  16
ENDBRANCH  14  15
ENDBRANCH  13  14
ENDBRANCH  12  13
ENDBRANCH  11  12
ENDBRANCH   1  11
TORSDOF 14
ENDMDL
MODEL 9
REMARK VINA RESULT:    -4.604     12.501     14.481
REMARK INTER + INTRA:         -10.613
REMARK INTER:                  -7.959
REMARK INTRA:                  -2.654
REMARK UNBOUND:                -2.242
REMARK SMILES CCCCCCCCCCCCCCCC(=O)[O-]
REMARK SMILES IDX 9 1 10 2 11 3 12 4 13 5 14 6 15 7 16 8 17 9 18 10 8 11 7 12
REMARK SMILES IDX 6 13 5 14 4 15 3 16 2 17 1 18
REMARK H PARENT
REMARK Flexibility Score: inf
ROOT
ATOM      1  C   UNL     1       6.138  11.013 -15.879  1.00  0.00     0.000 C 
ENDROOT
BRANCH   1   2
ATOM      2  C   UNL     1       6.546  12.450 -16.243  1.00  0.00     0.000 C 
BRANCH   2   3
ATOM      3  C   UNL     1       6.290  12.785 -17.720  1.00  0.00     0.000 C 
BRANCH   3   4
ATOM      4  C   UNL     1       5.128  13.775 -17.865  1.00  0.00     0.000 C 
BRANCH   4   5
ATOM      5  C   UNL     1       5.014  14.676 -16.626  1.00  0.00     0.000 C 
BRANCH   5   6
ATOM      6  C   UNL     1       3.772  15.581 -16.664  1.00  0.00     0.006 C 
BRANCH   6   7
ATOM      7  C   UNL     1       2.832  15.246 -17.831  1.00  0.00     0.053 C 
BRANCH   7   8
ATOM      8  C   UNL     1       1.404  15.385 -17.407  1.00  0.00     0.041 C 
ATOM      9  O   UNL     1       0.565  14.494 -17.703  1.00  0.00    -0.550 OA
ATOM     10  O   UNL     1       1.008  16.478 -16.648  1.00  0.00    -0.550 OA
ENDBRANCH   7   8
ENDBRANCH   6   7
ENDBRANCH   5   6
ENDBRANCH   4   5
ENDBRANCH   3   4
ENDBRANCH   2   3
ENDBRANCH   1   2
BRANCH   1  11
ATOM     11  C   UNL     1       5.623  10.892 -14.434  1.00  0.00     0.000 C 
BRANCH  11  12
ATOM     12  C   UNL     1       5.596  12.246 -13.704  1.00  0.00    -0.000 C 
BRANCH  12  13
ATOM     13  C   UNL     1       4.169  12.741 -13.429  1.00  0.00    -0.000 C 
BRANCH  13  14
ATOM     14  C   UNL     1       3.131  11.778 -14.018  1.00  0.00    -0.000 C 
BRANCH  14  15
ATOM     15  C   UNL     1       2.281  12.473 -15.090  1.00  0.00    -0.000 C 
BRANCH  15  16
ATOM     16  C   UNL     1       2.404  11.752 -16.441  1.00  0.00    -0.000 C 
BRANCH  16  17
ATOM     17  C   UNL     1       2.556  10.231 -16.286  1.00  0.00    -0.003 C 
ATOM     18  C   UNL     1       1.214   9.500 -16.279  1.00  0.00     0.004 C 
ENDBRANCH  16  17
ENDBRANCH  15  16
ENDBRANCH  14  15
ENDBRANCH  13  14
ENDBRANCH  12  13
ENDBRANCH  11  12
ENDBRANCH   1  11
TORSDOF 14
ENDMDL
