MODEL 1
REMARK VINA RESULT:    -5.264      0.000      0.000
REMARK INTER + INTRA:         -16.882
REMARK INTER:                 -13.264
REMARK INTRA:                  -3.618
REMARK UNBOUND:                -3.618
REMARK SMILES CCCCCCCCCCCCCCCCCCCCCCCCCCCC(=O)[O-]
REMARK SMILES IDX 15 1 16 2 17 3 18 4 19 5 20 6 21 7 22 8 23 9 24 10 25 11
REMARK SMILES IDX 26 12 27 13 28 14 29 15 30 16 14 17 13 18 12 19 11 20 10 21
REMARK SMILES IDX 9 22 8 23 7 24 6 25 5 26 4 27 3 28 2 29 1 30
REMARK H PARENT
REMARK Flexibility Score: inf
ROOT
ATOM      1  C   UNL     1       3.824  21.837  51.788  1.00  0.00     0.000 C 
ENDROOT
BRANCH   1   2
ATOM      2  C   UNL     1       2.441  22.099  51.160  1.00  0.00     0.000 C 
BRANCH   2   3
ATOM      3  C   UNL     1       1.313  22.410  52.166  1.00  0.00     0.000 C 
BRANCH   3   4
ATOM      4  C   UNL     1       1.779  22.614  53.619  1.00  0.00     0.000 C 
BRANCH   4   5
ATOM      5  C   UNL     1       1.404  23.999  54.174  1.00  0.00     0.000 C 
BRANCH   5   6
ATOM      6  C   UNL     1       0.046  24.507  53.655  1.00  0.00     0.000 C 
BRANCH   6   7
ATOM      7  C   UNL     1      -0.819  25.230  54.703  1.00  0.00     0.000 C 
BRANCH   7   8
ATOM      8  C   UNL     1      -2.136  24.498  55.004  1.00  0.00     0.000 C 
BRANCH   8   9
ATOM      9  C   UNL     1      -2.230  24.116  56.489  1.00  0.00     0.000 C 
BRANCH   9  10
ATOM     10  C   UNL     1      -0.892  24.303  57.234  1.00  0.00     0.000 C 
BRANCH  10  11
ATOM     11  C   UNL     1      -0.261  22.990  57.735  1.00  0.00     0.000 C 
BRANCH  11  12
ATOM     12  C   UNL     1       1.260  23.036  57.950  1.00  0.00     0.006 C 
BRANCH  12  13
ATOM     13  C   UNL     1       1.942  21.687  57.682  1.00  0.00     0.053 C 
BRANCH  13  14
ATOM     14  C   UNL     1       3.430  21.836  57.722  1.00  0.00     0.041 C 
ATOM     15  O   UNL     1       4.072  22.068  56.663  1.00  0.00    -0.550 OA
ATOM     16  O   UNL     1       4.103  21.770  58.935  1.00  0.00    -0.550 OA
ENDBRANCH  13  14
ENDBRANCH  12  13
ENDBRANCH  11  12
ENDBRANCH  10  11
ENDBRANCH   9  10
ENDBRANCH   8   9
ENDBRANCH   7   8
ENDBRANCH   6   7
ENDBRANCH   5   6
ENDBRANCH   4   5
ENDBRANCH   3   4
ENDBRANCH   2   3
ENDBRANCH   1   2
BRANCH   1  17
ATOM     17  C   UNL     1       4.980  22.640  51.165  1.00  0.00     0.000 C 
BRANCH  17  18
ATOM     18  C   UNL     1       5.481  23.764  52.088  1.00  0.00     0.000 C 
BRANCH  18  19
ATOM     19  C   UNL     1       5.433  25.148  51.420  1.00  0.00     0.000 C 
BRANCH  19  20
ATOM     20  C   UNL     1       4.334  26.047  52.008  1.00  0.00     0.000 C 
BRANCH  20  21
ATOM     21  C   UNL     1       2.956  25.800  51.368  1.00  0.00     0.000 C 
BRANCH  21  22
ATOM     22  C   UNL     1       3.014  25.593  49.839  1.00  0.00    -0.000 C 
BRANCH  22  23
ATOM     23  C   UNL     1       1.624  25.320  49.239  1.00  0.00    -0.000 C 
BRANCH  23  24
ATOM     24  C   UNL     1       1.636  24.184  48.201  1.00  0.00    -0.000 C 
BRANCH  24  25
ATOM     25  C   UNL     1       0.902  24.498  46.882  1.00  0.00    -0.000 C 
BRANCH  25  26
ATOM     26  C   UNL     1       1.711  24.241  45.592  1.00  0.00    -0.000 C 
BRANCH  26  27
ATOM     27  C   UNL     1       2.443  22.886  45.540  1.00  0.00    -0.000 C 
BRANCH  27  28
ATOM     28  C   UNL     1       3.404  22.740  44.338  1.00  0.00    -0.000 C 
BRANCH  28  29
ATOM     29  C   UNL     1       2.700  22.327  43.035  1.00  0.00    -0.003 C 
ATOM     30  C   UNL     1       1.543  21.357  43.267  1.00  0.00     0.004 C 
ENDBRANCH  28  29
ENDBRANCH  27  28
ENDBRANCH  26  27
ENDBRANCH  25  26
ENDBRANCH  24  25
ENDBRANCH  23  24
ENDBRANCH  22  23
ENDBRANCH  21  22
ENDBRANCH  20  21
ENDBRANCH  19  20
ENDBRANCH  18  19
ENDBRANCH  17  18
ENDBRANCH   1  17
TORSDOF 26
ENDMDL
MODEL 2
REMARK VINA RESULT:    -5.189      4.016      9.723
REMARK INTER + INTRA:         -16.693
REMARK INTER:                 -12.396
REMARK INTRA:                  -4.297
REMARK UNBOUND:                -3.618
REMARK SMILES CCCCCCCCCCCCCCCCCCCCCCCCCCCC(=O)[O-]
REMARK SMILES IDX 15 1 16 2 17 3 18 4 19 5 20 6 21 7 22 8 23 9 24 10 25 11
REMARK SMILES IDX 26 12 27 13 28 14 29 15 30 16 14 17 13 18 12 19 11 20 10 21
REMARK SMILES IDX 9 22 8 23 7 24 6 25 5 26 4 27 3 28 2 29 1 30
REMARK H PARENT
REMARK Flexibility Score: inf
ROOT
ATOM      1  C   UNL     1       4.071  23.647  53.652  1.00  0.00     0.000 C 
ENDROOT
BRANCH   1   2
ATOM      2  C   UNL     1       4.414  22.741  52.452  1.00  0.00     0.000 C 
BRANCH   2   3
ATOM      3  C   UNL     1       3.479  21.530  52.257  1.00  0.00     0.000 C 
BRANCH   3   4
ATOM      4  C   UNL     1       2.414  21.704  51.159  1.00  0.00     0.000 C 
BRANCH   4   5
ATOM      5  C   UNL     1       1.192  22.506  51.637  1.00  0.00     0.000 C 
BRANCH   5   6
ATOM      6  C   UNL     1       0.951  23.782  50.810  1.00  0.00     0.000 C 
BRANCH   6   7
ATOM      7  C   UNL     1       1.998  24.053  49.714  1.00  0.00     0.000 C 
BRANCH   7   8
ATOM      8  C   UNL     1       2.050  25.527  49.284  1.00  0.00     0.000 C 
BRANCH   8   9
ATOM      9  C   UNL     1       1.770  25.676  47.781  1.00  0.00     0.000 C 
BRANCH   9  10
ATOM     10  C   UNL     1       1.206  24.384  47.153  1.00  0.00     0.000 C 
BRANCH  10  11
ATOM     11  C   UNL     1       1.704  24.109  45.721  1.00  0.00     0.000 C 
BRANCH  11  12
ATOM     12  C   UNL     1       2.457  22.782  45.534  1.00  0.00     0.006 C 
BRANCH  12  13
ATOM     13  C   UNL     1       3.355  22.776  44.289  1.00  0.00     0.053 C 
BRANCH  13  14
ATOM     14  C   UNL     1       2.596  22.275  43.101  1.00  0.00     0.041 C 
ATOM     15  O   UNL     1       1.734  21.366  43.237  1.00  0.00    -0.550 OA
ATOM     16  O   UNL     1       2.804  22.846  41.853  1.00  0.00    -0.550 OA
ENDBRANCH  13  14
ENDBRANCH  12  13
ENDBRANCH  11  12
ENDBRANCH  10  11
ENDBRANCH   9  10
ENDBRANCH   8   9
ENDBRANCH   7   8
ENDBRANCH   6   7
ENDBRANCH   5   6
ENDBRANCH   4   5
ENDBRANCH   3   4
ENDBRANCH   2   3
ENDBRANCH   1   2
BRANCH   1  17
ATOM     17  C   UNL     1       3.530  25.038  53.277  1.00  0.00     0.000 C 
BRANCH  17  18
ATOM     18  C   UNL     1       2.267  25.412  54.073  1.00  0.00     0.000 C 
BRANCH  18  19
ATOM     19  C   UNL     1       1.281  26.264  53.258  1.00  0.00     0.000 C 
BRANCH  19  20
ATOM     20  C   UNL     1      -0.175  26.078  53.715  1.00  0.00     0.000 C 
BRANCH  20  21
ATOM     21  C   UNL     1      -0.420  24.713  54.382  1.00  0.00     0.000 C 
BRANCH  21  22
ATOM     22  C   UNL     1      -1.910  24.426  54.670  1.00  0.00    -0.000 C 
BRANCH  22  23
ATOM     23  C   UNL     1      -2.211  24.389  56.178  1.00  0.00    -0.000 C 
BRANCH  23  24
ATOM     24  C   UNL     1      -2.198  25.787  56.821  1.00  0.00    -0.000 C 
BRANCH  24  25
ATOM     25  C   UNL     1      -1.136  25.989  57.920  1.00  0.00    -0.000 C 
BRANCH  25  26
ATOM     26  C   UNL     1       0.307  26.213  57.417  1.00  0.00    -0.000 C 
BRANCH  26  27
ATOM     27  C   UNL     1       1.307  25.100  57.786  1.00  0.00    -0.000 C 
BRANCH  27  28
ATOM     28  C   UNL     1       0.644  23.835  58.378  1.00  0.00    -0.000 C 
BRANCH  28  29
ATOM     29  C   UNL     1       0.617  22.643  57.405  1.00  0.00    -0.003 C 
ATOM     30  C   UNL     1       1.832  22.606  56.480  1.00  0.00     0.004 C 
ENDBRANCH  28  29
ENDBRANCH  27  28
ENDBRANCH  26  27
ENDBRANCH  25  26
ENDBRANCH  24  25
ENDBRANCH  23  24
ENDBRANCH  22  23
ENDBRANCH  21  22
ENDBRANCH  20  21
ENDBRANCH  19  20
ENDBRANCH  18  19
ENDBRANCH  17  18
ENDBRANCH   1  17
TORSDOF 26
ENDMDL
MODEL 3
REMARK VINA RESULT:    -5.068      1.136      2.352
REMARK INTER + INTRA:         -16.389
REMARK INTER:                 -12.365
REMARK INTRA:                  -4.024
REMARK UNBOUND:                -3.618
REMARK SMILES CCCCCCCCCCCCCCCCCCCCCCCCCCCC(=O)[O-]
REMARK SMILES IDX 15 1 16 2 17 3 18 4 19 5 20 6 21 7 22 8 23 9 24 10 25 11
REMARK SMILES IDX 26 12 27 13 28 14 29 15 30 16 14 17 13 18 12 19 11 20 10 21
REMARK SMILES IDX 9 22 8 23 7 24 6 25 5 26 4 27 3 28 2 29 1 30
REMARK H PARENT
REMARK Flexibility Score: inf
ROOT
ATOM      1  C   UNL     1       5.386  23.935  52.042  1.00  0.00     0.000 C 
ENDROOT
BRANCH   1   2
ATOM      2  C   UNL     1       4.637  24.531  53.251  1.00  0.00     0.000 C 
BRANCH   2   3
ATOM      3  C   UNL     1       3.846  25.823  52.961  1.00  0.00     0.000 C 
BRANCH   3   4
ATOM      4  C   UNL     1       2.394  25.822  53.472  1.00  0.00     0.000 C 
BRANCH   4   5
ATOM      5  C   UNL     1       2.123  24.704  54.493  1.00  0.00     0.000 C 
BRANCH   5   6
ATOM      6  C   UNL     1       0.705  24.116  54.378  1.00  0.00     0.000 C 
BRANCH   6   7
ATOM      7  C   UNL     1      -0.436  25.131  54.577  1.00  0.00     0.000 C 
BRANCH   7   8
ATOM      8  C   UNL     1      -1.802  24.464  54.799  1.00  0.00     0.000 C 
BRANCH   8   9
ATOM      9  C   UNL     1      -2.270  24.630  56.252  1.00  0.00     0.000 C 
BRANCH   9  10
ATOM     10  C   UNL     1      -1.756  23.502  57.172  1.00  0.00     0.000 C 
BRANCH  10  11
ATOM     11  C   UNL     1      -0.432  23.828  57.889  1.00  0.00     0.000 C 
BRANCH  11  12
ATOM     12  C   UNL     1       0.355  22.609  58.394  1.00  0.00     0.006 C 
BRANCH  12  13
ATOM     13  C   UNL     1       1.698  22.425  57.674  1.00  0.00     0.053 C 
BRANCH  13  14
ATOM     14  C   UNL     1       2.560  21.453  58.416  1.00  0.00     0.041 C 
ATOM     15  O   UNL     1       2.174  20.976  59.516  1.00  0.00    -0.550 OA
ATOM     16  O   UNL     1       3.766  21.036  57.869  1.00  0.00    -0.550 OA
ENDBRANCH  13  14
ENDBRANCH  12  13
ENDBRANCH  11  12
ENDBRANCH  10  11
ENDBRANCH   9  10
ENDBRANCH   8   9
ENDBRANCH   7   8
ENDBRANCH   6   7
ENDBRANCH   5   6
ENDBRANCH   4   5
ENDBRANCH   3   4
ENDBRANCH   2   3
ENDBRANCH   1   2
BRANCH   1  17
ATOM     17  C   UNL     1       4.762  22.653  51.463  1.00  0.00     0.000 C 
BRANCH  17  18
ATOM     18  C   UNL     1       4.051  21.808  52.535  1.00  0.00     0.000 C 
BRANCH  18  19
ATOM     19  C   UNL     1       2.555  21.613  52.242  1.00  0.00     0.000 C 
BRANCH  19  20
ATOM     20  C   UNL     1       2.115  22.304  50.941  1.00  0.00     0.000 C 
BRANCH  20  21
ATOM     21  C   UNL     1       0.838  23.145  51.114  1.00  0.00     0.000 C 
BRANCH  21  22
ATOM     22  C   UNL     1       0.925  24.540  50.459  1.00  0.00    -0.000 C 
BRANCH  22  23
ATOM     23  C   UNL     1       2.253  24.746  49.710  1.00  0.00    -0.000 C 
BRANCH  23  24
ATOM     24  C   UNL     1       2.199  25.921  48.717  1.00  0.00    -0.000 C 
BRANCH  24  25
ATOM     25  C   UNL     1       2.177  25.515  47.230  1.00  0.00    -0.000 C 
BRANCH  25  26
ATOM     26  C   UNL     1       1.112  24.468  46.840  1.00  0.00    -0.000 C 
BRANCH  26  27
ATOM     27  C   UNL     1       1.340  23.781  45.480  1.00  0.00    -0.000 C 
BRANCH  27  28
ATOM     28  C   UNL     1       2.480  22.737  45.489  1.00  0.00    -0.000 C 
BRANCH  28  29
ATOM     29  C   UNL     1       3.489  22.919  44.342  1.00  0.00    -0.003 C 
ATOM     30  C   UNL     1       3.160  24.112  43.447  1.00  0.00     0.004 C 
ENDBRANCH  28  29
ENDBRANCH  27  28
ENDBRANCH  26  27
ENDBRANCH  25  26
ENDBRANCH  24  25
ENDBRANCH  23  24
ENDBRANCH  22  23
ENDBRANCH  21  22
ENDBRANCH  20  21
ENDBRANCH  19  20
ENDBRANCH  18  19
ENDBRANCH  17  18
ENDBRANCH   1  17
TORSDOF 26
ENDMDL
MODEL 4
REMARK VINA RESULT:    -5.046      3.677      9.173
REMARK INTER + INTRA:         -16.335
REMARK INTER:                 -11.976
REMARK INTRA:                  -4.358
REMARK UNBOUND:                -3.618
REMARK SMILES CCCCCCCCCCCCCCCCCCCCCCCCCCCC(=O)[O-]
REMARK SMILES IDX 15 1 16 2 17 3 18 4 19 5 20 6 21 7 22 8 23 9 24 10 25 11
REMARK SMILES IDX 26 12 27 13 28 14 29 15 30 16 14 17 13 18 12 19 11 20 10 21
REMARK SMILES IDX 9 22 8 23 7 24 6 25 5 26 4 27 3 28 2 29 1 30
REMARK H PARENT
REMARK Flexibility Score: inf
ROOT
ATOM      1  C   UNL     1       2.529  21.797  51.110  1.00  0.00     0.000 C 
ENDROOT
BRANCH   1   2
ATOM      2  C   UNL     1       3.788  22.178  51.913  1.00  0.00     0.000 C 
BRANCH   2   3
ATOM      3  C   UNL     1       4.974  22.691  51.071  1.00  0.00     0.000 C 
BRANCH   3   4
ATOM      4  C   UNL     1       5.623  23.988  51.588  1.00  0.00     0.000 C 
BRANCH   4   5
ATOM      5  C   UNL     1       4.906  24.561  52.822  1.00  0.00     0.000 C 
BRANCH   5   6
ATOM      6  C   UNL     1       4.099  25.834  52.511  1.00  0.00     0.000 C 
BRANCH   6   7
ATOM      7  C   UNL     1       3.864  26.103  51.013  1.00  0.00     0.000 C 
BRANCH   7   8
ATOM      8  C   UNL     1       2.518  25.560  50.509  1.00  0.00     0.000 C 
BRANCH   8   9
ATOM      9  C   UNL     1       2.467  25.544  48.973  1.00  0.00     0.000 C 
BRANCH   9  10
ATOM     10  C   UNL     1       1.601  24.393  48.421  1.00  0.00     0.000 C 
BRANCH  10  11
ATOM     11  C   UNL     1       0.704  24.792  47.235  1.00  0.00     0.000 C 
BRANCH  11  12
ATOM     12  C   UNL     1       0.991  24.051  45.919  1.00  0.00     0.006 C 
BRANCH  12  13
ATOM     13  C   UNL     1       2.374  23.385  45.899  1.00  0.00     0.053 C 
BRANCH  13  14
ATOM     14  C   UNL     1       2.606  22.703  44.588  1.00  0.00     0.041 C 
ATOM     15  O   UNL     1       1.636  22.222  43.945  1.00  0.00    -0.550 OA
ATOM     16  O   UNL     1       3.886  22.640  44.054  1.00  0.00    -0.550 OA
ENDBRANCH  13  14
ENDBRANCH  12  13
ENDBRANCH  11  12
ENDBRANCH  10  11
ENDBRANCH   9  10
ENDBRANCH   8   9
ENDBRANCH   7   8
ENDBRANCH   6   7
ENDBRANCH   5   6
ENDBRANCH   4   5
ENDBRANCH   3   4
ENDBRANCH   2   3
ENDBRANCH   1   2
BRANCH   1  17
ATOM     17  C   UNL     1       1.217  22.406  51.637  1.00  0.00     0.000 C 
BRANCH  17  18
ATOM     18  C   UNL     1       1.390  23.080  53.008  1.00  0.00     0.000 C 
BRANCH  18  19
ATOM     19  C   UNL     1       0.242  24.045  53.346  1.00  0.00     0.000 C 
BRANCH  19  20
ATOM     20  C   UNL     1       0.656  25.117  54.366  1.00  0.00     0.000 C 
BRANCH  20  21
ATOM     21  C   UNL     1      -0.496  26.069  54.732  1.00  0.00     0.000 C 
BRANCH  21  22
ATOM     22  C   UNL     1      -1.838  25.347  54.983  1.00  0.00    -0.000 C 
BRANCH  22  23
ATOM     23  C   UNL     1      -2.085  25.089  56.479  1.00  0.00    -0.000 C 
BRANCH  23  24
ATOM     24  C   UNL     1      -1.750  23.647  56.898  1.00  0.00    -0.000 C 
BRANCH  24  25
ATOM     25  C   UNL     1      -0.370  23.464  57.560  1.00  0.00    -0.000 C 
BRANCH  25  26
ATOM     26  C   UNL     1       0.585  22.480  56.850  1.00  0.00    -0.000 C 
BRANCH  26  27
ATOM     27  C   UNL     1       1.702  21.899  57.739  1.00  0.00    -0.000 C 
BRANCH  27  28
ATOM     28  C   UNL     1       2.918  22.837  57.910  1.00  0.00    -0.000 C 
BRANCH  28  29
ATOM     29  C   UNL     1       3.405  23.458  56.590  1.00  0.00    -0.003 C 
ATOM     30  C   UNL     1       4.051  22.436  55.657  1.00  0.00     0.004 C 
ENDBRANCH  28  29
ENDBRANCH  27  28
ENDBRANCH  26  27
ENDBRANCH  25  26
ENDBRANCH  24  25
ENDBRANCH  23  24
ENDBRANCH  22  23
ENDBRANCH  21  22
ENDBRANCH  20  21
ENDBRANCH  19  20
ENDBRANCH  18  19
ENDBRANCH  17  18
ENDBRANCH   1  17
TORSDOF 26
ENDMDL
MODEL 5
REMARK VINA RESULT:    -5.012      1.741      3.007
REMARK INTER + INTRA:         -16.247
REMARK INTER:                 -12.282
REMARK INTRA:                  -3.964
REMARK UNBOUND:                -3.618
REMARK SMILES CCCCCCCCCCCCCCCCCCCCCCCCCCCC(=O)[O-]
REMARK SMILES IDX 15 1 16 2 17 3 18 4 19 5 20 6 21 7 22 8 23 9 24 10 25 11
REMARK SMILES IDX 26 12 27 13 28 14 29 15 30 16 14 17 13 18 12 19 11 20 10 21
REMARK SMILES IDX 9 22 8 23 7 24 6 25 5 26 4 27 3 28 2 29 1 30
REMARK H PARENT
REMARK Flexibility Score: inf
ROOT
ATOM      1  C   UNL     1       3.875  21.975  53.161  1.00  0.00     0.000 C 
ENDROOT
BRANCH   1   2
ATOM      2  C   UNL     1       4.645  23.232  52.708  1.00  0.00     0.000 C 
BRANCH   2   3
ATOM      3  C   UNL     1       4.198  24.549  53.373  1.00  0.00     0.000 C 
BRANCH   3   4
ATOM      4  C   UNL     1       3.554  24.388  54.762  1.00  0.00     0.000 C 
BRANCH   4   5
ATOM      5  C   UNL     1       2.280  25.234  54.929  1.00  0.00     0.000 C 
BRANCH   5   6
ATOM      6  C   UNL     1       1.003  24.382  55.045  1.00  0.00     0.000 C 
BRANCH   6   7
ATOM      7  C   UNL     1       1.239  22.907  55.423  1.00  0.00     0.000 C 
BRANCH   7   8
ATOM      8  C   UNL     1       0.863  22.593  56.879  1.00  0.00     0.000 C 
BRANCH   8   9
ATOM      9  C   UNL     1       2.021  21.898  57.612  1.00  0.00     0.000 C 
BRANCH   9  10
ATOM     10  C   UNL     1       3.017  22.902  58.230  1.00  0.00     0.000 C 
BRANCH  10  11
ATOM     11  C   UNL     1       4.487  22.649  57.843  1.00  0.00     0.000 C 
BRANCH  11  12
ATOM     12  C   UNL     1       4.696  21.692  56.660  1.00  0.00     0.006 C 
BRANCH  12  13
ATOM     13  C   UNL     1       5.780  20.638  56.930  1.00  0.00     0.053 C 
BRANCH  13  14
ATOM     14  C   UNL     1       5.413  19.804  58.117  1.00  0.00     0.041 C 
ATOM     15  O   UNL     1       4.378  19.086  58.090  1.00  0.00    -0.550 OA
ATOM     16  O   UNL     1       6.239  19.780  59.232  1.00  0.00    -0.550 OA
ENDBRANCH  13  14
ENDBRANCH  12  13
ENDBRANCH  11  12
ENDBRANCH  10  11
ENDBRANCH   9  10
ENDBRANCH   8   9
ENDBRANCH   7   8
ENDBRANCH   6   7
ENDBRANCH   5   6
ENDBRANCH   4   5
ENDBRANCH   3   4
ENDBRANCH   2   3
ENDBRANCH   1   2
BRANCH   1  17
ATOM     17  C   UNL     1       3.324  21.107  52.015  1.00  0.00     0.000 C 
BRANCH  17  18
ATOM     18  C   UNL     1       2.365  21.884  51.097  1.00  0.00     0.000 C 
BRANCH  18  19
ATOM     19  C   UNL     1       1.060  22.285  51.803  1.00  0.00     0.000 C 
BRANCH  19  20
ATOM     20  C   UNL     1       0.584  23.691  51.405  1.00  0.00     0.000 C 
BRANCH  20  21
ATOM     21  C   UNL     1       1.698  24.539  50.765  1.00  0.00     0.000 C 
BRANCH  21  22
ATOM     22  C   UNL     1       1.215  25.920  50.271  1.00  0.00    -0.000 C 
BRANCH  22  23
ATOM     23  C   UNL     1       0.988  25.942  48.749  1.00  0.00    -0.000 C 
BRANCH  23  24
ATOM     24  C   UNL     1       1.630  24.740  48.034  1.00  0.00    -0.000 C 
BRANCH  24  25
ATOM     25  C   UNL     1       1.283  24.609  46.538  1.00  0.00    -0.000 C 
BRANCH  25  26
ATOM     26  C   UNL     1       1.966  23.440  45.795  1.00  0.00    -0.000 C 
BRANCH  26  27
ATOM     27  C   UNL     1       2.902  23.858  44.644  1.00  0.00    -0.000 C 
BRANCH  27  28
ATOM     28  C   UNL     1       3.127  22.751  43.589  1.00  0.00    -0.000 C 
BRANCH  28  29
ATOM     29  C   UNL     1       1.962  21.753  43.486  1.00  0.00    -0.003 C 
ATOM     30  C   UNL     1       1.814  21.156  42.088  1.00  0.00     0.004 C 
ENDBRANCH  28  29
ENDBRANCH  27  28
ENDBRANCH  26  27
ENDBRANCH  25  26
ENDBRANCH  24  25
ENDBRANCH  23  24
ENDBRANCH  22  23
ENDBRANCH  21  22
ENDBRANCH  20  21
ENDBRANCH  19  20
ENDBRANCH  18  19
ENDBRANCH  17  18
ENDBRANCH   1  17
TORSDOF 26
ENDMDL
MODEL 6
REMARK VINA RESULT:    -4.958      1.204      2.958
REMARK INTER + INTRA:         -16.113
REMARK INTER:                 -11.420
REMARK INTRA:                  -4.693
REMARK UNBOUND:                -3.618
REMARK SMILES CCCCCCCCCCCCCCCCCCCCCCCCCCCC(=O)[O-]
REMARK SMILES IDX 15 1 16 2 17 3 18 4 19 5 20 6 21 7 22 8 23 9 24 10 25 11
REMARK SMILES IDX 26 12 27 13 28 14 29 15 30 16 14 17 13 18 12 19 11 20 10 21
REMARK SMILES IDX 9 22 8 23 7 24 6 25 5 26 4 27 3 28 2 29 1 30
REMARK H PARENT
REMARK Flexibility Score: inf
ROOT
ATOM      1  C   UNL     1       0.507  23.638  51.776  1.00  0.00     0.000 C 
ENDROOT
BRANCH   1   2
ATOM      2  C   UNL     1       0.638  24.047  53.257  1.00  0.00     0.000 C 
BRANCH   2   3
ATOM      3  C   UNL     1       1.097  25.500  53.498  1.00  0.00     0.000 C 
BRANCH   3   4
ATOM      4  C   UNL     1       0.002  26.448  54.020  1.00  0.00     0.000 C 
BRANCH   4   5
ATOM      5  C   UNL     1       0.053  26.630  55.547  1.00  0.00     0.000 C 
BRANCH   5   6
ATOM      6  C   UNL     1      -1.272  26.262  56.240  1.00  0.00     0.000 C 
BRANCH   6   7
ATOM      7  C   UNL     1      -2.134  25.233  55.486  1.00  0.00     0.000 C 
BRANCH   7   8
ATOM      8  C   UNL     1      -1.884  23.788  55.946  1.00  0.00     0.000 C 
BRANCH   8   9
ATOM      9  C   UNL     1      -1.683  23.719  57.467  1.00  0.00     0.000 C 
BRANCH   9  10
ATOM     10  C   UNL     1      -0.346  23.055  57.858  1.00  0.00     0.000 C 
BRANCH  10  11
ATOM     11  C   UNL     1       0.672  22.964  56.706  1.00  0.00     0.000 C 
BRANCH  11  12
ATOM     12  C   UNL     1       2.131  23.244  57.099  1.00  0.00     0.006 C 
BRANCH  12  13
ATOM     13  C   UNL     1       3.128  22.886  55.987  1.00  0.00     0.053 C 
BRANCH  13  14
ATOM     14  C   UNL     1       4.261  22.081  56.541  1.00  0.00     0.041 C 
ATOM     15  O   UNL     1       4.099  21.398  57.588  1.00  0.00    -0.550 OA
ATOM     16  O   UNL     1       5.478  22.044  55.876  1.00  0.00    -0.550 OA
ENDBRANCH  13  14
ENDBRANCH  12  13
ENDBRANCH  11  12
ENDBRANCH  10  11
ENDBRANCH   9  10
ENDBRANCH   8   9
ENDBRANCH   7   8
ENDBRANCH   6   7
ENDBRANCH   5   6
ENDBRANCH   4   5
ENDBRANCH   3   4
ENDBRANCH   2   3
ENDBRANCH   1   2
BRANCH   1  17
ATOM     17  C   UNL     1       1.256  22.349  51.393  1.00  0.00     0.000 C 
BRANCH  17  18
ATOM     18  C   UNL     1       2.164  21.837  52.525  1.00  0.00     0.000 C 
BRANCH  18  19
ATOM     19  C   UNL     1       3.510  21.300  52.010  1.00  0.00     0.000 C 
BRANCH  19  20
ATOM     20  C   UNL     1       4.510  22.423  51.694  1.00  0.00     0.000 C 
BRANCH  20  21
ATOM     21  C   UNL     1       4.530  23.524  52.770  1.00  0.00     0.000 C 
BRANCH  21  22
ATOM     22  C   UNL     1       4.540  24.954  52.189  1.00  0.00    -0.000 C 
BRANCH  22  23
ATOM     23  C   UNL     1       4.078  24.985  50.721  1.00  0.00    -0.000 C 
BRANCH  23  24
ATOM     24  C   UNL     1       3.306  26.269  50.368  1.00  0.00    -0.000 C 
BRANCH  24  25
ATOM     25  C   UNL     1       1.959  26.044  49.652  1.00  0.00    -0.000 C 
BRANCH  25  26
ATOM     26  C   UNL     1       1.934  24.888  48.628  1.00  0.00    -0.000 C 
BRANCH  26  27
ATOM     27  C   UNL     1       1.252  25.221  47.287  1.00  0.00    -0.000 C 
BRANCH  27  28
ATOM     28  C   UNL     1       1.172  24.024  46.312  1.00  0.00    -0.000 C 
BRANCH  28  29
ATOM     29  C   UNL     1       2.366  23.938  45.345  1.00  0.00    -0.003 C 
ATOM     30  C   UNL     1       2.688  22.505  44.927  1.00  0.00     0.004 C 
ENDBRANCH  28  29
ENDBRANCH  27  28
ENDBRANCH  26  27
ENDBRANCH  25  26
ENDBRANCH  24  25
ENDBRANCH  23  24
ENDBRANCH  22  23
ENDBRANCH  21  22
ENDBRANCH  20  21
ENDBRANCH  19  20
ENDBRANCH  18  19
ENDBRANCH  17  18
ENDBRANCH   1  17
TORSDOF 26
ENDMDL
MODEL 7
REMARK VINA RESULT:    -4.943      3.921      8.859
REMARK INTER + INTRA:         -16.073
REMARK INTER:                 -10.134
REMARK INTRA:                  -5.938
REMARK UNBOUND:                -3.618
REMARK SMILES CCCCCCCCCCCCCCCCCCCCCCCCCCCC(=O)[O-]
REMARK SMILES IDX 15 1 16 2 17 3 18 4 19 5 20 6 21 7 22 8 23 9 24 10 25 11
REMARK SMILES IDX 26 12 27 13 28 14 29 15 30 16 14 17 13 18 12 19 11 20 10 21
REMARK SMILES IDX 9 22 8 23 7 24 6 25 5 26 4 27 3 28 2 29 1 30
REMARK H PARENT
REMARK Flexibility Score: inf
ROOT
ATOM      1  C   UNL     1       0.273  22.720  56.715  1.00  0.00     0.000 C 
ENDROOT
BRANCH   1   2
ATOM      2  C   UNL     1       0.732  23.387  55.403  1.00  0.00     0.000 C 
BRANCH   2   3
ATOM      3  C   UNL     1       1.922  24.357  55.543  1.00  0.00     0.000 C 
BRANCH   3   4
ATOM      4  C   UNL     1       1.795  25.660  54.732  1.00  0.00     0.000 C 
BRANCH   4   5
ATOM      5  C   UNL     1       0.544  25.682  53.836  1.00  0.00     0.000 C 
BRANCH   5   6
ATOM      6  C   UNL     1       0.866  26.001  52.364  1.00  0.00     0.000 C 
BRANCH   6   7
ATOM      7  C   UNL     1       1.087  24.770  51.466  1.00  0.00     0.000 C 
BRANCH   7   8
ATOM      8  C   UNL     1       0.233  23.562  51.881  1.00  0.00     0.000 C 
BRANCH   8   9
ATOM      9  C   UNL     1       1.011  22.249  51.712  1.00  0.00     0.000 C 
BRANCH   9  10
ATOM     10  C   UNL     1       2.540  22.456  51.763  1.00  0.00     0.000 C 
BRANCH  10  11
ATOM     11  C   UNL     1       3.208  21.908  53.038  1.00  0.00     0.000 C 
BRANCH  11  12
ATOM     12  C   UNL     1       4.469  22.660  53.490  1.00  0.00     0.006 C 
BRANCH  12  13
ATOM     13  C   UNL     1       4.738  23.925  52.663  1.00  0.00     0.053 C 
BRANCH  13  14
ATOM     14  C   UNL     1       5.889  23.706  51.732  1.00  0.00     0.041 C 
ATOM     15  O   UNL     1       5.763  22.937  50.742  1.00  0.00    -0.550 OA
ATOM     16  O   UNL     1       7.082  24.387  51.929  1.00  0.00    -0.550 OA
ENDBRANCH  13  14
ENDBRANCH  12  13
ENDBRANCH  11  12
ENDBRANCH  10  11
ENDBRANCH   9  10
ENDBRANCH   8   9
ENDBRANCH   7   8
ENDBRANCH   6   7
ENDBRANCH   5   6
ENDBRANCH   4   5
ENDBRANCH   3   4
ENDBRANCH   2   3
ENDBRANCH   1   2
BRANCH   1  17
ATOM     17  C   UNL     1      -0.979  23.345  57.355  1.00  0.00     0.000 C 
BRANCH  17  18
ATOM     18  C   UNL     1      -1.950  23.921  56.309  1.00  0.00     0.000 C 
BRANCH  18  19
ATOM     19  C   UNL     1      -2.188  25.429  56.485  1.00  0.00     0.000 C 
BRANCH  19  20
ATOM     20  C   UNL     1      -1.443  26.004  57.700  1.00  0.00     0.000 C 
BRANCH  20  21
ATOM     21  C   UNL     1      -0.392  27.060  57.312  1.00  0.00     0.000 C 
BRANCH  21  22
ATOM     22  C   UNL     1       0.912  26.963  58.132  1.00  0.00    -0.000 C 
BRANCH  22  23
ATOM     23  C   UNL     1       0.843  25.858  59.200  1.00  0.00    -0.000 C 
BRANCH  23  24
ATOM     24  C   UNL     1       2.048  24.902  59.147  1.00  0.00    -0.000 C 
BRANCH  24  25
ATOM     25  C   UNL     1       2.109  23.866  60.286  1.00  0.00    -0.000 C 
BRANCH  25  26
ATOM     26  C   UNL     1       1.570  22.461  59.938  1.00  0.00    -0.000 C 
BRANCH  26  27
ATOM     27  C   UNL     1       2.634  21.348  59.887  1.00  0.00    -0.000 C 
BRANCH  27  28
ATOM     28  C   UNL     1       2.889  20.790  58.468  1.00  0.00    -0.000 C 
BRANCH  28  29
ATOM     29  C   UNL     1       3.728  21.726  57.581  1.00  0.00    -0.003 C 
ATOM     30  C   UNL     1       4.939  22.305  58.310  1.00  0.00     0.004 C 
ENDBRANCH  28  29
ENDBRANCH  27  28
ENDBRANCH  26  27
ENDBRANCH  25  26
ENDBRANCH  24  25
ENDBRANCH  23  24
ENDBRANCH  22  23
ENDBRANCH  21  22
ENDBRANCH  20  21
ENDBRANCH  19  20
ENDBRANCH  18  19
ENDBRANCH  17  18
ENDBRANCH   1  17
TORSDOF 26
ENDMDL
MODEL 8
REMARK VINA RESULT:    -4.922      3.181      8.068
REMARK INTER + INTRA:         -16.021
REMARK INTER:                 -10.469
REMARK INTRA:                  -5.551
REMARK UNBOUND:                -3.618
REMARK SMILES CCCCCCCCCCCCCCCCCCCCCCCCCCCC(=O)[O-]
REMARK SMILES IDX 15 1 16 2 17 3 18 4 19 5 20 6 21 7 22 8 23 9 24 10 25 11
REMARK SMILES IDX 26 12 27 13 28 14 29 15 30 16 14 17 13 18 12 19 11 20 10 21
REMARK SMILES IDX 9 22 8 23 7 24 6 25 5 26 4 27 3 28 2 29 1 30
REMARK H PARENT
REMARK Flexibility Score: inf
ROOT
ATOM      1  C   UNL     1       1.097  25.279  53.405  1.00  0.00     0.000 C 
ENDROOT
BRANCH   1   2
ATOM      2  C   UNL     1       0.160  24.070  53.214  1.00  0.00     0.000 C 
BRANCH   2   3
ATOM      3  C   UNL     1       0.275  23.360  51.850  1.00  0.00     0.000 C 
BRANCH   3   4
ATOM      4  C   UNL     1       1.154  24.084  50.815  1.00  0.00     0.000 C 
BRANCH   4   5
ATOM      5  C   UNL     1       2.484  23.356  50.551  1.00  0.00     0.000 C 
BRANCH   5   6
ATOM      6  C   UNL     1       2.436  21.863  50.927  1.00  0.00     0.000 C 
BRANCH   6   7
ATOM      7  C   UNL     1       3.448  21.433  52.005  1.00  0.00     0.000 C 
BRANCH   7   8
ATOM      8  C   UNL     1       4.286  22.602  52.543  1.00  0.00     0.000 C 
BRANCH   8   9
ATOM      9  C   UNL     1       3.826  23.012  53.950  1.00  0.00     0.000 C 
BRANCH   9  10
ATOM     10  C   UNL     1       4.337  22.050  55.044  1.00  0.00     0.000 C 
BRANCH  10  11
ATOM     11  C   UNL     1       5.370  22.676  56.000  1.00  0.00     0.000 C 
BRANCH  11  12
ATOM     12  C   UNL     1       4.818  23.106  57.368  1.00  0.00     0.006 C 
BRANCH  12  13
ATOM     13  C   UNL     1       5.561  22.455  58.543  1.00  0.00     0.053 C 
BRANCH  13  14
ATOM     14  C   UNL     1       5.457  20.964  58.465  1.00  0.00     0.041 C 
ATOM     15  O   UNL     1       6.484  20.249  58.614  1.00  0.00    -0.550 OA
ATOM     16  O   UNL     1       4.220  20.363  58.278  1.00  0.00    -0.550 OA
ENDBRANCH  13  14
ENDBRANCH  12  13
ENDBRANCH  11  12
ENDBRANCH  10  11
ENDBRANCH   9  10
ENDBRANCH   8   9
ENDBRANCH   7   8
ENDBRANCH   6   7
ENDBRANCH   5   6
ENDBRANCH   4   5
ENDBRANCH   3   4
ENDBRANCH   2   3
ENDBRANCH   1   2
BRANCH   1  17
ATOM     17  C   UNL     1       1.039  25.929  54.799  1.00  0.00     0.000 C 
BRANCH  17  18
ATOM     18  C   UNL     1       2.433  26.111  55.423  1.00  0.00     0.000 C 
BRANCH  18  19
ATOM     19  C   UNL     1       2.454  25.811  56.930  1.00  0.00     0.000 C 
BRANCH  19  20
ATOM     20  C   UNL     1       1.212  26.354  57.655  1.00  0.00     0.000 C 
BRANCH  20  21
ATOM     21  C   UNL     1       1.086  25.830  59.096  1.00  0.00     0.000 C 
BRANCH  21  22
ATOM     22  C   UNL     1       2.348  25.097  59.600  1.00  0.00    -0.000 C 
BRANCH  22  23
ATOM     23  C   UNL     1       2.012  24.008  60.632  1.00  0.00    -0.000 C 
BRANCH  23  24
ATOM     24  C   UNL     1       2.062  22.589  60.038  1.00  0.00    -0.000 C 
BRANCH  24  25
ATOM     25  C   UNL     1       0.917  22.250  59.063  1.00  0.00    -0.000 C 
BRANCH  25  26
ATOM     26  C   UNL     1       1.287  22.283  57.564  1.00  0.00    -0.000 C 
BRANCH  26  27
ATOM     27  C   UNL     1       0.193  22.843  56.634  1.00  0.00    -0.000 C 
BRANCH  27  28
ATOM     28  C   UNL     1      -1.076  23.319  57.377  1.00  0.00    -0.000 C 
BRANCH  28  29
ATOM     29  C   UNL     1      -2.138  23.933  56.449  1.00  0.00    -0.003 C 
ATOM     30  C   UNL     1      -2.257  25.448  56.605  1.00  0.00     0.004 C 
ENDBRANCH  28  29
ENDBRANCH  27  28
ENDBRANCH  26  27
ENDBRANCH  25  26
ENDBRANCH  24  25
ENDBRANCH  23  24
ENDBRANCH  22  23
ENDBRANCH  21  22
ENDBRANCH  20  21
ENDBRANCH  19  20
ENDBRANCH  18  19
ENDBRANCH  17  18
ENDBRANCH   1  17
TORSDOF 26
ENDMDL
MODEL 9
REMARK VINA RESULT:    -4.906      2.765      5.465
REMARK INTER + INTRA:         -15.982
REMARK INTER:                 -11.053
REMARK INTRA:                  -4.929
REMARK UNBOUND:                -3.618
REMARK SMILES CCCCCCCCCCCCCCCCCCCCCCCCCCCC(=O)[O-]
REMARK SMILES IDX 15 1 16 2 17 3 18 4 19 5 20 6 21 7 22 8 23 9 24 10 25 11
REMARK SMILES IDX 26 12 27 13 28 14 29 15 30 16 14 17 13 18 12 19 11 20 10 21
REMARK SMILES IDX 9 22 8 23 7 24 6 25 5 26 4 27 3 28 2 29 1 30
REMARK H PARENT
REMARK Flexibility Score: inf
ROOT
ATOM      1  C   UNL     1       1.444  25.863  53.956  1.00  0.00     0.000 C 
ENDROOT
BRANCH   1   2
ATOM      2  C   UNL     1       0.056  25.195  53.886  1.00  0.00     0.000 C 
BRANCH   2   3
ATOM      3  C   UNL     1      -0.926  25.604  55.003  1.00  0.00     0.000 C 
BRANCH   3   4
ATOM      4  C   UNL     1      -2.168  24.705  55.135  1.00  0.00     0.000 C 
BRANCH   4   5
ATOM      5  C   UNL     1      -2.085  23.748  56.336  1.00  0.00     0.000 C 
BRANCH   5   6
ATOM      6  C   UNL     1      -1.009  24.160  57.358  1.00  0.00     0.000 C 
BRANCH   6   7
ATOM      7  C   UNL     1      -0.139  23.004  57.886  1.00  0.00     0.000 C 
BRANCH   7   8
ATOM      8  C   UNL     1       1.011  22.636  56.936  1.00  0.00     0.000 C 
BRANCH   8   9
ATOM      9  C   UNL     1       1.955  23.829  56.722  1.00  0.00     0.000 C 
BRANCH   9  10
ATOM     10  C   UNL     1       3.405  23.522  57.150  1.00  0.00     0.000 C 
BRANCH  10  11
ATOM     11  C   UNL     1       3.724  22.019  57.262  1.00  0.00     0.000 C 
BRANCH  11  12
ATOM     12  C   UNL     1       4.996  21.677  58.053  1.00  0.00     0.006 C 
BRANCH  12  13
ATOM     13  C   UNL     1       6.114  21.107  57.169  1.00  0.00     0.053 C 
BRANCH  13  14
ATOM     14  C   UNL     1       6.731  19.907  57.816  1.00  0.00     0.041 C 
ATOM     15  O   UNL     1       7.959  19.900  58.095  1.00  0.00    -0.550 OA
ATOM     16  O   UNL     1       5.941  18.817  58.155  1.00  0.00    -0.550 OA
ENDBRANCH  13  14
ENDBRANCH  12  13
ENDBRANCH  11  12
ENDBRANCH  10  11
ENDBRANCH   9  10
ENDBRANCH   8   9
ENDBRANCH   7   8
ENDBRANCH   6   7
ENDBRANCH   5   6
ENDBRANCH   4   5
ENDBRANCH   3   4
ENDBRANCH   2   3
ENDBRANCH   1   2
BRANCH   1  17
ATOM     17  C   UNL     1       2.067  26.204  52.591  1.00  0.00     0.000 C 
BRANCH  17  18
ATOM     18  C   UNL     1       1.098  25.953  51.422  1.00  0.00     0.000 C 
BRANCH  18  19
ATOM     19  C   UNL     1       1.818  25.519  50.135  1.00  0.00     0.000 C 
BRANCH  19  20
ATOM     20  C   UNL     1       1.505  24.066  49.748  1.00  0.00     0.000 C 
BRANCH  20  21
ATOM     21  C   UNL     1       2.711  23.126  49.931  1.00  0.00     0.000 C 
BRANCH  21  22
ATOM     22  C   UNL     1       2.407  21.898  50.816  1.00  0.00    -0.000 C 
BRANCH  22  23
ATOM     23  C   UNL     1       1.379  22.217  51.915  1.00  0.00    -0.000 C 
BRANCH  23  24
ATOM     24  C   UNL     1       2.009  22.284  53.317  1.00  0.00    -0.000 C 
BRANCH  24  25
ATOM     25  C   UNL     1       3.545  22.157  53.349  1.00  0.00    -0.000 C 
BRANCH  25  26
ATOM     26  C   UNL     1       4.314  23.457  53.670  1.00  0.00    -0.000 C 
BRANCH  26  27
ATOM     27  C   UNL     1       5.834  23.394  53.419  1.00  0.00    -0.000 C 
BRANCH  27  28
ATOM     28  C   UNL     1       6.250  23.811  51.990  1.00  0.00    -0.000 C 
BRANCH  28  29
ATOM     29  C   UNL     1       5.344  24.892  51.376  1.00  0.00    -0.003 C 
ATOM     30  C   UNL     1       6.131  26.002  50.682  1.00  0.00     0.004 C 
ENDBRANCH  28  29
ENDBRANCH  27  28
ENDBRANCH  26  27
ENDBRANCH  25  26
ENDBRANCH  24  25
ENDBRANCH  23  24
ENDBRANCH  22  23
ENDBRANCH  21  22
ENDBRANCH  20  21
ENDBRANCH  19  20
ENDBRANCH  18  19
ENDBRANCH  17  18
ENDBRANCH   1  17
TORSDOF 26
ENDMDL
