MODEL 1
REMARK VINA RESULT:    -7.113      0.000      0.000
REMARK INTER + INTRA:          -8.640
REMARK INTER:                  -8.360
REMARK INTRA:                  -0.280
REMARK UNBOUND:                -0.280
REMARK SMILES O=c1cc(-c2ccc(O)c(O)c2)oc2cc(O)cc(O)c12
REMARK SMILES IDX 4 1 3 2 2 3 1 4 21 5 19 6 18 7 16 8 15 9 14 10 13 11 5 12
REMARK SMILES IDX 6 13 7 14 8 15 12 16 10 17 9 18 11 20 20 22 17 24
REMARK H PARENT 9 19 11 21 20 23 17 25
REMARK Flexibility Score: inf
ROOT
ATOM      1  C   UNL     1      -6.006 -33.522 -49.719  1.00  0.00     0.138 A 
ATOM      2  C   UNL     1      -7.027 -34.178 -50.421  1.00  0.00     0.100 A 
ATOM      3  C   UNL     1      -8.295 -33.601 -50.494  1.00  0.00     0.197 A 
ATOM      4  O   UNL     1      -9.174 -34.188 -51.177  1.00  0.00    -0.289 OA
ATOM      5  C   UNL     1      -8.551 -32.377 -49.832  1.00  0.00     0.107 A 
ATOM      6  C   UNL     1      -9.815 -31.711 -49.809  1.00  0.00     0.134 A 
ATOM      7  C   UNL     1      -9.921 -30.454 -49.202  1.00  0.00     0.093 A 
ATOM      8  C   UNL     1      -8.825 -29.864 -48.566  1.00  0.00     0.123 A 
ATOM      9  C   UNL     1      -7.601 -30.528 -48.540  1.00  0.00     0.094 A 
ATOM     10  C   UNL     1      -7.454 -31.768 -49.166  1.00  0.00     0.146 A 
ATOM     11  O   UNL     1      -6.263 -32.358 -49.133  1.00  0.00    -0.456 OA
ENDROOT
BRANCH   1  12
ATOM     12  C   UNL     1      -4.639 -34.091 -49.606  1.00  0.00     0.021 A 
ATOM     13  C   UNL     1      -3.921 -34.399 -50.775  1.00  0.00     0.016 A 
ATOM     14  C   UNL     1      -2.637 -34.943 -50.696  1.00  0.00     0.051 A 
ATOM     15  C   UNL     1      -2.051 -35.198 -49.450  1.00  0.00     0.157 A 
ATOM     16  C   UNL     1      -4.050 -34.362 -48.356  1.00  0.00     0.062 A 
ATOM     17  C   UNL     1      -2.764 -34.909 -48.275  1.00  0.00     0.158 A 
BRANCH  15  18
ATOM     18  O   UNL     1      -0.769 -35.738 -49.376  1.00  0.00    -0.504 OA
ATOM     19  H   UNL     1       0.053 -35.190 -49.601  1.00  0.00     0.293 HD
ENDBRANCH  15  18
BRANCH  17  20
ATOM     20  O   UNL     1      -2.213 -35.162 -47.018  1.00  0.00    -0.504 OA
ATOM     21  H   UNL     1      -2.496 -34.646 -46.193  1.00  0.00     0.293 HD
ENDBRANCH  17  20
ENDBRANCH   1  12
BRANCH   6  22
ATOM     22  O   UNL     1     -10.991 -32.246 -50.342  1.00  0.00    -0.507 OA
ATOM     23  H   UNL     1     -11.514 -33.009 -49.943  1.00  0.00     0.293 HD
ENDBRANCH   6  22
BRANCH   8  24
ATOM     24  O   UNL     1      -8.946 -28.620 -47.952  1.00  0.00    -0.508 OA
ATOM     25  H   UNL     1      -8.143 -28.138 -47.567  1.00  0.00     0.293 HD
ENDBRANCH   8  24
TORSDOF 5
ENDMDL
MODEL 2
REMARK VINA RESULT:    -7.106      2.097      7.225
REMARK INTER + INTRA:          -8.633
REMARK INTER:                  -8.347
REMARK INTRA:                  -0.285
REMARK UNBOUND:                -0.280
REMARK SMILES O=c1cc(-c2ccc(O)c(O)c2)oc2cc(O)cc(O)c12
REMARK SMILES IDX 4 1 3 2 2 3 1 4 21 5 19 6 18 7 16 8 15 9 14 10 13 11 5 12
REMARK SMILES IDX 6 13 7 14 8 15 12 16 10 17 9 18 11 20 20 22 17 24
REMARK H PARENT 9 19 11 21 20 23 17 25
REMARK Flexibility Score: inf
ROOT
ATOM      1  C   UNL     1      -5.535 -33.053 -49.621  1.00  0.00     0.138 A 
ATOM      2  C   UNL     1      -4.502 -32.209 -50.051  1.00  0.00     0.100 A 
ATOM      3  C   UNL     1      -3.251 -32.747 -50.353  1.00  0.00     0.197 A 
ATOM      4  O   UNL     1      -2.362 -31.971 -50.789  1.00  0.00    -0.289 OA
ATOM      5  C   UNL     1      -3.023 -34.134 -50.190  1.00  0.00     0.107 A 
ATOM      6  C   UNL     1      -1.779 -34.791 -50.434  1.00  0.00     0.134 A 
ATOM      7  C   UNL     1      -1.702 -36.185 -50.332  1.00  0.00     0.093 A 
ATOM      8  C   UNL     1      -2.809 -36.942 -49.938  1.00  0.00     0.123 A 
ATOM      9  C   UNL     1      -4.013 -36.306 -49.648  1.00  0.00     0.094 A 
ATOM     10  C   UNL     1      -4.131 -34.920 -49.774  1.00  0.00     0.146 A 
ATOM     11  O   UNL     1      -5.305 -34.356 -49.506  1.00  0.00    -0.456 OA
ENDROOT
BRANCH   1  12
ATOM     12  C   UNL     1      -6.885 -32.534 -49.283  1.00  0.00     0.021 A 
ATOM     13  C   UNL     1      -7.558 -31.712 -50.203  1.00  0.00     0.016 A 
ATOM     14  C   UNL     1      -8.825 -31.204 -49.907  1.00  0.00     0.051 A 
ATOM     15  C   UNL     1      -9.438 -31.500 -48.683  1.00  0.00     0.157 A 
ATOM     16  C   UNL     1      -7.501 -32.818 -48.049  1.00  0.00     0.062 A 
ATOM     17  C   UNL     1      -8.769 -32.308 -47.749  1.00  0.00     0.158 A 
BRANCH  15  18
ATOM     18  O   UNL     1     -10.703 -30.993 -48.392  1.00  0.00    -0.504 OA
ATOM     19  H   UNL     1     -11.505 -31.601 -48.279  1.00  0.00     0.293 HD
ENDBRANCH  15  18
BRANCH  17  20
ATOM     20  O   UNL     1      -9.348 -32.612 -46.516  1.00  0.00    -0.504 OA
ATOM     21  H   UNL     1      -8.837 -32.523 -45.646  1.00  0.00     0.293 HD
ENDBRANCH  17  20
ENDBRANCH   1  12
BRANCH   6  22
ATOM     22  O   UNL     1      -0.592 -34.124 -50.755  1.00  0.00    -0.507 OA
ATOM     23  H   UNL     1       0.296 -34.272 -50.304  1.00  0.00     0.293 HD
ENDBRANCH   6  22
BRANCH   8  24
ATOM     24  O   UNL     1      -2.717 -38.327 -49.823  1.00  0.00    -0.508 OA
ATOM     25  H   UNL     1      -2.953 -38.940 -50.594  1.00  0.00     0.293 HD
ENDBRANCH   8  24
TORSDOF 5
ENDMDL
MODEL 3
REMARK VINA RESULT:    -7.028      1.346      1.574
REMARK INTER + INTRA:          -8.541
REMARK INTER:                  -8.263
REMARK INTRA:                  -0.278
REMARK UNBOUND:                -0.280
REMARK SMILES O=c1cc(-c2ccc(O)c(O)c2)oc2cc(O)cc(O)c12
REMARK SMILES IDX 4 1 3 2 2 3 1 4 21 5 19 6 18 7 16 8 15 9 14 10 13 11 5 12
REMARK SMILES IDX 6 13 7 14 8 15 12 16 10 17 9 18 11 20 20 22 17 24
REMARK H PARENT 9 19 11 21 20 23 17 25
REMARK Flexibility Score: inf
ROOT
ATOM      1  C   UNL     1      -5.592 -34.248 -50.058  1.00  0.00     0.138 A 
ATOM      2  C   UNL     1      -6.651 -34.713 -50.851  1.00  0.00     0.100 A 
ATOM      3  C   UNL     1      -7.883 -34.058 -50.810  1.00  0.00     0.197 A 
ATOM      4  O   UNL     1      -8.796 -34.465 -51.575  1.00  0.00    -0.289 OA
ATOM      5  C   UNL     1      -8.064 -32.953 -49.944  1.00  0.00     0.107 A 
ATOM      6  C   UNL     1      -9.285 -32.228 -49.794  1.00  0.00     0.134 A 
ATOM      7  C   UNL     1      -9.316 -31.090 -48.978  1.00  0.00     0.093 A 
ATOM      8  C   UNL     1      -8.187 -30.684 -48.262  1.00  0.00     0.123 A 
ATOM      9  C   UNL     1      -7.005 -31.414 -48.364  1.00  0.00     0.094 A 
ATOM     10  C   UNL     1      -6.932 -32.534 -49.196  1.00  0.00     0.146 A 
ATOM     11  O   UNL     1      -5.779 -33.190 -49.277  1.00  0.00    -0.456 OA
ENDROOT
BRANCH   1  12
ATOM     12  C   UNL     1      -4.262 -34.909 -50.059  1.00  0.00     0.021 A 
ATOM     13  C   UNL     1      -4.161 -36.256 -49.671  1.00  0.00     0.016 A 
ATOM     14  C   UNL     1      -2.921 -36.899 -49.657  1.00  0.00     0.051 A 
ATOM     15  C   UNL     1      -1.759 -36.206 -50.019  1.00  0.00     0.157 A 
ATOM     16  C   UNL     1      -3.089 -34.214 -50.410  1.00  0.00     0.062 A 
ATOM     17  C   UNL     1      -1.846 -34.855 -50.393  1.00  0.00     0.158 A 
BRANCH  15  18
ATOM     18  O   UNL     1      -0.525 -36.852 -50.005  1.00  0.00    -0.504 OA
ATOM     19  H   UNL     1      -0.441 -37.833 -49.766  1.00  0.00     0.293 HD
ENDBRANCH  15  18
BRANCH  17  20
ATOM     20  O   UNL     1      -0.706 -34.133 -50.749  1.00  0.00    -0.504 OA
ATOM     21  H   UNL     1       0.118 -34.583 -51.130  1.00  0.00     0.293 HD
ENDBRANCH  17  20
ENDBRANCH   1  12
BRANCH   6  22
ATOM     22  O   UNL     1     -10.492 -32.592 -50.398  1.00  0.00    -0.507 OA
ATOM     23  H   UNL     1     -11.348 -32.799 -49.908  1.00  0.00     0.293 HD
ENDBRANCH   6  22
BRANCH   8  24
ATOM     24  O   UNL     1      -8.232 -29.560 -47.441  1.00  0.00    -0.508 OA
ATOM     25  H   UNL     1      -9.104 -29.083 -47.243  1.00  0.00     0.293 HD
ENDBRANCH   8  24
TORSDOF 5
ENDMDL
MODEL 4
REMARK VINA RESULT:    -7.015      1.709      7.287
REMARK INTER + INTRA:          -8.525
REMARK INTER:                  -8.246
REMARK INTRA:                  -0.280
REMARK UNBOUND:                -0.280
REMARK SMILES O=c1cc(-c2ccc(O)c(O)c2)oc2cc(O)cc(O)c12
REMARK SMILES IDX 4 1 3 2 2 3 1 4 21 5 19 6 18 7 16 8 15 9 14 10 13 11 5 12
REMARK SMILES IDX 6 13 7 14 8 15 12 16 10 17 9 18 11 20 20 22 17 24
REMARK H PARENT 9 19 11 21 20 23 17 25
REMARK Flexibility Score: inf
ROOT
ATOM      1  C   UNL     1      -5.992 -32.397 -49.673  1.00  0.00     0.138 A 
ATOM      2  C   UNL     1      -4.936 -31.635 -50.191  1.00  0.00     0.100 A 
ATOM      3  C   UNL     1      -3.699 -32.237 -50.422  1.00  0.00     0.197 A 
ATOM      4  O   UNL     1      -2.788 -31.540 -50.940  1.00  0.00    -0.289 OA
ATOM      5  C   UNL     1      -3.509 -33.602 -50.099  1.00  0.00     0.107 A 
ATOM      6  C   UNL     1      -2.282 -34.315 -50.260  1.00  0.00     0.134 A 
ATOM      7  C   UNL     1      -2.243 -35.690 -49.998  1.00  0.00     0.093 A 
ATOM      8  C   UNL     1      -3.370 -36.367 -49.525  1.00  0.00     0.123 A 
ATOM      9  C   UNL     1      -4.558 -35.670 -49.317  1.00  0.00     0.094 A 
ATOM     10  C   UNL     1      -4.639 -34.305 -49.603  1.00  0.00     0.146 A 
ATOM     11  O   UNL     1      -5.798 -33.684 -49.407  1.00  0.00    -0.456 OA
ENDROOT
BRANCH   1  12
ATOM     12  C   UNL     1      -7.328 -31.807 -49.404  1.00  0.00     0.021 A 
ATOM     13  C   UNL     1      -7.438 -30.725 -48.513  1.00  0.00     0.016 A 
ATOM     14  C   UNL     1      -8.683 -30.156 -48.237  1.00  0.00     0.051 A 
ATOM     15  C   UNL     1      -9.842 -30.663 -48.838  1.00  0.00     0.157 A 
ATOM     16  C   UNL     1      -8.499 -32.320 -49.995  1.00  0.00     0.062 A 
ATOM     17  C   UNL     1      -9.747 -31.753 -49.719  1.00  0.00     0.158 A 
BRANCH  15  18
ATOM     18  O   UNL     1     -11.082 -30.091 -48.562  1.00  0.00    -0.504 OA
ATOM     19  H   UNL     1     -11.279 -29.121 -48.776  1.00  0.00     0.293 HD
ENDBRANCH  15  18
BRANCH  17  20
ATOM     20  O   UNL     1     -10.884 -32.289 -50.325  1.00  0.00    -0.504 OA
ATOM     21  H   UNL     1     -11.814 -31.935 -50.132  1.00  0.00     0.293 HD
ENDBRANCH  17  20
ENDBRANCH   1  12
BRANCH   6  22
ATOM     22  O   UNL     1      -1.077 -33.721 -50.649  1.00  0.00    -0.507 OA
ATOM     23  H   UNL     1      -0.170 -34.156 -50.588  1.00  0.00     0.293 HD
ENDBRANCH   6  22
BRANCH   8  24
ATOM     24  O   UNL     1      -3.316 -37.731 -49.252  1.00  0.00    -0.508 OA
ATOM     25  H   UNL     1      -3.977 -38.174 -48.625  1.00  0.00     0.293 HD
ENDBRANCH   8  24
TORSDOF 5
ENDMDL
MODEL 5
REMARK VINA RESULT:    -6.732      1.763      6.971
REMARK INTER + INTRA:          -8.193
REMARK INTER:                  -7.910
REMARK INTRA:                  -0.283
REMARK UNBOUND:                -0.280
REMARK SMILES O=c1cc(-c2ccc(O)c(O)c2)oc2cc(O)cc(O)c12
REMARK SMILES IDX 4 1 3 2 2 3 1 4 21 5 19 6 18 7 16 8 15 9 14 10 13 11 5 12
REMARK SMILES IDX 6 13 7 14 8 15 12 16 10 17 9 18 11 20 20 22 17 24
REMARK H PARENT 9 19 11 21 20 23 17 25
REMARK Flexibility Score: inf
ROOT
ATOM      1  C   UNL     1      -6.395 -33.814 -49.910  1.00  0.00     0.138 A 
ATOM      2  C   UNL     1      -6.708 -35.149 -50.205  1.00  0.00     0.100 A 
ATOM      3  C   UNL     1      -5.689 -36.033 -50.562  1.00  0.00     0.197 A 
ATOM      4  O   UNL     1      -5.995 -37.237 -50.767  1.00  0.00    -0.289 OA
ATOM      5  C   UNL     1      -4.356 -35.570 -50.657  1.00  0.00     0.107 A 
ATOM      6  C   UNL     1      -3.240 -36.373 -51.044  1.00  0.00     0.134 A 
ATOM      7  C   UNL     1      -1.951 -35.827 -51.007  1.00  0.00     0.093 A 
ATOM      8  C   UNL     1      -1.743 -34.492 -50.652  1.00  0.00     0.123 A 
ATOM      9  C   UNL     1      -2.830 -33.687 -50.322  1.00  0.00     0.094 A 
ATOM     10  C   UNL     1      -4.124 -34.211 -50.316  1.00  0.00     0.146 A 
ATOM     11  O   UNL     1      -5.131 -33.412 -49.976  1.00  0.00    -0.456 OA
ENDROOT
BRANCH   1  12
ATOM     12  C   UNL     1      -7.439 -32.830 -49.528  1.00  0.00     0.021 A 
ATOM     13  C   UNL     1      -7.157 -31.875 -48.535  1.00  0.00     0.016 A 
ATOM     14  C   UNL     1      -8.123 -30.942 -48.153  1.00  0.00     0.051 A 
ATOM     15  C   UNL     1      -9.391 -30.951 -48.747  1.00  0.00     0.157 A 
ATOM     16  C   UNL     1      -8.720 -32.842 -50.113  1.00  0.00     0.062 A 
ATOM     17  C   UNL     1      -9.690 -31.910 -49.729  1.00  0.00     0.158 A 
BRANCH  15  18
ATOM     18  O   UNL     1     -10.352 -30.018 -48.364  1.00  0.00    -0.504 OA
ATOM     19  H   UNL     1     -10.250 -29.033 -48.578  1.00  0.00     0.293 HD
ENDBRANCH  15  18
BRANCH  17  20
ATOM     20  O   UNL     1     -10.948 -31.953 -50.333  1.00  0.00    -0.504 OA
ATOM     21  H   UNL     1     -11.799 -32.066 -49.795  1.00  0.00     0.293 HD
ENDBRANCH  17  20
ENDBRANCH   1  12
BRANCH   6  22
ATOM     22  O   UNL     1      -3.343 -37.694 -51.493  1.00  0.00    -0.507 OA
ATOM     23  H   UNL     1      -2.796 -38.467 -51.150  1.00  0.00     0.293 HD
ENDBRANCH   6  22
BRANCH   8  24
ATOM     24  O   UNL     1      -0.458 -33.954 -50.634  1.00  0.00    -0.508 OA
ATOM     25  H   UNL     1      -0.260 -33.038 -51.018  1.00  0.00     0.293 HD
ENDBRANCH   8  24
TORSDOF 5
ENDMDL
MODEL 6
REMARK VINA RESULT:    -6.618      1.558      2.966
REMARK INTER + INTRA:          -8.058
REMARK INTER:                  -7.770
REMARK INTRA:                  -0.288
REMARK UNBOUND:                -0.280
REMARK SMILES O=c1cc(-c2ccc(O)c(O)c2)oc2cc(O)cc(O)c12
REMARK SMILES IDX 4 1 3 2 2 3 1 4 21 5 19 6 18 7 16 8 15 9 14 10 13 11 5 12
REMARK SMILES IDX 6 13 7 14 8 15 12 16 10 17 9 18 11 20 20 22 17 24
REMARK H PARENT 9 19 11 21 20 23 17 25
REMARK Flexibility Score: inf
ROOT
ATOM      1  C   UNL     1      -5.142 -32.833 -49.806  1.00  0.00     0.138 A 
ATOM      2  C   UNL     1      -4.764 -31.499 -49.598  1.00  0.00     0.100 A 
ATOM      3  C   UNL     1      -5.739 -30.501 -49.575  1.00  0.00     0.197 A 
ATOM      4  O   UNL     1      -5.374 -29.322 -49.330  1.00  0.00    -0.289 OA
ATOM      5  C   UNL     1      -7.096 -30.837 -49.797  1.00  0.00     0.107 A 
ATOM      6  C   UNL     1      -8.173 -29.899 -49.829  1.00  0.00     0.134 A 
ATOM      7  C   UNL     1      -9.487 -30.363 -49.960  1.00  0.00     0.093 A 
ATOM      8  C   UNL     1      -9.761 -31.724 -50.117  1.00  0.00     0.123 A 
ATOM      9  C   UNL     1      -8.713 -32.641 -50.137  1.00  0.00     0.094 A 
ATOM     10  C   UNL     1      -7.393 -32.214 -49.974  1.00  0.00     0.146 A 
ATOM     11  O   UNL     1      -6.426 -33.126 -49.981  1.00  0.00    -0.456 OA
ENDROOT
BRANCH   1  12
ATOM     12  C   UNL     1      -4.147 -33.934 -49.844  1.00  0.00     0.021 A 
ATOM     13  C   UNL     1      -4.527 -35.222 -49.427  1.00  0.00     0.016 A 
ATOM     14  C   UNL     1      -3.608 -36.274 -49.445  1.00  0.00     0.051 A 
ATOM     15  C   UNL     1      -2.292 -36.057 -49.871  1.00  0.00     0.157 A 
ATOM     16  C   UNL     1      -2.818 -33.720 -50.259  1.00  0.00     0.062 A 
ATOM     17  C   UNL     1      -1.896 -34.772 -50.277  1.00  0.00     0.158 A 
BRANCH  15  18
ATOM     18  O   UNL     1      -1.379 -37.110 -49.891  1.00  0.00    -0.504 OA
ATOM     19  H   UNL     1      -0.428 -36.982 -50.216  1.00  0.00     0.293 HD
ENDBRANCH  15  18
BRANCH  17  20
ATOM     20  O   UNL     1      -0.589 -34.520 -50.696  1.00  0.00    -0.504 OA
ATOM     21  H   UNL     1       0.055 -33.965 -50.145  1.00  0.00     0.293 HD
ENDBRANCH  17  20
ENDBRANCH   1  12
BRANCH   6  22
ATOM     22  O   UNL     1      -8.006 -28.512 -49.762  1.00  0.00    -0.507 OA
ATOM     23  H   UNL     1      -7.120 -28.033 -49.786  1.00  0.00     0.293 HD
ENDBRANCH   6  22
BRANCH   8  24
ATOM     24  O   UNL     1     -11.071 -32.173 -50.262  1.00  0.00    -0.508 OA
ATOM     25  H   UNL     1     -11.754 -31.653 -50.801  1.00  0.00     0.293 HD
ENDBRANCH   8  24
TORSDOF 5
ENDMDL
MODEL 7
REMARK VINA RESULT:    -6.600      1.787      2.023
REMARK INTER + INTRA:          -8.038
REMARK INTER:                  -7.721
REMARK INTRA:                  -0.317
REMARK UNBOUND:                -0.280
REMARK SMILES O=c1cc(-c2ccc(O)c(O)c2)oc2cc(O)cc(O)c12
REMARK SMILES IDX 4 1 3 2 2 3 1 4 21 5 19 6 18 7 16 8 15 9 14 10 13 11 5 12
REMARK SMILES IDX 6 13 7 14 8 15 12 16 10 17 9 18 11 20 20 22 17 24
REMARK H PARENT 9 19 11 21 20 23 17 25
REMARK Flexibility Score: inf
ROOT
ATOM      1  C   UNL     1      -5.256 -33.770 -49.291  1.00  0.00     0.138 A 
ATOM      2  C   UNL     1      -6.482 -34.382 -48.997  1.00  0.00     0.100 A 
ATOM      3  C   UNL     1      -7.601 -33.593 -48.729  1.00  0.00     0.197 A 
ATOM      4  O   UNL     1      -8.699 -34.173 -48.523  1.00  0.00    -0.289 OA
ATOM      5  C   UNL     1      -7.483 -32.183 -48.722  1.00  0.00     0.107 A 
ATOM      6  C   UNL     1      -8.547 -31.277 -48.429  1.00  0.00     0.134 A 
ATOM      7  C   UNL     1      -8.333 -29.899 -48.550  1.00  0.00     0.093 A 
ATOM      8  C   UNL     1      -7.079 -29.391 -48.896  1.00  0.00     0.123 A 
ATOM      9  C   UNL     1      -6.021 -30.264 -49.134  1.00  0.00     0.094 A 
ATOM     10  C   UNL     1      -6.211 -31.646 -49.055  1.00  0.00     0.146 A 
ATOM     11  O   UNL     1      -5.178 -32.444 -49.309  1.00  0.00    -0.456 OA
ENDROOT
BRANCH   1  12
ATOM     12  C   UNL     1      -4.032 -34.560 -49.580  1.00  0.00     0.021 A 
ATOM     13  C   UNL     1      -4.041 -35.949 -49.362  1.00  0.00     0.016 A 
ATOM     14  C   UNL     1      -2.902 -36.715 -49.619  1.00  0.00     0.051 A 
ATOM     15  C   UNL     1      -1.730 -36.107 -50.088  1.00  0.00     0.157 A 
ATOM     16  C   UNL     1      -2.848 -33.953 -50.040  1.00  0.00     0.062 A 
ATOM     17  C   UNL     1      -1.705 -34.718 -50.296  1.00  0.00     0.158 A 
BRANCH  15  18
ATOM     18  O   UNL     1      -0.596 -36.875 -50.345  1.00  0.00    -0.504 OA
ATOM     19  H   UNL     1      -0.079 -36.784 -51.212  1.00  0.00     0.293 HD
ENDBRANCH  15  18
BRANCH  17  20
ATOM     20  O   UNL     1      -0.550 -34.080 -50.752  1.00  0.00    -0.504 OA
ATOM     21  H   UNL     1      -0.082 -33.363 -50.210  1.00  0.00     0.293 HD
ENDBRANCH  17  20
ENDBRANCH   1  12
BRANCH   6  22
ATOM     22  O   UNL     1      -9.817 -31.674 -47.998  1.00  0.00    -0.507 OA
ATOM     23  H   UNL     1     -10.670 -31.162 -48.155  1.00  0.00     0.293 HD
ENDBRANCH   6  22
BRANCH   8  24
ATOM     24  O   UNL     1      -6.872 -28.017 -48.997  1.00  0.00    -0.508 OA
ATOM     25  H   UNL     1      -5.941 -27.619 -49.008  1.00  0.00     0.293 HD
ENDBRANCH   8  24
TORSDOF 5
ENDMDL
MODEL 8
REMARK VINA RESULT:    -6.580      3.104      3.987
REMARK INTER + INTRA:          -8.013
REMARK INTER:                  -7.747
REMARK INTRA:                  -0.267
REMARK UNBOUND:                -0.280
REMARK SMILES O=c1cc(-c2ccc(O)c(O)c2)oc2cc(O)cc(O)c12
REMARK SMILES IDX 4 1 3 2 2 3 1 4 21 5 19 6 18 7 16 8 15 9 14 10 13 11 5 12
REMARK SMILES IDX 6 13 7 14 8 15 12 16 10 17 9 18 11 20 20 22 17 24
REMARK H PARENT 9 19 11 21 20 23 17 25
REMARK Flexibility Score: inf
ROOT
ATOM      1  C   UNL     1      -5.385 -35.298 -49.497  1.00  0.00     0.138 A 
ATOM      2  C   UNL     1      -4.331 -34.379 -49.607  1.00  0.00     0.100 A 
ATOM      3  C   UNL     1      -4.561 -33.030 -49.333  1.00  0.00     0.197 A 
ATOM      4  O   UNL     1      -3.583 -32.241 -49.387  1.00  0.00    -0.289 OA
ATOM      5  C   UNL     1      -5.861 -32.594 -48.983  1.00  0.00     0.107 A 
ATOM      6  C   UNL     1      -6.221 -31.238 -48.715  1.00  0.00     0.134 A 
ATOM      7  C   UNL     1      -7.519 -30.942 -48.281  1.00  0.00     0.093 A 
ATOM      8  C   UNL     1      -8.486 -31.943 -48.161  1.00  0.00     0.123 A 
ATOM      9  C   UNL     1      -8.158 -33.261 -48.468  1.00  0.00     0.094 A 
ATOM     10  C   UNL     1      -6.863 -33.594 -48.870  1.00  0.00     0.146 A 
ATOM     11  O   UNL     1      -6.589 -34.868 -49.136  1.00  0.00    -0.456 OA
ENDROOT
BRANCH   1  12
ATOM     12  C   UNL     1      -5.198 -36.744 -49.779  1.00  0.00     0.021 A 
ATOM     13  C   UNL     1      -5.943 -37.348 -50.808  1.00  0.00     0.016 A 
ATOM     14  C   UNL     1      -5.792 -38.707 -51.089  1.00  0.00     0.051 A 
ATOM     15  C   UNL     1      -4.902 -39.491 -50.343  1.00  0.00     0.157 A 
ATOM     16  C   UNL     1      -4.315 -37.539 -49.024  1.00  0.00     0.062 A 
ATOM     17  C   UNL     1      -4.164 -38.902 -49.303  1.00  0.00     0.158 A 
BRANCH  15  18
ATOM     18  O   UNL     1      -4.753 -40.846 -50.628  1.00  0.00    -0.504 OA
ATOM     19  H   UNL     1      -5.499 -41.385 -51.051  1.00  0.00     0.293 HD
ENDBRANCH  15  18
BRANCH  17  20
ATOM     20  O   UNL     1      -3.278 -39.657 -48.533  1.00  0.00    -0.504 OA
ATOM     21  H   UNL     1      -2.357 -39.913 -48.869  1.00  0.00     0.293 HD
ENDBRANCH  17  20
ENDBRANCH   1  12
BRANCH   6  22
ATOM     22  O   UNL     1      -5.357 -30.151 -48.880  1.00  0.00    -0.507 OA
ATOM     23  H   UNL     1      -5.384 -29.301 -48.340  1.00  0.00     0.293 HD
ENDBRANCH   6  22
BRANCH   8  24
ATOM     24  O   UNL     1      -9.779 -31.635 -47.744  1.00  0.00    -0.508 OA
ATOM     25  H   UNL     1     -10.043 -30.691 -47.488  1.00  0.00     0.293 HD
ENDBRANCH   8  24
TORSDOF 5
ENDMDL
MODEL 9
REMARK VINA RESULT:    -6.567      2.041      6.550
REMARK INTER + INTRA:          -7.999
REMARK INTER:                  -7.726
REMARK INTRA:                  -0.273
REMARK UNBOUND:                -0.280
REMARK SMILES O=c1cc(-c2ccc(O)c(O)c2)oc2cc(O)cc(O)c12
REMARK SMILES IDX 4 1 3 2 2 3 1 4 21 5 19 6 18 7 16 8 15 9 14 10 13 11 5 12
REMARK SMILES IDX 6 13 7 14 8 15 12 16 10 17 9 18 11 20 20 22 17 24
REMARK H PARENT 9 19 11 21 20 23 17 25
REMARK Flexibility Score: inf
ROOT
ATOM      1  C   UNL     1      -6.169 -31.679 -48.775  1.00  0.00     0.138 A 
ATOM      2  C   UNL     1      -7.233 -32.529 -49.110  1.00  0.00     0.100 A 
ATOM      3  C   UNL     1      -6.985 -33.880 -49.354  1.00  0.00     0.197 A 
ATOM      4  O   UNL     1      -7.968 -34.628 -49.597  1.00  0.00    -0.289 OA
ATOM      5  C   UNL     1      -5.661 -34.375 -49.297  1.00  0.00     0.107 A 
ATOM      6  C   UNL     1      -5.283 -35.727 -49.561  1.00  0.00     0.134 A 
ATOM      7  C   UNL     1      -3.952 -36.120 -49.376  1.00  0.00     0.093 A 
ATOM      8  C   UNL     1      -2.973 -35.199 -48.995  1.00  0.00     0.123 A 
ATOM      9  C   UNL     1      -3.322 -33.867 -48.785  1.00  0.00     0.094 A 
ATOM     10  C   UNL     1      -4.648 -33.451 -48.927  1.00  0.00     0.146 A 
ATOM     11  O   UNL     1      -4.940 -32.174 -48.698  1.00  0.00    -0.456 OA
ENDROOT
BRANCH   1  12
ATOM     12  C   UNL     1      -6.375 -30.233 -48.509  1.00  0.00     0.021 A 
ATOM     13  C   UNL     1      -5.589 -29.287 -49.190  1.00  0.00     0.016 A 
ATOM     14  C   UNL     1      -5.757 -27.921 -48.953  1.00  0.00     0.051 A 
ATOM     15  C   UNL     1      -6.705 -27.475 -48.023  1.00  0.00     0.157 A 
ATOM     16  C   UNL     1      -7.318 -29.778 -47.566  1.00  0.00     0.062 A 
ATOM     17  C   UNL     1      -7.486 -28.410 -47.325  1.00  0.00     0.158 A 
BRANCH  15  18
ATOM     18  O   UNL     1      -6.871 -26.111 -47.791  1.00  0.00    -0.504 OA
ATOM     19  H   UNL     1      -7.159 -25.478 -48.527  1.00  0.00     0.293 HD
ENDBRANCH  15  18
BRANCH  17  20
ATOM     20  O   UNL     1      -8.432 -27.999 -46.385  1.00  0.00    -0.504 OA
ATOM     21  H   UNL     1      -8.329 -27.139 -45.860  1.00  0.00     0.293 HD
ENDBRANCH  17  20
ENDBRANCH   1  12
BRANCH   6  22
ATOM     22  O   UNL     1      -6.164 -36.710 -50.023  1.00  0.00    -0.507 OA
ATOM     23  H   UNL     1      -6.077 -37.697 -49.845  1.00  0.00     0.293 HD
ENDBRANCH   6  22
BRANCH   8  24
ATOM     24  O   UNL     1      -1.649 -35.598 -48.831  1.00  0.00    -0.508 OA
ATOM     25  H   UNL     1      -0.880 -34.953 -48.968  1.00  0.00     0.293 HD
ENDBRANCH   8  24
TORSDOF 5
ENDMDL
