MODEL 1
REMARK VINA RESULT:    -4.931      0.000      0.000
REMARK INTER + INTRA:         -13.641
REMARK INTER:                 -11.274
REMARK INTRA:                  -2.367
REMARK UNBOUND:                -2.367
REMARK SMILES CCCCCCCCCCCCCCCCCCCCCCCC(=O)[O-]
REMARK SMILES IDX 13 1 14 2 15 3 16 4 17 5 18 6 19 7 20 8 21 9 22 10 23 11
REMARK SMILES IDX 24 12 25 13 26 14 12 15 11 16 10 17 9 18 8 19 7 20 6 21 5 22
REMARK SMILES IDX 4 23 3 24 2 25 1 26
REMARK H PARENT
REMARK Flexibility Score: inf
ROOT
ATOM      1  C   UNL     1      -4.542  -2.780   4.863  1.00  0.00     0.000 C 
ENDROOT
BRANCH   1   2
ATOM      2  C   UNL     1      -5.380  -1.942   3.890  1.00  0.00     0.000 C 
BRANCH   2   3
ATOM      3  C   UNL     1      -4.746  -1.926   2.491  1.00  0.00     0.000 C 
BRANCH   3   4
ATOM      4  C   UNL     1      -5.750  -1.553   1.390  1.00  0.00     0.000 C 
BRANCH   4   5
ATOM      5  C   UNL     1      -5.897  -2.654   0.323  1.00  0.00     0.000 C 
BRANCH   5   6
ATOM      6  C   UNL     1      -4.774  -3.702   0.392  1.00  0.00     0.000 C 
BRANCH   6   7
ATOM      7  C   UNL     1      -5.283  -5.083   0.839  1.00  0.00     0.000 C 
BRANCH   7   8
ATOM      8  C   UNL     1      -6.795  -5.094   1.116  1.00  0.00     0.000 C 
BRANCH   8   9
ATOM      9  C   UNL     1      -7.126  -5.229   2.610  1.00  0.00     0.000 C 
BRANCH   9  10
ATOM     10  C   UNL     1      -5.893  -5.690   3.404  1.00  0.00     0.006 C 
BRANCH  10  11
ATOM     11  C   UNL     1      -6.235  -6.043   4.857  1.00  0.00     0.053 C 
BRANCH  11  12
ATOM     12  C   UNL     1      -5.273  -7.038   5.430  1.00  0.00     0.041 C 
ATOM     13  O   UNL     1      -4.924  -8.043   4.757  1.00  0.00    -0.550 OA
ATOM     14  O   UNL     1      -4.746  -6.845   6.703  1.00  0.00    -0.550 OA
ENDBRANCH  11  12
ENDBRANCH  10  11
ENDBRANCH   9  10
ENDBRANCH   8   9
ENDBRANCH   7   8
ENDBRANCH   6   7
ENDBRANCH   5   6
ENDBRANCH   4   5
ENDBRANCH   3   4
ENDBRANCH   2   3
ENDBRANCH   1   2
BRANCH   1  15
ATOM     15  C   UNL     1      -4.037  -1.920   6.033  1.00  0.00     0.000 C 
BRANCH  15  16
ATOM     16  C   UNL     1      -3.699  -0.483   5.602  1.00  0.00     0.000 C 
BRANCH  16  17
ATOM     17  C   UNL     1      -2.288  -0.333   4.988  1.00  0.00     0.000 C 
BRANCH  17  18
ATOM     18  C   UNL     1      -1.504   0.874   5.538  1.00  0.00    -0.000 C 
BRANCH  18  19
ATOM     19  C   UNL     1      -0.597   0.555   6.741  1.00  0.00    -0.000 C 
BRANCH  19  20
ATOM     20  C   UNL     1      -0.012  -0.873   6.761  1.00  0.00    -0.000 C 
BRANCH  20  21
ATOM     21  C   UNL     1       1.296  -1.055   5.972  1.00  0.00    -0.000 C 
BRANCH  21  22
ATOM     22  C   UNL     1       1.973  -2.410   6.246  1.00  0.00    -0.000 C 
BRANCH  22  23
ATOM     23  C   UNL     1       2.599  -3.023   4.983  1.00  0.00    -0.000 C 
BRANCH  23  24
ATOM     24  C   UNL     1       2.423  -2.125   3.745  1.00  0.00    -0.000 C 
BRANCH  24  25
ATOM     25  C   UNL     1       3.651  -2.147   2.822  1.00  0.00    -0.003 C 
ATOM     26  C   UNL     1       4.421  -0.826   2.830  1.00  0.00     0.004 C 
ENDBRANCH  24  25
ENDBRANCH  23  24
ENDBRANCH  22  23
ENDBRANCH  21  22
ENDBRANCH  20  21
ENDBRANCH  19  20
ENDBRANCH  18  19
ENDBRANCH  17  18
ENDBRANCH  16  17
ENDBRANCH  15  16
ENDBRANCH   1  15
TORSDOF 22
ENDMDL
MODEL 2
REMARK VINA RESULT:    -4.837      3.277      4.535
REMARK INTER + INTRA:         -13.426
REMARK INTER:                 -11.151
REMARK INTRA:                  -2.275
REMARK UNBOUND:                -2.367
REMARK SMILES CCCCCCCCCCCCCCCCCCCCCCCC(=O)[O-]
REMARK SMILES IDX 13 1 14 2 15 3 16 4 17 5 18 6 19 7 20 8 21 9 22 10 23 11
REMARK SMILES IDX 24 12 25 13 26 14 12 15 11 16 10 17 9 18 8 19 7 20 6 21 5 22
REMARK SMILES IDX 4 23 3 24 2 25 1 26
REMARK H PARENT
REMARK Flexibility Score: inf
ROOT
ATOM      1  C   UNL     1      -4.984  -3.399   3.663  1.00  0.00     0.000 C 
ENDROOT
BRANCH   1   2
ATOM      2  C   UNL     1      -4.965  -2.287   2.608  1.00  0.00     0.000 C 
BRANCH   2   3
ATOM      3  C   UNL     1      -5.004  -2.874   1.189  1.00  0.00     0.000 C 
BRANCH   3   4
ATOM      4  C   UNL     1      -4.490  -4.321   1.132  1.00  0.00     0.000 C 
BRANCH   4   5
ATOM      5  C   UNL     1      -5.405  -5.243   0.305  1.00  0.00     0.000 C 
BRANCH   5   6
ATOM      6  C   UNL     1      -6.894  -4.895   0.456  1.00  0.00     0.000 C 
BRANCH   6   7
ATOM      7  C   UNL     1      -7.583  -4.646  -0.897  1.00  0.00     0.000 C 
BRANCH   7   8
ATOM      8  C   UNL     1      -6.594  -4.662  -2.073  1.00  0.00     0.000 C 
BRANCH   8   9
ATOM      9  C   UNL     1      -6.621  -3.362  -2.892  1.00  0.00     0.000 C 
BRANCH   9  10
ATOM     10  C   UNL     1      -6.748  -2.138  -1.971  1.00  0.00     0.006 C 
BRANCH  10  11
ATOM     11  C   UNL     1      -5.566  -1.171  -2.122  1.00  0.00     0.053 C 
BRANCH  11  12
ATOM     12  C   UNL     1      -5.743   0.060  -1.288  1.00  0.00     0.041 C 
ATOM     13  O   UNL     1      -5.273   1.162  -1.675  1.00  0.00    -0.550 OA
ATOM     14  O   UNL     1      -6.446  -0.005  -0.089  1.00  0.00    -0.550 OA
ENDBRANCH  11  12
ENDBRANCH  10  11
ENDBRANCH   9  10
ENDBRANCH   8   9
ENDBRANCH   7   8
ENDBRANCH   6   7
ENDBRANCH   5   6
ENDBRANCH   4   5
ENDBRANCH   3   4
ENDBRANCH   2   3
ENDBRANCH   1   2
BRANCH   1  15
ATOM     15  C   UNL     1      -4.550  -2.860   5.036  1.00  0.00     0.000 C 
BRANCH  15  16
ATOM     16  C   UNL     1      -4.536  -1.323   5.085  1.00  0.00     0.000 C 
BRANCH  16  17
ATOM     17  C   UNL     1      -3.323  -0.736   5.843  1.00  0.00     0.000 C 
BRANCH  17  18
ATOM     18  C   UNL     1      -2.232  -0.171   4.913  1.00  0.00    -0.000 C 
BRANCH  18  19
ATOM     19  C   UNL     1      -1.314   0.878   5.565  1.00  0.00    -0.000 C 
BRANCH  19  20
ATOM     20  C   UNL     1      -0.450   0.359   6.734  1.00  0.00    -0.000 C 
BRANCH  20  21
ATOM     21  C   UNL     1       0.199  -1.018   6.507  1.00  0.00    -0.000 C 
BRANCH  21  22
ATOM     22  C   UNL     1       1.719  -1.007   6.746  1.00  0.00    -0.000 C 
BRANCH  22  23
ATOM     23  C   UNL     1       2.505  -1.621   5.577  1.00  0.00    -0.000 C 
BRANCH  23  24
ATOM     24  C   UNL     1       1.773  -1.468   4.232  1.00  0.00    -0.000 C 
BRANCH  24  25
ATOM     25  C   UNL     1       2.677  -1.780   3.030  1.00  0.00    -0.003 C 
ATOM     26  C   UNL     1       4.031  -1.073   3.108  1.00  0.00     0.004 C 
ENDBRANCH  24  25
ENDBRANCH  23  24
ENDBRANCH  22  23
ENDBRANCH  21  22
ENDBRANCH  20  21
ENDBRANCH  19  20
ENDBRANCH  18  19
ENDBRANCH  17  18
ENDBRANCH  16  17
ENDBRANCH  15  16
ENDBRANCH   1  15
TORSDOF 22
ENDMDL
MODEL 3
REMARK VINA RESULT:    -4.694      4.089      9.254
REMARK INTER + INTRA:         -13.097
REMARK INTER:                 -11.379
REMARK INTRA:                  -1.719
REMARK UNBOUND:                -2.367
REMARK SMILES CCCCCCCCCCCCCCCCCCCCCCCC(=O)[O-]
REMARK SMILES IDX 13 1 14 2 15 3 16 4 17 5 18 6 19 7 20 8 21 9 22 10 23 11
REMARK SMILES IDX 24 12 25 13 26 14 12 15 11 16 10 17 9 18 8 19 7 20 6 21 5 22
REMARK SMILES IDX 4 23 3 24 2 25 1 26
REMARK H PARENT
REMARK Flexibility Score: inf
ROOT
ATOM      1  C   UNL     1       1.953  -2.368   6.168  1.00  0.00     0.000 C 
ENDROOT
BRANCH   1   2
ATOM      2  C   UNL     1       2.553  -2.907   4.864  1.00  0.00     0.000 C 
BRANCH   2   3
ATOM      3  C   UNL     1       2.338  -1.918   3.709  1.00  0.00     0.000 C 
BRANCH   3   4
ATOM      4  C   UNL     1       3.629  -1.189   3.305  1.00  0.00     0.000 C 
BRANCH   4   5
ATOM      5  C   UNL     1       4.890  -1.843   3.898  1.00  0.00     0.000 C 
BRANCH   5   6
ATOM      6  C   UNL     1       5.604  -2.770   2.902  1.00  0.00     0.000 C 
BRANCH   6   7
ATOM      7  C   UNL     1       5.434  -2.312   1.443  1.00  0.00     0.000 C 
BRANCH   7   8
ATOM      8  C   UNL     1       6.711  -2.512   0.610  1.00  0.00     0.000 C 
BRANCH   8   9
ATOM      9  C   UNL     1       6.666  -3.782  -0.253  1.00  0.00     0.000 C 
BRANCH   9  10
ATOM     10  C   UNL     1       5.249  -4.379  -0.275  1.00  0.00     0.006 C 
BRANCH  10  11
ATOM     11  C   UNL     1       4.870  -4.926  -1.658  1.00  0.00     0.053 C 
BRANCH  11  12
ATOM     12  C   UNL     1       5.109  -6.402  -1.757  1.00  0.00     0.041 C 
ATOM     13  O   UNL     1       5.087  -6.974  -2.878  1.00  0.00    -0.550 OA
ATOM     14  O   UNL     1       5.375  -7.144  -0.611  1.00  0.00    -0.550 OA
ENDBRANCH  11  12
ENDBRANCH  10  11
ENDBRANCH   9  10
ENDBRANCH   8   9
ENDBRANCH   7   8
ENDBRANCH   6   7
ENDBRANCH   5   6
ENDBRANCH   4   5
ENDBRANCH   3   4
ENDBRANCH   2   3
ENDBRANCH   1   2
BRANCH   1  15
ATOM     15  C   UNL     1       1.172  -1.069   5.917  1.00  0.00     0.000 C 
BRANCH  15  16
ATOM     16  C   UNL     1       0.112  -0.804   7.000  1.00  0.00     0.000 C 
BRANCH  16  17
ATOM     17  C   UNL     1      -0.675   0.511   6.792  1.00  0.00     0.000 C 
BRANCH  17  18
ATOM     18  C   UNL     1      -1.286   0.644   5.383  1.00  0.00    -0.000 C 
BRANCH  18  19
ATOM     19  C   UNL     1      -2.516  -0.246   5.132  1.00  0.00    -0.000 C 
BRANCH  19  20
ATOM     20  C   UNL     1      -3.716   0.011   6.069  1.00  0.00    -0.000 C 
BRANCH  20  21
ATOM     21  C   UNL     1      -4.788  -1.093   6.077  1.00  0.00    -0.000 C 
BRANCH  21  22
ATOM     22  C   UNL     1      -4.207  -2.490   5.799  1.00  0.00    -0.000 C 
BRANCH  22  23
ATOM     23  C   UNL     1      -4.802  -3.137   4.538  1.00  0.00    -0.000 C 
BRANCH  23  24
ATOM     24  C   UNL     1      -5.342  -2.094   3.543  1.00  0.00    -0.000 C 
BRANCH  24  25
ATOM     25  C   UNL     1      -4.811  -2.311   2.117  1.00  0.00    -0.003 C 
ATOM     26  C   UNL     1      -5.009  -3.744   1.623  1.00  0.00     0.004 C 
ENDBRANCH  24  25
ENDBRANCH  23  24
ENDBRANCH  22  23
ENDBRANCH  21  22
ENDBRANCH  20  21
ENDBRANCH  19  20
ENDBRANCH  18  19
ENDBRANCH  17  18
ENDBRANCH  16  17
ENDBRANCH  15  16
ENDBRANCH   1  15
TORSDOF 22
ENDMDL
MODEL 4
REMARK VINA RESULT:    -4.688      3.715      5.475
REMARK INTER + INTRA:         -13.085
REMARK INTER:                 -10.570
REMARK INTRA:                  -2.514
REMARK UNBOUND:                -2.367
REMARK SMILES CCCCCCCCCCCCCCCCCCCCCCCC(=O)[O-]
REMARK SMILES IDX 13 1 14 2 15 3 16 4 17 5 18 6 19 7 20 8 21 9 22 10 23 11
REMARK SMILES IDX 24 12 25 13 26 14 12 15 11 16 10 17 9 18 8 19 7 20 6 21 5 22
REMARK SMILES IDX 4 23 3 24 2 25 1 26
REMARK H PARENT
REMARK Flexibility Score: inf
ROOT
ATOM      1  C   UNL     1      -5.173  -4.426   1.971  1.00  0.00     0.000 C 
ENDROOT
BRANCH   1   2
ATOM      2  C   UNL     1      -4.687  -4.433   0.517  1.00  0.00     0.000 C 
BRANCH   2   3
ATOM      3  C   UNL     1      -5.580  -5.327  -0.357  1.00  0.00     0.000 C 
BRANCH   3   4
ATOM      4  C   UNL     1      -6.978  -5.537   0.244  1.00  0.00     0.000 C 
BRANCH   4   5
ATOM      5  C   UNL     1      -8.103  -5.333  -0.787  1.00  0.00     0.000 C 
BRANCH   5   6
ATOM      6  C   UNL     1      -8.987  -4.115  -0.470  1.00  0.00     0.000 C 
BRANCH   6   7
ATOM      7  C   UNL     1      -8.538  -3.374   0.801  1.00  0.00     0.000 C 
BRANCH   7   8
ATOM      8  C   UNL     1      -8.113  -1.924   0.519  1.00  0.00     0.000 C 
BRANCH   8   9
ATOM      9  C   UNL     1      -7.291  -1.785  -0.772  1.00  0.00     0.000 C 
BRANCH   9  10
ATOM     10  C   UNL     1      -6.000  -0.991  -0.515  1.00  0.00     0.006 C 
BRANCH  10  11
ATOM     11  C   UNL     1      -5.470  -0.316  -1.787  1.00  0.00     0.053 C 
BRANCH  11  12
ATOM     12  C   UNL     1      -5.637   1.173  -1.739  1.00  0.00     0.041 C 
ATOM     13  O   UNL     1      -4.639   1.927  -1.882  1.00  0.00    -0.550 OA
ATOM     14  O   UNL     1      -6.899   1.727  -1.555  1.00  0.00    -0.550 OA
ENDBRANCH  11  12
ENDBRANCH  10  11
ENDBRANCH   9  10
ENDBRANCH   8   9
ENDBRANCH   7   8
ENDBRANCH   6   7
ENDBRANCH   5   6
ENDBRANCH   4   5
ENDBRANCH   3   4
ENDBRANCH   2   3
ENDBRANCH   1   2
BRANCH   1  15
ATOM     15  C   UNL     1      -5.140  -3.005   2.554  1.00  0.00     0.000 C 
BRANCH  15  16
ATOM     16  C   UNL     1      -4.821  -2.996   4.059  1.00  0.00     0.000 C 
BRANCH  16  17
ATOM     17  C   UNL     1      -4.254  -1.650   4.567  1.00  0.00     0.000 C 
BRANCH  17  18
ATOM     18  C   UNL     1      -3.780  -1.698   6.032  1.00  0.00    -0.000 C 
BRANCH  18  19
ATOM     19  C   UNL     1      -3.048  -0.430   6.511  1.00  0.00    -0.000 C 
BRANCH  19  20
ATOM     20  C   UNL     1      -2.366   0.394   5.398  1.00  0.00    -0.000 C 
BRANCH  20  21
ATOM     21  C   UNL     1      -0.878   0.079   5.169  1.00  0.00    -0.000 C 
BRANCH  21  22
ATOM     22  C   UNL     1      -0.118  -0.193   6.480  1.00  0.00    -0.000 C 
BRANCH  22  23
ATOM     23  C   UNL     1       1.027  -1.203   6.301  1.00  0.00    -0.000 C 
BRANCH  23  24
ATOM     24  C   UNL     1       1.557  -1.238   4.856  1.00  0.00    -0.000 C 
BRANCH  24  25
ATOM     25  C   UNL     1       2.780  -2.156   4.700  1.00  0.00    -0.003 C 
ATOM     26  C   UNL     1       2.623  -3.483   5.443  1.00  0.00     0.004 C 
ENDBRANCH  24  25
ENDBRANCH  23  24
ENDBRANCH  22  23
ENDBRANCH  21  22
ENDBRANCH  20  21
ENDBRANCH  19  20
ENDBRANCH  18  19
ENDBRANCH  17  18
ENDBRANCH  16  17
ENDBRANCH  15  16
ENDBRANCH   1  15
TORSDOF 22
ENDMDL
MODEL 5
REMARK VINA RESULT:    -4.661      3.552      7.084
REMARK INTER + INTRA:         -13.023
REMARK INTER:                 -11.240
REMARK INTRA:                  -1.783
REMARK UNBOUND:                -2.367
REMARK SMILES CCCCCCCCCCCCCCCCCCCCCCCC(=O)[O-]
REMARK SMILES IDX 13 1 14 2 15 3 16 4 17 5 18 6 19 7 20 8 21 9 22 10 23 11
REMARK SMILES IDX 24 12 25 13 26 14 12 15 11 16 10 17 9 18 8 19 7 20 6 21 5 22
REMARK SMILES IDX 4 23 3 24 2 25 1 26
REMARK H PARENT
REMARK Flexibility Score: inf
ROOT
ATOM      1  C   UNL     1       2.139  -1.746   6.835  1.00  0.00     0.000 C 
ENDROOT
BRANCH   1   2
ATOM      2  C   UNL     1       1.090  -2.448   7.705  1.00  0.00     0.000 C 
BRANCH   2   3
ATOM      3  C   UNL     1      -0.132  -1.546   7.929  1.00  0.00     0.000 C 
BRANCH   3   4
ATOM      4  C   UNL     1       0.194  -0.054   7.761  1.00  0.00     0.000 C 
BRANCH   4   5
ATOM      5  C   UNL     1      -0.811   0.674   6.851  1.00  0.00     0.000 C 
BRANCH   5   6
ATOM      6  C   UNL     1      -0.773   0.170   5.399  1.00  0.00     0.000 C 
BRANCH   6   7
ATOM      7  C   UNL     1      -2.170  -0.176   4.857  1.00  0.00     0.000 C 
BRANCH   7   8
ATOM      8  C   UNL     1      -3.200  -0.395   5.977  1.00  0.00     0.000 C 
BRANCH   8   9
ATOM      9  C   UNL     1      -3.868  -1.777   5.911  1.00  0.00     0.000 C 
BRANCH   9  10
ATOM     10  C   UNL     1      -4.919  -1.823   4.791  1.00  0.00     0.006 C 
BRANCH  10  11
ATOM     11  C   UNL     1      -4.993  -3.200   4.118  1.00  0.00     0.053 C 
BRANCH  11  12
ATOM     12  C   UNL     1      -4.993  -3.091   2.624  1.00  0.00     0.041 C 
ATOM     13  O   UNL     1      -4.799  -1.977   2.069  1.00  0.00    -0.550 OA
ATOM     14  O   UNL     1      -5.188  -4.224   1.841  1.00  0.00    -0.550 OA
ENDBRANCH  11  12
ENDBRANCH  10  11
ENDBRANCH   9  10
ENDBRANCH   8   9
ENDBRANCH   7   8
ENDBRANCH   6   7
ENDBRANCH   5   6
ENDBRANCH   4   5
ENDBRANCH   3   4
ENDBRANCH   2   3
ENDBRANCH   1   2
BRANCH   1  15
ATOM     15  C   UNL     1       2.295  -2.457   5.481  1.00  0.00     0.000 C 
BRANCH  15  16
ATOM     16  C   UNL     1       2.039  -1.515   4.292  1.00  0.00     0.000 C 
BRANCH  16  17
ATOM     17  C   UNL     1       2.626  -2.027   2.956  1.00  0.00     0.000 C 
BRANCH  17  18
ATOM     18  C   UNL     1       4.118  -1.689   2.772  1.00  0.00    -0.000 C 
BRANCH  18  19
ATOM     19  C   UNL     1       4.988  -2.867   2.299  1.00  0.00    -0.000 C 
BRANCH  19  20
ATOM     20  C   UNL     1       5.088  -3.038   0.768  1.00  0.00    -0.000 C 
BRANCH  20  21
ATOM     21  C   UNL     1       5.700  -4.368   0.296  1.00  0.00    -0.000 C 
BRANCH  21  22
ATOM     22  C   UNL     1       5.311  -4.723  -1.150  1.00  0.00    -0.000 C 
BRANCH  22  23
ATOM     23  C   UNL     1       5.976  -6.019  -1.640  1.00  0.00    -0.000 C 
BRANCH  23  24
ATOM     24  C   UNL     1       4.947  -7.095  -2.030  1.00  0.00    -0.000 C 
BRANCH  24  25
ATOM     25  C   UNL     1       4.991  -8.318  -1.100  1.00  0.00    -0.003 C 
ATOM     26  C   UNL     1       6.060  -8.196  -0.013  1.00  0.00     0.004 C 
ENDBRANCH  24  25
ENDBRANCH  23  24
ENDBRANCH  22  23
ENDBRANCH  21  22
ENDBRANCH  20  21
ENDBRANCH  19  20
ENDBRANCH  18  19
ENDBRANCH  17  18
ENDBRANCH  16  17
ENDBRANCH  15  16
ENDBRANCH   1  15
TORSDOF 22
ENDMDL
MODEL 6
REMARK VINA RESULT:    -4.654      5.445      7.681
REMARK INTER + INTRA:         -13.007
REMARK INTER:                  -8.466
REMARK INTRA:                  -4.540
REMARK UNBOUND:                -2.367
REMARK SMILES CCCCCCCCCCCCCCCCCCCCCCCC(=O)[O-]
REMARK SMILES IDX 13 1 14 2 15 3 16 4 17 5 18 6 19 7 20 8 21 9 22 10 23 11
REMARK SMILES IDX 24 12 25 13 26 14 12 15 11 16 10 17 9 18 8 19 7 20 6 21 5 22
REMARK SMILES IDX 4 23 3 24 2 25 1 26
REMARK H PARENT
REMARK Flexibility Score: inf
ROOT
ATOM      1  C   UNL     1      -4.856  -2.938   1.962  1.00  0.00     0.000 C 
ENDROOT
BRANCH   1   2
ATOM      2  C   UNL     1      -4.699  -3.467   0.532  1.00  0.00     0.000 C 
BRANCH   2   3
ATOM      3  C   UNL     1      -4.915  -4.986   0.481  1.00  0.00     0.000 C 
BRANCH   3   4
ATOM      4  C   UNL     1      -5.832  -5.416  -0.675  1.00  0.00     0.000 C 
BRANCH   4   5
ATOM      5  C   UNL     1      -7.291  -5.619  -0.230  1.00  0.00     0.000 C 
BRANCH   5   6
ATOM      6  C   UNL     1      -8.249  -4.582  -0.839  1.00  0.00     0.000 C 
BRANCH   6   7
ATOM      7  C   UNL     1      -7.674  -3.917  -2.101  1.00  0.00     0.000 C 
BRANCH   7   8
ATOM      8  C   UNL     1      -7.526  -2.394  -1.951  1.00  0.00     0.000 C 
BRANCH   8   9
ATOM      9  C   UNL     1      -6.256  -1.850  -2.620  1.00  0.00     0.000 C 
BRANCH   9  10
ATOM     10  C   UNL     1      -5.500  -0.906  -1.671  1.00  0.00     0.006 C 
BRANCH  10  11
ATOM     11  C   UNL     1      -5.994   0.544  -1.776  1.00  0.00     0.053 C 
BRANCH  11  12
ATOM     12  C   UNL     1      -5.015   1.415  -2.502  1.00  0.00     0.041 C 
ATOM     13  O   UNL     1      -4.709   1.166  -3.697  1.00  0.00    -0.550 OA
ATOM     14  O   UNL     1      -4.453   2.515  -1.862  1.00  0.00    -0.550 OA
ENDBRANCH  11  12
ENDBRANCH  10  11
ENDBRANCH   9  10
ENDBRANCH   8   9
ENDBRANCH   7   8
ENDBRANCH   6   7
ENDBRANCH   5   6
ENDBRANCH   4   5
ENDBRANCH   3   4
ENDBRANCH   2   3
ENDBRANCH   1   2
BRANCH   1  15
ATOM     15  C   UNL     1      -5.625  -1.607   1.974  1.00  0.00     0.000 C 
BRANCH  15  16
ATOM     16  C   UNL     1      -7.104  -1.781   1.589  1.00  0.00     0.000 C 
BRANCH  16  17
ATOM     17  C   UNL     1      -8.006  -2.223   2.765  1.00  0.00     0.000 C 
BRANCH  17  18
ATOM     18  C   UNL     1      -8.481  -3.685   2.657  1.00  0.00    -0.000 C 
BRANCH  18  19
ATOM     19  C   UNL     1      -8.075  -4.580   3.842  1.00  0.00    -0.000 C 
BRANCH  19  20
ATOM     20  C   UNL     1      -6.940  -5.585   3.549  1.00  0.00    -0.000 C 
BRANCH  20  21
ATOM     21  C   UNL     1      -5.628  -5.332   4.313  1.00  0.00    -0.000 C 
BRANCH  21  22
ATOM     22  C   UNL     1      -5.856  -4.680   5.688  1.00  0.00    -0.000 C 
BRANCH  22  23
ATOM     23  C   UNL     1      -4.653  -3.844   6.152  1.00  0.00    -0.000 C 
BRANCH  23  24
ATOM     24  C   UNL     1      -4.609  -2.457   5.486  1.00  0.00    -0.000 C 
BRANCH  24  25
ATOM     25  C   UNL     1      -5.905  -1.659   5.701  1.00  0.00    -0.003 C 
ATOM     26  C   UNL     1      -5.654  -0.162   5.884  1.00  0.00     0.004 C 
ENDBRANCH  24  25
ENDBRANCH  23  24
ENDBRANCH  22  23
ENDBRANCH  21  22
ENDBRANCH  20  21
ENDBRANCH  19  20
ENDBRANCH  18  19
ENDBRANCH  17  18
ENDBRANCH  16  17
ENDBRANCH  15  16
ENDBRANCH   1  15
TORSDOF 22
ENDMDL
MODEL 7
REMARK VINA RESULT:    -4.573      4.696      7.823
REMARK INTER + INTRA:         -12.820
REMARK INTER:                  -9.440
REMARK INTRA:                  -3.380
REMARK UNBOUND:                -2.367
REMARK SMILES CCCCCCCCCCCCCCCCCCCCCCCC(=O)[O-]
REMARK SMILES IDX 13 1 14 2 15 3 16 4 17 5 18 6 19 7 20 8 21 9 22 10 23 11
REMARK SMILES IDX 24 12 25 13 26 14 12 15 11 16 10 17 9 18 8 19 7 20 6 21 5 22
REMARK SMILES IDX 4 23 3 24 2 25 1 26
REMARK H PARENT
REMARK Flexibility Score: inf
ROOT
ATOM      1  C   UNL     1      -5.842  -5.275   1.400  1.00  0.00     0.000 C 
ENDROOT
BRANCH   1   2
ATOM      2  C   UNL     1      -4.731  -4.601   0.587  1.00  0.00     0.000 C 
BRANCH   2   3
ATOM      3  C   UNL     1      -5.034  -3.112   0.369  1.00  0.00     0.000 C 
BRANCH   3   4
ATOM      4  C   UNL     1      -5.006  -2.303   1.675  1.00  0.00     0.000 C 
BRANCH   4   5
ATOM      5  C   UNL     1      -6.099  -1.220   1.727  1.00  0.00     0.000 C 
BRANCH   5   6
ATOM      6  C   UNL     1      -7.141  -1.373   0.607  1.00  0.00     0.000 C 
BRANCH   6   7
ATOM      7  C   UNL     1      -7.340  -0.076  -0.196  1.00  0.00     0.000 C 
BRANCH   7   8
ATOM      8  C   UNL     1      -6.043   0.410  -0.862  1.00  0.00     0.000 C 
BRANCH   8   9
ATOM      9  C   UNL     1      -5.936  -0.011  -2.336  1.00  0.00     0.000 C 
BRANCH   9  10
ATOM     10  C   UNL     1      -4.725   0.654  -3.008  1.00  0.00     0.006 C 
BRANCH  10  11
ATOM     11  C   UNL     1      -5.140   1.751  -3.999  1.00  0.00     0.053 C 
BRANCH  11  12
ATOM     12  C   UNL     1      -4.987   3.120  -3.410  1.00  0.00     0.041 C 
ATOM     13  O   UNL     1      -4.026   3.375  -2.637  1.00  0.00    -0.550 OA
ATOM     14  O   UNL     1      -5.897   4.122  -3.730  1.00  0.00    -0.550 OA
ENDBRANCH  11  12
ENDBRANCH  10  11
ENDBRANCH   9  10
ENDBRANCH   8   9
ENDBRANCH   7   8
ENDBRANCH   6   7
ENDBRANCH   5   6
ENDBRANCH   4   5
ENDBRANCH   3   4
ENDBRANCH   2   3
ENDBRANCH   1   2
BRANCH   1  15
ATOM     15  C   UNL     1      -7.175  -5.249   0.635  1.00  0.00     0.000 C 
BRANCH  15  16
ATOM     16  C   UNL     1      -8.351  -4.802   1.521  1.00  0.00     0.000 C 
BRANCH  16  17
ATOM     17  C   UNL     1      -8.032  -4.817   3.034  1.00  0.00     0.000 C 
BRANCH  17  18
ATOM     18  C   UNL     1      -8.163  -3.435   3.702  1.00  0.00    -0.000 C 
BRANCH  18  19
ATOM     19  C   UNL     1      -7.121  -3.153   4.800  1.00  0.00    -0.000 C 
BRANCH  19  20
ATOM     20  C   UNL     1      -5.928  -4.131   4.840  1.00  0.00    -0.000 C 
BRANCH  20  21
ATOM     21  C   UNL     1      -4.559  -3.483   5.109  1.00  0.00    -0.000 C 
BRANCH  21  22
ATOM     22  C   UNL     1      -4.666  -2.181   5.922  1.00  0.00    -0.000 C 
BRANCH  22  23
ATOM     23  C   UNL     1      -4.039  -0.979   5.198  1.00  0.00    -0.000 C 
BRANCH  23  24
ATOM     24  C   UNL     1      -3.095  -0.172   6.108  1.00  0.00    -0.000 C 
BRANCH  24  25
ATOM     25  C   UNL     1      -2.035   0.607   5.315  1.00  0.00    -0.003 C 
ATOM     26  C   UNL     1      -0.710  -0.147   5.199  1.00  0.00     0.004 C 
ENDBRANCH  24  25
ENDBRANCH  23  24
ENDBRANCH  22  23
ENDBRANCH  21  22
ENDBRANCH  20  21
ENDBRANCH  19  20
ENDBRANCH  18  19
ENDBRANCH  17  18
ENDBRANCH  16  17
ENDBRANCH  15  16
ENDBRANCH   1  15
TORSDOF 22
ENDMDL
MODEL 8
REMARK VINA RESULT:    -4.561      4.707      7.178
REMARK INTER + INTRA:         -12.793
REMARK INTER:                  -9.707
REMARK INTRA:                  -3.087
REMARK UNBOUND:                -2.367
REMARK SMILES CCCCCCCCCCCCCCCCCCCCCCCC(=O)[O-]
REMARK SMILES IDX 13 1 14 2 15 3 16 4 17 5 18 6 19 7 20 8 21 9 22 10 23 11
REMARK SMILES IDX 24 12 25 13 26 14 12 15 11 16 10 17 9 18 8 19 7 20 6 21 5 22
REMARK SMILES IDX 4 23 3 24 2 25 1 26
REMARK H PARENT
REMARK Flexibility Score: inf
ROOT
ATOM      1  C   UNL     1      -4.585  -3.981   0.659  1.00  0.00     0.000 C 
ENDROOT
BRANCH   1   2
ATOM      2  C   UNL     1      -5.368  -5.271   0.390  1.00  0.00     0.000 C 
BRANCH   2   3
ATOM      3  C   UNL     1      -6.070  -5.214  -0.975  1.00  0.00     0.000 C 
BRANCH   3   4
ATOM      4  C   UNL     1      -7.523  -5.711  -0.915  1.00  0.00     0.000 C 
BRANCH   4   5
ATOM      5  C   UNL     1      -8.515  -4.722  -1.553  1.00  0.00     0.000 C 
BRANCH   5   6
ATOM      6  C   UNL     1      -7.817  -3.619  -2.365  1.00  0.00     0.000 C 
BRANCH   6   7
ATOM      7  C   UNL     1      -8.359  -2.216  -2.043  1.00  0.00     0.000 C 
BRANCH   7   8
ATOM      8  C   UNL     1      -7.440  -1.096  -2.558  1.00  0.00     0.000 C 
BRANCH   8   9
ATOM      9  C   UNL     1      -6.200  -1.633  -3.289  1.00  0.00     0.000 C 
BRANCH   9  10
ATOM     10  C   UNL     1      -4.984  -0.727  -3.040  1.00  0.00     0.006 C 
BRANCH  10  11
ATOM     11  C   UNL     1      -5.320   0.460  -2.127  1.00  0.00     0.053 C 
BRANCH  11  12
ATOM     12  C   UNL     1      -4.837   1.758  -2.699  1.00  0.00     0.041 C 
ATOM     13  O   UNL     1      -4.978   2.001  -3.926  1.00  0.00    -0.550 OA
ATOM     14  O   UNL     1      -4.247   2.708  -1.873  1.00  0.00    -0.550 OA
ENDBRANCH  11  12
ENDBRANCH  10  11
ENDBRANCH   9  10
ENDBRANCH   8   9
ENDBRANCH   7   8
ENDBRANCH   6   7
ENDBRANCH   5   6
ENDBRANCH   4   5
ENDBRANCH   3   4
ENDBRANCH   2   3
ENDBRANCH   1   2
BRANCH   1  15
ATOM     15  C   UNL     1      -5.272  -2.774   0.002  1.00  0.00     0.000 C 
BRANCH  15  16
ATOM     16  C   UNL     1      -5.650  -1.686   1.022  1.00  0.00     0.000 C 
BRANCH  16  17
ATOM     17  C   UNL     1      -6.686  -2.151   2.072  1.00  0.00     0.000 C 
BRANCH  17  18
ATOM     18  C   UNL     1      -6.211  -1.967   3.526  1.00  0.00    -0.000 C 
BRANCH  18  19
ATOM     19  C   UNL     1      -4.809  -2.534   3.819  1.00  0.00    -0.000 C 
BRANCH  19  20
ATOM     20  C   UNL     1      -4.735  -3.523   5.002  1.00  0.00    -0.000 C 
BRANCH  20  21
ATOM     21  C   UNL     1      -4.990  -2.905   6.388  1.00  0.00    -0.000 C 
BRANCH  21  22
ATOM     22  C   UNL     1      -3.698  -2.428   7.074  1.00  0.00    -0.000 C 
BRANCH  22  23
ATOM     23  C   UNL     1      -3.756  -0.946   7.478  1.00  0.00    -0.000 C 
BRANCH  23  24
ATOM     24  C   UNL     1      -3.668  -0.003   6.265  1.00  0.00    -0.000 C 
BRANCH  24  25
ATOM     25  C   UNL     1      -2.356  -0.171   5.482  1.00  0.00    -0.003 C 
ATOM     26  C   UNL     1      -1.633   1.156   5.248  1.00  0.00     0.004 C 
ENDBRANCH  24  25
ENDBRANCH  23  24
ENDBRANCH  22  23
ENDBRANCH  21  22
ENDBRANCH  20  21
ENDBRANCH  19  20
ENDBRANCH  18  19
ENDBRANCH  17  18
ENDBRANCH  16  17
ENDBRANCH  15  16
ENDBRANCH   1  15
TORSDOF 22
ENDMDL
MODEL 9
REMARK VINA RESULT:    -4.527      4.629      7.347
REMARK INTER + INTRA:         -12.716
REMARK INTER:                 -10.373
REMARK INTRA:                  -2.343
REMARK UNBOUND:                -2.367
REMARK SMILES CCCCCCCCCCCCCCCCCCCCCCCC(=O)[O-]
REMARK SMILES IDX 13 1 14 2 15 3 16 4 17 5 18 6 19 7 20 8 21 9 22 10 23 11
REMARK SMILES IDX 24 12 25 13 26 14 12 15 11 16 10 17 9 18 8 19 7 20 6 21 5 22
REMARK SMILES IDX 4 23 3 24 2 25 1 26
REMARK H PARENT
REMARK Flexibility Score: inf
ROOT
ATOM      1  C   UNL     1      -5.274  -5.249   0.389  1.00  0.00     0.000 C 
ENDROOT
BRANCH   1   2
ATOM      2  C   UNL     1      -5.846  -5.317  -1.032  1.00  0.00     0.000 C 
BRANCH   2   3
ATOM      3  C   UNL     1      -7.369  -5.506  -1.003  1.00  0.00     0.000 C 
BRANCH   3   4
ATOM      4  C   UNL     1      -8.012  -4.946   0.275  1.00  0.00     0.000 C 
BRANCH   4   5
ATOM      5  C   UNL     1      -8.807  -3.652   0.021  1.00  0.00     0.000 C 
BRANCH   5   6
ATOM      6  C   UNL     1      -8.013  -2.385   0.383  1.00  0.00     0.000 C 
BRANCH   6   7
ATOM      7  C   UNL     1      -7.464  -1.659  -0.856  1.00  0.00     0.000 C 
BRANCH   7   8
ATOM      8  C   UNL     1      -6.123  -0.958  -0.582  1.00  0.00     0.000 C 
BRANCH   8   9
ATOM      9  C   UNL     1      -6.169   0.550  -0.872  1.00  0.00     0.000 C 
BRANCH   9  10
ATOM     10  C   UNL     1      -5.259   0.906  -2.058  1.00  0.00     0.006 C 
BRANCH  10  11
ATOM     11  C   UNL     1      -4.924   2.403  -2.105  1.00  0.00     0.053 C 
BRANCH  11  12
ATOM     12  C   UNL     1      -4.835   2.910  -3.512  1.00  0.00     0.041 C 
ATOM     13  O   UNL     1      -4.432   4.081  -3.741  1.00  0.00    -0.550 OA
ATOM     14  O   UNL     1      -5.181   2.082  -4.575  1.00  0.00    -0.550 OA
ENDBRANCH  11  12
ENDBRANCH  10  11
ENDBRANCH   9  10
ENDBRANCH   8   9
ENDBRANCH   7   8
ENDBRANCH   6   7
ENDBRANCH   5   6
ENDBRANCH   4   5
ENDBRANCH   3   4
ENDBRANCH   2   3
ENDBRANCH   1   2
BRANCH   1  15
ATOM     15  C   UNL     1      -4.515  -3.932   0.613  1.00  0.00     0.000 C 
BRANCH  15  16
ATOM     16  C   UNL     1      -4.929  -3.231   1.919  1.00  0.00     0.000 C 
BRANCH  16  17
ATOM     17  C   UNL     1      -5.318  -4.207   3.053  1.00  0.00     0.000 C 
BRANCH  17  18
ATOM     18  C   UNL     1      -6.450  -3.679   3.955  1.00  0.00    -0.000 C 
BRANCH  18  19
ATOM     19  C   UNL     1      -6.019  -3.342   5.394  1.00  0.00    -0.000 C 
BRANCH  19  20
ATOM     20  C   UNL     1      -4.565  -2.848   5.545  1.00  0.00    -0.000 C 
BRANCH  20  21
ATOM     21  C   UNL     1      -4.316  -1.397   5.096  1.00  0.00    -0.000 C 
BRANCH  21  22
ATOM     22  C   UNL     1      -3.182  -0.716   5.883  1.00  0.00    -0.000 C 
BRANCH  22  23
ATOM     23  C   UNL     1      -2.133  -0.068   4.966  1.00  0.00    -0.000 C 
BRANCH  23  24
ATOM     24  C   UNL     1      -1.108   0.771   5.749  1.00  0.00    -0.000 C 
BRANCH  24  25
ATOM     25  C   UNL     1      -0.327  -0.062   6.778  1.00  0.00    -0.003 C 
ATOM     26  C   UNL     1       0.788  -0.893   6.143  1.00  0.00     0.004 C 
ENDBRANCH  24  25
ENDBRANCH  23  24
ENDBRANCH  22  23
ENDBRANCH  21  22
ENDBRANCH  20  21
ENDBRANCH  19  20
ENDBRANCH  18  19
ENDBRANCH  17  18
ENDBRANCH  16  17
ENDBRANCH  15  16
ENDBRANCH   1  15
TORSDOF 22
ENDMDL
