MODEL 1
REMARK VINA RESULT:    15.282      0.000      0.000
REMARK INTER + INTRA:          34.621
REMARK INTER:                  34.938
REMARK INTRA:                  -0.316
REMARK UNBOUND:                -0.316
REMARK SMILES CCCCCCCCCCCCCCCCCCCCCCCC(=O)[O-]
REMARK SMILES IDX 13 1 14 2 15 3 16 4 17 5 18 6 19 7 20 8 21 9 22 10 23 11
REMARK SMILES IDX 24 12 25 13 26 14 12 15 11 16 10 17 9 18 8 19 7 20 6 21 5 22
REMARK SMILES IDX 4 23 3 24 2 25 1 26
REMARK H PARENT
REMARK Flexibility Score: inf
ROOT
ATOM      1  C   UNL     1      13.863 -10.072   3.705  1.00  0.00     0.000 C 
ENDROOT
BRANCH   1   2
ATOM      2  C   UNL     1      14.743 -10.641   2.571  1.00  0.00     0.000 C 
BRANCH   2   3
ATOM      3  C   UNL     1      15.894  -9.691   2.196  1.00  0.00     0.000 C 
BRANCH   3   4
ATOM      4  C   UNL     1      15.474  -8.212   2.225  1.00  0.00     0.000 C 
BRANCH   4   5
ATOM      5  C   UNL     1      16.631  -7.263   1.875  1.00  0.00     0.000 C 
BRANCH   5   6
ATOM      6  C   UNL     1      17.269  -6.682   3.146  1.00  0.00     0.000 C 
BRANCH   6   7
ATOM      7  C   UNL     1      16.315  -6.703   4.352  1.00  0.00     0.000 C 
BRANCH   7   8
ATOM      8  C   UNL     1      16.763  -5.752   5.474  1.00  0.00     0.000 C 
BRANCH   8   9
ATOM      9  C   UNL     1      15.676  -5.536   6.539  1.00  0.00     0.000 C 
BRANCH   9  10
ATOM     10  C   UNL     1      15.659  -4.102   7.090  1.00  0.00     0.006 C 
BRANCH  10  11
ATOM     11  C   UNL     1      14.394  -3.359   6.647  1.00  0.00     0.053 C 
BRANCH  11  12
ATOM     12  C   UNL     1      14.724  -1.953   6.256  1.00  0.00     0.041 C 
ATOM     13  O   UNL     1      13.907  -1.278   5.574  1.00  0.00    -0.550 OA
ATOM     14  O   UNL     1      15.952  -1.404   6.600  1.00  0.00    -0.550 OA
ENDBRANCH  11  12
ENDBRANCH  10  11
ENDBRANCH   9  10
ENDBRANCH   8   9
ENDBRANCH   7   8
ENDBRANCH   6   7
ENDBRANCH   5   6
ENDBRANCH   4   5
ENDBRANCH   3   4
ENDBRANCH   2   3
ENDBRANCH   1   2
BRANCH   1  15
ATOM     15  C   UNL     1      12.704 -10.998   4.117  1.00  0.00     0.000 C 
BRANCH  15  16
ATOM     16  C   UNL     1      11.807 -10.453   5.241  1.00  0.00     0.000 C 
BRANCH  16  17
ATOM     17  C   UNL     1      10.669 -11.419   5.615  1.00  0.00     0.000 C 
BRANCH  17  18
ATOM     18  C   UNL     1      11.183 -12.829   5.946  1.00  0.00    -0.000 C 
BRANCH  18  19
ATOM     19  C   UNL     1      12.715 -12.891   6.031  1.00  0.00    -0.000 C 
BRANCH  19  20
ATOM     20  C   UNL     1      13.171 -14.054   6.920  1.00  0.00    -0.000 C 
BRANCH  20  21
ATOM     21  C   UNL     1      14.687 -14.275   6.801  1.00  0.00    -0.000 C 
BRANCH  21  22
ATOM     22  C   UNL     1      15.049 -15.737   6.493  1.00  0.00    -0.000 C 
BRANCH  22  23
ATOM     23  C   UNL     1      16.238 -16.238   7.328  1.00  0.00    -0.000 C 
BRANCH  23  24
ATOM     24  C   UNL     1      17.539 -15.474   7.032  1.00  0.00    -0.000 C 
BRANCH  24  25
ATOM     25  C   UNL     1      18.424 -16.154   5.966  1.00  0.00    -0.003 C 
ATOM     26  C   UNL     1      18.504 -17.667   6.158  1.00  0.00     0.004 C 
ENDBRANCH  24  25
ENDBRANCH  23  24
ENDBRANCH  22  23
ENDBRANCH  21  22
ENDBRANCH  20  21
ENDBRANCH  19  20
ENDBRANCH  18  19
ENDBRANCH  17  18
ENDBRANCH  16  17
ENDBRANCH  15  16
ENDBRANCH   1  15
TORSDOF 22
ENDMDL
MODEL 2
REMARK VINA RESULT:    15.511      1.556      3.276
REMARK INTER + INTRA:          35.144
REMARK INTER:                  34.372
REMARK INTRA:                   0.772
REMARK UNBOUND:                -0.316
REMARK SMILES CCCCCCCCCCCCCCCCCCCCCCCC(=O)[O-]
REMARK SMILES IDX 13 1 14 2 15 3 16 4 17 5 18 6 19 7 20 8 21 9 22 10 23 11
REMARK SMILES IDX 24 12 25 13 26 14 12 15 11 16 10 17 9 18 8 19 7 20 6 21 5 22
REMARK SMILES IDX 4 23 3 24 2 25 1 26
REMARK H PARENT
REMARK Flexibility Score: inf
ROOT
ATOM      1  C   UNL     1      10.996 -11.093   5.977  1.00  0.00     0.000 C 
ENDROOT
BRANCH   1   2
ATOM      2  C   UNL     1      11.734 -10.350   4.842  1.00  0.00     0.000 C 
BRANCH   2   3
ATOM      3  C   UNL     1      13.166 -10.874   4.640  1.00  0.00     0.000 C 
BRANCH   3   4
ATOM      4  C   UNL     1      13.708 -10.587   3.230  1.00  0.00     0.000 C 
BRANCH   4   5
ATOM      5  C   UNL     1      14.589  -9.329   3.180  1.00  0.00     0.000 C 
BRANCH   5   6
ATOM      6  C   UNL     1      15.738  -9.501   2.175  1.00  0.00     0.000 C 
BRANCH   6   7
ATOM      7  C   UNL     1      16.475  -8.183   1.885  1.00  0.00     0.000 C 
BRANCH   7   8
ATOM      8  C   UNL     1      15.829  -6.980   2.592  1.00  0.00     0.000 C 
BRANCH   8   9
ATOM      9  C   UNL     1      16.427  -6.719   3.984  1.00  0.00     0.000 C 
BRANCH   9  10
ATOM     10  C   UNL     1      15.440  -7.023   5.122  1.00  0.00     0.006 C 
BRANCH  10  11
ATOM     11  C   UNL     1      15.100  -5.753   5.908  1.00  0.00     0.053 C 
BRANCH  11  12
ATOM     12  C   UNL     1      16.338  -5.160   6.505  1.00  0.00     0.041 C 
ATOM     13  O   UNL     1      16.262  -4.131   7.227  1.00  0.00    -0.550 OA
ATOM     14  O   UNL     1      17.580  -5.713   6.223  1.00  0.00    -0.550 OA
ENDBRANCH  11  12
ENDBRANCH  10  11
ENDBRANCH   9  10
ENDBRANCH   8   9
ENDBRANCH   7   8
ENDBRANCH   6   7
ENDBRANCH   5   6
ENDBRANCH   4   5
ENDBRANCH   3   4
ENDBRANCH   2   3
ENDBRANCH   1   2
BRANCH   1  15
ATOM     15  C   UNL     1      10.377 -12.434   5.541  1.00  0.00     0.000 C 
BRANCH  15  16
ATOM     16  C   UNL     1      11.340 -13.633   5.574  1.00  0.00     0.000 C 
BRANCH  16  17
ATOM     17  C   UNL     1      12.720 -13.271   6.150  1.00  0.00     0.000 C 
BRANCH  17  18
ATOM     18  C   UNL     1      13.409 -14.472   6.817  1.00  0.00    -0.000 C 
BRANCH  18  19
ATOM     19  C   UNL     1      14.896 -14.211   7.103  1.00  0.00    -0.000 C 
BRANCH  19  20
ATOM     20  C   UNL     1      15.764 -15.375   6.609  1.00  0.00    -0.000 C 
BRANCH  20  21
ATOM     21  C   UNL     1      17.247 -15.127   6.924  1.00  0.00    -0.000 C 
BRANCH  21  22
ATOM     22  C   UNL     1      17.991 -16.412   7.318  1.00  0.00    -0.000 C 
BRANCH  22  23
ATOM     23  C   UNL     1      19.088 -16.790   6.309  1.00  0.00    -0.000 C 
BRANCH  23  24
ATOM     24  C   UNL     1      18.741 -16.377   4.868  1.00  0.00    -0.000 C 
BRANCH  24  25
ATOM     25  C   UNL     1      18.875 -17.528   3.849  1.00  0.00    -0.003 C 
ATOM     26  C   UNL     1      18.601 -17.070   2.418  1.00  0.00     0.004 C 
ENDBRANCH  24  25
ENDBRANCH  23  24
ENDBRANCH  22  23
ENDBRANCH  21  22
ENDBRANCH  20  21
ENDBRANCH  19  20
ENDBRANCH  18  19
ENDBRANCH  17  18
ENDBRANCH  16  17
ENDBRANCH  15  16
ENDBRANCH   1  15
TORSDOF 22
ENDMDL
MODEL 3
REMARK VINA RESULT:    15.748      4.741     10.259
REMARK INTER + INTRA:          35.686
REMARK INTER:                  36.446
REMARK INTRA:                  -0.760
REMARK UNBOUND:                -0.316
REMARK SMILES CCCCCCCCCCCCCCCCCCCCCCCC(=O)[O-]
REMARK SMILES IDX 13 1 14 2 15 3 16 4 17 5 18 6 19 7 20 8 21 9 22 10 23 11
REMARK SMILES IDX 24 12 25 13 26 14 12 15 11 16 10 17 9 18 8 19 7 20 6 21 5 22
REMARK SMILES IDX 4 23 3 24 2 25 1 26
REMARK H PARENT
REMARK Flexibility Score: inf
ROOT
ATOM      1  C   UNL     1      11.665 -10.439   5.249  1.00  0.00     0.000 C 
ENDROOT
BRANCH   1   2
ATOM      2  C   UNL     1      10.691 -11.483   5.838  1.00  0.00     0.000 C 
BRANCH   2   3
ATOM      3  C   UNL     1      11.267 -12.908   5.786  1.00  0.00     0.000 C 
BRANCH   3   4
ATOM      4  C   UNL     1      12.722 -12.978   6.276  1.00  0.00     0.000 C 
BRANCH   4   5
ATOM      5  C   UNL     1      13.356 -14.360   6.056  1.00  0.00     0.000 C 
BRANCH   5   6
ATOM      6  C   UNL     1      14.697 -14.475   6.796  1.00  0.00     0.000 C 
BRANCH   6   7
ATOM      7  C   UNL     1      15.256 -15.908   6.792  1.00  0.00     0.000 C 
BRANCH   7   8
ATOM      8  C   UNL     1      16.670 -15.989   7.391  1.00  0.00     0.000 C 
BRANCH   8   9
ATOM      9  C   UNL     1      17.401 -17.287   7.011  1.00  0.00     0.000 C 
BRANCH   9  10
ATOM     10  C   UNL     1      18.886 -17.060   6.686  1.00  0.00     0.006 C 
BRANCH  10  11
ATOM     11  C   UNL     1      19.050 -16.361   5.332  1.00  0.00     0.053 C 
BRANCH  11  12
ATOM     12  C   UNL     1      18.888 -17.343   4.214  1.00  0.00     0.041 C 
ATOM     13  O   UNL     1      19.124 -18.565   4.406  1.00  0.00    -0.550 OA
ATOM     14  O   UNL     1      18.526 -16.902   2.948  1.00  0.00    -0.550 OA
ENDBRANCH  11  12
ENDBRANCH  10  11
ENDBRANCH   9  10
ENDBRANCH   8   9
ENDBRANCH   7   8
ENDBRANCH   6   7
ENDBRANCH   5   6
ENDBRANCH   4   5
ENDBRANCH   3   4
ENDBRANCH   2   3
ENDBRANCH   1   2
BRANCH   1  15
ATOM     15  C   UNL     1      12.564 -10.992   4.128  1.00  0.00     0.000 C 
BRANCH  15  16
ATOM     16  C   UNL     1      13.815 -10.148   3.826  1.00  0.00     0.000 C 
BRANCH  16  17
ATOM     17  C   UNL     1      14.402 -10.433   2.433  1.00  0.00     0.000 C 
BRANCH  17  18
ATOM     18  C   UNL     1      15.785  -9.790   2.237  1.00  0.00    -0.000 C 
BRANCH  18  19
ATOM     19  C   UNL     1      15.693  -8.300   1.878  1.00  0.00    -0.000 C 
BRANCH  19  20
ATOM     20  C   UNL     1      16.860  -7.513   2.489  1.00  0.00    -0.000 C 
BRANCH  20  21
ATOM     21  C   UNL     1      16.351  -6.462   3.487  1.00  0.00    -0.000 C 
BRANCH  21  22
ATOM     22  C   UNL     1      16.005  -7.067   4.857  1.00  0.00    -0.000 C 
BRANCH  22  23
ATOM     23  C   UNL     1      17.016  -6.675   5.946  1.00  0.00    -0.000 C 
BRANCH  23  24
ATOM     24  C   UNL     1      17.285  -5.161   5.993  1.00  0.00    -0.000 C 
BRANCH  24  25
ATOM     25  C   UNL     1      16.041  -4.326   6.360  1.00  0.00    -0.003 C 
ATOM     26  C   UNL     1      15.897  -4.129   7.867  1.00  0.00     0.004 C 
ENDBRANCH  24  25
ENDBRANCH  23  24
ENDBRANCH  22  23
ENDBRANCH  21  22
ENDBRANCH  20  21
ENDBRANCH  19  20
ENDBRANCH  18  19
ENDBRANCH  17  18
ENDBRANCH  16  17
ENDBRANCH  15  16
ENDBRANCH   1  15
TORSDOF 22
ENDMDL
MODEL 4
REMARK VINA RESULT:    15.849      4.487     10.354
REMARK INTER + INTRA:          35.916
REMARK INTER:                  36.616
REMARK INTRA:                  -0.700
REMARK UNBOUND:                -0.316
REMARK SMILES CCCCCCCCCCCCCCCCCCCCCCCC(=O)[O-]
REMARK SMILES IDX 13 1 14 2 15 3 16 4 17 5 18 6 19 7 20 8 21 9 22 10 23 11
REMARK SMILES IDX 24 12 25 13 26 14 12 15 11 16 10 17 9 18 8 19 7 20 6 21 5 22
REMARK SMILES IDX 4 23 3 24 2 25 1 26
REMARK H PARENT
REMARK Flexibility Score: inf
ROOT
ATOM      1  C   UNL     1      12.816 -11.155   4.669  1.00  0.00     0.000 C 
ENDROOT
BRANCH   1   2
ATOM      2  C   UNL     1      11.624 -10.238   5.018  1.00  0.00     0.000 C 
BRANCH   2   3
ATOM      3  C   UNL     1      10.545 -10.971   5.833  1.00  0.00     0.000 C 
BRANCH   3   4
ATOM      4  C   UNL     1      11.010 -12.352   6.324  1.00  0.00     0.000 C 
BRANCH   4   5
ATOM      5  C   UNL     1      10.520 -13.495   5.422  1.00  0.00     0.000 C 
BRANCH   5   6
ATOM      6  C   UNL     1      11.606 -14.571   5.259  1.00  0.00     0.000 C 
BRANCH   6   7
ATOM      7  C   UNL     1      12.859 -14.281   6.102  1.00  0.00     0.000 C 
BRANCH   7   8
ATOM      8  C   UNL     1      13.935 -15.369   5.949  1.00  0.00     0.000 C 
BRANCH   8   9
ATOM      9  C   UNL     1      15.296 -14.941   6.520  1.00  0.00     0.000 C 
BRANCH   9  10
ATOM     10  C   UNL     1      16.107 -16.123   7.074  1.00  0.00     0.006 C 
BRANCH  10  11
ATOM     11  C   UNL     1      17.593 -15.766   7.184  1.00  0.00     0.053 C 
BRANCH  11  12
ATOM     12  C   UNL     1      18.402 -16.596   6.239  1.00  0.00     0.041 C 
ATOM     13  O   UNL     1      18.867 -16.085   5.186  1.00  0.00    -0.550 OA
ATOM     14  O   UNL     1      18.601 -17.947   6.494  1.00  0.00    -0.550 OA
ENDBRANCH  11  12
ENDBRANCH  10  11
ENDBRANCH   9  10
ENDBRANCH   8   9
ENDBRANCH   7   8
ENDBRANCH   6   7
ENDBRANCH   5   6
ENDBRANCH   4   5
ENDBRANCH   3   4
ENDBRANCH   2   3
ENDBRANCH   1   2
BRANCH   1  15
ATOM     15  C   UNL     1      13.523 -10.783   3.353  1.00  0.00     0.000 C 
BRANCH  15  16
ATOM     16  C   UNL     1      14.389  -9.513   3.420  1.00  0.00     0.000 C 
BRANCH  16  17
ATOM     17  C   UNL     1      15.546  -9.529   2.405  1.00  0.00     0.000 C 
BRANCH  17  18
ATOM     18  C   UNL     1      15.880  -8.125   1.875  1.00  0.00    -0.000 C 
BRANCH  18  19
ATOM     19  C   UNL     1      16.539  -7.237   2.941  1.00  0.00    -0.000 C 
BRANCH  19  20
ATOM     20  C   UNL     1      15.512  -6.767   3.979  1.00  0.00    -0.000 C 
BRANCH  20  21
ATOM     21  C   UNL     1      16.182  -6.502   5.335  1.00  0.00    -0.000 C 
BRANCH  21  22
ATOM     22  C   UNL     1      15.325  -5.620   6.256  1.00  0.00    -0.000 C 
BRANCH  22  23
ATOM     23  C   UNL     1      16.170  -4.644   7.091  1.00  0.00    -0.000 C 
BRANCH  23  24
ATOM     24  C   UNL     1      15.747  -3.178   6.902  1.00  0.00    -0.000 C 
BRANCH  24  25
ATOM     25  C   UNL     1      14.320  -3.016   6.337  1.00  0.00    -0.003 C 
ATOM     26  C   UNL     1      13.982  -1.560   6.023  1.00  0.00     0.004 C 
ENDBRANCH  24  25
ENDBRANCH  23  24
ENDBRANCH  22  23
ENDBRANCH  21  22
ENDBRANCH  20  21
ENDBRANCH  19  20
ENDBRANCH  18  19
ENDBRANCH  17  18
ENDBRANCH  16  17
ENDBRANCH  15  16
ENDBRANCH   1  15
TORSDOF 22
ENDMDL
MODEL 5
REMARK VINA RESULT:    16.585      2.845      3.244
REMARK INTER + INTRA:          37.600
REMARK INTER:                  38.640
REMARK INTRA:                  -1.040
REMARK UNBOUND:                -0.316
REMARK SMILES CCCCCCCCCCCCCCCCCCCCCCCC(=O)[O-]
REMARK SMILES IDX 13 1 14 2 15 3 16 4 17 5 18 6 19 7 20 8 21 9 22 10 23 11
REMARK SMILES IDX 24 12 25 13 26 14 12 15 11 16 10 17 9 18 8 19 7 20 6 21 5 22
REMARK SMILES IDX 4 23 3 24 2 25 1 26
REMARK H PARENT
REMARK Flexibility Score: inf
ROOT
ATOM      1  C   UNL     1      13.479 -10.762   3.483  1.00  0.00     0.000 C 
ENDROOT
BRANCH   1   2
ATOM      2  C   UNL     1      14.491  -9.615   3.272  1.00  0.00     0.000 C 
BRANCH   2   3
ATOM      3  C   UNL     1      15.312  -9.795   1.983  1.00  0.00     0.000 C 
BRANCH   3   4
ATOM      4  C   UNL     1      16.472  -8.792   1.875  1.00  0.00     0.000 C 
BRANCH   4   5
ATOM      5  C   UNL     1      16.011  -7.335   2.031  1.00  0.00     0.000 C 
BRANCH   5   6
ATOM      6  C   UNL     1      16.825  -6.614   3.117  1.00  0.00     0.000 C 
BRANCH   6   7
ATOM      7  C   UNL     1      16.186  -6.728   4.511  1.00  0.00     0.000 C 
BRANCH   7   8
ATOM      8  C   UNL     1      16.842  -5.790   5.538  1.00  0.00     0.000 C 
BRANCH   8   9
ATOM      9  C   UNL     1      15.940  -5.516   6.752  1.00  0.00     0.000 C 
BRANCH   9  10
ATOM     10  C   UNL     1      15.770  -4.017   7.040  1.00  0.00     0.006 C 
BRANCH  10  11
ATOM     11  C   UNL     1      14.648  -3.418   6.186  1.00  0.00     0.053 C 
BRANCH  11  12
ATOM     12  C   UNL     1      14.698  -1.923   6.230  1.00  0.00     0.041 C 
ATOM     13  O   UNL     1      14.171  -1.245   5.308  1.00  0.00    -0.550 OA
ATOM     14  O   UNL     1      15.368  -1.279   7.261  1.00  0.00    -0.550 OA
ENDBRANCH  11  12
ENDBRANCH  10  11
ENDBRANCH   9  10
ENDBRANCH   8   9
ENDBRANCH   7   8
ENDBRANCH   6   7
ENDBRANCH   5   6
ENDBRANCH   4   5
ENDBRANCH   3   4
ENDBRANCH   2   3
ENDBRANCH   1   2
BRANCH   1  15
ATOM     15  C   UNL     1      12.404 -10.455   4.542  1.00  0.00     0.000 C 
BRANCH  15  16
ATOM     16  C   UNL     1      12.059 -11.629   5.473  1.00  0.00     0.000 C 
BRANCH  16  17
ATOM     17  C   UNL     1      10.590 -11.612   5.933  1.00  0.00     0.000 C 
BRANCH  17  18
ATOM     18  C   UNL     1       9.765 -12.742   5.299  1.00  0.00    -0.000 C 
BRANCH  18  19
ATOM     19  C   UNL     1      10.416 -14.121   5.486  1.00  0.00    -0.000 C 
BRANCH  19  20
ATOM     20  C   UNL     1       9.708 -15.185   4.639  1.00  0.00    -0.000 C 
BRANCH  20  21
ATOM     21  C   UNL     1       9.875 -16.581   5.257  1.00  0.00    -0.000 C 
BRANCH  21  22
ATOM     22  C   UNL     1      10.828 -17.476   4.449  1.00  0.00    -0.000 C 
BRANCH  22  23
ATOM     23  C   UNL     1      11.928 -18.103   5.321  1.00  0.00    -0.000 C 
BRANCH  23  24
ATOM     24  C   UNL     1      12.288 -19.534   4.888  1.00  0.00    -0.000 C 
BRANCH  24  25
ATOM     25  C   UNL     1      12.034 -20.591   5.984  1.00  0.00    -0.003 C 
ATOM     26  C   UNL     1      12.258 -20.035   7.389  1.00  0.00     0.004 C 
ENDBRANCH  24  25
ENDBRANCH  23  24
ENDBRANCH  22  23
ENDBRANCH  21  22
ENDBRANCH  20  21
ENDBRANCH  19  20
ENDBRANCH  18  19
ENDBRANCH  17  18
ENDBRANCH  16  17
ENDBRANCH  15  16
ENDBRANCH   1  15
TORSDOF 22
ENDMDL
MODEL 6
REMARK VINA RESULT:    16.671      4.433     10.322
REMARK INTER + INTRA:          37.796
REMARK INTER:                  38.773
REMARK INTRA:                  -0.977
REMARK UNBOUND:                -0.316
REMARK SMILES CCCCCCCCCCCCCCCCCCCCCCCC(=O)[O-]
REMARK SMILES IDX 13 1 14 2 15 3 16 4 17 5 18 6 19 7 20 8 21 9 22 10 23 11
REMARK SMILES IDX 24 12 25 13 26 14 12 15 11 16 10 17 9 18 8 19 7 20 6 21 5 22
REMARK SMILES IDX 4 23 3 24 2 25 1 26
REMARK H PARENT
REMARK Flexibility Score: inf
ROOT
ATOM      1  C   UNL     1      14.620 -10.146   3.307  1.00  0.00     0.000 C 
ENDROOT
BRANCH   1   2
ATOM      2  C   UNL     1      13.153 -10.603   3.453  1.00  0.00     0.000 C 
BRANCH   2   3
ATOM      3  C   UNL     1      12.761 -10.838   4.922  1.00  0.00     0.000 C 
BRANCH   3   4
ATOM      4  C   UNL     1      11.242 -10.761   5.149  1.00  0.00     0.000 C 
BRANCH   4   5
ATOM      5  C   UNL     1      10.696 -11.977   5.914  1.00  0.00     0.000 C 
BRANCH   5   6
ATOM      6  C   UNL     1      11.068 -13.287   5.202  1.00  0.00     0.000 C 
BRANCH   6   7
ATOM      7  C   UNL     1      12.437 -13.833   5.641  1.00  0.00     0.000 C 
BRANCH   7   8
ATOM      8  C   UNL     1      12.782 -13.458   7.092  1.00  0.00     0.000 C 
BRANCH   8   9
ATOM      9  C   UNL     1      14.285 -13.569   7.392  1.00  0.00     0.000 C 
BRANCH   9  10
ATOM     10  C   UNL     1      14.911 -14.853   6.825  1.00  0.00     0.006 C 
BRANCH  10  11
ATOM     11  C   UNL     1      16.439 -14.812   6.934  1.00  0.00     0.053 C 
BRANCH  11  12
ATOM     12  C   UNL     1      17.009 -16.190   6.805  1.00  0.00     0.041 C 
ATOM     13  O   UNL     1      16.362 -17.185   7.225  1.00  0.00    -0.550 OA
ATOM     14  O   UNL     1      18.277 -16.370   6.266  1.00  0.00    -0.550 OA
ENDBRANCH  11  12
ENDBRANCH  10  11
ENDBRANCH   9  10
ENDBRANCH   8   9
ENDBRANCH   7   8
ENDBRANCH   6   7
ENDBRANCH   5   6
ENDBRANCH   4   5
ENDBRANCH   3   4
ENDBRANCH   2   3
ENDBRANCH   1   2
BRANCH   1  15
ATOM     15  C   UNL     1      14.849  -9.149   2.156  1.00  0.00     0.000 C 
BRANCH  15  16
ATOM     16  C   UNL     1      16.320  -8.777   1.905  1.00  0.00     0.000 C 
BRANCH  16  17
ATOM     17  C   UNL     1      16.604  -7.283   2.138  1.00  0.00     0.000 C 
BRANCH  17  18
ATOM     18  C   UNL     1      16.150  -6.810   3.528  1.00  0.00    -0.000 C 
BRANCH  18  19
ATOM     19  C   UNL     1      17.324  -6.330   4.396  1.00  0.00    -0.000 C 
BRANCH  19  20
ATOM     20  C   UNL     1      16.824  -5.737   5.719  1.00  0.00    -0.000 C 
BRANCH  20  21
ATOM     21  C   UNL     1      15.316  -5.449   5.658  1.00  0.00    -0.000 C 
BRANCH  21  22
ATOM     22  C   UNL     1      14.853  -4.483   6.760  1.00  0.00    -0.000 C 
BRANCH  22  23
ATOM     23  C   UNL     1      15.981  -3.556   7.242  1.00  0.00    -0.000 C 
BRANCH  23  24
ATOM     24  C   UNL     1      15.552  -2.080   7.309  1.00  0.00    -0.000 C 
BRANCH  24  25
ATOM     25  C   UNL     1      16.739  -1.094   7.305  1.00  0.00    -0.003 C 
ATOM     26  C   UNL     1      17.380  -0.961   5.926  1.00  0.00     0.004 C 
ENDBRANCH  24  25
ENDBRANCH  23  24
ENDBRANCH  22  23
ENDBRANCH  21  22
ENDBRANCH  20  21
ENDBRANCH  19  20
ENDBRANCH  18  19
ENDBRANCH  17  18
ENDBRANCH  16  17
ENDBRANCH  15  16
ENDBRANCH   1  15
TORSDOF 22
ENDMDL
MODEL 7
REMARK VINA RESULT:    16.761      6.843      9.616
REMARK INTER + INTRA:          38.002
REMARK INTER:                  38.889
REMARK INTRA:                  -0.887
REMARK UNBOUND:                -0.316
REMARK SMILES CCCCCCCCCCCCCCCCCCCCCCCC(=O)[O-]
REMARK SMILES IDX 13 1 14 2 15 3 16 4 17 5 18 6 19 7 20 8 21 9 22 10 23 11
REMARK SMILES IDX 24 12 25 13 26 14 12 15 11 16 10 17 9 18 8 19 7 20 6 21 5 22
REMARK SMILES IDX 4 23 3 24 2 25 1 26
REMARK H PARENT
REMARK Flexibility Score: inf
ROOT
ATOM      1  C   UNL     1      10.459 -12.370   6.144  1.00  0.00     0.000 C 
ENDROOT
BRANCH   1   2
ATOM      2  C   UNL     1       9.774 -13.455   5.284  1.00  0.00     0.000 C 
BRANCH   2   3
ATOM      3  C   UNL     1       8.558 -12.907   4.519  1.00  0.00     0.000 C 
BRANCH   3   4
ATOM      4  C   UNL     1       8.170 -11.487   4.961  1.00  0.00     0.000 C 
BRANCH   4   5
ATOM      5  C   UNL     1       6.725 -11.402   5.476  1.00  0.00     0.000 C 
BRANCH   5   6
ATOM      6  C   UNL     1       6.642 -10.539   6.744  1.00  0.00     0.000 C 
BRANCH   6   7
ATOM      7  C   UNL     1       5.194 -10.225   7.155  1.00  0.00     0.000 C 
BRANCH   7   8
ATOM      8  C   UNL     1       4.689 -11.146   8.279  1.00  0.00     0.000 C 
BRANCH   8   9
ATOM      9  C   UNL     1       3.241 -10.840   8.692  1.00  0.00     0.000 C 
BRANCH   9  10
ATOM     10  C   UNL     1       3.064 -10.739  10.215  1.00  0.00     0.006 C 
BRANCH  10  11
ATOM     11  C   UNL     1       1.643 -10.295  10.574  1.00  0.00     0.053 C 
BRANCH  11  12
ATOM     12  C   UNL     1       1.565  -9.909  12.018  1.00  0.00     0.041 C 
ATOM     13  O   UNL     1       2.301 -10.479  12.867  1.00  0.00    -0.550 OA
ATOM     14  O   UNL     1       0.646  -8.955  12.434  1.00  0.00    -0.550 OA
ENDBRANCH  11  12
ENDBRANCH  10  11
ENDBRANCH   9  10
ENDBRANCH   8   9
ENDBRANCH   7   8
ENDBRANCH   6   7
ENDBRANCH   5   6
ENDBRANCH   4   5
ENDBRANCH   3   4
ENDBRANCH   2   3
ENDBRANCH   1   2
BRANCH   1  15
ATOM     15  C   UNL     1      11.676 -11.716   5.465  1.00  0.00     0.000 C 
BRANCH  15  16
ATOM     16  C   UNL     1      12.940 -12.590   5.420  1.00  0.00     0.000 C 
BRANCH  16  17
ATOM     17  C   UNL     1      12.866 -13.792   6.378  1.00  0.00     0.000 C 
BRANCH  17  18
ATOM     18  C   UNL     1      14.200 -14.051   7.097  1.00  0.00    -0.000 C 
BRANCH  18  19
ATOM     19  C   UNL     1      15.037 -15.138   6.406  1.00  0.00    -0.000 C 
BRANCH  19  20
ATOM     20  C   UNL     1      15.601 -16.132   7.429  1.00  0.00    -0.000 C 
BRANCH  20  21
ATOM     21  C   UNL     1      16.879 -16.801   6.899  1.00  0.00    -0.000 C 
BRANCH  21  22
ATOM     22  C   UNL     1      18.062 -15.825   6.806  1.00  0.00    -0.000 C 
BRANCH  22  23
ATOM     23  C   UNL     1      19.123 -16.281   5.790  1.00  0.00    -0.000 C 
BRANCH  23  24
ATOM     24  C   UNL     1      19.125 -17.803   5.573  1.00  0.00    -0.000 C 
BRANCH  24  25
ATOM     25  C   UNL     1      18.678 -18.224   4.158  1.00  0.00    -0.003 C 
ATOM     26  C   UNL     1      18.555 -17.033   3.210  1.00  0.00     0.004 C 
ENDBRANCH  24  25
ENDBRANCH  23  24
ENDBRANCH  22  23
ENDBRANCH  21  22
ENDBRANCH  20  21
ENDBRANCH  19  20
ENDBRANCH  18  19
ENDBRANCH  17  18
ENDBRANCH  16  17
ENDBRANCH  15  16
ENDBRANCH   1  15
TORSDOF 22
ENDMDL
MODEL 8
REMARK VINA RESULT:    17.545      4.086      9.963
REMARK INTER + INTRA:          39.794
REMARK INTER:                  38.055
REMARK INTRA:                   1.739
REMARK UNBOUND:                -0.316
REMARK SMILES CCCCCCCCCCCCCCCCCCCCCCCC(=O)[O-]
REMARK SMILES IDX 13 1 14 2 15 3 16 4 17 5 18 6 19 7 20 8 21 9 22 10 23 11
REMARK SMILES IDX 24 12 25 13 26 14 12 15 11 16 10 17 9 18 8 19 7 20 6 21 5 22
REMARK SMILES IDX 4 23 3 24 2 25 1 26
REMARK H PARENT
REMARK Flexibility Score: inf
ROOT
ATOM      1  C   UNL     1      15.553  -8.094   2.033  1.00  0.00     0.000 C 
ENDROOT
BRANCH   1   2
ATOM      2  C   UNL     1      15.796  -9.612   1.886  1.00  0.00     0.000 C 
BRANCH   2   3
ATOM      3  C   UNL     1      14.559 -10.439   2.276  1.00  0.00     0.000 C 
BRANCH   3   4
ATOM      4  C   UNL     1      13.973 -10.023   3.635  1.00  0.00     0.000 C 
BRANCH   4   5
ATOM      5  C   UNL     1      12.813 -10.927   4.081  1.00  0.00     0.000 C 
BRANCH   5   6
ATOM      6  C   UNL     1      11.784 -10.137   4.903  1.00  0.00     0.000 C 
BRANCH   6   7
ATOM      7  C   UNL     1      11.087 -11.000   5.968  1.00  0.00     0.000 C 
BRANCH   7   8
ATOM      8  C   UNL     1       9.751 -11.579   5.473  1.00  0.00     0.000 C 
BRANCH   8   9
ATOM      9  C   UNL     1       9.751 -13.116   5.427  1.00  0.00     0.000 C 
BRANCH   9  10
ATOM     10  C   UNL     1      11.161 -13.706   5.267  1.00  0.00     0.006 C 
BRANCH  10  11
ATOM     11  C   UNL     1      12.073 -13.267   6.417  1.00  0.00     0.053 C 
BRANCH  11  12
ATOM     12  C   UNL     1      13.320 -14.095   6.441  1.00  0.00     0.041 C 
ATOM     13  O   UNL     1      13.397 -15.143   5.745  1.00  0.00    -0.550 OA
ATOM     14  O   UNL     1      14.377 -13.738   7.268  1.00  0.00    -0.550 OA
ENDBRANCH  11  12
ENDBRANCH  10  11
ENDBRANCH   9  10
ENDBRANCH   8   9
ENDBRANCH   7   8
ENDBRANCH   6   7
ENDBRANCH   5   6
ENDBRANCH   4   5
ENDBRANCH   3   4
ENDBRANCH   2   3
ENDBRANCH   1   2
BRANCH   1  15
ATOM     15  C   UNL     1      16.839  -7.278   2.259  1.00  0.00     0.000 C 
BRANCH  15  16
ATOM     16  C   UNL     1      16.806  -6.342   3.480  1.00  0.00     0.000 C 
BRANCH  16  17
ATOM     17  C   UNL     1      15.660  -6.674   4.452  1.00  0.00     0.000 C 
BRANCH  17  18
ATOM     18  C   UNL     1      16.130  -6.732   5.914  1.00  0.00    -0.000 C 
BRANCH  18  19
ATOM     19  C   UNL     1      17.047  -5.555   6.282  1.00  0.00    -0.000 C 
BRANCH  19  20
ATOM     20  C   UNL     1      16.645  -4.944   7.630  1.00  0.00    -0.000 C 
BRANCH  20  21
ATOM     21  C   UNL     1      15.784  -3.687   7.429  1.00  0.00    -0.000 C 
BRANCH  21  22
ATOM     22  C   UNL     1      14.940  -3.748   6.147  1.00  0.00    -0.000 C 
BRANCH  22  23
ATOM     23  C   UNL     1      13.800  -2.716   6.142  1.00  0.00    -0.000 C 
BRANCH  23  24
ATOM     24  C   UNL     1      14.270  -1.308   6.546  1.00  0.00    -0.000 C 
BRANCH  24  25
ATOM     25  C   UNL     1      15.805  -1.150   6.558  1.00  0.00    -0.003 C 
ATOM     26  C   UNL     1      16.350  -0.884   7.959  1.00  0.00     0.004 C 
ENDBRANCH  24  25
ENDBRANCH  23  24
ENDBRANCH  22  23
ENDBRANCH  21  22
ENDBRANCH  20  21
ENDBRANCH  19  20
ENDBRANCH  18  19
ENDBRANCH  17  18
ENDBRANCH  16  17
ENDBRANCH  15  16
ENDBRANCH   1  15
TORSDOF 22
ENDMDL
MODEL 9
REMARK VINA RESULT:    17.594      5.725     11.586
REMARK INTER + INTRA:          39.905
REMARK INTER:                  41.121
REMARK INTRA:                  -1.216
REMARK UNBOUND:                -0.316
REMARK SMILES CCCCCCCCCCCCCCCCCCCCCCCC(=O)[O-]
REMARK SMILES IDX 13 1 14 2 15 3 16 4 17 5 18 6 19 7 20 8 21 9 22 10 23 11
REMARK SMILES IDX 24 12 25 13 26 14 12 15 11 16 10 17 9 18 8 19 7 20 6 21 5 22
REMARK SMILES IDX 4 23 3 24 2 25 1 26
REMARK H PARENT
REMARK Flexibility Score: inf
ROOT
ATOM      1  C   UNL     1      13.491 -10.681   3.606  1.00  0.00     0.000 C 
ENDROOT
BRANCH   1   2
ATOM      2  C   UNL     1      12.403 -10.243   4.610  1.00  0.00     0.000 C 
BRANCH   2   3
ATOM      3  C   UNL     1      11.433 -11.387   4.951  1.00  0.00     0.000 C 
BRANCH   3   4
ATOM      4  C   UNL     1      12.019 -12.377   5.971  1.00  0.00     0.000 C 
BRANCH   4   5
ATOM      5  C   UNL     1      11.623 -13.832   5.677  1.00  0.00     0.000 C 
BRANCH   5   6
ATOM      6  C   UNL     1      10.140 -13.932   5.291  1.00  0.00     0.000 C 
BRANCH   6   7
ATOM      7  C   UNL     1       9.751 -15.331   4.784  1.00  0.00     0.000 C 
BRANCH   7   8
ATOM      8  C   UNL     1      10.975 -16.172   4.384  1.00  0.00     0.000 C 
BRANCH   8   9
ATOM      9  C   UNL     1      11.192 -17.381   5.308  1.00  0.00     0.000 C 
BRANCH   9  10
ATOM     10  C   UNL     1      11.989 -18.509   4.634  1.00  0.00     0.006 C 
BRANCH  10  11
ATOM     11  C   UNL     1      11.644 -19.868   5.251  1.00  0.00     0.053 C 
BRANCH  11  12
ATOM     12  C   UNL     1      12.332 -20.034   6.569  1.00  0.00     0.041 C 
ATOM     13  O   UNL     1      11.906 -20.876   7.404  1.00  0.00    -0.550 OA
ATOM     14  O   UNL     1      13.413 -19.226   6.896  1.00  0.00    -0.550 OA
ENDBRANCH  11  12
ENDBRANCH  10  11
ENDBRANCH   9  10
ENDBRANCH   8   9
ENDBRANCH   7   8
ENDBRANCH   6   7
ENDBRANCH   5   6
ENDBRANCH   4   5
ENDBRANCH   3   4
ENDBRANCH   2   3
ENDBRANCH   1   2
BRANCH   1  15
ATOM     15  C   UNL     1      14.512  -9.576   3.276  1.00  0.00     0.000 C 
BRANCH  15  16
ATOM     16  C   UNL     1      15.414  -9.869   2.065  1.00  0.00     0.000 C 
BRANCH  16  17
ATOM     17  C   UNL     1      16.516  -8.813   1.875  1.00  0.00     0.000 C 
BRANCH  17  18
ATOM     18  C   UNL     1      16.014  -7.386   2.150  1.00  0.00    -0.000 C 
BRANCH  18  19
ATOM     19  C   UNL     1      16.843  -6.670   3.228  1.00  0.00    -0.000 C 
BRANCH  19  20
ATOM     20  C   UNL     1      16.066  -6.573   4.547  1.00  0.00    -0.000 C 
BRANCH  20  21
ATOM     21  C   UNL     1      16.926  -5.932   5.646  1.00  0.00    -0.000 C 
BRANCH  21  22
ATOM     22  C   UNL     1      16.082  -5.315   6.772  1.00  0.00    -0.000 C 
BRANCH  22  23
ATOM     23  C   UNL     1      14.722  -4.800   6.275  1.00  0.00    -0.000 C 
BRANCH  23  24
ATOM     24  C   UNL     1      14.414  -3.372   6.755  1.00  0.00    -0.000 C 
BRANCH  24  25
ATOM     25  C   UNL     1      15.460  -2.331   6.306  1.00  0.00    -0.003 C 
ATOM     26  C   UNL     1      15.862  -1.386   7.436  1.00  0.00     0.004 C 
ENDBRANCH  24  25
ENDBRANCH  23  24
ENDBRANCH  22  23
ENDBRANCH  21  22
ENDBRANCH  20  21
ENDBRANCH  19  20
ENDBRANCH  18  19
ENDBRANCH  17  18
ENDBRANCH  16  17
ENDBRANCH  15  16
ENDBRANCH   1  15
TORSDOF 22
ENDMDL
