MODEL 1
REMARK VINA RESULT:    -4.643      0.000      0.000
REMARK INTER + INTRA:         -10.318
REMARK INTER:                  -8.985
REMARK INTRA:                  -1.332
REMARK UNBOUND:                -1.332
REMARK SMILES CCCCCCCCCCCCCCCCCC(=O)[O-]
REMARK SMILES IDX 10 1 11 2 12 3 13 4 14 5 15 6 16 7 17 8 18 9 19 10 20 11
REMARK SMILES IDX 9 12 8 13 7 14 6 15 5 16 4 17 3 18 2 19 1 20
REMARK H PARENT
REMARK Flexibility Score: inf
ROOT
ATOM      1  C   UNL     1       1.432   7.897   3.887  1.00  0.00     0.000 C 
ENDROOT
BRANCH   1   2
ATOM      2  C   UNL     1       0.113   8.170   4.627  1.00  0.00     0.000 C 
BRANCH   2   3
ATOM      3  C   UNL     1       0.328   8.544   6.103  1.00  0.00     0.000 C 
BRANCH   3   4
ATOM      4  C   UNL     1       0.299   7.319   7.037  1.00  0.00     0.000 C 
BRANCH   4   5
ATOM      5  C   UNL     1       1.676   6.872   7.570  1.00  0.00     0.000 C 
BRANCH   5   6
ATOM      6  C   UNL     1       2.276   5.638   6.873  1.00  0.00     0.000 C 
BRANCH   6   7
ATOM      7  C   UNL     1       3.623   5.204   7.480  1.00  0.00     0.006 C 
BRANCH   7   8
ATOM      8  C   UNL     1       4.013   3.782   7.060  1.00  0.00     0.053 C 
BRANCH   8   9
ATOM      9  C   UNL     1       5.271   3.772   6.246  1.00  0.00     0.041 C 
ATOM     10  O   UNL     1       5.254   4.155   5.046  1.00  0.00    -0.550 OA
ATOM     11  O   UNL     1       6.469   3.371   6.824  1.00  0.00    -0.550 OA
ENDBRANCH   8   9
ENDBRANCH   7   8
ENDBRANCH   6   7
ENDBRANCH   5   6
ENDBRANCH   4   5
ENDBRANCH   3   4
ENDBRANCH   2   3
ENDBRANCH   1   2
BRANCH   1  12
ATOM     12  C   UNL     1       1.454   6.514   3.213  1.00  0.00     0.000 C 
BRANCH  12  13
ATOM     13  C   UNL     1       2.812   5.809   3.355  1.00  0.00    -0.000 C 
BRANCH  13  14
ATOM     14  C   UNL     1       3.063   4.776   2.246  1.00  0.00    -0.000 C 
BRANCH  14  15
ATOM     15  C   UNL     1       2.224   5.093   1.001  1.00  0.00    -0.000 C 
BRANCH  15  16
ATOM     16  C   UNL     1       3.123   5.476  -0.184  1.00  0.00    -0.000 C 
BRANCH  16  17
ATOM     17  C   UNL     1       2.339   5.640  -1.497  1.00  0.00    -0.000 C 
BRANCH  17  18
ATOM     18  C   UNL     1       3.050   6.564  -2.499  1.00  0.00    -0.000 C 
BRANCH  18  19
ATOM     19  C   UNL     1       4.581   6.453  -2.418  1.00  0.00    -0.003 C 
ATOM     20  C   UNL     1       5.175   5.615  -3.550  1.00  0.00     0.004 C 
ENDBRANCH  18  19
ENDBRANCH  17  18
ENDBRANCH  16  17
ENDBRANCH  15  16
ENDBRANCH  14  15
ENDBRANCH  13  14
ENDBRANCH  12  13
ENDBRANCH   1  12
TORSDOF 16
ENDMDL
MODEL 2
REMARK VINA RESULT:    -4.610      2.444      4.149
REMARK INTER + INTRA:         -10.255
REMARK INTER:                  -7.986
REMARK INTRA:                  -2.268
REMARK UNBOUND:                -1.332
REMARK SMILES CCCCCCCCCCCCCCCCCC(=O)[O-]
REMARK SMILES IDX 10 1 11 2 12 3 13 4 14 5 15 6 16 7 17 8 18 9 19 10 20 11
REMARK SMILES IDX 9 12 8 13 7 14 6 15 5 16 4 17 3 18 2 19 1 20
REMARK H PARENT
REMARK Flexibility Score: inf
ROOT
ATOM      1  C   UNL     1       2.010   3.886  -0.158  1.00  0.00     0.000 C 
ENDROOT
BRANCH   1   2
ATOM      2  C   UNL     1       3.124   4.168   0.864  1.00  0.00     0.000 C 
BRANCH   2   3
ATOM      3  C   UNL     1       2.873   5.450   1.674  1.00  0.00     0.000 C 
BRANCH   3   4
ATOM      4  C   UNL     1       1.888   5.235   2.838  1.00  0.00     0.000 C 
BRANCH   4   5
ATOM      5  C   UNL     1       2.389   4.291   3.951  1.00  0.00     0.000 C 
BRANCH   5   6
ATOM      6  C   UNL     1       3.459   4.888   4.881  1.00  0.00     0.000 C 
BRANCH   6   7
ATOM      7  C   UNL     1       4.839   4.229   4.705  1.00  0.00     0.006 C 
BRANCH   7   8
ATOM      8  C   UNL     1       4.801   2.724   4.998  1.00  0.00     0.053 C 
BRANCH   8   9
ATOM      9  C   UNL     1       5.825   2.334   6.020  1.00  0.00     0.041 C 
ATOM     10  O   UNL     1       6.059   1.119   6.251  1.00  0.00    -0.550 OA
ATOM     11  O   UNL     1       6.544   3.314   6.692  1.00  0.00    -0.550 OA
ENDBRANCH   8   9
ENDBRANCH   7   8
ENDBRANCH   6   7
ENDBRANCH   5   6
ENDBRANCH   4   5
ENDBRANCH   3   4
ENDBRANCH   2   3
ENDBRANCH   1   2
BRANCH   1  12
ATOM     12  C   UNL     1       1.580   5.150  -0.924  1.00  0.00     0.000 C 
BRANCH  12  13
ATOM     13  C   UNL     1       2.296   5.293  -2.277  1.00  0.00    -0.000 C 
BRANCH  13  14
ATOM     14  C   UNL     1       3.052   6.623  -2.411  1.00  0.00    -0.000 C 
BRANCH  14  15
ATOM     15  C   UNL     1       4.383   6.577  -1.649  1.00  0.00    -0.000 C 
BRANCH  15  16
ATOM     16  C   UNL     1       5.572   6.533  -2.621  1.00  0.00    -0.000 C 
BRANCH  16  17
ATOM     17  C   UNL     1       6.042   5.100  -2.920  1.00  0.00    -0.000 C 
BRANCH  17  18
ATOM     18  C   UNL     1       5.999   4.193  -1.679  1.00  0.00    -0.000 C 
BRANCH  18  19
ATOM     19  C   UNL     1       5.187   2.910  -1.916  1.00  0.00    -0.003 C 
ATOM     20  C   UNL     1       4.782   2.726  -3.379  1.00  0.00     0.004 C 
ENDBRANCH  18  19
ENDBRANCH  17  18
ENDBRANCH  16  17
ENDBRANCH  15  16
ENDBRANCH  14  15
ENDBRANCH  13  14
ENDBRANCH  12  13
ENDBRANCH   1  12
TORSDOF 16
ENDMDL
MODEL 3
REMARK VINA RESULT:    -4.535      2.915      8.141
REMARK INTER + INTRA:         -10.109
REMARK INTER:                  -8.535
REMARK INTRA:                  -1.574
REMARK UNBOUND:                -1.332
REMARK SMILES CCCCCCCCCCCCCCCCCC(=O)[O-]
REMARK SMILES IDX 10 1 11 2 12 3 13 4 14 5 15 6 16 7 17 8 18 9 19 10 20 11
REMARK SMILES IDX 9 12 8 13 7 14 6 15 5 16 4 17 3 18 2 19 1 20
REMARK H PARENT
REMARK Flexibility Score: inf
ROOT
ATOM      1  C   UNL     1       2.963   4.820   2.641  1.00  0.00     0.000 C 
ENDROOT
BRANCH   1   2
ATOM      2  C   UNL     1       2.912   4.555   1.128  1.00  0.00     0.000 C 
BRANCH   2   3
ATOM      3  C   UNL     1       1.800   5.350   0.425  1.00  0.00     0.000 C 
BRANCH   3   4
ATOM      4  C   UNL     1       1.484   4.812  -0.984  1.00  0.00     0.000 C 
BRANCH   4   5
ATOM      5  C   UNL     1       2.609   5.006  -2.022  1.00  0.00     0.000 C 
BRANCH   5   6
ATOM      6  C   UNL     1       3.037   6.466  -2.256  1.00  0.00     0.000 C 
BRANCH   6   7
ATOM      7  C   UNL     1       4.512   6.720  -1.901  1.00  0.00     0.006 C 
BRANCH   7   8
ATOM      8  C   UNL     1       5.293   5.414  -1.709  1.00  0.00     0.053 C 
BRANCH   8   9
ATOM      9  C   UNL     1       6.621   5.457  -2.402  1.00  0.00     0.041 C 
ATOM     10  O   UNL     1       7.562   4.715  -2.017  1.00  0.00    -0.550 OA
ATOM     11  O   UNL     1       6.807   6.294  -3.496  1.00  0.00    -0.550 OA
ENDBRANCH   8   9
ENDBRANCH   7   8
ENDBRANCH   6   7
ENDBRANCH   5   6
ENDBRANCH   4   5
ENDBRANCH   3   4
ENDBRANCH   2   3
ENDBRANCH   1   2
BRANCH   1  12
ATOM     12  C   UNL     1       2.762   6.306   2.986  1.00  0.00     0.000 C 
BRANCH  12  13
ATOM     13  C   UNL     1       1.525   6.546   3.867  1.00  0.00    -0.000 C 
BRANCH  13  14
ATOM     14  C   UNL     1       1.293   8.034   4.170  1.00  0.00    -0.000 C 
BRANCH  14  15
ATOM     15  C   UNL     1      -0.100   8.261   4.772  1.00  0.00    -0.000 C 
BRANCH  15  16
ATOM     16  C   UNL     1      -0.002   8.940   6.146  1.00  0.00    -0.000 C 
BRANCH  16  17
ATOM     17  C   UNL     1      -0.709   8.143   7.255  1.00  0.00    -0.000 C 
BRANCH  17  18
ATOM     18  C   UNL     1       0.048   6.860   7.635  1.00  0.00    -0.000 C 
BRANCH  18  19
ATOM     19  C   UNL     1       1.551   7.104   7.845  1.00  0.00    -0.003 C 
ATOM     20  C   UNL     1       2.414   5.934   7.372  1.00  0.00     0.004 C 
ENDBRANCH  18  19
ENDBRANCH  17  18
ENDBRANCH  16  17
ENDBRANCH  15  16
ENDBRANCH  14  15
ENDBRANCH  13  14
ENDBRANCH  12  13
ENDBRANCH   1  12
TORSDOF 16
ENDMDL
MODEL 4
REMARK VINA RESULT:    -4.515     12.644     15.145
REMARK INTER + INTRA:         -10.071
REMARK INTER:                  -8.410
REMARK INTRA:                  -1.661
REMARK UNBOUND:                -1.332
REMARK SMILES CCCCCCCCCCCCCCCCCC(=O)[O-]
REMARK SMILES IDX 10 1 11 2 12 3 13 4 14 5 15 6 16 7 17 8 18 9 19 10 20 11
REMARK SMILES IDX 9 12 8 13 7 14 6 15 5 16 4 17 3 18 2 19 1 20
REMARK H PARENT
REMARK Flexibility Score: inf
ROOT
ATOM      1  C   UNL     1      -3.724  -4.751   4.025  1.00  0.00     0.000 C 
ENDROOT
BRANCH   1   2
ATOM      2  C   UNL     1      -2.982  -5.788   3.166  1.00  0.00     0.000 C 
BRANCH   2   3
ATOM      3  C   UNL     1      -1.807  -5.178   2.385  1.00  0.00     0.000 C 
BRANCH   3   4
ATOM      4  C   UNL     1      -2.264  -4.393   1.140  1.00  0.00     0.000 C 
BRANCH   4   5
ATOM      5  C   UNL     1      -2.979  -5.236   0.064  1.00  0.00     0.000 C 
BRANCH   5   6
ATOM      6  C   UNL     1      -2.299  -5.246  -1.316  1.00  0.00     0.000 C 
BRANCH   6   7
ATOM      7  C   UNL     1      -3.065  -6.087  -2.353  1.00  0.00     0.006 C 
BRANCH   7   8
ATOM      8  C   UNL     1      -4.474  -6.453  -1.872  1.00  0.00     0.053 C 
BRANCH   8   9
ATOM      9  C   UNL     1      -5.474  -6.382  -2.986  1.00  0.00     0.041 C 
ATOM     10  O   UNL     1      -5.231  -5.696  -4.014  1.00  0.00    -0.550 OA
ATOM     11  O   UNL     1      -6.659  -7.103  -2.903  1.00  0.00    -0.550 OA
ENDBRANCH   8   9
ENDBRANCH   7   8
ENDBRANCH   6   7
ENDBRANCH   5   6
ENDBRANCH   4   5
ENDBRANCH   3   4
ENDBRANCH   2   3
ENDBRANCH   1   2
BRANCH   1  12
ATOM     12  C   UNL     1      -2.867  -4.233   5.194  1.00  0.00     0.000 C 
BRANCH  12  13
ATOM     13  C   UNL     1      -3.551  -4.424   6.557  1.00  0.00    -0.000 C 
BRANCH  13  14
ATOM     14  C   UNL     1      -2.992  -5.622   7.339  1.00  0.00    -0.000 C 
BRANCH  14  15
ATOM     15  C   UNL     1      -1.570  -5.965   6.874  1.00  0.00    -0.000 C 
BRANCH  15  16
ATOM     16  C   UNL     1      -1.092  -7.285   7.497  1.00  0.00    -0.000 C 
BRANCH  16  17
ATOM     17  C   UNL     1      -0.469  -8.239   6.464  1.00  0.00    -0.000 C 
BRANCH  17  18
ATOM     18  C   UNL     1      -0.641  -7.739   5.020  1.00  0.00    -0.000 C 
BRANCH  18  19
ATOM     19  C   UNL     1       0.703  -7.434   4.339  1.00  0.00    -0.003 C 
ATOM     20  C   UNL     1       1.146  -5.983   4.527  1.00  0.00     0.004 C 
ENDBRANCH  18  19
ENDBRANCH  17  18
ENDBRANCH  16  17
ENDBRANCH  15  16
ENDBRANCH  14  15
ENDBRANCH  13  14
ENDBRANCH  12  13
ENDBRANCH   1  12
TORSDOF 16
ENDMDL
MODEL 5
REMARK VINA RESULT:    -4.514      2.878      6.161
REMARK INTER + INTRA:         -10.069
REMARK INTER:                  -7.032
REMARK INTRA:                  -3.037
REMARK UNBOUND:                -1.332
REMARK SMILES CCCCCCCCCCCCCCCCCC(=O)[O-]
REMARK SMILES IDX 10 1 11 2 12 3 13 4 14 5 15 6 16 7 17 8 18 9 19 10 20 11
REMARK SMILES IDX 9 12 8 13 7 14 6 15 5 16 4 17 3 18 2 19 1 20
REMARK H PARENT
REMARK Flexibility Score: inf
ROOT
ATOM      1  C   UNL     1      -0.000   3.947   5.239  1.00  0.00     0.000 C 
ENDROOT
BRANCH   1   2
ATOM      2  C   UNL     1      -0.073   4.392   3.769  1.00  0.00     0.000 C 
BRANCH   2   3
ATOM      3  C   UNL     1      -0.140   5.921   3.617  1.00  0.00     0.000 C 
BRANCH   3   4
ATOM      4  C   UNL     1       1.192   6.530   3.141  1.00  0.00     0.000 C 
BRANCH   4   5
ATOM      5  C   UNL     1       2.306   5.507   2.839  1.00  0.00     0.000 C 
BRANCH   5   6
ATOM      6  C   UNL     1       3.489   5.519   3.823  1.00  0.00     0.000 C 
BRANCH   6   7
ATOM      7  C   UNL     1       3.790   4.130   4.414  1.00  0.00     0.006 C 
BRANCH   7   8
ATOM      8  C   UNL     1       4.491   4.223   5.775  1.00  0.00     0.053 C 
BRANCH   8   9
ATOM      9  C   UNL     1       5.785   3.469   5.782  1.00  0.00     0.041 C 
ATOM     10  O   UNL     1       6.495   3.436   6.822  1.00  0.00    -0.550 OA
ATOM     11  O   UNL     1       6.191   2.774   4.649  1.00  0.00    -0.550 OA
ENDBRANCH   8   9
ENDBRANCH   7   8
ENDBRANCH   6   7
ENDBRANCH   5   6
ENDBRANCH   4   5
ENDBRANCH   3   4
ENDBRANCH   2   3
ENDBRANCH   1   2
BRANCH   1  12
ATOM     12  C   UNL     1      -0.142   5.126   6.218  1.00  0.00     0.000 C 
BRANCH  12  13
ATOM     13  C   UNL     1       1.173   5.451   6.945  1.00  0.00    -0.000 C 
BRANCH  13  14
ATOM     14  C   UNL     1       1.576   6.927   6.810  1.00  0.00    -0.000 C 
BRANCH  14  15
ATOM     15  C   UNL     1       0.988   7.763   7.955  1.00  0.00    -0.000 C 
BRANCH  15  16
ATOM     16  C   UNL     1       0.001   8.811   7.420  1.00  0.00    -0.000 C 
BRANCH  16  17
ATOM     17  C   UNL     1      -0.083   8.818   5.884  1.00  0.00    -0.000 C 
BRANCH  17  18
ATOM     18  C   UNL     1      -1.534   8.811   5.372  1.00  0.00    -0.000 C 
BRANCH  18  19
ATOM     19  C   UNL     1      -2.487   8.062   6.317  1.00  0.00    -0.003 C 
ATOM     20  C   UNL     1      -3.168   6.868   5.646  1.00  0.00     0.004 C 
ENDBRANCH  18  19
ENDBRANCH  17  18
ENDBRANCH  16  17
ENDBRANCH  15  16
ENDBRANCH  14  15
ENDBRANCH  13  14
ENDBRANCH  12  13
ENDBRANCH   1  12
TORSDOF 16
ENDMDL
MODEL 6
REMARK VINA RESULT:    -4.484      2.676      4.468
REMARK INTER + INTRA:         -10.009
REMARK INTER:                  -7.089
REMARK INTRA:                  -2.921
REMARK UNBOUND:                -1.332
REMARK SMILES CCCCCCCCCCCCCCCCCC(=O)[O-]
REMARK SMILES IDX 10 1 11 2 12 3 13 4 14 5 15 6 16 7 17 8 18 9 19 10 20 11
REMARK SMILES IDX 9 12 8 13 7 14 6 15 5 16 4 17 3 18 2 19 1 20
REMARK H PARENT
REMARK Flexibility Score: inf
ROOT
ATOM      1  C   UNL     1       0.608   8.241   8.008  1.00  0.00     0.000 C 
ENDROOT
BRANCH   1   2
ATOM      2  C   UNL     1       0.002   6.852   8.265  1.00  0.00     0.000 C 
BRANCH   2   3
ATOM      3  C   UNL     1       1.029   5.719   8.106  1.00  0.00     0.000 C 
BRANCH   3   4
ATOM      4  C   UNL     1       2.402   6.225   7.625  1.00  0.00     0.000 C 
BRANCH   4   5
ATOM      5  C   UNL     1       3.501   5.145   7.537  1.00  0.00     0.000 C 
BRANCH   5   6
ATOM      6  C   UNL     1       2.999   3.728   7.208  1.00  0.00     0.000 C 
BRANCH   6   7
ATOM      7  C   UNL     1       3.495   3.218   5.844  1.00  0.00     0.006 C 
BRANCH   7   8
ATOM      8  C   UNL     1       4.687   4.032   5.324  1.00  0.00     0.053 C 
BRANCH   8   9
ATOM      9  C   UNL     1       5.984   3.315   5.546  1.00  0.00     0.041 C 
ATOM     10  O   UNL     1       6.592   2.787   4.578  1.00  0.00    -0.550 OA
ATOM     11  O   UNL     1       6.539   3.261   6.819  1.00  0.00    -0.550 OA
ENDBRANCH   8   9
ENDBRANCH   7   8
ENDBRANCH   6   7
ENDBRANCH   5   6
ENDBRANCH   4   5
ENDBRANCH   3   4
ENDBRANCH   2   3
ENDBRANCH   1   2
BRANCH   1  12
ATOM     12  C   UNL     1      -0.024   8.942   6.792  1.00  0.00     0.000 C 
BRANCH  12  13
ATOM     13  C   UNL     1      -1.481   8.514   6.555  1.00  0.00    -0.000 C 
BRANCH  13  14
ATOM     14  C   UNL     1      -1.782   8.226   5.076  1.00  0.00    -0.000 C 
BRANCH  14  15
ATOM     15  C   UNL     1      -0.576   7.571   4.389  1.00  0.00    -0.000 C 
BRANCH  15  16
ATOM     16  C   UNL     1      -0.654   6.040   4.483  1.00  0.00    -0.000 C 
BRANCH  16  17
ATOM     17  C   UNL     1       0.728   5.369   4.420  1.00  0.00    -0.000 C 
BRANCH  17  18
ATOM     18  C   UNL     1       1.867   6.382   4.212  1.00  0.00    -0.000 C 
BRANCH  18  19
ATOM     19  C   UNL     1       2.693   6.087   2.950  1.00  0.00    -0.003 C 
ATOM     20  C   UNL     1       2.411   4.702   2.367  1.00  0.00     0.004 C 
ENDBRANCH  18  19
ENDBRANCH  17  18
ENDBRANCH  16  17
ENDBRANCH  15  16
ENDBRANCH  14  15
ENDBRANCH  13  14
ENDBRANCH  12  13
ENDBRANCH   1  12
TORSDOF 16
ENDMDL
MODEL 7
REMARK VINA RESULT:    -4.464     12.594     15.230
REMARK INTER + INTRA:          -9.971
REMARK INTER:                  -8.398
REMARK INTRA:                  -1.572
REMARK UNBOUND:                -1.332
REMARK SMILES CCCCCCCCCCCCCCCCCC(=O)[O-]
REMARK SMILES IDX 10 1 11 2 12 3 13 4 14 5 15 6 16 7 17 8 18 9 19 10 20 11
REMARK SMILES IDX 9 12 8 13 7 14 6 15 5 16 4 17 3 18 2 19 1 20
REMARK H PARENT
REMARK Flexibility Score: inf
ROOT
ATOM      1  C   UNL     1      -1.510  -6.453   3.100  1.00  0.00     0.000 C 
ENDROOT
BRANCH   1   2
ATOM      2  C   UNL     1      -2.944  -5.966   2.837  1.00  0.00     0.000 C 
BRANCH   2   3
ATOM      3  C   UNL     1      -3.021  -4.446   2.613  1.00  0.00     0.000 C 
BRANCH   3   4
ATOM      4  C   UNL     1      -2.983  -4.063   1.122  1.00  0.00     0.000 C 
BRANCH   4   5
ATOM      5  C   UNL     1      -3.325  -5.208   0.145  1.00  0.00     0.000 C 
BRANCH   5   6
ATOM      6  C   UNL     1      -2.413  -5.305  -1.091  1.00  0.00     0.000 C 
BRANCH   6   7
ATOM      7  C   UNL     1      -3.062  -6.077  -2.253  1.00  0.00     0.006 C 
BRANCH   7   8
ATOM      8  C   UNL     1      -4.476  -6.560  -1.907  1.00  0.00     0.053 C 
BRANCH   8   9
ATOM      9  C   UNL     1      -5.514  -5.874  -2.740  1.00  0.00     0.041 C 
ATOM     10  O   UNL     1      -5.603  -6.119  -3.972  1.00  0.00    -0.550 OA
ATOM     11  O   UNL     1      -6.407  -4.989  -2.148  1.00  0.00    -0.550 OA
ENDBRANCH   8   9
ENDBRANCH   7   8
ENDBRANCH   6   7
ENDBRANCH   5   6
ENDBRANCH   4   5
ENDBRANCH   3   4
ENDBRANCH   2   3
ENDBRANCH   1   2
BRANCH   1  12
ATOM     12  C   UNL     1      -1.473  -7.758   3.916  1.00  0.00     0.000 C 
BRANCH  12  13
ATOM     13  C   UNL     1      -0.248  -7.841   4.841  1.00  0.00    -0.000 C 
BRANCH  13  14
ATOM     14  C   UNL     1      -0.298  -6.818   5.985  1.00  0.00    -0.000 C 
BRANCH  14  15
ATOM     15  C   UNL     1      -1.337  -7.223   7.039  1.00  0.00    -0.000 C 
BRANCH  15  16
ATOM     16  C   UNL     1      -2.196  -6.019   7.455  1.00  0.00    -0.000 C 
BRANCH  16  17
ATOM     17  C   UNL     1      -2.371  -4.994   6.322  1.00  0.00    -0.000 C 
BRANCH  17  18
ATOM     18  C   UNL     1      -3.079  -3.712   6.790  1.00  0.00    -0.000 C 
BRANCH  18  19
ATOM     19  C   UNL     1      -4.367  -3.428   5.999  1.00  0.00    -0.003 C 
ATOM     20  C   UNL     1      -5.633  -3.758   6.791  1.00  0.00     0.004 C 
ENDBRANCH  18  19
ENDBRANCH  17  18
ENDBRANCH  16  17
ENDBRANCH  15  16
ENDBRANCH  14  15
ENDBRANCH  13  14
ENDBRANCH  12  13
ENDBRANCH   1  12
TORSDOF 16
ENDMDL
MODEL 8
REMARK VINA RESULT:    -4.459     11.825     13.162
REMARK INTER + INTRA:          -9.963
REMARK INTER:                  -8.451
REMARK INTRA:                  -1.512
REMARK UNBOUND:                -1.332
REMARK SMILES CCCCCCCCCCCCCCCCCC(=O)[O-]
REMARK SMILES IDX 10 1 11 2 12 3 13 4 14 5 15 6 16 7 17 8 18 9 19 10 20 11
REMARK SMILES IDX 9 12 8 13 7 14 6 15 5 16 4 17 3 18 2 19 1 20
REMARK H PARENT
REMARK Flexibility Score: inf
ROOT
ATOM      1  C   UNL     1      -1.407  -7.742   3.897  1.00  0.00     0.000 C 
ENDROOT
BRANCH   1   2
ATOM      2  C   UNL     1      -0.798  -7.805   5.307  1.00  0.00     0.000 C 
BRANCH   2   3
ATOM      3  C   UNL     1      -0.917  -6.472   6.064  1.00  0.00     0.000 C 
BRANCH   3   4
ATOM      4  C   UNL     1      -1.635  -6.620   7.419  1.00  0.00     0.000 C 
BRANCH   4   5
ATOM      5  C   UNL     1      -2.801  -5.636   7.650  1.00  0.00     0.000 C 
BRANCH   5   6
ATOM      6  C   UNL     1      -3.262  -4.865   6.400  1.00  0.00     0.000 C 
BRANCH   6   7
ATOM      7  C   UNL     1      -3.387  -3.351   6.644  1.00  0.00     0.006 C 
BRANCH   7   8
ATOM      8  C   UNL     1      -4.372  -2.690   5.671  1.00  0.00     0.053 C 
BRANCH   8   9
ATOM      9  C   UNL     1      -5.642  -2.289   6.357  1.00  0.00     0.041 C 
ATOM     10  O   UNL     1      -5.985  -1.078   6.401  1.00  0.00    -0.550 OA
ATOM     11  O   UNL     1      -6.464  -3.259   6.917  1.00  0.00    -0.550 OA
ENDBRANCH   8   9
ENDBRANCH   7   8
ENDBRANCH   6   7
ENDBRANCH   5   6
ENDBRANCH   4   5
ENDBRANCH   3   4
ENDBRANCH   2   3
ENDBRANCH   1   2
BRANCH   1  12
ATOM     12  C   UNL     1      -1.518  -6.301   3.368  1.00  0.00     0.000 C 
BRANCH  12  13
ATOM     13  C   UNL     1      -2.971  -5.883   3.092  1.00  0.00    -0.000 C 
BRANCH  13  14
ATOM     14  C   UNL     1      -3.085  -4.837   1.972  1.00  0.00    -0.000 C 
BRANCH  14  15
ATOM     15  C   UNL     1      -1.768  -4.068   1.804  1.00  0.00    -0.000 C 
BRANCH  15  16
ATOM     16  C   UNL     1      -1.291  -4.108   0.344  1.00  0.00    -0.000 C 
BRANCH  16  17
ATOM     17  C   UNL     1      -1.911  -5.268  -0.452  1.00  0.00    -0.000 C 
BRANCH  17  18
ATOM     18  C   UNL     1      -2.945  -4.789  -1.485  1.00  0.00    -0.000 C 
BRANCH  18  19
ATOM     19  C   UNL     1      -4.236  -5.624  -1.455  1.00  0.00    -0.003 C 
ATOM     20  C   UNL     1      -4.439  -6.446  -2.728  1.00  0.00     0.004 C 
ENDBRANCH  18  19
ENDBRANCH  17  18
ENDBRANCH  16  17
ENDBRANCH  15  16
ENDBRANCH  14  15
ENDBRANCH  13  14
ENDBRANCH  12  13
ENDBRANCH   1  12
TORSDOF 16
ENDMDL
MODEL 9
REMARK VINA RESULT:    -4.453     12.095     14.093
REMARK INTER + INTRA:          -9.951
REMARK INTER:                  -7.406
REMARK INTRA:                  -2.546
REMARK UNBOUND:                -1.332
REMARK SMILES CCCCCCCCCCCCCCCCCC(=O)[O-]
REMARK SMILES IDX 10 1 11 2 12 3 13 4 14 5 15 6 16 7 17 8 18 9 19 10 20 11
REMARK SMILES IDX 9 12 8 13 7 14 6 15 5 16 4 17 3 18 2 19 1 20
REMARK H PARENT
REMARK Flexibility Score: inf
ROOT
ATOM      1  C   UNL     1       0.551  -5.968   3.929  1.00  0.00     0.000 C 
ENDROOT
BRANCH   1   2
ATOM      2  C   UNL     1      -0.666  -6.647   3.281  1.00  0.00     0.000 C 
BRANCH   2   3
ATOM      3  C   UNL     1      -1.488  -5.682   2.411  1.00  0.00     0.000 C 
BRANCH   3   4
ATOM      4  C   UNL     1      -3.001  -5.778   2.684  1.00  0.00     0.000 C 
BRANCH   4   5
ATOM      5  C   UNL     1      -3.492  -4.995   3.920  1.00  0.00     0.000 C 
BRANCH   5   6
ATOM      6  C   UNL     1      -4.074  -3.603   3.622  1.00  0.00     0.000 C 
BRANCH   6   7
ATOM      7  C   UNL     1      -4.613  -2.898   4.879  1.00  0.00     0.006 C 
BRANCH   7   8
ATOM      8  C   UNL     1      -4.378  -3.725   6.149  1.00  0.00     0.053 C 
BRANCH   8   9
ATOM      9  C   UNL     1      -5.608  -3.788   7.003  1.00  0.00     0.041 C 
ATOM     10  O   UNL     1      -6.566  -2.999   6.794  1.00  0.00    -0.550 OA
ATOM     11  O   UNL     1      -5.708  -4.743   8.007  1.00  0.00    -0.550 OA
ENDBRANCH   8   9
ENDBRANCH   7   8
ENDBRANCH   6   7
ENDBRANCH   5   6
ENDBRANCH   4   5
ENDBRANCH   3   4
ENDBRANCH   2   3
ENDBRANCH   1   2
BRANCH   1  12
ATOM     12  C   UNL     1       0.154  -4.790   4.837  1.00  0.00     0.000 C 
BRANCH  12  13
ATOM     13  C   UNL     1       0.078  -5.186   6.320  1.00  0.00    -0.000 C 
BRANCH  13  14
ATOM     14  C   UNL     1      -1.339  -5.592   6.754  1.00  0.00    -0.000 C 
BRANCH  14  15
ATOM     15  C   UNL     1      -1.448  -7.113   6.918  1.00  0.00    -0.000 C 
BRANCH  15  16
ATOM     16  C   UNL     1      -0.093  -7.723   7.305  1.00  0.00    -0.000 C 
BRANCH  16  17
ATOM     17  C   UNL     1       0.365  -8.821   6.331  1.00  0.00    -0.000 C 
BRANCH  17  18
ATOM     18  C   UNL     1       1.807  -8.609   5.838  1.00  0.00    -0.000 C 
BRANCH  18  19
ATOM     19  C   UNL     1       2.613  -7.681   6.760  1.00  0.00    -0.003 C 
ATOM     20  C   UNL     1       3.621  -6.819   5.999  1.00  0.00     0.004 C 
ENDBRANCH  18  19
ENDBRANCH  17  18
ENDBRANCH  16  17
ENDBRANCH  15  16
ENDBRANCH  14  15
ENDBRANCH  13  14
ENDBRANCH  12  13
ENDBRANCH   1  12
TORSDOF 16
ENDMDL
