MODEL 1
REMARK VINA RESULT:    -4.260      0.000      0.000
REMARK INTER + INTRA:         -12.936
REMARK INTER:                  -9.241
REMARK INTRA:                  -3.695
REMARK UNBOUND:                -3.695
REMARK SMILES CCCCCCCCCCCCCCCCCCCCCC(=O)[O-]
REMARK SMILES IDX 12 1 11 2 10 3 9 4 8 5 7 6 6 7 5 8 4 9 3 10 2 11 1 12 13 13
REMARK SMILES IDX 14 14 15 15 16 16 17 17 18 18 19 19 20 20 21 21 22 22 23 23
REMARK SMILES IDX 24 24
REMARK H PARENT
REMARK Flexibility Score: inf
ROOT
ATOM      1  C   UNL     1      26.423   4.143   9.626  1.00  0.00     0.000 C 
ENDROOT
BRANCH   1   2
ATOM      2  C   UNL     1      26.054   5.579  10.024  1.00  0.00     0.000 C 
BRANCH   2   3
ATOM      3  C   UNL     1      26.998   6.593   9.359  1.00  0.00     0.000 C 
BRANCH   3   4
ATOM      4  C   UNL     1      26.252   7.644   8.522  1.00  0.00    -0.000 C 
BRANCH   4   5
ATOM      5  C   UNL     1      26.463   7.534   6.999  1.00  0.00    -0.000 C 
BRANCH   5   6
ATOM      6  C   UNL     1      25.514   6.533   6.304  1.00  0.00    -0.000 C 
BRANCH   6   7
ATOM      7  C   UNL     1      24.131   6.480   6.977  1.00  0.00    -0.000 C 
BRANCH   7   8
ATOM      8  C   UNL     1      23.503   5.078   6.940  1.00  0.00    -0.000 C 
BRANCH   8   9
ATOM      9  C   UNL     1      24.501   3.995   6.499  1.00  0.00    -0.000 C 
BRANCH   9  10
ATOM     10  C   UNL     1      23.870   2.600   6.587  1.00  0.00    -0.000 C 
BRANCH  10  11
ATOM     11  C   UNL     1      23.918   2.065   8.023  1.00  0.00    -0.003 C 
ATOM     12  C   UNL     1      24.424   0.626   8.059  1.00  0.00     0.004 C 
ENDBRANCH  10  11
ENDBRANCH   9  10
ENDBRANCH   8   9
ENDBRANCH   7   8
ENDBRANCH   6   7
ENDBRANCH   5   6
ENDBRANCH   4   5
ENDBRANCH   3   4
ENDBRANCH   2   3
ENDBRANCH   1   2
BRANCH   1  13
ATOM     13  C   UNL     1      27.489   4.082   8.518  1.00  0.00     0.000 C 
BRANCH  13  14
ATOM     14  C   UNL     1      27.692   2.671   7.927  1.00  0.00     0.000 C 
BRANCH  14  15
ATOM     15  C   UNL     1      27.874   1.604   9.021  1.00  0.00     0.000 C 
BRANCH  15  16
ATOM     16  C   UNL     1      28.445   0.288   8.467  1.00  0.00     0.000 C 
BRANCH  16  17
ATOM     17  C   UNL     1      27.717  -0.945   9.027  1.00  0.00     0.000 C 
BRANCH  17  18
ATOM     18  C   UNL     1      27.453  -1.979   7.927  1.00  0.00     0.000 C 
BRANCH  18  19
ATOM     19  C   UNL     1      27.734  -1.384   6.540  1.00  0.00     0.000 C 
BRANCH  19  20
ATOM     20  C   UNL     1      26.452  -1.148   5.719  1.00  0.00     0.006 C 
BRANCH  20  21
ATOM     21  C   UNL     1      26.447   0.170   4.928  1.00  0.00     0.053 C 
BRANCH  21  22
ATOM     22  C   UNL     1      26.303  -0.062   3.455  1.00  0.00     0.041 C 
ATOM     23  O   UNL     1      26.073   0.905   2.681  1.00  0.00    -0.550 OA
ATOM     24  O   UNL     1      26.454  -1.342   2.932  1.00  0.00    -0.550 OA
ENDBRANCH  21  22
ENDBRANCH  20  21
ENDBRANCH  19  20
ENDBRANCH  18  19
ENDBRANCH  17  18
ENDBRANCH  16  17
ENDBRANCH  15  16
ENDBRANCH  14  15
ENDBRANCH  13  14
ENDBRANCH   1  13
TORSDOF 20
ENDMDL
MODEL 2
REMARK VINA RESULT:    -4.258      2.374      3.946
REMARK INTER + INTRA:         -12.932
REMARK INTER:                  -9.079
REMARK INTRA:                  -3.853
REMARK UNBOUND:                -3.695
REMARK SMILES CCCCCCCCCCCCCCCCCCCCCC(=O)[O-]
REMARK SMILES IDX 12 1 11 2 10 3 9 4 8 5 7 6 6 7 5 8 4 9 3 10 2 11 1 12 13 13
REMARK SMILES IDX 14 14 15 15 16 16 17 17 18 18 19 19 20 20 21 21 22 22 23 23
REMARK SMILES IDX 24 24
REMARK H PARENT
REMARK Flexibility Score: inf
ROOT
ATOM      1  C   UNL     1      26.852   6.711   9.605  1.00  0.00     0.000 C 
ENDROOT
BRANCH   1   2
ATOM      2  C   UNL     1      25.789   7.810   9.487  1.00  0.00     0.000 C 
BRANCH   2   3
ATOM      3  C   UNL     1      25.610   8.247   8.024  1.00  0.00     0.000 C 
BRANCH   3   4
ATOM      4  C   UNL     1      26.615   7.575   7.074  1.00  0.00    -0.000 C 
BRANCH   4   5
ATOM      5  C   UNL     1      25.986   6.669   5.997  1.00  0.00    -0.000 C 
BRANCH   5   6
ATOM      6  C   UNL     1      24.495   6.347   6.240  1.00  0.00    -0.000 C 
BRANCH   6   7
ATOM      7  C   UNL     1      24.275   4.876   6.639  1.00  0.00    -0.000 C 
BRANCH   7   8
ATOM      8  C   UNL     1      23.960   4.704   8.132  1.00  0.00    -0.000 C 
BRANCH   8   9
ATOM      9  C   UNL     1      22.528   5.134   8.489  1.00  0.00    -0.000 C 
BRANCH   9  10
ATOM     10  C   UNL     1      22.537   6.272   9.517  1.00  0.00    -0.000 C 
BRANCH  10  11
ATOM     11  C   UNL     1      22.054   7.585   8.889  1.00  0.00    -0.003 C 
ATOM     12  C   UNL     1      21.182   7.321   7.665  1.00  0.00     0.004 C 
ENDBRANCH  10  11
ENDBRANCH   9  10
ENDBRANCH   8   9
ENDBRANCH   7   8
ENDBRANCH   6   7
ENDBRANCH   5   6
ENDBRANCH   4   5
ENDBRANCH   3   4
ENDBRANCH   2   3
ENDBRANCH   1   2
BRANCH   1  13
ATOM     13  C   UNL     1      26.454   5.592  10.584  1.00  0.00     0.000 C 
BRANCH  13  14
ATOM     14  C   UNL     1      27.030   4.208  10.216  1.00  0.00     0.000 C 
BRANCH  14  15
ATOM     15  C   UNL     1      27.880   4.255   8.934  1.00  0.00     0.000 C 
BRANCH  15  16
ATOM     16  C   UNL     1      27.878   2.915   8.181  1.00  0.00     0.000 C 
BRANCH  16  17
ATOM     17  C   UNL     1      27.056   2.977   6.883  1.00  0.00     0.000 C 
BRANCH  17  18
ATOM     18  C   UNL     1      26.356   1.641   6.606  1.00  0.00     0.000 C 
BRANCH  18  19
ATOM     19  C   UNL     1      25.798   1.039   7.904  1.00  0.00     0.000 C 
BRANCH  19  20
ATOM     20  C   UNL     1      25.739  -0.500   7.871  1.00  0.00     0.006 C 
BRANCH  20  21
ATOM     21  C   UNL     1      26.646  -1.185   8.906  1.00  0.00     0.053 C 
BRANCH  21  22
ATOM     22  C   UNL     1      28.040  -0.635   8.881  1.00  0.00     0.041 C 
ATOM     23  O   UNL     1      28.517  -0.071   9.902  1.00  0.00    -0.550 OA
ATOM     24  O   UNL     1      28.823  -0.774   7.741  1.00  0.00    -0.550 OA
ENDBRANCH  21  22
ENDBRANCH  20  21
ENDBRANCH  19  20
ENDBRANCH  18  19
ENDBRANCH  17  18
ENDBRANCH  16  17
ENDBRANCH  15  16
ENDBRANCH  14  15
ENDBRANCH  13  14
ENDBRANCH   1  13
TORSDOF 20
ENDMDL
MODEL 3
REMARK VINA RESULT:    -4.236      1.980      3.666
REMARK INTER + INTRA:         -12.883
REMARK INTER:                  -9.239
REMARK INTRA:                  -3.644
REMARK UNBOUND:                -3.695
REMARK SMILES CCCCCCCCCCCCCCCCCCCCCC(=O)[O-]
REMARK SMILES IDX 12 1 11 2 10 3 9 4 8 5 7 6 6 7 5 8 4 9 3 10 2 11 1 12 13 13
REMARK SMILES IDX 14 14 15 15 16 16 17 17 18 18 19 19 20 20 21 21 22 22 23 23
REMARK SMILES IDX 24 24
REMARK H PARENT
REMARK Flexibility Score: inf
ROOT
ATOM      1  C   UNL     1      26.027   7.382   9.272  1.00  0.00     0.000 C 
ENDROOT
BRANCH   1   2
ATOM      2  C   UNL     1      25.930   8.250   8.010  1.00  0.00     0.000 C 
BRANCH   2   3
ATOM      3  C   UNL     1      26.520   7.518   6.794  1.00  0.00     0.000 C 
BRANCH   3   4
ATOM      4  C   UNL     1      25.448   6.840   5.926  1.00  0.00    -0.000 C 
BRANCH   4   5
ATOM      5  C   UNL     1      24.879   5.529   6.503  1.00  0.00    -0.000 C 
BRANCH   5   6
ATOM      6  C   UNL     1      23.417   5.638   6.988  1.00  0.00    -0.000 C 
BRANCH   6   7
ATOM      7  C   UNL     1      23.078   4.581   8.055  1.00  0.00    -0.000 C 
BRANCH   7   8
ATOM      8  C   UNL     1      24.325   4.010   8.745  1.00  0.00    -0.000 C 
BRANCH   8   9
ATOM      9  C   UNL     1      24.234   4.071  10.278  1.00  0.00    -0.000 C 
BRANCH   9  10
ATOM     10  C   UNL     1      23.372   5.256  10.730  1.00  0.00    -0.000 C 
BRANCH  10  11
ATOM     11  C   UNL     1      24.035   6.007  11.891  1.00  0.00    -0.003 C 
ATOM     12  C   UNL     1      22.994   6.699  12.765  1.00  0.00     0.004 C 
ENDBRANCH  10  11
ENDBRANCH   9  10
ENDBRANCH   8   9
ENDBRANCH   7   8
ENDBRANCH   6   7
ENDBRANCH   5   6
ENDBRANCH   4   5
ENDBRANCH   3   4
ENDBRANCH   2   3
ENDBRANCH   1   2
BRANCH   1  13
ATOM     13  C   UNL     1      27.271   6.477   9.285  1.00  0.00     0.000 C 
BRANCH  13  14
ATOM     14  C   UNL     1      27.465   5.704  10.607  1.00  0.00     0.000 C 
BRANCH  14  15
ATOM     15  C   UNL     1      28.242   4.392  10.404  1.00  0.00     0.000 C 
BRANCH  15  16
ATOM     16  C   UNL     1      28.033   3.798   9.001  1.00  0.00     0.000 C 
BRANCH  16  17
ATOM     17  C   UNL     1      27.738   2.289   9.046  1.00  0.00     0.000 C 
BRANCH  17  18
ATOM     18  C   UNL     1      27.733   1.684   7.637  1.00  0.00     0.000 C 
BRANCH  18  19
ATOM     19  C   UNL     1      27.100   2.654   6.629  1.00  0.00     0.000 C 
BRANCH  19  20
ATOM     20  C   UNL     1      26.371   1.931   5.481  1.00  0.00     0.006 C 
BRANCH  20  21
ATOM     21  C   UNL     1      24.838   2.009   5.563  1.00  0.00     0.053 C 
BRANCH  21  22
ATOM     22  C   UNL     1      24.177   1.057   4.612  1.00  0.00     0.041 C 
ATOM     23  O   UNL     1      23.094   0.497   4.928  1.00  0.00    -0.550 OA
ATOM     24  O   UNL     1      24.741   0.813   3.365  1.00  0.00    -0.550 OA
ENDBRANCH  21  22
ENDBRANCH  20  21
ENDBRANCH  19  20
ENDBRANCH  18  19
ENDBRANCH  17  18
ENDBRANCH  16  17
ENDBRANCH  15  16
ENDBRANCH  14  15
ENDBRANCH  13  14
ENDBRANCH   1  13
TORSDOF 20
ENDMDL
MODEL 4
REMARK VINA RESULT:    -4.220      2.685      6.225
REMARK INTER + INTRA:         -12.849
REMARK INTER:                  -9.370
REMARK INTRA:                  -3.480
REMARK UNBOUND:                -3.695
REMARK SMILES CCCCCCCCCCCCCCCCCCCCCC(=O)[O-]
REMARK SMILES IDX 12 1 11 2 10 3 9 4 8 5 7 6 6 7 5 8 4 9 3 10 2 11 1 12 13 13
REMARK SMILES IDX 14 14 15 15 16 16 17 17 18 18 19 19 20 20 21 21 22 22 23 23
REMARK SMILES IDX 24 24
REMARK H PARENT
REMARK Flexibility Score: inf
ROOT
ATOM      1  C   UNL     1      28.125   2.711  10.174  1.00  0.00     0.000 C 
ENDROOT
BRANCH   1   2
ATOM      2  C   UNL     1      27.740   2.875   8.698  1.00  0.00     0.000 C 
BRANCH   2   3
ATOM      3  C   UNL     1      27.686   1.512   7.990  1.00  0.00     0.000 C 
BRANCH   3   4
ATOM      4  C   UNL     1      28.401   0.401   8.776  1.00  0.00    -0.000 C 
BRANCH   4   5
ATOM      5  C   UNL     1      27.660  -0.950   8.812  1.00  0.00    -0.000 C 
BRANCH   5   6
ATOM      6  C   UNL     1      26.342  -0.965   8.007  1.00  0.00    -0.000 C 
BRANCH   6   7
ATOM      7  C   UNL     1      26.473  -1.754   6.691  1.00  0.00    -0.000 C 
BRANCH   7   8
ATOM      8  C   UNL     1      25.710  -1.103   5.528  1.00  0.00    -0.000 C 
BRANCH   8   9
ATOM      9  C   UNL     1      26.505   0.030   4.859  1.00  0.00    -0.000 C 
BRANCH   9  10
ATOM     10  C   UNL     1      25.714   1.344   4.880  1.00  0.00    -0.000 C 
BRANCH  10  11
ATOM     11  C   UNL     1      24.427   1.197   5.702  1.00  0.00    -0.003 C 
ATOM     12  C   UNL     1      23.201   1.571   4.875  1.00  0.00     0.004 C 
ENDBRANCH  10  11
ENDBRANCH   9  10
ENDBRANCH   8   9
ENDBRANCH   7   8
ENDBRANCH   6   7
ENDBRANCH   5   6
ENDBRANCH   4   5
ENDBRANCH   3   4
ENDBRANCH   2   3
ENDBRANCH   1   2
BRANCH   1  13
ATOM     13  C   UNL     1      28.135   4.043  10.944  1.00  0.00     0.000 C 
BRANCH  13  14
ATOM     14  C   UNL     1      28.357   5.279  10.047  1.00  0.00     0.000 C 
BRANCH  14  15
ATOM     15  C   UNL     1      27.138   6.218  10.038  1.00  0.00     0.000 C 
BRANCH  15  16
ATOM     16  C   UNL     1      25.934   5.620  10.784  1.00  0.00     0.000 C 
BRANCH  16  17
ATOM     17  C   UNL     1      24.639   5.698   9.957  1.00  0.00     0.000 C 
BRANCH  17  18
ATOM     18  C   UNL     1      24.501   4.486   9.029  1.00  0.00     0.000 C 
BRANCH  18  19
ATOM     19  C   UNL     1      24.086   4.924   7.618  1.00  0.00     0.000 C 
BRANCH  19  20
ATOM     20  C   UNL     1      25.181   4.666   6.566  1.00  0.00     0.006 C 
BRANCH  20  21
ATOM     21  C   UNL     1      26.335   5.681   6.599  1.00  0.00     0.053 C 
BRANCH  21  22
ATOM     22  C   UNL     1      25.859   7.079   6.345  1.00  0.00     0.041 C 
ATOM     23  O   UNL     1      26.159   8.006   7.143  1.00  0.00    -0.550 OA
ATOM     24  O   UNL     1      25.111   7.364   5.208  1.00  0.00    -0.550 OA
ENDBRANCH  21  22
ENDBRANCH  20  21
ENDBRANCH  19  20
ENDBRANCH  18  19
ENDBRANCH  17  18
ENDBRANCH  16  17
ENDBRANCH  15  16
ENDBRANCH  14  15
ENDBRANCH  13  14
ENDBRANCH   1  13
TORSDOF 20
ENDMDL
MODEL 5
REMARK VINA RESULT:    -4.176      1.360      3.412
REMARK INTER + INTRA:         -12.755
REMARK INTER:                 -10.083
REMARK INTRA:                  -2.671
REMARK UNBOUND:                -3.695
REMARK SMILES CCCCCCCCCCCCCCCCCCCCCC(=O)[O-]
REMARK SMILES IDX 12 1 11 2 10 3 9 4 8 5 7 6 6 7 5 8 4 9 3 10 2 11 1 12 13 13
REMARK SMILES IDX 14 14 15 15 16 16 17 17 18 18 19 19 20 20 21 21 22 22 23 23
REMARK SMILES IDX 24 24
REMARK H PARENT
REMARK Flexibility Score: inf
ROOT
ATOM      1  C   UNL     1      28.045   2.059   7.693  1.00  0.00     0.000 C 
ENDROOT
BRANCH   1   2
ATOM      2  C   UNL     1      27.377   3.439   7.754  1.00  0.00     0.000 C 
BRANCH   2   3
ATOM      3  C   UNL     1      25.848   3.306   7.828  1.00  0.00     0.000 C 
BRANCH   3   4
ATOM      4  C   UNL     1      25.135   3.911   6.608  1.00  0.00    -0.000 C 
BRANCH   4   5
ATOM      5  C   UNL     1      24.771   5.403   6.741  1.00  0.00    -0.000 C 
BRANCH   5   6
ATOM      6  C   UNL     1      25.982   6.357   6.645  1.00  0.00    -0.000 C 
BRANCH   6   7
ATOM      7  C   UNL     1      25.893   7.514   7.655  1.00  0.00    -0.000 C 
BRANCH   7   8
ATOM      8  C   UNL     1      25.917   7.035   9.114  1.00  0.00    -0.000 C 
BRANCH   8   9
ATOM      9  C   UNL     1      27.244   6.360   9.494  1.00  0.00    -0.000 C 
BRANCH   9  10
ATOM     10  C   UNL     1      27.101   5.561  10.795  1.00  0.00    -0.000 C 
BRANCH  10  11
ATOM     11  C   UNL     1      28.473   5.142  11.337  1.00  0.00    -0.003 C 
ATOM     12  C   UNL     1      28.648   3.627  11.281  1.00  0.00     0.004 C 
ENDBRANCH  10  11
ENDBRANCH   9  10
ENDBRANCH   8   9
ENDBRANCH   7   8
ENDBRANCH   6   7
ENDBRANCH   5   6
ENDBRANCH   4   5
ENDBRANCH   3   4
ENDBRANCH   2   3
ENDBRANCH   1   2
BRANCH   1  13
ATOM     13  C   UNL     1      27.456   1.062   8.706  1.00  0.00     0.000 C 
BRANCH  13  14
ATOM     14  C   UNL     1      28.473   0.017   9.215  1.00  0.00     0.000 C 
BRANCH  14  15
ATOM     15  C   UNL     1      27.786  -1.167   9.918  1.00  0.00     0.000 C 
BRANCH  15  16
ATOM     16  C   UNL     1      27.343  -2.258   8.931  1.00  0.00     0.000 C 
BRANCH  16  17
ATOM     17  C   UNL     1      28.487  -2.709   8.008  1.00  0.00     0.000 C 
BRANCH  17  18
ATOM     18  C   UNL     1      28.244  -2.256   6.564  1.00  0.00     0.000 C 
BRANCH  18  19
ATOM     19  C   UNL     1      26.741  -2.169   6.265  1.00  0.00     0.000 C 
BRANCH  19  20
ATOM     20  C   UNL     1      26.423  -1.276   5.051  1.00  0.00     0.006 C 
BRANCH  20  21
ATOM     21  C   UNL     1      25.987   0.151   5.418  1.00  0.00     0.053 C 
BRANCH  21  22
ATOM     22  C   UNL     1      25.353   0.859   4.259  1.00  0.00     0.041 C 
ATOM     23  O   UNL     1      24.184   1.315   4.359  1.00  0.00    -0.550 OA
ATOM     24  O   UNL     1      26.066   1.041   3.080  1.00  0.00    -0.550 OA
ENDBRANCH  21  22
ENDBRANCH  20  21
ENDBRANCH  19  20
ENDBRANCH  18  19
ENDBRANCH  17  18
ENDBRANCH  16  17
ENDBRANCH  15  16
ENDBRANCH  14  15
ENDBRANCH  13  14
ENDBRANCH   1  13
TORSDOF 20
ENDMDL
MODEL 6
REMARK VINA RESULT:    -4.170      2.584      4.696
REMARK INTER + INTRA:         -12.741
REMARK INTER:                  -8.915
REMARK INTRA:                  -3.825
REMARK UNBOUND:                -3.695
REMARK SMILES CCCCCCCCCCCCCCCCCCCCCC(=O)[O-]
REMARK SMILES IDX 12 1 11 2 10 3 9 4 8 5 7 6 6 7 5 8 4 9 3 10 2 11 1 12 13 13
REMARK SMILES IDX 14 14 15 15 16 16 17 17 18 18 19 19 20 20 21 21 22 22 23 23
REMARK SMILES IDX 24 24
REMARK H PARENT
REMARK Flexibility Score: inf
ROOT
ATOM      1  C   UNL     1      25.477   8.160   8.139  1.00  0.00     0.000 C 
ENDROOT
BRANCH   1   2
ATOM      2  C   UNL     1      26.539   7.663   7.149  1.00  0.00     0.000 C 
BRANCH   2   3
ATOM      3  C   UNL     1      25.883   7.007   5.924  1.00  0.00     0.000 C 
BRANCH   3   4
ATOM      4  C   UNL     1      24.749   6.039   6.300  1.00  0.00    -0.000 C 
BRANCH   4   5
ATOM      5  C   UNL     1      25.213   4.682   6.864  1.00  0.00    -0.000 C 
BRANCH   5   6
ATOM      6  C   UNL     1      24.296   3.498   6.486  1.00  0.00    -0.000 C 
BRANCH   6   7
ATOM      7  C   UNL     1      24.132   2.497   7.643  1.00  0.00    -0.000 C 
BRANCH   7   8
ATOM      8  C   UNL     1      23.717   3.170   8.960  1.00  0.00    -0.000 C 
BRANCH   8   9
ATOM      9  C   UNL     1      22.192   3.309   9.099  1.00  0.00    -0.000 C 
BRANCH   9  10
ATOM     10  C   UNL     1      21.813   4.700   9.621  1.00  0.00    -0.000 C 
BRANCH  10  11
ATOM     11  C   UNL     1      21.903   5.749   8.506  1.00  0.00    -0.003 C 
ATOM     12  C   UNL     1      21.100   5.321   7.282  1.00  0.00     0.004 C 
ENDBRANCH  10  11
ENDBRANCH   9  10
ENDBRANCH   8   9
ENDBRANCH   7   8
ENDBRANCH   6   7
ENDBRANCH   5   6
ENDBRANCH   4   5
ENDBRANCH   3   4
ENDBRANCH   2   3
ENDBRANCH   1   2
BRANCH   1  13
ATOM     13  C   UNL     1      25.791   7.781   9.597  1.00  0.00     0.000 C 
BRANCH  13  14
ATOM     14  C   UNL     1      25.073   6.501  10.076  1.00  0.00     0.000 C 
BRANCH  14  15
ATOM     15  C   UNL     1      26.064   5.413  10.525  1.00  0.00     0.000 C 
BRANCH  15  16
ATOM     16  C   UNL     1      27.526   5.804  10.257  1.00  0.00     0.000 C 
BRANCH  16  17
ATOM     17  C   UNL     1      28.310   4.683   9.555  1.00  0.00     0.000 C 
BRANCH  17  18
ATOM     18  C   UNL     1      27.453   3.420   9.403  1.00  0.00     0.000 C 
BRANCH  18  19
ATOM     19  C   UNL     1      27.999   2.524   8.282  1.00  0.00     0.000 C 
BRANCH  19  20
ATOM     20  C   UNL     1      27.374   1.116   8.285  1.00  0.00     0.006 C 
BRANCH  20  21
ATOM     21  C   UNL     1      28.401  -0.027   8.255  1.00  0.00     0.053 C 
BRANCH  21  22
ATOM     22  C   UNL     1      28.027  -1.141   9.184  1.00  0.00     0.041 C 
ATOM     23  O   UNL     1      28.014  -0.950  10.429  1.00  0.00    -0.550 OA
ATOM     24  O   UNL     1      27.662  -2.381   8.673  1.00  0.00    -0.550 OA
ENDBRANCH  21  22
ENDBRANCH  20  21
ENDBRANCH  19  20
ENDBRANCH  18  19
ENDBRANCH  17  18
ENDBRANCH  16  17
ENDBRANCH  15  16
ENDBRANCH  14  15
ENDBRANCH  13  14
ENDBRANCH   1  13
TORSDOF 20
ENDMDL
MODEL 7
REMARK VINA RESULT:    -4.165      2.504      6.200
REMARK INTER + INTRA:         -12.730
REMARK INTER:                  -8.932
REMARK INTRA:                  -3.797
REMARK UNBOUND:                -3.695
REMARK SMILES CCCCCCCCCCCCCCCCCCCCCC(=O)[O-]
REMARK SMILES IDX 12 1 11 2 10 3 9 4 8 5 7 6 6 7 5 8 4 9 3 10 2 11 1 12 13 13
REMARK SMILES IDX 14 14 15 15 16 16 17 17 18 18 19 19 20 20 21 21 22 22 23 23
REMARK SMILES IDX 24 24
REMARK H PARENT
REMARK Flexibility Score: inf
ROOT
ATOM      1  C   UNL     1      25.645   2.376   8.074  1.00  0.00     0.000 C 
ENDROOT
BRANCH   1   2
ATOM      2  C   UNL     1      24.222   2.836   7.732  1.00  0.00     0.000 C 
BRANCH   2   3
ATOM      3  C   UNL     1      24.059   3.040   6.218  1.00  0.00     0.000 C 
BRANCH   3   4
ATOM      4  C   UNL     1      23.275   1.904   5.542  1.00  0.00    -0.000 C 
BRANCH   4   5
ATOM      5  C   UNL     1      24.111   0.994   4.621  1.00  0.00    -0.000 C 
BRANCH   5   6
ATOM      6  C   UNL     1      25.608   1.370   4.557  1.00  0.00    -0.000 C 
BRANCH   6   7
ATOM      7  C   UNL     1      26.509   0.270   5.145  1.00  0.00    -0.000 C 
BRANCH   7   8
ATOM      8  C   UNL     1      25.719  -0.961   5.613  1.00  0.00    -0.000 C 
BRANCH   8   9
ATOM      9  C   UNL     1      25.650  -1.073   7.145  1.00  0.00    -0.000 C 
BRANCH   9  10
ATOM     10  C   UNL     1      26.951  -1.653   7.712  1.00  0.00    -0.000 C 
BRANCH  10  11
ATOM     11  C   UNL     1      27.147  -1.236   9.175  1.00  0.00    -0.003 C 
ATOM     12  C   UNL     1      28.288  -0.233   9.313  1.00  0.00     0.004 C 
ENDBRANCH  10  11
ENDBRANCH   9  10
ENDBRANCH   8   9
ENDBRANCH   7   8
ENDBRANCH   6   7
ENDBRANCH   5   6
ENDBRANCH   4   5
ENDBRANCH   3   4
ENDBRANCH   2   3
ENDBRANCH   1   2
BRANCH   1  13
ATOM     13  C   UNL     1      26.728   3.337   7.553  1.00  0.00     0.000 C 
BRANCH  13  14
ATOM     14  C   UNL     1      28.078   3.213   8.292  1.00  0.00     0.000 C 
BRANCH  14  15
ATOM     15  C   UNL     1      27.976   3.643   9.765  1.00  0.00     0.000 C 
BRANCH  15  16
ATOM     16  C   UNL     1      28.309   5.130   9.966  1.00  0.00     0.000 C 
BRANCH  16  17
ATOM     17  C   UNL     1      27.098   5.938  10.460  1.00  0.00     0.000 C 
BRANCH  17  18
ATOM     18  C   UNL     1      25.883   5.030  10.687  1.00  0.00     0.000 C 
BRANCH  18  19
ATOM     19  C   UNL     1      24.634   5.611  10.009  1.00  0.00     0.000 C 
BRANCH  19  20
ATOM     20  C   UNL     1      24.942   6.854   9.154  1.00  0.00     0.006 C 
BRANCH  20  21
ATOM     21  C   UNL     1      24.903   6.600   7.639  1.00  0.00     0.053 C 
BRANCH  21  22
ATOM     22  C   UNL     1      26.155   7.067   6.960  1.00  0.00     0.041 C 
ATOM     23  O   UNL     1      26.858   7.973   7.483  1.00  0.00    -0.550 OA
ATOM     24  O   UNL     1      26.562   6.481   5.767  1.00  0.00    -0.550 OA
ENDBRANCH  21  22
ENDBRANCH  20  21
ENDBRANCH  19  20
ENDBRANCH  18  19
ENDBRANCH  17  18
ENDBRANCH  16  17
ENDBRANCH  15  16
ENDBRANCH  14  15
ENDBRANCH  13  14
ENDBRANCH   1  13
TORSDOF 20
ENDMDL
MODEL 8
REMARK VINA RESULT:    -4.150      3.360      6.428
REMARK INTER + INTRA:         -12.697
REMARK INTER:                  -8.775
REMARK INTRA:                  -3.922
REMARK UNBOUND:                -3.695
REMARK SMILES CCCCCCCCCCCCCCCCCCCCCC(=O)[O-]
REMARK SMILES IDX 12 1 11 2 10 3 9 4 8 5 7 6 6 7 5 8 4 9 3 10 2 11 1 12 13 13
REMARK SMILES IDX 14 14 15 15 16 16 17 17 18 18 19 19 20 20 21 21 22 22 23 23
REMARK SMILES IDX 24 24
REMARK H PARENT
REMARK Flexibility Score: inf
ROOT
ATOM      1  C   UNL     1      25.953   7.243   9.565  1.00  0.00     0.000 C 
ENDROOT
BRANCH   1   2
ATOM      2  C   UNL     1      27.219   6.376   9.539  1.00  0.00     0.000 C 
BRANCH   2   3
ATOM      3  C   UNL     1      27.234   5.392  10.719  1.00  0.00     0.000 C 
BRANCH   3   4
ATOM      4  C   UNL     1      27.763   4.002  10.331  1.00  0.00    -0.000 C 
BRANCH   4   5
ATOM      5  C   UNL     1      28.005   3.796   8.822  1.00  0.00    -0.000 C 
BRANCH   5   6
ATOM      6  C   UNL     1      27.834   2.335   8.351  1.00  0.00    -0.000 C 
BRANCH   6   7
ATOM      7  C   UNL     1      27.300   2.248   6.910  1.00  0.00    -0.000 C 
BRANCH   7   8
ATOM      8  C   UNL     1      26.156   1.234   6.759  1.00  0.00    -0.000 C 
BRANCH   8   9
ATOM      9  C   UNL     1      25.959   0.372   8.017  1.00  0.00    -0.000 C 
BRANCH   9  10
ATOM     10  C   UNL     1      26.024  -1.121   7.674  1.00  0.00    -0.000 C 
BRANCH  10  11
ATOM     11  C   UNL     1      27.296  -1.761   8.242  1.00  0.00    -0.003 C 
ATOM     12  C   UNL     1      27.676  -1.135   9.581  1.00  0.00     0.004 C 
ENDBRANCH  10  11
ENDBRANCH   9  10
ENDBRANCH   8   9
ENDBRANCH   7   8
ENDBRANCH   6   7
ENDBRANCH   5   6
ENDBRANCH   4   5
ENDBRANCH   3   4
ENDBRANCH   2   3
ENDBRANCH   1   2
BRANCH   1  13
ATOM     13  C   UNL     1      25.769   8.076   8.284  1.00  0.00     0.000 C 
BRANCH  13  14
ATOM     14  C   UNL     1      26.016   7.281   6.984  1.00  0.00     0.000 C 
BRANCH  14  15
ATOM     15  C   UNL     1      24.773   6.487   6.544  1.00  0.00     0.000 C 
BRANCH  15  16
ATOM     16  C   UNL     1      24.988   4.967   6.632  1.00  0.00     0.000 C 
BRANCH  16  17
ATOM     17  C   UNL     1      23.877   4.268   7.433  1.00  0.00     0.000 C 
BRANCH  17  18
ATOM     18  C   UNL     1      24.369   3.870   8.830  1.00  0.00     0.000 C 
BRANCH  18  19
ATOM     19  C   UNL     1      23.458   4.460   9.917  1.00  0.00     0.000 C 
BRANCH  19  20
ATOM     20  C   UNL     1      22.323   5.327   9.339  1.00  0.00     0.006 C 
BRANCH  20  21
ATOM     21  C   UNL     1      22.408   6.812   9.727  1.00  0.00     0.053 C 
BRANCH  21  22
ATOM     22  C   UNL     1      21.732   7.692   8.720  1.00  0.00     0.041 C 
ATOM     23  O   UNL     1      21.484   8.896   8.997  1.00  0.00    -0.550 OA
ATOM     24  O   UNL     1      21.404   7.192   7.465  1.00  0.00    -0.550 OA
ENDBRANCH  21  22
ENDBRANCH  20  21
ENDBRANCH  19  20
ENDBRANCH  18  19
ENDBRANCH  17  18
ENDBRANCH  16  17
ENDBRANCH  15  16
ENDBRANCH  14  15
ENDBRANCH  13  14
ENDBRANCH   1  13
TORSDOF 20
ENDMDL
MODEL 9
REMARK VINA RESULT:    -4.143      2.328      2.963
REMARK INTER + INTRA:         -12.683
REMARK INTER:                  -9.219
REMARK INTRA:                  -3.463
REMARK UNBOUND:                -3.695
REMARK SMILES CCCCCCCCCCCCCCCCCCCCCC(=O)[O-]
REMARK SMILES IDX 12 1 11 2 10 3 9 4 8 5 7 6 6 7 5 8 4 9 3 10 2 11 1 12 13 13
REMARK SMILES IDX 14 14 15 15 16 16 17 17 18 18 19 19 20 20 21 21 22 22 23 23
REMARK SMILES IDX 24 24
REMARK H PARENT
REMARK Flexibility Score: inf
ROOT
ATOM      1  C   UNL     1      26.119   4.967  10.747  1.00  0.00     0.000 C 
ENDROOT
BRANCH   1   2
ATOM      2  C   UNL     1      24.879   5.526  10.036  1.00  0.00     0.000 C 
BRANCH   2   3
ATOM      3  C   UNL     1      24.606   6.976  10.466  1.00  0.00     0.000 C 
BRANCH   3   4
ATOM      4  C   UNL     1      24.415   7.928   9.274  1.00  0.00    -0.000 C 
BRANCH   4   5
ATOM      5  C   UNL     1      25.692   8.212   8.458  1.00  0.00    -0.000 C 
BRANCH   5   6
ATOM      6  C   UNL     1      25.595   7.794   6.975  1.00  0.00    -0.000 C 
BRANCH   6   7
ATOM      7  C   UNL     1      26.489   6.583   6.652  1.00  0.00    -0.000 C 
BRANCH   7   8
ATOM      8  C   UNL     1      25.707   5.262   6.598  1.00  0.00    -0.000 C 
BRANCH   8   9
ATOM      9  C   UNL     1      24.196   5.476   6.409  1.00  0.00    -0.000 C 
BRANCH   9  10
ATOM     10  C   UNL     1      23.394   4.371   7.107  1.00  0.00    -0.000 C 
BRANCH  10  11
ATOM     11  C   UNL     1      24.193   3.063   7.163  1.00  0.00    -0.003 C 
ATOM     12  C   UNL     1      23.912   2.301   8.455  1.00  0.00     0.004 C 
ENDBRANCH  10  11
ENDBRANCH   9  10
ENDBRANCH   8   9
ENDBRANCH   7   8
ENDBRANCH   6   7
ENDBRANCH   5   6
ENDBRANCH   4   5
ENDBRANCH   3   4
ENDBRANCH   2   3
ENDBRANCH   1   2
BRANCH   1  13
ATOM     13  C   UNL     1      27.437   5.526  10.185  1.00  0.00     0.000 C 
BRANCH  13  14
ATOM     14  C   UNL     1      28.197   4.535   9.277  1.00  0.00     0.000 C 
BRANCH  14  15
ATOM     15  C   UNL     1      27.656   3.100   9.404  1.00  0.00     0.000 C 
BRANCH  15  16
ATOM     16  C   UNL     1      27.674   2.346   8.064  1.00  0.00     0.000 C 
BRANCH  16  17
ATOM     17  C   UNL     1      27.631   0.821   8.252  1.00  0.00     0.000 C 
BRANCH  17  18
ATOM     18  C   UNL     1      28.554   0.378   9.394  1.00  0.00     0.000 C 
BRANCH  18  19
ATOM     19  C   UNL     1      27.991  -0.864  10.100  1.00  0.00     0.000 C 
BRANCH  19  20
ATOM     20  C   UNL     1      27.246  -1.810   9.140  1.00  0.00     0.006 C 
BRANCH  20  21
ATOM     21  C   UNL     1      28.051  -3.057   8.736  1.00  0.00     0.053 C 
BRANCH  21  22
ATOM     22  C   UNL     1      28.417  -3.040   7.283  1.00  0.00     0.041 C 
ATOM     23  O   UNL     1      29.057  -2.067   6.802  1.00  0.00    -0.550 OA
ATOM     24  O   UNL     1      28.080  -4.114   6.467  1.00  0.00    -0.550 OA
ENDBRANCH  21  22
ENDBRANCH  20  21
ENDBRANCH  19  20
ENDBRANCH  18  19
ENDBRANCH  17  18
ENDBRANCH  16  17
ENDBRANCH  15  16
ENDBRANCH  14  15
ENDBRANCH  13  14
ENDBRANCH   1  13
TORSDOF 20
ENDMDL
