MODEL 1
REMARK VINA RESULT:    -3.336      0.000      0.000
REMARK INTER + INTRA:         -10.633
REMARK INTER:                  -7.237
REMARK INTRA:                  -3.396
REMARK UNBOUND:                -3.396
REMARK SMILES CCCCCCCCCCCCCCCCCCCCCC(=O)[O-]
REMARK SMILES IDX 12 1 11 2 10 3 9 4 8 5 7 6 6 7 5 8 4 9 3 10 2 11 1 12 13 13
REMARK SMILES IDX 14 14 15 15 16 16 17 17 18 18 19 19 20 20 21 21 22 22 23 23
REMARK SMILES IDX 24 24
REMARK H PARENT
REMARK Flexibility Score: inf
ROOT
ATOM      1  C   UNL     1      27.701  47.735   8.887  1.00  0.00     0.000 C 
ENDROOT
BRANCH   1   2
ATOM      2  C   UNL     1      27.949  47.524   7.382  1.00  0.00     0.000 C 
BRANCH   2   3
ATOM      3  C   UNL     1      29.391  47.087   7.075  1.00  0.00     0.000 C 
BRANCH   3   4
ATOM      4  C   UNL     1      30.101  46.486   8.301  1.00  0.00    -0.000 C 
BRANCH   4   5
ATOM      5  C   UNL     1      31.434  47.184   8.612  1.00  0.00    -0.000 C 
BRANCH   5   6
ATOM      6  C   UNL     1      31.987  47.968   7.411  1.00  0.00    -0.000 C 
BRANCH   6   7
ATOM      7  C   UNL     1      32.206  49.442   7.772  1.00  0.00    -0.000 C 
BRANCH   7   8
ATOM      8  C   UNL     1      31.633  50.365   6.684  1.00  0.00    -0.000 C 
BRANCH   8   9
ATOM      9  C   UNL     1      30.620  51.379   7.236  1.00  0.00    -0.000 C 
BRANCH   9  10
ATOM     10  C   UNL     1      29.581  50.730   8.166  1.00  0.00    -0.000 C 
BRANCH  10  11
ATOM     11  C   UNL     1      28.461  51.704   8.568  1.00  0.00    -0.003 C 
ATOM     12  C   UNL     1      27.122  51.374   7.908  1.00  0.00     0.004 C 
ENDBRANCH  10  11
ENDBRANCH   9  10
ENDBRANCH   8   9
ENDBRANCH   7   8
ENDBRANCH   6   7
ENDBRANCH   5   6
ENDBRANCH   4   5
ENDBRANCH   3   4
ENDBRANCH   2   3
ENDBRANCH   1   2
BRANCH   1  13
ATOM     13  C   UNL     1      26.212  47.929   9.219  1.00  0.00     0.000 C 
BRANCH  13  14
ATOM     14  C   UNL     1      25.389  46.645   9.019  1.00  0.00     0.000 C 
BRANCH  14  15
ATOM     15  C   UNL     1      25.991  45.439   9.757  1.00  0.00     0.000 C 
BRANCH  15  16
ATOM     16  C   UNL     1      26.348  44.281   8.807  1.00  0.00     0.000 C 
BRANCH  16  17
ATOM     17  C   UNL     1      25.711  44.438   7.416  1.00  0.00     0.000 C 
BRANCH  17  18
ATOM     18  C   UNL     1      26.645  43.971   6.286  1.00  0.00     0.000 C 
BRANCH  18  19
ATOM     19  C   UNL     1      28.066  43.641   6.782  1.00  0.00     0.000 C 
BRANCH  19  20
ATOM     20  C   UNL     1      28.480  42.162   6.650  1.00  0.00     0.006 C 
BRANCH  20  21
ATOM     21  C   UNL     1      27.309  41.184   6.468  1.00  0.00     0.053 C 
BRANCH  21  22
ATOM     22  C   UNL     1      26.995  40.441   7.730  1.00  0.00     0.041 C 
ATOM     23  O   UNL     1      27.516  40.796   8.820  1.00  0.00    -0.550 OA
ATOM     24  O   UNL     1      26.103  39.376   7.708  1.00  0.00    -0.550 OA
ENDBRANCH  21  22
ENDBRANCH  20  21
ENDBRANCH  19  20
ENDBRANCH  18  19
ENDBRANCH  17  18
ENDBRANCH  16  17
ENDBRANCH  15  16
ENDBRANCH  14  15
ENDBRANCH  13  14
ENDBRANCH   1  13
TORSDOF 20
ENDMDL
MODEL 2
REMARK VINA RESULT:    -3.300      1.936      3.811
REMARK INTER + INTRA:         -10.553
REMARK INTER:                  -6.523
REMARK INTRA:                  -4.030
REMARK UNBOUND:                -3.396
REMARK SMILES CCCCCCCCCCCCCCCCCCCCCC(=O)[O-]
REMARK SMILES IDX 12 1 11 2 10 3 9 4 8 5 7 6 6 7 5 8 4 9 3 10 2 11 1 12 13 13
REMARK SMILES IDX 14 14 15 15 16 16 17 17 18 18 19 19 20 20 21 21 22 22 23 23
REMARK SMILES IDX 24 24
REMARK H PARENT
REMARK Flexibility Score: inf
ROOT
ATOM      1  C   UNL     1      30.206  47.864   7.143  1.00  0.00     0.000 C 
ENDROOT
BRANCH   1   2
ATOM      2  C   UNL     1      31.475  48.549   6.604  1.00  0.00     0.000 C 
BRANCH   2   3
ATOM      3  C   UNL     1      32.274  49.265   7.706  1.00  0.00     0.000 C 
BRANCH   3   4
ATOM      4  C   UNL     1      31.732  50.672   8.012  1.00  0.00    -0.000 C 
BRANCH   4   5
ATOM      5  C   UNL     1      31.906  51.641   6.832  1.00  0.00    -0.000 C 
BRANCH   5   6
ATOM      6  C   UNL     1      30.585  52.298   6.403  1.00  0.00    -0.000 C 
BRANCH   6   7
ATOM      7  C   UNL     1      29.402  51.714   7.186  1.00  0.00    -0.000 C 
BRANCH   7   8
ATOM      8  C   UNL     1      28.342  51.141   6.232  1.00  0.00    -0.000 C 
BRANCH   8   9
ATOM      9  C   UNL     1      26.923  51.638   6.552  1.00  0.00    -0.000 C 
BRANCH   9  10
ATOM     10  C   UNL     1      26.734  51.968   8.042  1.00  0.00    -0.000 C 
BRANCH  10  11
ATOM     11  C   UNL     1      26.273  53.417   8.270  1.00  0.00    -0.003 C 
ATOM     12  C   UNL     1      26.441  54.295   7.031  1.00  0.00     0.004 C 
ENDBRANCH  10  11
ENDBRANCH   9  10
ENDBRANCH   8   9
ENDBRANCH   7   8
ENDBRANCH   6   7
ENDBRANCH   5   6
ENDBRANCH   4   5
ENDBRANCH   3   4
ENDBRANCH   2   3
ENDBRANCH   1   2
BRANCH   1  13
ATOM     13  C   UNL     1      30.425  47.212   8.518  1.00  0.00     0.000 C 
BRANCH  13  14
ATOM     14  C   UNL     1      29.395  47.672   9.563  1.00  0.00     0.000 C 
BRANCH  14  15
ATOM     15  C   UNL     1      28.314  48.584   8.961  1.00  0.00     0.000 C 
BRANCH  15  16
ATOM     16  C   UNL     1      26.889  48.052   9.200  1.00  0.00     0.000 C 
BRANCH  16  17
ATOM     17  C   UNL     1      25.935  48.372   8.037  1.00  0.00     0.000 C 
BRANCH  17  18
ATOM     18  C   UNL     1      26.461  47.854   6.687  1.00  0.00     0.000 C 
BRANCH  18  19
ATOM     19  C   UNL     1      26.214  46.347   6.487  1.00  0.00     0.000 C 
BRANCH  19  20
ATOM     20  C   UNL     1      27.484  45.475   6.434  1.00  0.00     0.006 C 
BRANCH  20  21
ATOM     21  C   UNL     1      27.854  44.802   7.765  1.00  0.00     0.053 C 
BRANCH  21  22
ATOM     22  C   UNL     1      26.675  44.135   8.404  1.00  0.00     0.041 C 
ATOM     23  O   UNL     1      26.192  44.591   9.474  1.00  0.00    -0.550 OA
ATOM     24  O   UNL     1      26.089  43.029   7.801  1.00  0.00    -0.550 OA
ENDBRANCH  21  22
ENDBRANCH  20  21
ENDBRANCH  19  20
ENDBRANCH  18  19
ENDBRANCH  17  18
ENDBRANCH  16  17
ENDBRANCH  15  16
ENDBRANCH  14  15
ENDBRANCH  13  14
ENDBRANCH   1  13
TORSDOF 20
ENDMDL
MODEL 3
REMARK VINA RESULT:    -3.270      1.204      3.305
REMARK INTER + INTRA:         -10.490
REMARK INTER:                  -7.155
REMARK INTRA:                  -3.334
REMARK UNBOUND:                -3.396
REMARK SMILES CCCCCCCCCCCCCCCCCCCCCC(=O)[O-]
REMARK SMILES IDX 12 1 11 2 10 3 9 4 8 5 7 6 6 7 5 8 4 9 3 10 2 11 1 12 13 13
REMARK SMILES IDX 14 14 15 15 16 16 17 17 18 18 19 19 20 20 21 21 22 22 23 23
REMARK SMILES IDX 24 24
REMARK H PARENT
REMARK Flexibility Score: inf
ROOT
ATOM      1  C   UNL     1      30.453  46.870   8.877  1.00  0.00     0.000 C 
ENDROOT
BRANCH   1   2
ATOM      2  C   UNL     1      31.811  47.105   8.192  1.00  0.00     0.000 C 
BRANCH   2   3
ATOM      3  C   UNL     1      32.037  48.578   7.814  1.00  0.00     0.000 C 
BRANCH   3   4
ATOM      4  C   UNL     1      31.596  48.894   6.374  1.00  0.00    -0.000 C 
BRANCH   4   5
ATOM      5  C   UNL     1      30.848  50.232   6.266  1.00  0.00    -0.000 C 
BRANCH   5   6
ATOM      6  C   UNL     1      30.187  50.650   7.589  1.00  0.00    -0.000 C 
BRANCH   6   7
ATOM      7  C   UNL     1      29.230  51.830   7.377  1.00  0.00    -0.000 C 
BRANCH   7   8
ATOM      8  C   UNL     1      28.124  51.838   8.443  1.00  0.00    -0.000 C 
BRANCH   8   9
ATOM      9  C   UNL     1      26.775  52.335   7.897  1.00  0.00    -0.000 C 
BRANCH   9  10
ATOM     10  C   UNL     1      25.700  51.235   7.889  1.00  0.00    -0.000 C 
BRANCH  10  11
ATOM     11  C   UNL     1      25.320  50.793   6.467  1.00  0.00    -0.003 C 
ATOM     12  C   UNL     1      26.267  49.735   5.901  1.00  0.00     0.004 C 
ENDBRANCH  10  11
ENDBRANCH   9  10
ENDBRANCH   8   9
ENDBRANCH   7   8
ENDBRANCH   6   7
ENDBRANCH   5   6
ENDBRANCH   4   5
ENDBRANCH   3   4
ENDBRANCH   2   3
ENDBRANCH   1   2
BRANCH   1  13
ATOM     13  C   UNL     1      29.393  46.314   7.912  1.00  0.00     0.000 C 
BRANCH  13  14
ATOM     14  C   UNL     1      28.251  47.310   7.649  1.00  0.00     0.000 C 
BRANCH  14  15
ATOM     15  C   UNL     1      27.859  48.102   8.907  1.00  0.00     0.000 C 
BRANCH  15  16
ATOM     16  C   UNL     1      26.387  47.890   9.306  1.00  0.00     0.000 C 
BRANCH  16  17
ATOM     17  C   UNL     1      26.087  46.438   9.712  1.00  0.00     0.000 C 
BRANCH  17  18
ATOM     18  C   UNL     1      24.904  45.842   8.930  1.00  0.00     0.000 C 
BRANCH  18  19
ATOM     19  C   UNL     1      25.293  44.593   8.117  1.00  0.00     0.000 C 
BRANCH  19  20
ATOM     20  C   UNL     1      26.580  43.883   8.581  1.00  0.00     0.006 C 
BRANCH  20  21
ATOM     21  C   UNL     1      27.353  43.166   7.462  1.00  0.00     0.053 C 
BRANCH  21  22
ATOM     22  C   UNL     1      27.180  41.680   7.521  1.00  0.00     0.041 C 
ATOM     23  O   UNL     1      28.178  40.933   7.695  1.00  0.00    -0.550 OA
ATOM     24  O   UNL     1      25.912  41.122   7.418  1.00  0.00    -0.550 OA
ENDBRANCH  21  22
ENDBRANCH  20  21
ENDBRANCH  19  20
ENDBRANCH  18  19
ENDBRANCH  17  18
ENDBRANCH  16  17
ENDBRANCH  15  16
ENDBRANCH  14  15
ENDBRANCH  13  14
ENDBRANCH   1  13
TORSDOF 20
ENDMDL
MODEL 4
REMARK VINA RESULT:    -3.191      2.391      7.660
REMARK INTER + INTRA:         -10.318
REMARK INTER:                  -7.218
REMARK INTRA:                  -3.099
REMARK UNBOUND:                -3.396
REMARK SMILES CCCCCCCCCCCCCCCCCCCCCC(=O)[O-]
REMARK SMILES IDX 12 1 11 2 10 3 9 4 8 5 7 6 6 7 5 8 4 9 3 10 2 11 1 12 13 13
REMARK SMILES IDX 14 14 15 15 16 16 17 17 18 18 19 19 20 20 21 21 22 22 23 23
REMARK SMILES IDX 24 24
REMARK H PARENT
REMARK Flexibility Score: inf
ROOT
ATOM      1  C   UNL     1      31.625  47.371   8.428  1.00  0.00     0.000 C 
ENDROOT
BRANCH   1   2
ATOM      2  C   UNL     1      30.746  46.192   7.977  1.00  0.00     0.000 C 
BRANCH   2   3
ATOM      3  C   UNL     1      30.123  46.414   6.589  1.00  0.00     0.000 C 
BRANCH   3   4
ATOM      4  C   UNL     1      29.040  45.374   6.252  1.00  0.00    -0.000 C 
BRANCH   4   5
ATOM      5  C   UNL     1      28.238  44.937   7.488  1.00  0.00    -0.000 C 
BRANCH   5   6
ATOM      6  C   UNL     1      26.733  44.808   7.204  1.00  0.00    -0.000 C 
BRANCH   6   7
ATOM      7  C   UNL     1      26.079  43.798   8.155  1.00  0.00    -0.000 C 
BRANCH   7   8
ATOM      8  C   UNL     1      25.092  42.893   7.402  1.00  0.00    -0.000 C 
BRANCH   8   9
ATOM      9  C   UNL     1      25.785  41.725   6.683  1.00  0.00    -0.000 C 
BRANCH   9  10
ATOM     10  C   UNL     1      26.380  40.698   7.663  1.00  0.00    -0.000 C 
BRANCH  10  11
ATOM     11  C   UNL     1      27.901  40.851   7.824  1.00  0.00    -0.003 C 
ATOM     12  C   UNL     1      28.596  41.264   6.527  1.00  0.00     0.004 C 
ENDBRANCH  10  11
ENDBRANCH   9  10
ENDBRANCH   8   9
ENDBRANCH   7   8
ENDBRANCH   6   7
ENDBRANCH   5   6
ENDBRANCH   4   5
ENDBRANCH   3   4
ENDBRANCH   2   3
ENDBRANCH   1   2
BRANCH   1  13
ATOM     13  C   UNL     1      31.915  48.362   7.288  1.00  0.00     0.000 C 
BRANCH  13  14
ATOM     14  C   UNL     1      32.487  49.697   7.794  1.00  0.00     0.000 C 
BRANCH  14  15
ATOM     15  C   UNL     1      31.886  50.909   7.064  1.00  0.00     0.000 C 
BRANCH  15  16
ATOM     16  C   UNL     1      30.873  50.504   5.978  1.00  0.00     0.000 C 
BRANCH  16  17
ATOM     17  C   UNL     1      29.431  50.900   6.336  1.00  0.00     0.000 C 
BRANCH  17  18
ATOM     18  C   UNL     1      29.301  51.395   7.787  1.00  0.00     0.000 C 
BRANCH  18  19
ATOM     19  C   UNL     1      28.956  50.266   8.776  1.00  0.00     0.000 C 
BRANCH  19  20
ATOM     20  C   UNL     1      28.136  49.102   8.183  1.00  0.00     0.006 C 
BRANCH  20  21
ATOM     21  C   UNL     1      27.683  48.052   9.209  1.00  0.00     0.053 C 
BRANCH  21  22
ATOM     22  C   UNL     1      26.200  47.845   9.185  1.00  0.00     0.041 C 
ATOM     23  O   UNL     1      25.666  46.997   9.947  1.00  0.00    -0.550 OA
ATOM     24  O   UNL     1      25.404  48.613   8.344  1.00  0.00    -0.550 OA
ENDBRANCH  21  22
ENDBRANCH  20  21
ENDBRANCH  19  20
ENDBRANCH  18  19
ENDBRANCH  17  18
ENDBRANCH  16  17
ENDBRANCH  15  16
ENDBRANCH  14  15
ENDBRANCH  13  14
ENDBRANCH   1  13
TORSDOF 20
ENDMDL
MODEL 5
REMARK VINA RESULT:    -3.170      1.605      3.394
REMARK INTER + INTRA:         -10.273
REMARK INTER:                  -7.524
REMARK INTRA:                  -2.749
REMARK UNBOUND:                -3.396
REMARK SMILES CCCCCCCCCCCCCCCCCCCCCC(=O)[O-]
REMARK SMILES IDX 12 1 11 2 10 3 9 4 8 5 7 6 6 7 5 8 4 9 3 10 2 11 1 12 13 13
REMARK SMILES IDX 14 14 15 15 16 16 17 17 18 18 19 19 20 20 21 21 22 22 23 23
REMARK SMILES IDX 24 24
REMARK H PARENT
REMARK Flexibility Score: inf
ROOT
ATOM      1  C   UNL     1      31.418  46.162   8.264  1.00  0.00     0.000 C 
ENDROOT
BRANCH   1   2
ATOM      2  C   UNL     1      31.924  47.606   8.430  1.00  0.00     0.000 C 
BRANCH   2   3
ATOM      3  C   UNL     1      31.884  48.403   7.115  1.00  0.00     0.000 C 
BRANCH   3   4
ATOM      4  C   UNL     1      32.188  49.898   7.319  1.00  0.00    -0.000 C 
BRANCH   4   5
ATOM      5  C   UNL     1      31.431  50.794   6.327  1.00  0.00    -0.000 C 
BRANCH   5   6
ATOM      6  C   UNL     1      30.651  51.922   7.023  1.00  0.00    -0.000 C 
BRANCH   6   7
ATOM      7  C   UNL     1      29.232  51.466   7.385  1.00  0.00    -0.000 C 
BRANCH   7   8
ATOM      8  C   UNL     1      29.162  50.996   8.846  1.00  0.00    -0.000 C 
BRANCH   8   9
ATOM      9  C   UNL     1      28.797  49.509   8.975  1.00  0.00    -0.000 C 
BRANCH   9  10
ATOM     10  C   UNL     1      27.946  49.005   7.797  1.00  0.00    -0.000 C 
BRANCH  10  11
ATOM     11  C   UNL     1      26.470  48.808   8.179  1.00  0.00    -0.003 C 
ATOM     12  C   UNL     1      26.283  47.842   9.349  1.00  0.00     0.004 C 
ENDBRANCH  10  11
ENDBRANCH   9  10
ENDBRANCH   8   9
ENDBRANCH   7   8
ENDBRANCH   6   7
ENDBRANCH   5   6
ENDBRANCH   4   5
ENDBRANCH   3   4
ENDBRANCH   2   3
ENDBRANCH   1   2
BRANCH   1  13
ATOM     13  C   UNL     1      29.892  46.087   8.091  1.00  0.00     0.000 C 
BRANCH  13  14
ATOM     14  C   UNL     1      29.478  45.424   6.766  1.00  0.00     0.000 C 
BRANCH  14  15
ATOM     15  C   UNL     1      27.983  45.070   6.727  1.00  0.00     0.000 C 
BRANCH  15  16
ATOM     16  C   UNL     1      27.425  44.699   8.113  1.00  0.00     0.000 C 
BRANCH  16  17
ATOM     17  C   UNL     1      25.958  44.241   8.058  1.00  0.00     0.000 C 
BRANCH  17  18
ATOM     18  C   UNL     1      25.691  43.263   6.900  1.00  0.00     0.000 C 
BRANCH  18  19
ATOM     19  C   UNL     1      25.820  41.788   7.321  1.00  0.00     0.000 C 
BRANCH  19  20
ATOM     20  C   UNL     1      26.830  40.957   6.503  1.00  0.00     0.006 C 
BRANCH  20  21
ATOM     21  C   UNL     1      27.986  40.366   7.325  1.00  0.00     0.053 C 
BRANCH  21  22
ATOM     22  C   UNL     1      29.320  40.659   6.710  1.00  0.00     0.041 C 
ATOM     23  O   UNL     1      30.168  39.740   6.568  1.00  0.00    -0.550 OA
ATOM     24  O   UNL     1      29.614  41.942   6.265  1.00  0.00    -0.550 OA
ENDBRANCH  21  22
ENDBRANCH  20  21
ENDBRANCH  19  20
ENDBRANCH  18  19
ENDBRANCH  17  18
ENDBRANCH  16  17
ENDBRANCH  15  16
ENDBRANCH  14  15
ENDBRANCH  13  14
ENDBRANCH   1  13
TORSDOF 20
ENDMDL
MODEL 6
REMARK VINA RESULT:    -3.166      4.435      8.247
REMARK INTER + INTRA:         -10.265
REMARK INTER:                  -6.303
REMARK INTRA:                  -3.962
REMARK UNBOUND:                -3.396
REMARK SMILES CCCCCCCCCCCCCCCCCCCCCC(=O)[O-]
REMARK SMILES IDX 12 1 11 2 10 3 9 4 8 5 7 6 6 7 5 8 4 9 3 10 2 11 1 12 13 13
REMARK SMILES IDX 14 14 15 15 16 16 17 17 18 18 19 19 20 20 21 21 22 22 23 23
REMARK SMILES IDX 24 24
REMARK H PARENT
REMARK Flexibility Score: inf
ROOT
ATOM      1  C   UNL     1      30.637  46.881   8.942  1.00  0.00     0.000 C 
ENDROOT
BRANCH   1   2
ATOM      2  C   UNL     1      29.218  47.212   8.446  1.00  0.00     0.000 C 
BRANCH   2   3
ATOM      3  C   UNL     1      28.516  48.264   9.321  1.00  0.00     0.000 C 
BRANCH   3   4
ATOM      4  C   UNL     1      27.272  48.864   8.642  1.00  0.00    -0.000 C 
BRANCH   4   5
ATOM      5  C   UNL     1      27.082  48.355   7.205  1.00  0.00    -0.000 C 
BRANCH   5   6
ATOM      6  C   UNL     1      25.601  48.221   6.814  1.00  0.00    -0.000 C 
BRANCH   6   7
ATOM      7  C   UNL     1      25.273  46.783   6.392  1.00  0.00    -0.000 C 
BRANCH   7   8
ATOM      8  C   UNL     1      26.542  45.917   6.358  1.00  0.00    -0.000 C 
BRANCH   8   9
ATOM      9  C   UNL     1      26.444  44.683   7.268  1.00  0.00    -0.000 C 
BRANCH   9  10
ATOM     10  C   UNL     1      25.401  44.854   8.385  1.00  0.00    -0.000 C 
BRANCH  10  11
ATOM     11  C   UNL     1      26.023  45.348   9.701  1.00  0.00    -0.003 C 
ATOM     12  C   UNL     1      25.172  46.410  10.397  1.00  0.00     0.004 C 
ENDBRANCH  10  11
ENDBRANCH   9  10
ENDBRANCH   8   9
ENDBRANCH   7   8
ENDBRANCH   6   7
ENDBRANCH   5   6
ENDBRANCH   4   5
ENDBRANCH   3   4
ENDBRANCH   2   3
ENDBRANCH   1   2
BRANCH   1  13
ATOM     13  C   UNL     1      31.716  47.172   7.886  1.00  0.00     0.000 C 
BRANCH  13  14
ATOM     14  C   UNL     1      31.988  48.677   7.717  1.00  0.00     0.000 C 
BRANCH  14  15
ATOM     15  C   UNL     1      31.582  49.196   6.329  1.00  0.00     0.000 C 
BRANCH  15  16
ATOM     16  C   UNL     1      30.986  50.615   6.378  1.00  0.00     0.000 C 
BRANCH  16  17
ATOM     17  C   UNL     1      30.440  50.980   7.768  1.00  0.00     0.000 C 
BRANCH  17  18
ATOM     18  C   UNL     1      29.176  51.854   7.692  1.00  0.00     0.000 C 
BRANCH  18  19
ATOM     19  C   UNL     1      28.386  51.651   6.386  1.00  0.00     0.000 C 
BRANCH  19  20
ATOM     20  C   UNL     1      26.925  52.142   6.420  1.00  0.00     0.006 C 
BRANCH  20  21
ATOM     21  C   UNL     1      26.359  52.369   7.830  1.00  0.00     0.053 C 
BRANCH  21  22
ATOM     22  C   UNL     1      26.128  53.820   8.117  1.00  0.00     0.041 C 
ATOM     23  O   UNL     1      25.900  54.205   9.294  1.00  0.00    -0.550 OA
ATOM     24  O   UNL     1      26.197  54.752   7.089  1.00  0.00    -0.550 OA
ENDBRANCH  21  22
ENDBRANCH  20  21
ENDBRANCH  19  20
ENDBRANCH  18  19
ENDBRANCH  17  18
ENDBRANCH  16  17
ENDBRANCH  15  16
ENDBRANCH  14  15
ENDBRANCH  13  14
ENDBRANCH   1  13
TORSDOF 20
ENDMDL
MODEL 7
REMARK VINA RESULT:    -3.151      1.495      3.265
REMARK INTER + INTRA:         -10.231
REMARK INTER:                  -7.330
REMARK INTRA:                  -2.901
REMARK UNBOUND:                -3.396
REMARK SMILES CCCCCCCCCCCCCCCCCCCCCC(=O)[O-]
REMARK SMILES IDX 12 1 11 2 10 3 9 4 8 5 7 6 6 7 5 8 4 9 3 10 2 11 1 12 13 13
REMARK SMILES IDX 14 14 15 15 16 16 17 17 18 18 19 19 20 20 21 21 22 22 23 23
REMARK SMILES IDX 24 24
REMARK H PARENT
REMARK Flexibility Score: inf
ROOT
ATOM      1  C   UNL     1      31.384  46.592   8.586  1.00  0.00     0.000 C 
ENDROOT
BRANCH   1   2
ATOM      2  C   UNL     1      31.990  47.892   8.029  1.00  0.00     0.000 C 
BRANCH   2   3
ATOM      3  C   UNL     1      31.582  48.158   6.571  1.00  0.00     0.000 C 
BRANCH   3   4
ATOM      4  C   UNL     1      31.709  49.641   6.181  1.00  0.00    -0.000 C 
BRANCH   4   5
ATOM      5  C   UNL     1      32.268  50.505   7.323  1.00  0.00    -0.000 C 
BRANCH   5   6
ATOM      6  C   UNL     1      32.391  51.988   6.939  1.00  0.00    -0.000 C 
BRANCH   6   7
ATOM      7  C   UNL     1      31.354  52.368   5.875  1.00  0.00    -0.000 C 
BRANCH   7   8
ATOM      8  C   UNL     1      30.080  52.931   6.526  1.00  0.00    -0.000 C 
BRANCH   8   9
ATOM      9  C   UNL     1      28.988  51.867   6.716  1.00  0.00    -0.000 C 
BRANCH   9  10
ATOM     10  C   UNL     1      28.363  51.906   8.120  1.00  0.00    -0.000 C 
BRANCH  10  11
ATOM     11  C   UNL     1      26.830  52.002   8.080  1.00  0.00    -0.003 C 
ATOM     12  C   UNL     1      26.324  53.444   8.126  1.00  0.00     0.004 C 
ENDBRANCH  10  11
ENDBRANCH   9  10
ENDBRANCH   8   9
ENDBRANCH   7   8
ENDBRANCH   6   7
ENDBRANCH   5   6
ENDBRANCH   4   5
ENDBRANCH   3   4
ENDBRANCH   2   3
ENDBRANCH   1   2
BRANCH   1  13
ATOM     13  C   UNL     1      29.846  46.606   8.581  1.00  0.00     0.000 C 
BRANCH  13  14
ATOM     14  C   UNL     1      29.262  47.731   9.452  1.00  0.00     0.000 C 
BRANCH  14  15
ATOM     15  C   UNL     1      28.011  48.370   8.827  1.00  0.00     0.000 C 
BRANCH  15  16
ATOM     16  C   UNL     1      27.814  47.968   7.354  1.00  0.00     0.000 C 
BRANCH  16  17
ATOM     17  C   UNL     1      26.347  47.649   7.019  1.00  0.00     0.000 C 
BRANCH  17  18
ATOM     18  C   UNL     1      26.129  46.162   6.690  1.00  0.00     0.000 C 
BRANCH  18  19
ATOM     19  C   UNL     1      26.088  45.272   7.946  1.00  0.00     0.000 C 
BRANCH  19  20
ATOM     20  C   UNL     1      27.187  44.192   8.022  1.00  0.00     0.006 C 
BRANCH  20  21
ATOM     21  C   UNL     1      28.009  44.026   6.735  1.00  0.00     0.053 C 
BRANCH  21  22
ATOM     22  C   UNL     1      28.552  42.638   6.589  1.00  0.00     0.041 C 
ATOM     23  O   UNL     1      29.707  42.455   6.122  1.00  0.00    -0.550 OA
ATOM     24  O   UNL     1      27.794  41.548   6.999  1.00  0.00    -0.550 OA
ENDBRANCH  21  22
ENDBRANCH  20  21
ENDBRANCH  19  20
ENDBRANCH  18  19
ENDBRANCH  17  18
ENDBRANCH  16  17
ENDBRANCH  15  16
ENDBRANCH  14  15
ENDBRANCH  13  14
ENDBRANCH   1  13
TORSDOF 20
ENDMDL
MODEL 8
REMARK VINA RESULT:    -3.130      1.853      3.839
REMARK INTER + INTRA:         -10.186
REMARK INTER:                  -7.362
REMARK INTRA:                  -2.824
REMARK UNBOUND:                -3.396
REMARK SMILES CCCCCCCCCCCCCCCCCCCCCC(=O)[O-]
REMARK SMILES IDX 12 1 11 2 10 3 9 4 8 5 7 6 6 7 5 8 4 9 3 10 2 11 1 12 13 13
REMARK SMILES IDX 14 14 15 15 16 16 17 17 18 18 19 19 20 20 21 21 22 22 23 23
REMARK SMILES IDX 24 24
REMARK H PARENT
REMARK Flexibility Score: inf
ROOT
ATOM      1  C   UNL     1      29.919  47.105   7.557  1.00  0.00     0.000 C 
ENDROOT
BRANCH   1   2
ATOM      2  C   UNL     1      31.289  47.557   7.020  1.00  0.00     0.000 C 
BRANCH   2   3
ATOM      3  C   UNL     1      32.000  48.539   7.966  1.00  0.00     0.000 C 
BRANCH   3   4
ATOM      4  C   UNL     1      32.186  49.933   7.342  1.00  0.00    -0.000 C 
BRANCH   4   5
ATOM      5  C   UNL     1      31.185  50.963   7.890  1.00  0.00    -0.000 C 
BRANCH   5   6
ATOM      6  C   UNL     1      29.818  50.892   7.191  1.00  0.00    -0.000 C 
BRANCH   6   7
ATOM      7  C   UNL     1      29.015  52.178   7.423  1.00  0.00    -0.000 C 
BRANCH   7   8
ATOM      8  C   UNL     1      27.920  51.958   8.479  1.00  0.00    -0.000 C 
BRANCH   8   9
ATOM      9  C   UNL     1      26.514  52.292   7.956  1.00  0.00    -0.000 C 
BRANCH   9  10
ATOM     10  C   UNL     1      26.175  53.787   8.088  1.00  0.00    -0.000 C 
BRANCH  10  11
ATOM     11  C   UNL     1      25.393  54.102   9.374  1.00  0.00    -0.003 C 
ATOM     12  C   UNL     1      26.174  54.994  10.339  1.00  0.00     0.004 C 
ENDBRANCH  10  11
ENDBRANCH   9  10
ENDBRANCH   8   9
ENDBRANCH   7   8
ENDBRANCH   6   7
ENDBRANCH   5   6
ENDBRANCH   4   5
ENDBRANCH   3   4
ENDBRANCH   2   3
ENDBRANCH   1   2
BRANCH   1  13
ATOM     13  C   UNL     1      29.711  47.476   9.035  1.00  0.00     0.000 C 
BRANCH  13  14
ATOM     14  C   UNL     1      28.435  48.303   9.265  1.00  0.00     0.000 C 
BRANCH  14  15
ATOM     15  C   UNL     1      27.430  48.167   8.110  1.00  0.00     0.000 C 
BRANCH  15  16
ATOM     16  C   UNL     1      26.026  47.758   8.592  1.00  0.00     0.000 C 
BRANCH  16  17
ATOM     17  C   UNL     1      26.036  47.168  10.012  1.00  0.00     0.000 C 
BRANCH  17  18
ATOM     18  C   UNL     1      25.691  45.668  10.027  1.00  0.00     0.000 C 
BRANCH  18  19
ATOM     19  C   UNL     1      25.557  45.071   8.614  1.00  0.00     0.000 C 
BRANCH  19  20
ATOM     20  C   UNL     1      26.643  44.048   8.227  1.00  0.00     0.006 C 
BRANCH  20  21
ATOM     21  C   UNL     1      27.579  44.506   7.096  1.00  0.00     0.053 C 
BRANCH  21  22
ATOM     22  C   UNL     1      28.561  43.443   6.714  1.00  0.00     0.041 C 
ATOM     23  O   UNL     1      28.279  42.228   6.886  1.00  0.00    -0.550 OA
ATOM     24  O   UNL     1      29.777  43.792   6.139  1.00  0.00    -0.550 OA
ENDBRANCH  21  22
ENDBRANCH  20  21
ENDBRANCH  19  20
ENDBRANCH  18  19
ENDBRANCH  17  18
ENDBRANCH  16  17
ENDBRANCH  15  16
ENDBRANCH  14  15
ENDBRANCH  13  14
ENDBRANCH   1  13
TORSDOF 20
ENDMDL
MODEL 9
REMARK VINA RESULT:    -3.121      3.320      7.787
REMARK INTER + INTRA:         -10.165
REMARK INTER:                  -6.910
REMARK INTRA:                  -3.255
REMARK UNBOUND:                -3.396
REMARK SMILES CCCCCCCCCCCCCCCCCCCCCC(=O)[O-]
REMARK SMILES IDX 12 1 11 2 10 3 9 4 8 5 7 6 6 7 5 8 4 9 3 10 2 11 1 12 13 13
REMARK SMILES IDX 14 14 15 15 16 16 17 17 18 18 19 19 20 20 21 21 22 22 23 23
REMARK SMILES IDX 24 24
REMARK H PARENT
REMARK Flexibility Score: inf
ROOT
ATOM      1  C   UNL     1      30.386  47.169   9.078  1.00  0.00     0.000 C 
ENDROOT
BRANCH   1   2
ATOM      2  C   UNL     1      29.288  48.246   9.005  1.00  0.00     0.000 C 
BRANCH   2   3
ATOM      3  C   UNL     1      27.992  47.727   8.363  1.00  0.00     0.000 C 
BRANCH   3   4
ATOM      4  C   UNL     1      28.030  47.781   6.825  1.00  0.00    -0.000 C 
BRANCH   4   5
ATOM      5  C   UNL     1      27.761  46.412   6.180  1.00  0.00    -0.000 C 
BRANCH   5   6
ATOM      6  C   UNL     1      28.909  45.415   6.404  1.00  0.00    -0.000 C 
BRANCH   6   7
ATOM      7  C   UNL     1      28.367  44.022   6.746  1.00  0.00    -0.000 C 
BRANCH   7   8
ATOM      8  C   UNL     1      26.849  43.951   6.515  1.00  0.00    -0.000 C 
BRANCH   8   9
ATOM      9  C   UNL     1      26.081  43.462   7.754  1.00  0.00    -0.000 C 
BRANCH   9  10
ATOM     10  C   UNL     1      26.359  44.322   8.999  1.00  0.00    -0.000 C 
BRANCH  10  11
ATOM     11  C   UNL     1      25.337  45.456   9.171  1.00  0.00    -0.003 C 
ATOM     12  C   UNL     1      25.410  46.117  10.547  1.00  0.00     0.004 C 
ENDBRANCH  10  11
ENDBRANCH   9  10
ENDBRANCH   8   9
ENDBRANCH   7   8
ENDBRANCH   6   7
ENDBRANCH   5   6
ENDBRANCH   4   5
ENDBRANCH   3   4
ENDBRANCH   2   3
ENDBRANCH   1   2
BRANCH   1  13
ATOM     13  C   UNL     1      31.570  47.468   8.143  1.00  0.00     0.000 C 
BRANCH  13  14
ATOM     14  C   UNL     1      31.456  48.843   7.464  1.00  0.00     0.000 C 
BRANCH  14  15
ATOM     15  C   UNL     1      32.591  49.796   7.870  1.00  0.00     0.000 C 
BRANCH  15  16
ATOM     16  C   UNL     1      32.432  51.202   7.262  1.00  0.00     0.000 C 
BRANCH  16  17
ATOM     17  C   UNL     1      31.374  51.248   6.147  1.00  0.00     0.000 C 
BRANCH  17  18
ATOM     18  C   UNL     1      30.749  52.645   5.988  1.00  0.00     0.000 C 
BRANCH  18  19
ATOM     19  C   UNL     1      29.263  52.685   6.390  1.00  0.00     0.000 C 
BRANCH  19  20
ATOM     20  C   UNL     1      28.715  51.383   7.011  1.00  0.00     0.006 C 
BRANCH  20  21
ATOM     21  C   UNL     1      27.716  51.594   8.159  1.00  0.00     0.053 C 
BRANCH  21  22
ATOM     22  C   UNL     1      26.302  51.365   7.723  1.00  0.00     0.041 C 
ATOM     23  O   UNL     1      25.654  50.380   8.165  1.00  0.00    -0.550 OA
ATOM     24  O   UNL     1      25.689  52.257   6.851  1.00  0.00    -0.550 OA
ENDBRANCH  21  22
ENDBRANCH  20  21
ENDBRANCH  19  20
ENDBRANCH  18  19
ENDBRANCH  17  18
ENDBRANCH  16  17
ENDBRANCH  15  16
ENDBRANCH  14  15
ENDBRANCH  13  14
ENDBRANCH   1  13
TORSDOF 20
ENDMDL
