MODEL 1
REMARK VINA RESULT:    -5.804      0.000      0.000
REMARK INTER + INTRA:          -7.304
REMARK INTER:                  -6.992
REMARK INTRA:                  -0.312
REMARK UNBOUND:                -0.312
REMARK SMILES O=c1c(O)c(-c2ccc(O)c(O)c2)oc2cc(O)cc(O)c12
REMARK SMILES IDX 5 1 3 2 2 3 1 4 22 5 20 6 19 7 17 8 16 9 15 10 14 11 6 12
REMARK SMILES IDX 7 13 8 14 9 15 13 16 11 17 10 18 12 20 4 22 21 24 18 26
REMARK H PARENT 10 19 12 21 4 23 21 25 18 27
REMARK Flexibility Score: inf
ROOT
ATOM      1  C   UNL     1      39.516  37.986  29.828  1.00  0.00     0.180 A 
ATOM      2  C   UNL     1      38.731  36.992  30.436  1.00  0.00     0.208 A 
ATOM      3  C   UNL     1      37.371  36.897  30.097  1.00  0.00     0.238 A 
ATOM      4  O   UNL     1      36.686  35.971  30.604  1.00  0.00    -0.285 OA
ATOM      5  C   UNL     1      36.812  37.806  29.167  1.00  0.00     0.111 A 
ATOM      6  C   UNL     1      35.438  37.827  28.781  1.00  0.00     0.134 A 
ATOM      7  C   UNL     1      35.022  38.685  27.756  1.00  0.00     0.093 A 
ATOM      8  C   UNL     1      35.914  39.569  27.150  1.00  0.00     0.123 A 
ATOM      9  C   UNL     1      37.247  39.599  27.561  1.00  0.00     0.094 A 
ATOM     10  C   UNL     1      37.700  38.729  28.556  1.00  0.00     0.146 A 
ATOM     11  O   UNL     1      38.977  38.782  28.912  1.00  0.00    -0.452 OA
ENDROOT
BRANCH   1  12
ATOM     12  C   UNL     1      40.951  38.166  30.152  1.00  0.00     0.025 A 
ATOM     13  C   UNL     1      41.944  37.393  29.526  1.00  0.00     0.016 A 
ATOM     14  C   UNL     1      43.290  37.563  29.864  1.00  0.00     0.051 A 
ATOM     15  C   UNL     1      43.659  38.497  30.841  1.00  0.00     0.157 A 
ATOM     16  C   UNL     1      41.326  39.086  31.145  1.00  0.00     0.062 A 
ATOM     17  C   UNL     1      42.676  39.257  31.486  1.00  0.00     0.158 A 
BRANCH  15  18
ATOM     18  O   UNL     1      45.000  38.671  31.181  1.00  0.00    -0.504 OA
ATOM     19  H   UNL     1      45.326  38.537  32.132  1.00  0.00     0.293 HD
ENDBRANCH  15  18
BRANCH  17  20
ATOM     20  O   UNL     1      43.045  40.179  32.462  1.00  0.00    -0.504 OA
ATOM     21  H   UNL     1      43.990  40.219  32.826  1.00  0.00     0.293 HD
ENDBRANCH  17  20
ENDBRANCH   1  12
BRANCH   2  22
ATOM     22  O   UNL     1      39.308  36.091  31.334  1.00  0.00    -0.502 OA
ATOM     23  H   UNL     1      38.774  35.366  31.798  1.00  0.00     0.293 HD
ENDBRANCH   2  22
BRANCH   6  24
ATOM     24  O   UNL     1      34.445  37.051  29.386  1.00  0.00    -0.507 OA
ATOM     25  H   UNL     1      34.079  37.207  30.313  1.00  0.00     0.293 HD
ENDBRANCH   6  24
BRANCH   8  26
ATOM     26  O   UNL     1      35.461  40.420  26.143  1.00  0.00    -0.508 OA
ATOM     27  H   UNL     1      35.842  41.351  26.027  1.00  0.00     0.293 HD
ENDBRANCH   8  26
TORSDOF 6
ENDMDL
MODEL 2
REMARK VINA RESULT:    -5.703      5.223      7.594
REMARK INTER + INTRA:          -7.182
REMARK INTER:                  -7.202
REMARK INTRA:                   0.021
REMARK UNBOUND:                -0.312
REMARK SMILES O=c1c(O)c(-c2ccc(O)c(O)c2)oc2cc(O)cc(O)c12
REMARK SMILES IDX 5 1 3 2 2 3 1 4 22 5 20 6 19 7 17 8 16 9 15 10 14 11 6 12
REMARK SMILES IDX 7 13 8 14 9 15 13 16 11 17 10 18 12 20 4 22 21 24 18 26
REMARK H PARENT 10 19 12 21 4 23 21 25 18 27
REMARK Flexibility Score: inf
ROOT
ATOM      1  C   UNL     1      36.928  41.615  30.744  1.00  0.00     0.180 A 
ATOM      2  C   UNL     1      37.355  42.936  30.529  1.00  0.00     0.208 A 
ATOM      3  C   UNL     1      37.366  43.833  31.609  1.00  0.00     0.238 A 
ATOM      4  O   UNL     1      37.801  44.999  31.422  1.00  0.00    -0.285 OA
ATOM      5  C   UNL     1      36.934  43.402  32.886  1.00  0.00     0.111 A 
ATOM      6  C   UNL     1      36.865  44.237  34.042  1.00  0.00     0.134 A 
ATOM      7  C   UNL     1      36.548  43.672  35.283  1.00  0.00     0.093 A 
ATOM      8  C   UNL     1      36.233  42.319  35.400  1.00  0.00     0.123 A 
ATOM      9  C   UNL     1      36.239  41.506  34.266  1.00  0.00     0.094 A 
ATOM     10  C   UNL     1      36.587  42.033  33.020  1.00  0.00     0.146 A 
ATOM     11  O   UNL     1      36.591  41.224  31.968  1.00  0.00    -0.452 OA
ENDROOT
BRANCH   1  12
ATOM     12  C   UNL     1      36.865  40.618  29.651  1.00  0.00     0.025 A 
ATOM     13  C   UNL     1      37.481  39.360  29.772  1.00  0.00     0.016 A 
ATOM     14  C   UNL     1      37.429  38.443  28.718  1.00  0.00     0.051 A 
ATOM     15  C   UNL     1      36.773  38.776  27.525  1.00  0.00     0.157 A 
ATOM     16  C   UNL     1      36.227  40.953  28.445  1.00  0.00     0.062 A 
ATOM     17  C   UNL     1      36.174  40.034  27.387  1.00  0.00     0.158 A 
BRANCH  15  18
ATOM     18  O   UNL     1      36.717  37.864  26.472  1.00  0.00    -0.504 OA
ATOM     19  H   UNL     1      35.863  37.711  25.948  1.00  0.00     0.293 HD
ENDBRANCH  15  18
BRANCH  17  20
ATOM     20  O   UNL     1      35.529  40.364  26.198  1.00  0.00    -0.504 OA
ATOM     21  H   UNL     1      35.622  41.284  25.780  1.00  0.00     0.293 HD
ENDBRANCH  17  20
ENDBRANCH   1  12
BRANCH   2  22
ATOM     22  O   UNL     1      37.798  43.334  29.265  1.00  0.00    -0.502 OA
ATOM     23  H   UNL     1      37.195  43.802  28.598  1.00  0.00     0.293 HD
ENDBRANCH   2  22
BRANCH   6  24
ATOM     24  O   UNL     1      37.071  45.620  34.021  1.00  0.00    -0.507 OA
ATOM     25  H   UNL     1      36.335  46.310  34.044  1.00  0.00     0.293 HD
ENDBRANCH   6  24
BRANCH   8  26
ATOM     26  O   UNL     1      35.906  41.794  36.649  1.00  0.00    -0.508 OA
ATOM     27  H   UNL     1      35.867  40.795  36.809  1.00  0.00     0.293 HD
ENDBRANCH   8  26
TORSDOF 6
ENDMDL
MODEL 3
REMARK VINA RESULT:    -5.591      4.978      7.057
REMARK INTER + INTRA:          -7.047
REMARK INTER:                  -6.967
REMARK INTRA:                  -0.079
REMARK UNBOUND:                -0.312
REMARK SMILES O=c1c(O)c(-c2ccc(O)c(O)c2)oc2cc(O)cc(O)c12
REMARK SMILES IDX 5 1 3 2 2 3 1 4 22 5 20 6 19 7 17 8 16 9 15 10 14 11 6 12
REMARK SMILES IDX 7 13 8 14 9 15 13 16 11 17 10 18 12 20 4 22 21 24 18 26
REMARK H PARENT 10 19 12 21 4 23 21 25 18 27
REMARK Flexibility Score: inf
ROOT
ATOM      1  C   UNL     1      36.587  40.992  30.993  1.00  0.00     0.180 A 
ATOM      2  C   UNL     1      36.048  40.527  32.205  1.00  0.00     0.208 A 
ATOM      3  C   UNL     1      36.111  41.353  33.339  1.00  0.00     0.238 A 
ATOM      4  O   UNL     1      35.579  40.954  34.407  1.00  0.00    -0.285 OA
ATOM      5  C   UNL     1      36.726  42.624  33.251  1.00  0.00     0.111 A 
ATOM      6  C   UNL     1      36.882  43.527  34.346  1.00  0.00     0.134 A 
ATOM      7  C   UNL     1      37.388  44.812  34.116  1.00  0.00     0.093 A 
ATOM      8  C   UNL     1      37.806  45.204  32.844  1.00  0.00     0.123 A 
ATOM      9  C   UNL     1      37.714  44.309  31.778  1.00  0.00     0.094 A 
ATOM     10  C   UNL     1      37.179  43.032  31.970  1.00  0.00     0.146 A 
ATOM     11  O   UNL     1      37.099  42.215  30.927  1.00  0.00    -0.452 OA
ENDROOT
BRANCH   1  12
ATOM     12  C   UNL     1      36.581  40.170  29.761  1.00  0.00     0.025 A 
ATOM     13  C   UNL     1      37.132  38.877  29.742  1.00  0.00     0.016 A 
ATOM     14  C   UNL     1      37.137  38.128  28.562  1.00  0.00     0.051 A 
ATOM     15  C   UNL     1      36.604  38.665  27.383  1.00  0.00     0.157 A 
ATOM     16  C   UNL     1      36.067  40.711  28.571  1.00  0.00     0.062 A 
ATOM     17  C   UNL     1      36.071  39.960  27.386  1.00  0.00     0.158 A 
BRANCH  15  18
ATOM     18  O   UNL     1      36.606  37.921  26.204  1.00  0.00    -0.504 OA
ATOM     19  H   UNL     1      35.743  37.676  25.731  1.00  0.00     0.293 HD
ENDBRANCH  15  18
BRANCH  17  20
ATOM     20  O   UNL     1      35.549  40.495  26.211  1.00  0.00    -0.504 OA
ATOM     21  H   UNL     1      34.595  40.834  26.160  1.00  0.00     0.293 HD
ENDBRANCH  17  20
ENDBRANCH   1  12
BRANCH   2  22
ATOM     22  O   UNL     1      35.425  39.278  32.264  1.00  0.00    -0.502 OA
ATOM     23  H   UNL     1      35.494  38.599  31.516  1.00  0.00     0.293 HD
ENDBRANCH   2  22
BRANCH   6  24
ATOM     24  O   UNL     1      36.582  43.204  35.673  1.00  0.00    -0.507 OA
ATOM     25  H   UNL     1      37.265  42.942  36.369  1.00  0.00     0.293 HD
ENDBRANCH   6  24
BRANCH   8  26
ATOM     26  O   UNL     1      38.320  46.485  32.655  1.00  0.00    -0.508 OA
ATOM     27  H   UNL     1      38.375  46.902  31.733  1.00  0.00     0.293 HD
ENDBRANCH   8  26
TORSDOF 6
ENDMDL
MODEL 4
REMARK VINA RESULT:    -5.540      4.282      7.477
REMARK INTER + INTRA:          -6.985
REMARK INTER:                  -6.691
REMARK INTRA:                  -0.294
REMARK UNBOUND:                -0.312
REMARK SMILES O=c1c(O)c(-c2ccc(O)c(O)c2)oc2cc(O)cc(O)c12
REMARK SMILES IDX 5 1 3 2 2 3 1 4 22 5 20 6 19 7 17 8 16 9 15 10 14 11 6 12
REMARK SMILES IDX 7 13 8 14 9 15 13 16 11 17 10 18 12 20 4 22 21 24 18 26
REMARK H PARENT 10 19 12 21 4 23 21 25 18 27
REMARK Flexibility Score: inf
ROOT
ATOM      1  C   UNL     1      43.393  37.738  30.311  1.00  0.00     0.180 A 
ATOM      2  C   UNL     1      43.351  37.200  31.609  1.00  0.00     0.208 A 
ATOM      3  C   UNL     1      43.989  35.975  31.859  1.00  0.00     0.238 A 
ATOM      4  O   UNL     1      43.994  35.526  33.035  1.00  0.00    -0.285 OA
ATOM      5  C   UNL     1      44.647  35.296  30.806  1.00  0.00     0.111 A 
ATOM      6  C   UNL     1      45.291  34.029  30.938  1.00  0.00     0.134 A 
ATOM      7  C   UNL     1      46.023  33.511  29.862  1.00  0.00     0.093 A 
ATOM      8  C   UNL     1      46.078  34.181  28.640  1.00  0.00     0.123 A 
ATOM      9  C   UNL     1      45.402  35.391  28.482  1.00  0.00     0.094 A 
ATOM     10  C   UNL     1      44.694  35.951  29.549  1.00  0.00     0.146 A 
ATOM     11  O   UNL     1      44.073  37.108  29.360  1.00  0.00    -0.452 OA
ENDROOT
BRANCH   1  12
ATOM     12  C   UNL     1      42.723  39.012  29.962  1.00  0.00     0.025 A 
ATOM     13  C   UNL     1      41.332  39.078  29.768  1.00  0.00     0.016 A 
ATOM     14  C   UNL     1      40.723  40.286  29.417  1.00  0.00     0.051 A 
ATOM     15  C   UNL     1      41.497  41.441  29.243  1.00  0.00     0.157 A 
ATOM     16  C   UNL     1      43.495  40.169  29.766  1.00  0.00     0.062 A 
ATOM     17  C   UNL     1      42.885  41.382  29.413  1.00  0.00     0.158 A 
BRANCH  15  18
ATOM     18  O   UNL     1      40.894  42.648  28.893  1.00  0.00    -0.504 OA
ATOM     19  H   UNL     1      40.283  42.722  28.087  1.00  0.00     0.293 HD
ENDBRANCH  15  18
BRANCH  17  20
ATOM     20  O   UNL     1      43.653  42.530  29.232  1.00  0.00    -0.504 OA
ATOM     21  H   UNL     1      44.195  42.679  28.388  1.00  0.00     0.293 HD
ENDBRANCH  17  20
ENDBRANCH   1  12
BRANCH   2  22
ATOM     22  O   UNL     1      42.715  37.899  32.638  1.00  0.00    -0.502 OA
ATOM     23  H   UNL     1      41.726  37.797  32.836  1.00  0.00     0.293 HD
ENDBRANCH   2  22
BRANCH   6  24
ATOM     24  O   UNL     1      45.222  33.232  32.085  1.00  0.00    -0.507 OA
ATOM     25  H   UNL     1      45.901  33.240  32.831  1.00  0.00     0.293 HD
ENDBRANCH   6  24
BRANCH   8  26
ATOM     26  O   UNL     1      46.803  33.629  27.585  1.00  0.00    -0.508 OA
ATOM     27  H   UNL     1      47.450  34.185  27.040  1.00  0.00     0.293 HD
ENDBRANCH   8  26
TORSDOF 6
ENDMDL
MODEL 5
REMARK VINA RESULT:    -5.508      8.880     10.086
REMARK INTER + INTRA:          -6.947
REMARK INTER:                  -6.722
REMARK INTRA:                  -0.225
REMARK UNBOUND:                -0.312
REMARK SMILES O=c1c(O)c(-c2ccc(O)c(O)c2)oc2cc(O)cc(O)c12
REMARK SMILES IDX 5 1 3 2 2 3 1 4 22 5 20 6 19 7 17 8 16 9 15 10 14 11 6 12
REMARK SMILES IDX 7 13 8 14 9 15 13 16 11 17 10 18 12 20 4 22 21 24 18 26
REMARK H PARENT 10 19 12 21 4 23 21 25 18 27
REMARK Flexibility Score: inf
ROOT
ATOM      1  C   UNL     1      34.904  42.109  36.454  1.00  0.00     0.180 A 
ATOM      2  C   UNL     1      33.784  42.957  36.490  1.00  0.00     0.208 A 
ATOM      3  C   UNL     1      33.859  44.211  35.864  1.00  0.00     0.238 A 
ATOM      4  O   UNL     1      32.836  44.944  35.853  1.00  0.00    -0.285 OA
ATOM      5  C   UNL     1      35.058  44.608  35.224  1.00  0.00     0.111 A 
ATOM      6  C   UNL     1      35.259  45.872  34.593  1.00  0.00     0.134 A 
ATOM      7  C   UNL     1      36.440  46.107  33.878  1.00  0.00     0.093 A 
ATOM      8  C   UNL     1      37.453  45.150  33.826  1.00  0.00     0.123 A 
ATOM      9  C   UNL     1      37.292  43.934  34.489  1.00  0.00     0.094 A 
ATOM     10  C   UNL     1      36.109  43.656  35.181  1.00  0.00     0.146 A 
ATOM     11  O   UNL     1      35.991  42.483  35.790  1.00  0.00    -0.452 OA
ENDROOT
BRANCH   1  12
ATOM     12  C   UNL     1      34.910  40.782  37.113  1.00  0.00     0.025 A 
ATOM     13  C   UNL     1      34.155  39.710  36.604  1.00  0.00     0.016 A 
ATOM     14  C   UNL     1      34.157  38.473  37.255  1.00  0.00     0.051 A 
ATOM     15  C   UNL     1      34.901  38.295  38.428  1.00  0.00     0.157 A 
ATOM     16  C   UNL     1      35.637  40.602  38.300  1.00  0.00     0.062 A 
ATOM     17  C   UNL     1      35.640  39.361  38.955  1.00  0.00     0.158 A 
BRANCH  15  18
ATOM     18  O   UNL     1      34.907  37.062  39.080  1.00  0.00    -0.504 OA
ATOM     19  H   UNL     1      35.654  36.392  38.939  1.00  0.00     0.293 HD
ENDBRANCH  15  18
BRANCH  17  20
ATOM     20  O   UNL     1      36.373  39.183  40.125  1.00  0.00    -0.504 OA
ATOM     21  H   UNL     1      36.122  39.656  40.986  1.00  0.00     0.293 HD
ENDBRANCH  17  20
ENDBRANCH   1  12
BRANCH   2  22
ATOM     22  O   UNL     1      32.603  42.537  37.108  1.00  0.00    -0.502 OA
ATOM     23  H   UNL     1      32.299  42.897  38.004  1.00  0.00     0.293 HD
ENDBRANCH   2  22
BRANCH   6  24
ATOM     24  O   UNL     1      34.351  46.933  34.660  1.00  0.00    -0.507 OA
ATOM     25  H   UNL     1      34.344  47.639  35.381  1.00  0.00     0.293 HD
ENDBRANCH   6  24
BRANCH   8  26
ATOM     26  O   UNL     1      38.622  45.424  33.118  1.00  0.00    -0.508 OA
ATOM     27  H   UNL     1      39.492  45.631  33.593  1.00  0.00     0.293 HD
ENDBRANCH   8  26
TORSDOF 6
ENDMDL
MODEL 6
REMARK VINA RESULT:    -5.466      1.852      2.013
REMARK INTER + INTRA:          -6.896
REMARK INTER:                  -6.613
REMARK INTRA:                  -0.282
REMARK UNBOUND:                -0.312
REMARK SMILES O=c1c(O)c(-c2ccc(O)c(O)c2)oc2cc(O)cc(O)c12
REMARK SMILES IDX 5 1 3 2 2 3 1 4 22 5 20 6 19 7 17 8 16 9 15 10 14 11 6 12
REMARK SMILES IDX 7 13 8 14 9 15 13 16 11 17 10 18 12 20 4 22 21 24 18 26
REMARK H PARENT 10 19 12 21 4 23 21 25 18 27
REMARK Flexibility Score: inf
ROOT
ATOM      1  C   UNL     1      38.713  38.805  29.317  1.00  0.00     0.180 A 
ATOM      2  C   UNL     1      38.464  37.508  28.837  1.00  0.00     0.208 A 
ATOM      3  C   UNL     1      37.151  37.150  28.491  1.00  0.00     0.238 A 
ATOM      4  O   UNL     1      36.943  36.006  28.011  1.00  0.00    -0.285 OA
ATOM      5  C   UNL     1      36.102  38.088  28.646  1.00  0.00     0.111 A 
ATOM      6  C   UNL     1      34.728  37.820  28.366  1.00  0.00     0.134 A 
ATOM      7  C   UNL     1      33.794  38.862  28.431  1.00  0.00     0.093 A 
ATOM      8  C   UNL     1      34.172  40.143  28.830  1.00  0.00     0.123 A 
ATOM      9  C   UNL     1      35.501  40.402  29.163  1.00  0.00     0.094 A 
ATOM     10  C   UNL     1      36.463  39.392  29.073  1.00  0.00     0.146 A 
ATOM     11  O   UNL     1      37.719  39.681  29.390  1.00  0.00    -0.452 OA
ENDROOT
BRANCH   1  12
ATOM     12  C   UNL     1      40.066  39.248  29.725  1.00  0.00     0.025 A 
ATOM     13  C   UNL     1      40.867  40.031  28.875  1.00  0.00     0.016 A 
ATOM     14  C   UNL     1      42.150  40.418  29.271  1.00  0.00     0.051 A 
ATOM     15  C   UNL     1      42.655  40.019  30.515  1.00  0.00     0.157 A 
ATOM     16  C   UNL     1      40.587  38.833  30.962  1.00  0.00     0.062 A 
ATOM     17  C   UNL     1      41.874  39.222  31.361  1.00  0.00     0.158 A 
BRANCH  15  18
ATOM     18  O   UNL     1      43.934  40.403  30.914  1.00  0.00    -0.504 OA
ATOM     19  H   UNL     1      44.691  39.733  30.984  1.00  0.00     0.293 HD
ENDBRANCH  15  18
BRANCH  17  20
ATOM     20  O   UNL     1      42.382  38.820  32.594  1.00  0.00    -0.504 OA
ATOM     21  H   UNL     1      41.881  38.168  33.188  1.00  0.00     0.293 HD
ENDBRANCH  17  20
ENDBRANCH   1  12
BRANCH   2  22
ATOM     22  O   UNL     1      39.518  36.605  28.670  1.00  0.00    -0.502 OA
ATOM     23  H   UNL     1      39.759  35.914  29.371  1.00  0.00     0.293 HD
ENDBRANCH   2  22
BRANCH   6  24
ATOM     24  O   UNL     1      34.228  36.554  28.049  1.00  0.00    -0.507 OA
ATOM     25  H   UNL     1      33.807  35.920  28.712  1.00  0.00     0.293 HD
ENDBRANCH   6  24
BRANCH   8  26
ATOM     26  O   UNL     1      33.213  41.152  28.898  1.00  0.00    -0.508 OA
ATOM     27  H   UNL     1      33.137  41.756  29.708  1.00  0.00     0.293 HD
ENDBRANCH   8  26
TORSDOF 6
ENDMDL
MODEL 7
REMARK VINA RESULT:    -5.461      3.621      5.832
REMARK INTER + INTRA:          -6.889
REMARK INTER:                  -6.567
REMARK INTRA:                  -0.323
REMARK UNBOUND:                -0.312
REMARK SMILES O=c1c(O)c(-c2ccc(O)c(O)c2)oc2cc(O)cc(O)c12
REMARK SMILES IDX 5 1 3 2 2 3 1 4 22 5 20 6 19 7 17 8 16 9 15 10 14 11 6 12
REMARK SMILES IDX 7 13 8 14 9 15 13 16 11 17 10 18 12 20 4 22 21 24 18 26
REMARK H PARENT 10 19 12 21 4 23 21 25 18 27
REMARK Flexibility Score: inf
ROOT
ATOM      1  C   UNL     1      35.895  37.409  28.570  1.00  0.00     0.180 A 
ATOM      2  C   UNL     1      35.830  36.921  27.253  1.00  0.00     0.208 A 
ATOM      3  C   UNL     1      35.224  35.677  27.017  1.00  0.00     0.238 A 
ATOM      4  O   UNL     1      35.121  35.271  25.831  1.00  0.00    -0.285 OA
ATOM      5  C   UNL     1      34.705  34.930  28.102  1.00  0.00     0.111 A 
ATOM      6  C   UNL     1      34.106  33.640  27.983  1.00  0.00     0.134 A 
ATOM      7  C   UNL     1      33.509  33.050  29.104  1.00  0.00     0.093 A 
ATOM      8  C   UNL     1      33.547  33.672  30.351  1.00  0.00     0.123 A 
ATOM      9  C   UNL     1      34.182  34.906  30.491  1.00  0.00     0.094 A 
ATOM     10  C   UNL     1      34.755  35.537  29.383  1.00  0.00     0.146 A 
ATOM     11  O   UNL     1      35.341  36.715  29.557  1.00  0.00    -0.452 OA
ENDROOT
BRANCH   1  12
ATOM     12  C   UNL     1      36.541  38.701  28.901  1.00  0.00     0.025 A 
ATOM     13  C   UNL     1      37.932  38.798  29.079  1.00  0.00     0.016 A 
ATOM     14  C   UNL     1      38.517  40.022  29.415  1.00  0.00     0.051 A 
ATOM     15  C   UNL     1      37.720  41.161  29.590  1.00  0.00     0.157 A 
ATOM     16  C   UNL     1      35.745  39.841  29.099  1.00  0.00     0.062 A 
ATOM     17  C   UNL     1      36.332  41.070  29.436  1.00  0.00     0.158 A 
BRANCH  15  18
ATOM     18  O   UNL     1      38.300  42.384  29.924  1.00  0.00    -0.504 OA
ATOM     19  H   UNL     1      38.098  42.842  30.806  1.00  0.00     0.293 HD
ENDBRANCH  15  18
BRANCH  17  20
ATOM     20  O   UNL     1      35.541  42.202  29.618  1.00  0.00    -0.504 OA
ATOM     21  H   UNL     1      35.119  42.688  28.834  1.00  0.00     0.293 HD
ENDBRANCH  17  20
ENDBRANCH   1  12
BRANCH   2  22
ATOM     22  O   UNL     1      36.329  37.686  26.195  1.00  0.00    -0.502 OA
ATOM     23  H   UNL     1      35.730  38.091  25.486  1.00  0.00     0.293 HD
ENDBRANCH   2  22
BRANCH   6  24
ATOM     24  O   UNL     1      34.095  32.889  26.804  1.00  0.00    -0.507 OA
ATOM     25  H   UNL     1      34.894  32.750  26.204  1.00  0.00     0.293 HD
ENDBRANCH   6  24
BRANCH   8  26
ATOM     26  O   UNL     1      32.956  33.049  31.449  1.00  0.00    -0.508 OA
ATOM     27  H   UNL     1      33.504  32.513  32.111  1.00  0.00     0.293 HD
ENDBRANCH   8  26
TORSDOF 6
ENDMDL
MODEL 8
REMARK VINA RESULT:    -5.359      5.318      6.997
REMARK INTER + INTRA:          -6.767
REMARK INTER:                  -6.436
REMARK INTRA:                  -0.331
REMARK UNBOUND:                -0.312
REMARK SMILES O=c1c(O)c(-c2ccc(O)c(O)c2)oc2cc(O)cc(O)c12
REMARK SMILES IDX 5 1 3 2 2 3 1 4 22 5 20 6 19 7 17 8 16 9 15 10 14 11 6 12
REMARK SMILES IDX 7 13 8 14 9 15 13 16 11 17 10 18 12 20 4 22 21 24 18 26
REMARK H PARENT 10 19 12 21 4 23 21 25 18 27
REMARK Flexibility Score: inf
ROOT
ATOM      1  C   UNL     1      42.539  41.545  28.196  1.00  0.00     0.180 A 
ATOM      2  C   UNL     1      42.283  42.919  28.342  1.00  0.00     0.208 A 
ATOM      3  C   UNL     1      42.282  43.736  27.201  1.00  0.00     0.238 A 
ATOM      4  O   UNL     1      41.999  44.956  27.332  1.00  0.00    -0.285 OA
ATOM      5  C   UNL     1      42.552  43.173  25.931  1.00  0.00     0.111 A 
ATOM      6  C   UNL     1      42.616  43.915  24.713  1.00  0.00     0.134 A 
ATOM      7  C   UNL     1      42.761  43.235  23.497  1.00  0.00     0.093 A 
ATOM      8  C   UNL     1      42.911  41.849  23.461  1.00  0.00     0.123 A 
ATOM      9  C   UNL     1      42.909  41.120  24.650  1.00  0.00     0.094 A 
ATOM     10  C   UNL     1      42.730  41.767  25.876  1.00  0.00     0.146 A 
ATOM     11  O   UNL     1      42.724  41.036  26.983  1.00  0.00    -0.452 OA
ENDROOT
BRANCH   1  12
ATOM     12  C   UNL     1      42.582  40.623  29.354  1.00  0.00     0.025 A 
ATOM     13  C   UNL     1      43.761  40.438  30.098  1.00  0.00     0.016 A 
ATOM     14  C   UNL     1      43.785  39.545  31.173  1.00  0.00     0.051 A 
ATOM     15  C   UNL     1      42.638  38.816  31.511  1.00  0.00     0.157 A 
ATOM     16  C   UNL     1      41.441  39.873  29.685  1.00  0.00     0.062 A 
ATOM     17  C   UNL     1      41.465  38.977  30.764  1.00  0.00     0.158 A 
BRANCH  15  18
ATOM     18  O   UNL     1      42.657  37.925  32.583  1.00  0.00    -0.504 OA
ATOM     19  H   UNL     1      42.017  37.140  32.631  1.00  0.00     0.293 HD
ENDBRANCH  15  18
BRANCH  17  20
ATOM     20  O   UNL     1      40.327  38.246  31.097  1.00  0.00    -0.504 OA
ATOM     21  H   UNL     1      39.396  38.631  30.985  1.00  0.00     0.293 HD
ENDBRANCH  17  20
ENDBRANCH   1  12
BRANCH   2  22
ATOM     22  O   UNL     1      41.997  43.450  29.603  1.00  0.00    -0.502 OA
ATOM     23  H   UNL     1      42.620  43.341  30.394  1.00  0.00     0.293 HD
ENDBRANCH   2  22
BRANCH   6  24
ATOM     24  O   UNL     1      42.571  45.310  24.645  1.00  0.00    -0.507 OA
ATOM     25  H   UNL     1      43.158  45.876  24.050  1.00  0.00     0.293 HD
ENDBRANCH   6  24
BRANCH   8  26
ATOM     26  O   UNL     1      43.069  41.207  22.234  1.00  0.00    -0.508 OA
ATOM     27  H   UNL     1      42.276  41.003  21.637  1.00  0.00     0.293 HD
ENDBRANCH   8  26
TORSDOF 6
ENDMDL
MODEL 9
REMARK VINA RESULT:    -5.306      2.046      7.091
REMARK INTER + INTRA:          -6.703
REMARK INTER:                  -6.412
REMARK INTRA:                  -0.291
REMARK UNBOUND:                -0.312
REMARK SMILES O=c1c(O)c(-c2ccc(O)c(O)c2)oc2cc(O)cc(O)c12
REMARK SMILES IDX 5 1 3 2 2 3 1 4 22 5 20 6 19 7 17 8 16 9 15 10 14 11 6 12
REMARK SMILES IDX 7 13 8 14 9 15 13 16 11 17 10 18 12 20 4 22 21 24 18 26
REMARK H PARENT 10 19 12 21 4 23 21 25 18 27
REMARK Flexibility Score: inf
ROOT
ATOM      1  C   UNL     1      40.440  39.270  29.695  1.00  0.00     0.180 A 
ATOM      2  C   UNL     1      40.750  38.105  30.418  1.00  0.00     0.208 A 
ATOM      3  C   UNL     1      42.088  37.854  30.762  1.00  0.00     0.238 A 
ATOM      4  O   UNL     1      42.353  36.837  31.455  1.00  0.00    -0.285 OA
ATOM      5  C   UNL     1      43.099  38.761  30.365  1.00  0.00     0.111 A 
ATOM      6  C   UNL     1      44.492  38.586  30.624  1.00  0.00     0.134 A 
ATOM      7  C   UNL     1      45.389  39.611  30.300  1.00  0.00     0.093 A 
ATOM      8  C   UNL     1      44.955  40.775  29.668  1.00  0.00     0.123 A 
ATOM      9  C   UNL     1      43.604  40.931  29.356  1.00  0.00     0.094 A 
ATOM     10  C   UNL     1      42.679  39.942  29.700  1.00  0.00     0.146 A 
ATOM     11  O   UNL     1      41.402  40.134  29.395  1.00  0.00    -0.452 OA
ENDROOT
BRANCH   1  12
ATOM     12  C   UNL     1      39.056  39.591  29.274  1.00  0.00     0.025 A 
ATOM     13  C   UNL     1      38.261  40.494  30.003  1.00  0.00     0.016 A 
ATOM     14  C   UNL     1      36.951  40.764  29.601  1.00  0.00     0.051 A 
ATOM     15  C   UNL     1      36.412  40.128  28.475  1.00  0.00     0.157 A 
ATOM     16  C   UNL     1      38.504  38.941  28.159  1.00  0.00     0.062 A 
ATOM     17  C   UNL     1      37.188  39.212  27.754  1.00  0.00     0.158 A 
BRANCH  15  18
ATOM     18  O   UNL     1      35.105  40.396  28.070  1.00  0.00    -0.504 OA
ATOM     19  H   UNL     1      34.330  40.358  28.722  1.00  0.00     0.293 HD
ENDBRANCH  15  18
BRANCH  17  20
ATOM     20  O   UNL     1      36.648  38.576  26.640  1.00  0.00    -0.504 OA
ATOM     21  H   UNL     1      35.840  37.968  26.714  1.00  0.00     0.293 HD
ENDBRANCH  17  20
ENDBRANCH   1  12
BRANCH   2  22
ATOM     22  O   UNL     1      39.734  37.234  30.818  1.00  0.00    -0.502 OA
ATOM     23  H   UNL     1      39.428  37.160  31.781  1.00  0.00     0.293 HD
ENDBRANCH   2  22
BRANCH   6  24
ATOM     24  O   UNL     1      45.045  37.422  31.168  1.00  0.00    -0.507 OA
ATOM     25  H   UNL     1      45.180  37.257  32.154  1.00  0.00     0.293 HD
ENDBRANCH   6  24
BRANCH   8  26
ATOM     26  O   UNL     1      45.878  41.768  29.346  1.00  0.00    -0.508 OA
ATOM     27  H   UNL     1      45.583  42.673  28.998  1.00  0.00     0.293 HD
ENDBRANCH   8  26
TORSDOF 6
ENDMDL
