MODEL 1
REMARK VINA RESULT:    -1.948      0.000      0.000
REMARK INTER + INTRA:          -6.055
REMARK INTER:                  -3.770
REMARK INTRA:                  -2.285
REMARK UNBOUND:                -2.285
REMARK SMILES CCCCCCCCCCCCCCCCCC(=O)[O-]
REMARK SMILES IDX 10 1 11 2 12 3 13 4 14 5 15 6 16 7 17 8 18 9 19 10 20 11
REMARK SMILES IDX 9 12 8 13 7 14 6 15 5 16 4 17 3 18 2 19 1 20
REMARK H PARENT
REMARK Flexibility Score: inf
ROOT
ATOM      1  C   UNL     1      15.258 -18.123  15.531  1.00  0.00     0.000 C 
ENDROOT
BRANCH   1   2
ATOM      2  C   UNL     1      15.147 -16.859  16.397  1.00  0.00     0.000 C 
BRANCH   2   3
ATOM      3  C   UNL     1      16.470 -16.579  17.125  1.00  0.00     0.000 C 
BRANCH   3   4
ATOM      4  C   UNL     1      17.420 -17.789  17.125  1.00  0.00     0.000 C 
BRANCH   4   5
ATOM      5  C   UNL     1      18.917 -17.441  17.011  1.00  0.00     0.000 C 
BRANCH   5   6
ATOM      6  C   UNL     1      19.190 -15.971  16.625  1.00  0.00     0.000 C 
BRANCH   6   7
ATOM      7  C   UNL     1      20.655 -15.733  16.230  1.00  0.00     0.006 C 
BRANCH   7   8
ATOM      8  C   UNL     1      21.201 -16.905  15.409  1.00  0.00     0.053 C 
BRANCH   8   9
ATOM      9  C   UNL     1      22.209 -16.423  14.415  1.00  0.00     0.041 C 
ATOM     10  O   UNL     1      22.908 -15.405  14.661  1.00  0.00    -0.550 OA
ATOM     11  O   UNL     1      22.413 -17.128  13.235  1.00  0.00    -0.550 OA
ENDBRANCH   8   9
ENDBRANCH   7   8
ENDBRANCH   6   7
ENDBRANCH   5   6
ENDBRANCH   4   5
ENDBRANCH   3   4
ENDBRANCH   2   3
ENDBRANCH   1   2
BRANCH   1  12
ATOM     12  C   UNL     1      14.555 -17.977  14.172  1.00  0.00     0.000 C 
BRANCH  12  13
ATOM     13  C   UNL     1      15.544 -17.961  12.995  1.00  0.00    -0.000 C 
BRANCH  13  14
ATOM     14  C   UNL     1      17.011 -17.976  13.455  1.00  0.00    -0.000 C 
BRANCH  14  15
ATOM     15  C   UNL     1      17.617 -16.567  13.551  1.00  0.00    -0.000 C 
BRANCH  15  16
ATOM     16  C   UNL     1      18.865 -16.443  12.662  1.00  0.00    -0.000 C 
BRANCH  16  17
ATOM     17  C   UNL     1      19.101 -17.706  11.807  1.00  0.00    -0.000 C 
BRANCH  17  18
ATOM     18  C   UNL     1      18.896 -17.477  10.300  1.00  0.00    -0.000 C 
BRANCH  18  19
ATOM     19  C   UNL     1      18.651 -16.004   9.947  1.00  0.00    -0.003 C 
ATOM     20  C   UNL     1      17.670 -15.872   8.786  1.00  0.00     0.004 C 
ENDBRANCH  18  19
ENDBRANCH  17  18
ENDBRANCH  16  17
ENDBRANCH  15  16
ENDBRANCH  14  15
ENDBRANCH  13  14
ENDBRANCH  12  13
ENDBRANCH   1  12
TORSDOF 16
ENDMDL
MODEL 2
REMARK VINA RESULT:    -1.666      2.319      5.820
REMARK INTER + INTRA:          -5.509
REMARK INTER:                  -4.236
REMARK INTRA:                  -1.272
REMARK UNBOUND:                -2.285
REMARK SMILES CCCCCCCCCCCCCCCCCC(=O)[O-]
REMARK SMILES IDX 10 1 11 2 12 3 13 4 14 5 15 6 16 7 17 8 18 9 19 10 20 11
REMARK SMILES IDX 9 12 8 13 7 14 6 15 5 16 4 17 3 18 2 19 1 20
REMARK H PARENT
REMARK Flexibility Score: inf
ROOT
ATOM      1  C   UNL     1      16.125 -17.777  12.345  1.00  0.00     0.000 C 
ENDROOT
BRANCH   1   2
ATOM      2  C   UNL     1      17.397 -18.124  11.557  1.00  0.00     0.000 C 
BRANCH   2   3
ATOM      3  C   UNL     1      17.506 -17.261  10.291  1.00  0.00     0.000 C 
BRANCH   3   4
ATOM      4  C   UNL     1      18.871 -16.564  10.160  1.00  0.00     0.000 C 
BRANCH   4   5
ATOM      5  C   UNL     1      20.029 -17.256  10.904  1.00  0.00     0.000 C 
BRANCH   5   6
ATOM      6  C   UNL     1      20.523 -16.486  12.147  1.00  0.00     0.000 C 
BRANCH   6   7
ATOM      7  C   UNL     1      20.325 -17.284  13.445  1.00  0.00     0.006 C 
BRANCH   7   8
ATOM      8  C   UNL     1      19.874 -16.371  14.588  1.00  0.00     0.053 C 
BRANCH   8   9
ATOM      9  C   UNL     1      20.527 -16.777  15.871  1.00  0.00     0.041 C 
ATOM     10  O   UNL     1      20.884 -15.906  16.706  1.00  0.00    -0.550 OA
ATOM     11  O   UNL     1      20.698 -18.125  16.168  1.00  0.00    -0.550 OA
ENDBRANCH   8   9
ENDBRANCH   7   8
ENDBRANCH   6   7
ENDBRANCH   5   6
ENDBRANCH   4   5
ENDBRANCH   3   4
ENDBRANCH   2   3
ENDBRANCH   1   2
BRANCH   1  12
ATOM     12  C   UNL     1      16.420 -17.014  13.646  1.00  0.00     0.000 C 
BRANCH  12  13
ATOM     13  C   UNL     1      16.405 -17.927  14.883  1.00  0.00    -0.000 C 
BRANCH  13  14
ATOM     14  C   UNL     1      16.697 -17.164  16.185  1.00  0.00    -0.000 C 
BRANCH  14  15
ATOM     15  C   UNL     1      15.429 -16.885  17.006  1.00  0.00    -0.000 C 
BRANCH  15  16
ATOM     16  C   UNL     1      14.523 -18.125  17.057  1.00  0.00    -0.000 C 
BRANCH  16  17
ATOM     17  C   UNL     1      13.349 -18.032  16.059  1.00  0.00    -0.000 C 
BRANCH  17  18
ATOM     18  C   UNL     1      11.965 -18.063  16.730  1.00  0.00    -0.000 C 
BRANCH  18  19
ATOM     19  C   UNL     1      10.818 -17.789  15.749  1.00  0.00    -0.003 C 
ATOM     20  C   UNL     1       9.735 -16.931  16.394  1.00  0.00     0.004 C 
ENDBRANCH  18  19
ENDBRANCH  17  18
ENDBRANCH  16  17
ENDBRANCH  15  16
ENDBRANCH  14  15
ENDBRANCH  13  14
ENDBRANCH  12  13
ENDBRANCH   1  12
TORSDOF 16
ENDMDL
MODEL 3
REMARK VINA RESULT:    -1.583      2.123      5.778
REMARK INTER + INTRA:          -5.349
REMARK INTER:                  -4.169
REMARK INTRA:                  -1.181
REMARK UNBOUND:                -2.285
REMARK SMILES CCCCCCCCCCCCCCCCCC(=O)[O-]
REMARK SMILES IDX 10 1 11 2 12 3 13 4 14 5 15 6 16 7 17 8 18 9 19 10 20 11
REMARK SMILES IDX 9 12 8 13 7 14 6 15 5 16 4 17 3 18 2 19 1 20
REMARK H PARENT
REMARK Flexibility Score: inf
ROOT
ATOM      1  C   UNL     1      18.340 -17.025  14.550  1.00  0.00     0.000 C 
ENDROOT
BRANCH   1   2
ATOM      2  C   UNL     1      17.555 -18.120  13.813  1.00  0.00     0.000 C 
BRANCH   2   3
ATOM      3  C   UNL     1      17.001 -17.592  12.482  1.00  0.00     0.000 C 
BRANCH   3   4
ATOM      4  C   UNL     1      17.873 -17.981  11.276  1.00  0.00     0.000 C 
BRANCH   4   5
ATOM      5  C   UNL     1      19.232 -17.258  11.196  1.00  0.00     0.000 C 
BRANCH   5   6
ATOM      6  C   UNL     1      20.419 -18.100  11.709  1.00  0.00     0.000 C 
BRANCH   6   7
ATOM      7  C   UNL     1      21.776 -17.507  11.299  1.00  0.00     0.006 C 
BRANCH   7   8
ATOM      8  C   UNL     1      22.754 -17.504  12.476  1.00  0.00     0.053 C 
BRANCH   8   9
ATOM      9  C   UNL     1      22.117 -16.893  13.684  1.00  0.00     0.041 C 
ATOM     10  O   UNL     1      22.191 -17.469  14.801  1.00  0.00    -0.550 OA
ATOM     11  O   UNL     1      21.483 -15.660  13.586  1.00  0.00    -0.550 OA
ENDBRANCH   8   9
ENDBRANCH   7   8
ENDBRANCH   6   7
ENDBRANCH   5   6
ENDBRANCH   4   5
ENDBRANCH   3   4
ENDBRANCH   2   3
ENDBRANCH   1   2
BRANCH   1  12
ATOM     12  C   UNL     1      18.804 -17.464  15.948  1.00  0.00     0.000 C 
BRANCH  12  13
ATOM     13  C   UNL     1      17.648 -17.521  16.962  1.00  0.00    -0.000 C 
BRANCH  13  14
ATOM     14  C   UNL     1      16.547 -16.491  16.661  1.00  0.00    -0.000 C 
BRANCH  14  15
ATOM     15  C   UNL     1      15.148 -16.986  17.056  1.00  0.00    -0.000 C 
BRANCH  15  16
ATOM     16  C   UNL     1      14.677 -18.109  16.118  1.00  0.00    -0.000 C 
BRANCH  16  17
ATOM     17  C   UNL     1      13.219 -17.909  15.653  1.00  0.00    -0.000 C 
BRANCH  17  18
ATOM     18  C   UNL     1      12.270 -17.459  16.777  1.00  0.00    -0.000 C 
BRANCH  18  19
ATOM     19  C   UNL     1      10.840 -17.986  16.600  1.00  0.00    -0.003 C 
ATOM     20  C   UNL     1       9.838 -16.840  16.510  1.00  0.00     0.004 C 
ENDBRANCH  18  19
ENDBRANCH  17  18
ENDBRANCH  16  17
ENDBRANCH  15  16
ENDBRANCH  14  15
ENDBRANCH  13  14
ENDBRANCH  12  13
ENDBRANCH   1  12
TORSDOF 16
ENDMDL
MODEL 4
REMARK VINA RESULT:    -1.529      2.399      5.202
REMARK INTER + INTRA:          -5.245
REMARK INTER:                  -4.319
REMARK INTRA:                  -0.926
REMARK UNBOUND:                -2.285
REMARK SMILES CCCCCCCCCCCCCCCCCC(=O)[O-]
REMARK SMILES IDX 10 1 11 2 12 3 13 4 14 5 15 6 16 7 17 8 18 9 19 10 20 11
REMARK SMILES IDX 9 12 8 13 7 14 6 15 5 16 4 17 3 18 2 19 1 20
REMARK H PARENT
REMARK Flexibility Score: inf
ROOT
ATOM      1  C   UNL     1      21.661 -18.042  12.977  1.00  0.00     0.000 C 
ENDROOT
BRANCH   1   2
ATOM      2  C   UNL     1      22.099 -17.252  14.219  1.00  0.00     0.000 C 
BRANCH   2   3
ATOM      3  C   UNL     1      22.416 -15.794  13.855  1.00  0.00     0.000 C 
BRANCH   3   4
ATOM      4  C   UNL     1      22.833 -14.952  15.073  1.00  0.00     0.000 C 
BRANCH   4   5
ATOM      5  C   UNL     1      22.831 -15.707  16.417  1.00  0.00     0.000 C 
BRANCH   5   6
ATOM      6  C   UNL     1      21.459 -15.722  17.123  1.00  0.00     0.000 C 
BRANCH   6   7
ATOM      7  C   UNL     1      20.353 -16.314  16.236  1.00  0.00     0.006 C 
BRANCH   7   8
ATOM      8  C   UNL     1      19.087 -15.454  16.290  1.00  0.00     0.053 C 
BRANCH   8   9
ATOM      9  C   UNL     1      17.907 -16.285  16.681  1.00  0.00     0.041 C 
ATOM     10  O   UNL     1      18.041 -17.517  16.899  1.00  0.00    -0.550 OA
ATOM     11  O   UNL     1      16.663 -15.687  16.854  1.00  0.00    -0.550 OA
ENDBRANCH   8   9
ENDBRANCH   7   8
ENDBRANCH   6   7
ENDBRANCH   5   6
ENDBRANCH   4   5
ENDBRANCH   3   4
ENDBRANCH   2   3
ENDBRANCH   1   2
BRANCH   1  12
ATOM     12  C   UNL     1      22.388 -17.594  11.699  1.00  0.00     0.000 C 
BRANCH  12  13
ATOM     13  C   UNL     1      21.432 -17.413  10.508  1.00  0.00    -0.000 C 
BRANCH  13  14
ATOM     14  C   UNL     1      20.085 -18.124  10.718  1.00  0.00    -0.000 C 
BRANCH  14  15
ATOM     15  C   UNL     1      18.897 -17.151  10.747  1.00  0.00    -0.000 C 
BRANCH  15  16
ATOM     16  C   UNL     1      19.049 -16.131  11.887  1.00  0.00    -0.000 C 
BRANCH  16  17
ATOM     17  C   UNL     1      17.968 -16.306  12.975  1.00  0.00    -0.000 C 
BRANCH  17  18
ATOM     18  C   UNL     1      17.418 -17.739  13.073  1.00  0.00    -0.000 C 
BRANCH  18  19
ATOM     19  C   UNL     1      15.886 -17.788  13.143  1.00  0.00    -0.003 C 
ATOM     20  C   UNL     1      15.411 -18.120  14.554  1.00  0.00     0.004 C 
ENDBRANCH  18  19
ENDBRANCH  17  18
ENDBRANCH  16  17
ENDBRANCH  15  16
ENDBRANCH  14  15
ENDBRANCH  13  14
ENDBRANCH  12  13
ENDBRANCH   1  12
TORSDOF 16
ENDMDL
MODEL 5
REMARK VINA RESULT:    -1.028      1.643      2.877
REMARK INTER + INTRA:          -4.275
REMARK INTER:                  -2.543
REMARK INTRA:                  -1.731
REMARK UNBOUND:                -2.285
REMARK SMILES CCCCCCCCCCCCCCCCCC(=O)[O-]
REMARK SMILES IDX 10 1 11 2 12 3 13 4 14 5 15 6 16 7 17 8 18 9 19 10 20 11
REMARK SMILES IDX 9 12 8 13 7 14 6 15 5 16 4 17 3 18 2 19 1 20
REMARK H PARENT
REMARK Flexibility Score: inf
ROOT
ATOM      1  C   UNL     1      16.794 -18.125  12.956  1.00  0.00     0.000 C 
ENDROOT
BRANCH   1   2
ATOM      2  C   UNL     1      17.437 -17.170  13.972  1.00  0.00     0.000 C 
BRANCH   2   3
ATOM      3  C   UNL     1      17.299 -17.717  15.400  1.00  0.00     0.000 C 
BRANCH   3   4
ATOM      4  C   UNL     1      17.629 -16.669  16.476  1.00  0.00     0.000 C 
BRANCH   4   5
ATOM      5  C   UNL     1      19.020 -16.818  17.124  1.00  0.00     0.000 C 
BRANCH   5   6
ATOM      6  C   UNL     1      20.019 -17.636  16.279  1.00  0.00     0.000 C 
BRANCH   6   7
ATOM      7  C   UNL     1      21.447 -17.077  16.359  1.00  0.00     0.006 C 
BRANCH   7   8
ATOM      8  C   UNL     1      21.441 -15.546  16.322  1.00  0.00     0.053 C 
BRANCH   8   9
ATOM      9  C   UNL     1      21.363 -15.057  14.910  1.00  0.00     0.041 C 
ATOM     10  O   UNL     1      22.411 -14.744  14.288  1.00  0.00    -0.550 OA
ATOM     11  O   UNL     1      20.134 -14.995  14.264  1.00  0.00    -0.550 OA
ENDBRANCH   8   9
ENDBRANCH   7   8
ENDBRANCH   6   7
ENDBRANCH   5   6
ENDBRANCH   4   5
ENDBRANCH   3   4
ENDBRANCH   2   3
ENDBRANCH   1   2
BRANCH   1  12
ATOM     12  C   UNL     1      15.652 -17.469  12.163  1.00  0.00     0.000 C 
BRANCH  12  13
ATOM     13  C   UNL     1      15.963 -17.361  10.661  1.00  0.00    -0.000 C 
BRANCH  13  14
ATOM     14  C   UNL     1      17.262 -18.087  10.272  1.00  0.00    -0.000 C 
BRANCH  14  15
ATOM     15  C   UNL     1      18.300 -17.149   9.639  1.00  0.00    -0.000 C 
BRANCH  15  16
ATOM     16  C   UNL     1      19.714 -17.467  10.152  1.00  0.00    -0.000 C 
BRANCH  16  17
ATOM     17  C   UNL     1      19.906 -17.057  11.628  1.00  0.00    -0.000 C 
BRANCH  17  18
ATOM     18  C   UNL     1      20.772 -18.041  12.433  1.00  0.00    -0.000 C 
BRANCH  18  19
ATOM     19  C   UNL     1      22.229 -17.582  12.570  1.00  0.00    -0.003 C 
ATOM     20  C   UNL     1      22.974 -17.715  11.245  1.00  0.00     0.004 C 
ENDBRANCH  18  19
ENDBRANCH  17  18
ENDBRANCH  16  17
ENDBRANCH  15  16
ENDBRANCH  14  15
ENDBRANCH  13  14
ENDBRANCH  12  13
ENDBRANCH   1  12
TORSDOF 16
ENDMDL
MODEL 6
REMARK VINA RESULT:    -0.958      2.677      5.345
REMARK INTER + INTRA:          -4.138
REMARK INTER:                  -3.146
REMARK INTRA:                  -0.992
REMARK UNBOUND:                -2.285
REMARK SMILES CCCCCCCCCCCCCCCCCC(=O)[O-]
REMARK SMILES IDX 10 1 11 2 12 3 13 4 14 5 15 6 16 7 17 8 18 9 19 10 20 11
REMARK SMILES IDX 9 12 8 13 7 14 6 15 5 16 4 17 3 18 2 19 1 20
REMARK H PARENT
REMARK Flexibility Score: inf
ROOT
ATOM      1  C   UNL     1      17.170 -17.203  10.556  1.00  0.00     0.000 C 
ENDROOT
BRANCH   1   2
ATOM      2  C   UNL     1      16.292 -18.072  11.468  1.00  0.00     0.000 C 
BRANCH   2   3
ATOM      3  C   UNL     1      15.749 -17.252  12.647  1.00  0.00     0.000 C 
BRANCH   3   4
ATOM      4  C   UNL     1      16.587 -17.419  13.926  1.00  0.00     0.000 C 
BRANCH   4   5
ATOM      5  C   UNL     1      17.958 -18.093  13.722  1.00  0.00     0.000 C 
BRANCH   5   6
ATOM      6  C   UNL     1      19.005 -17.715  14.791  1.00  0.00     0.000 C 
BRANCH   6   7
ATOM      7  C   UNL     1      18.569 -18.124  16.206  1.00  0.00     0.006 C 
BRANCH   7   8
ATOM      8  C   UNL     1      18.331 -16.894  17.085  1.00  0.00     0.053 C 
BRANCH   8   9
ATOM      9  C   UNL     1      16.917 -16.425  16.958  1.00  0.00     0.041 C 
ATOM     10  O   UNL     1      16.666 -15.205  16.776  1.00  0.00    -0.550 OA
ATOM     11  O   UNL     1      15.875 -17.344  16.990  1.00  0.00    -0.550 OA
ENDBRANCH   8   9
ENDBRANCH   7   8
ENDBRANCH   6   7
ENDBRANCH   5   6
ENDBRANCH   4   5
ENDBRANCH   3   4
ENDBRANCH   2   3
ENDBRANCH   1   2
BRANCH   1  12
ATOM     12  C   UNL     1      18.579 -17.782  10.357  1.00  0.00     0.000 C 
BRANCH  12  13
ATOM     13  C   UNL     1      19.644 -17.041  11.184  1.00  0.00    -0.000 C 
BRANCH  13  14
ATOM     14  C   UNL     1      21.066 -17.564  10.921  1.00  0.00    -0.000 C 
BRANCH  14  15
ATOM     15  C   UNL     1      21.806 -17.944  12.212  1.00  0.00    -0.000 C 
BRANCH  15  16
ATOM     16  C   UNL     1      22.770 -16.827  12.643  1.00  0.00    -0.000 C 
BRANCH  16  17
ATOM     17  C   UNL     1      22.044 -15.682  13.381  1.00  0.00    -0.000 C 
BRANCH  17  18
ATOM     18  C   UNL     1      22.675 -15.326  14.738  1.00  0.00    -0.000 C 
BRANCH  18  19
ATOM     19  C   UNL     1      21.944 -15.967  15.924  1.00  0.00    -0.003 C 
ATOM     20  C   UNL     1      22.872 -16.120  17.125  1.00  0.00     0.004 C 
ENDBRANCH  18  19
ENDBRANCH  17  18
ENDBRANCH  16  17
ENDBRANCH  15  16
ENDBRANCH  14  15
ENDBRANCH  13  14
ENDBRANCH  12  13
ENDBRANCH   1  12
TORSDOF 16
ENDMDL
MODEL 7
REMARK VINA RESULT:    -0.941      2.824      4.808
REMARK INTER + INTRA:          -4.106
REMARK INTER:                  -3.495
REMARK INTRA:                  -0.611
REMARK UNBOUND:                -2.285
REMARK SMILES CCCCCCCCCCCCCCCCCC(=O)[O-]
REMARK SMILES IDX 10 1 11 2 12 3 13 4 14 5 15 6 16 7 17 8 18 9 19 10 20 11
REMARK SMILES IDX 9 12 8 13 7 14 6 15 5 16 4 17 3 18 2 19 1 20
REMARK H PARENT
REMARK Flexibility Score: inf
ROOT
ATOM      1  C   UNL     1      16.671 -17.270  12.128  1.00  0.00     0.000 C 
ENDROOT
BRANCH   1   2
ATOM      2  C   UNL     1      17.678 -17.948  13.070  1.00  0.00     0.000 C 
BRANCH   2   3
ATOM      3  C   UNL     1      18.984 -17.144  13.143  1.00  0.00     0.000 C 
BRANCH   3   4
ATOM      4  C   UNL     1      18.765 -15.687  13.583  1.00  0.00     0.000 C 
BRANCH   4   5
ATOM      5  C   UNL     1      18.774 -15.459  15.107  1.00  0.00     0.000 C 
BRANCH   5   6
ATOM      6  C   UNL     1      19.446 -16.596  15.905  1.00  0.00     0.000 C 
BRANCH   6   7
ATOM      7  C   UNL     1      18.616 -17.023  17.125  1.00  0.00     0.006 C 
BRANCH   7   8
ATOM      8  C   UNL     1      17.478 -17.961  16.715  1.00  0.00     0.053 C 
BRANCH   8   9
ATOM      9  C   UNL     1      16.185 -17.212  16.636  1.00  0.00     0.041 C 
ATOM     10  O   UNL     1      16.154 -15.973  16.855  1.00  0.00    -0.550 OA
ATOM     11  O   UNL     1      15.020 -17.876  16.270  1.00  0.00    -0.550 OA
ENDBRANCH   8   9
ENDBRANCH   7   8
ENDBRANCH   6   7
ENDBRANCH   5   6
ENDBRANCH   4   5
ENDBRANCH   3   4
ENDBRANCH   2   3
ENDBRANCH   1   2
BRANCH   1  12
ATOM     12  C   UNL     1      16.681 -17.871  10.714  1.00  0.00     0.000 C 
BRANCH  12  13
ATOM     13  C   UNL     1      17.917 -17.447   9.901  1.00  0.00    -0.000 C 
BRANCH  13  14
ATOM     14  C   UNL     1      19.207 -18.125  10.390  1.00  0.00    -0.000 C 
BRANCH  14  15
ATOM     15  C   UNL     1      20.473 -17.368   9.962  1.00  0.00    -0.000 C 
BRANCH  15  16
ATOM     16  C   UNL     1      21.738 -18.096  10.445  1.00  0.00    -0.000 C 
BRANCH  16  17
ATOM     17  C   UNL     1      21.844 -18.125  11.984  1.00  0.00    -0.000 C 
BRANCH  17  18
ATOM     18  C   UNL     1      23.105 -17.431  12.528  1.00  0.00    -0.000 C 
BRANCH  18  19
ATOM     19  C   UNL     1      22.868 -16.729  13.872  1.00  0.00    -0.003 C 
ATOM     20  C   UNL     1      22.840 -15.213  13.703  1.00  0.00     0.004 C 
ENDBRANCH  18  19
ENDBRANCH  17  18
ENDBRANCH  16  17
ENDBRANCH  15  16
ENDBRANCH  14  15
ENDBRANCH  13  14
ENDBRANCH  12  13
ENDBRANCH   1  12
TORSDOF 16
ENDMDL
MODEL 8
REMARK VINA RESULT:    -0.845      2.404      6.362
REMARK INTER + INTRA:          -3.921
REMARK INTER:                  -2.748
REMARK INTRA:                  -1.173
REMARK UNBOUND:                -2.285
REMARK SMILES CCCCCCCCCCCCCCCCCC(=O)[O-]
REMARK SMILES IDX 10 1 11 2 12 3 13 4 14 5 15 6 16 7 17 8 18 9 19 10 20 11
REMARK SMILES IDX 9 12 8 13 7 14 6 15 5 16 4 17 3 18 2 19 1 20
REMARK H PARENT
REMARK Flexibility Score: inf
ROOT
ATOM      1  C   UNL     1      20.523 -15.909  13.340  1.00  0.00     0.000 C 
ENDROOT
BRANCH   1   2
ATOM      2  C   UNL     1      21.926 -15.293  13.445  1.00  0.00     0.000 C 
BRANCH   2   3
ATOM      3  C   UNL     1      23.003 -16.388  13.445  1.00  0.00     0.000 C 
BRANCH   3   4
ATOM      4  C   UNL     1      22.653 -17.571  12.527  1.00  0.00     0.000 C 
BRANCH   4   5
ATOM      5  C   UNL     1      22.967 -17.351  11.034  1.00  0.00     0.000 C 
BRANCH   5   6
ATOM      6  C   UNL     1      21.885 -17.899  10.080  1.00  0.00     0.000 C 
BRANCH   6   7
ATOM      7  C   UNL     1      20.541 -18.124  10.789  1.00  0.00     0.006 C 
BRANCH   7   8
ATOM      8  C   UNL     1      19.402 -17.425  10.043  1.00  0.00     0.053 C 
BRANCH   8   9
ATOM      9  C   UNL     1      18.290 -17.086  10.984  1.00  0.00     0.041 C 
ATOM     10  O   UNL     1      18.077 -15.889  11.311  1.00  0.00    -0.550 OA
ATOM     11  O   UNL     1      17.454 -18.089  11.462  1.00  0.00    -0.550 OA
ENDBRANCH   8   9
ENDBRANCH   7   8
ENDBRANCH   6   7
ENDBRANCH   5   6
ENDBRANCH   4   5
ENDBRANCH   3   4
ENDBRANCH   2   3
ENDBRANCH   1   2
BRANCH   1  12
ATOM     12  C   UNL     1      20.035 -16.507  14.669  1.00  0.00     0.000 C 
BRANCH  12  13
ATOM     13  C   UNL     1      18.977 -17.606  14.469  1.00  0.00    -0.000 C 
BRANCH  13  14
ATOM     14  C   UNL     1      17.645 -17.276  15.162  1.00  0.00    -0.000 C 
BRANCH  14  15
ATOM     15  C   UNL     1      17.627 -17.688  16.642  1.00  0.00    -0.000 C 
BRANCH  15  16
ATOM     16  C   UNL     1      16.209 -18.077  17.088  1.00  0.00    -0.000 C 
BRANCH  16  17
ATOM     17  C   UNL     1      15.255 -16.864  17.125  1.00  0.00    -0.000 C 
BRANCH  17  18
ATOM     18  C   UNL     1      13.778 -17.236  16.910  1.00  0.00    -0.000 C 
BRANCH  18  19
ATOM     19  C   UNL     1      13.556 -18.113  15.671  1.00  0.00    -0.003 C 
ATOM     20  C   UNL     1      12.087 -18.125  15.260  1.00  0.00     0.004 C 
ENDBRANCH  18  19
ENDBRANCH  17  18
ENDBRANCH  16  17
ENDBRANCH  15  16
ENDBRANCH  14  15
ENDBRANCH  13  14
ENDBRANCH  12  13
ENDBRANCH   1  12
TORSDOF 16
ENDMDL
MODEL 9
REMARK VINA RESULT:    -0.487      1.957      5.390
REMARK INTER + INTRA:          -3.227
REMARK INTER:                  -2.906
REMARK INTRA:                  -0.321
REMARK UNBOUND:                -2.285
REMARK SMILES CCCCCCCCCCCCCCCCCC(=O)[O-]
REMARK SMILES IDX 10 1 11 2 12 3 13 4 14 5 15 6 16 7 17 8 18 9 19 10 20 11
REMARK SMILES IDX 9 12 8 13 7 14 6 15 5 16 4 17 3 18 2 19 1 20
REMARK H PARENT
REMARK Flexibility Score: inf
ROOT
ATOM      1  C   UNL     1      18.425 -16.730  14.097  1.00  0.00     0.000 C 
ENDROOT
BRANCH   1   2
ATOM      2  C   UNL     1      17.010 -17.115  14.554  1.00  0.00     0.000 C 
BRANCH   2   3
ATOM      3  C   UNL     1      15.979 -16.798  13.461  1.00  0.00     0.000 C 
BRANCH   3   4
ATOM      4  C   UNL     1      15.492 -18.054  12.717  1.00  0.00     0.000 C 
BRANCH   4   5
ATOM      5  C   UNL     1      15.891 -18.124  11.230  1.00  0.00     0.000 C 
BRANCH   5   6
ATOM      6  C   UNL     1      17.414 -18.072  10.989  1.00  0.00     0.000 C 
BRANCH   6   7
ATOM      7  C   UNL     1      17.767 -17.502   9.606  1.00  0.00     0.006 C 
BRANCH   7   8
ATOM      8  C   UNL     1      18.589 -16.217   9.734  1.00  0.00     0.053 C 
BRANCH   8   9
ATOM      9  C   UNL     1      19.498 -16.292  10.919  1.00  0.00     0.041 C 
ATOM     10  O   UNL     1      20.514 -17.035  10.894  1.00  0.00    -0.550 OA
ATOM     11  O   UNL     1      19.251 -15.501  12.035  1.00  0.00    -0.550 OA
ENDBRANCH   8   9
ENDBRANCH   7   8
ENDBRANCH   6   7
ENDBRANCH   5   6
ENDBRANCH   4   5
ENDBRANCH   3   4
ENDBRANCH   2   3
ENDBRANCH   1   2
BRANCH   1  12
ATOM     12  C   UNL     1      19.270 -16.120  15.227  1.00  0.00     0.000 C 
BRANCH  12  13
ATOM     13  C   UNL     1      19.556 -17.123  16.357  1.00  0.00    -0.000 C 
BRANCH  13  14
ATOM     14  C   UNL     1      21.042 -17.161  16.750  1.00  0.00    -0.000 C 
BRANCH  14  15
ATOM     15  C   UNL     1      21.625 -15.764  17.004  1.00  0.00    -0.000 C 
BRANCH  15  16
ATOM     16  C   UNL     1      22.978 -15.594  16.294  1.00  0.00    -0.000 C 
BRANCH  16  17
ATOM     17  C   UNL     1      22.843 -14.853  14.948  1.00  0.00    -0.000 C 
BRANCH  17  18
ATOM     18  C   UNL     1      23.027 -15.764  13.722  1.00  0.00    -0.000 C 
BRANCH  18  19
ATOM     19  C   UNL     1      23.125 -17.250  14.090  1.00  0.00    -0.003 C 
ATOM     20  C   UNL     1      22.233 -18.100  13.190  1.00  0.00     0.004 C 
ENDBRANCH  18  19
ENDBRANCH  17  18
ENDBRANCH  16  17
ENDBRANCH  15  16
ENDBRANCH  14  15
ENDBRANCH  13  14
ENDBRANCH  12  13
ENDBRANCH   1  12
TORSDOF 16
ENDMDL
