MODEL 1
REMARK VINA RESULT:    -5.963      0.000      0.000
REMARK INTER + INTRA:         -17.998
REMARK INTER:                 -13.631
REMARK INTRA:                  -4.367
REMARK UNBOUND:                -4.367
REMARK SMILES CCCCCCCCCCCCCCCCCCCCCCCC(=O)[O-]
REMARK SMILES IDX 13 1 14 2 15 3 16 4 17 5 18 6 19 7 20 8 21 9 22 10 23 11
REMARK SMILES IDX 24 12 25 13 26 14 12 15 11 16 10 17 9 18 8 19 7 20 6 21 5 22
REMARK SMILES IDX 4 23 3 24 2 25 1 26
REMARK H PARENT
REMARK Flexibility Score: inf
ROOT
ATOM      1  C   UNL     1      10.978   4.816 -13.559  1.00  0.00     0.000 C 
ENDROOT
BRANCH   1   2
ATOM      2  C   UNL     1      11.921   5.217 -14.708  1.00  0.00     0.000 C 
BRANCH   2   3
ATOM      3  C   UNL     1      12.310   6.706 -14.747  1.00  0.00     0.000 C 
BRANCH   3   4
ATOM      4  C   UNL     1      13.177   7.065 -15.966  1.00  0.00     0.000 C 
BRANCH   4   5
ATOM      5  C   UNL     1      12.667   8.309 -16.714  1.00  0.00     0.000 C 
BRANCH   5   6
ATOM      6  C   UNL     1      11.257   8.732 -16.275  1.00  0.00     0.000 C 
BRANCH   6   7
ATOM      7  C   UNL     1      10.330   8.904 -17.489  1.00  0.00     0.000 C 
BRANCH   7   8
ATOM      8  C   UNL     1       8.916   8.363 -17.220  1.00  0.00     0.000 C 
BRANCH   8   9
ATOM      9  C   UNL     1       8.907   7.269 -16.138  1.00  0.00     0.000 C 
BRANCH   9  10
ATOM     10  C   UNL     1       7.920   7.567 -15.000  1.00  0.00     0.006 C 
BRANCH  10  11
ATOM     11  C   UNL     1       7.670   9.070 -14.809  1.00  0.00     0.053 C 
BRANCH  11  12
ATOM     12  C   UNL     1       7.946   9.469 -13.393  1.00  0.00     0.041 C 
ATOM     13  O   UNL     1       7.821   8.631 -12.462  1.00  0.00    -0.550 OA
ATOM     14  O   UNL     1       8.302  10.779 -13.097  1.00  0.00    -0.550 OA
ENDBRANCH  11  12
ENDBRANCH  10  11
ENDBRANCH   9  10
ENDBRANCH   8   9
ENDBRANCH   7   8
ENDBRANCH   6   7
ENDBRANCH   5   6
ENDBRANCH   4   5
ENDBRANCH   3   4
ENDBRANCH   2   3
ENDBRANCH   1   2
BRANCH   1  15
ATOM     15  C   UNL     1      10.357   6.030 -12.844  1.00  0.00     0.000 C 
BRANCH  15  16
ATOM     16  C   UNL     1       9.501   5.627 -11.632  1.00  0.00     0.000 C 
BRANCH  16  17
ATOM     17  C   UNL     1      10.173   5.977 -10.293  1.00  0.00     0.000 C 
BRANCH  17  18
ATOM     18  C   UNL     1      11.486   6.761 -10.470  1.00  0.00    -0.000 C 
BRANCH  18  19
ATOM     19  C   UNL     1      12.673   6.243  -9.637  1.00  0.00    -0.000 C 
BRANCH  19  20
ATOM     20  C   UNL     1      14.030   6.749 -10.148  1.00  0.00    -0.000 C 
BRANCH  20  21
ATOM     21  C   UNL     1      14.083   6.720 -11.683  1.00  0.00    -0.000 C 
BRANCH  21  22
ATOM     22  C   UNL     1      14.934   7.859 -12.268  1.00  0.00    -0.000 C 
BRANCH  22  23
ATOM     23  C   UNL     1      14.330   9.246 -12.008  1.00  0.00    -0.000 C 
BRANCH  23  24
ATOM     24  C   UNL     1      13.442   9.688 -13.181  1.00  0.00    -0.000 C 
BRANCH  24  25
ATOM     25  C   UNL     1      11.950   9.713 -12.816  1.00  0.00    -0.003 C 
ATOM     26  C   UNL     1      11.618  10.759 -11.752  1.00  0.00     0.004 C 
ENDBRANCH  24  25
ENDBRANCH  23  24
ENDBRANCH  22  23
ENDBRANCH  21  22
ENDBRANCH  20  21
ENDBRANCH  19  20
ENDBRANCH  18  19
ENDBRANCH  17  18
ENDBRANCH  16  17
ENDBRANCH  15  16
ENDBRANCH   1  15
TORSDOF 22
ENDMDL
MODEL 2
REMARK VINA RESULT:    -5.958      1.180      3.707
REMARK INTER + INTRA:         -17.987
REMARK INTER:                 -13.817
REMARK INTRA:                  -4.170
REMARK UNBOUND:                -4.367
REMARK SMILES CCCCCCCCCCCCCCCCCCCCCCCC(=O)[O-]
REMARK SMILES IDX 13 1 14 2 15 3 16 4 17 5 18 6 19 7 20 8 21 9 22 10 23 11
REMARK SMILES IDX 24 12 25 13 26 14 12 15 11 16 10 17 9 18 8 19 7 20 6 21 5 22
REMARK SMILES IDX 4 23 3 24 2 25 1 26
REMARK H PARENT
REMARK Flexibility Score: inf
ROOT
ATOM      1  C   UNL     1      12.923   8.862 -13.955  1.00  0.00     0.000 C 
ENDROOT
BRANCH   1   2
ATOM      2  C   UNL     1      13.913   8.445 -15.059  1.00  0.00     0.000 C 
BRANCH   2   3
ATOM      3  C   UNL     1      13.268   8.053 -16.402  1.00  0.00     0.000 C 
BRANCH   3   4
ATOM      4  C   UNL     1      11.756   8.332 -16.442  1.00  0.00     0.000 C 
BRANCH   4   5
ATOM      5  C   UNL     1      11.320   9.067 -17.721  1.00  0.00     0.000 C 
BRANCH   5   6
ATOM      6  C   UNL     1       9.850   8.811 -18.084  1.00  0.00     0.000 C 
BRANCH   6   7
ATOM      7  C   UNL     1       9.152   7.973 -17.002  1.00  0.00     0.000 C 
BRANCH   7   8
ATOM      8  C   UNL     1       7.925   8.689 -16.413  1.00  0.00     0.000 C 
BRANCH   8   9
ATOM      9  C   UNL     1       7.645   8.266 -14.961  1.00  0.00     0.000 C 
BRANCH   9  10
ATOM     10  C   UNL     1       7.922   9.390 -13.951  1.00  0.00     0.006 C 
BRANCH  10  11
ATOM     11  C   UNL     1       9.361   9.918 -14.029  1.00  0.00     0.053 C 
BRANCH  11  12
ATOM     12  C   UNL     1       9.568  11.022 -13.041  1.00  0.00     0.041 C 
ATOM     13  O   UNL     1       8.776  12.000 -13.009  1.00  0.00    -0.550 OA
ATOM     14  O   UNL     1      10.658  10.990 -12.180  1.00  0.00    -0.550 OA
ENDBRANCH  11  12
ENDBRANCH  10  11
ENDBRANCH   9  10
ENDBRANCH   8   9
ENDBRANCH   7   8
ENDBRANCH   6   7
ENDBRANCH   5   6
ENDBRANCH   4   5
ENDBRANCH   3   4
ENDBRANCH   2   3
ENDBRANCH   1   2
BRANCH   1  15
ATOM     15  C   UNL     1      13.595   9.025 -12.580  1.00  0.00     0.000 C 
BRANCH  15  16
ATOM     16  C   UNL     1      14.724   8.008 -12.351  1.00  0.00     0.000 C 
BRANCH  16  17
ATOM     17  C   UNL     1      14.211   6.676 -11.776  1.00  0.00     0.000 C 
BRANCH  17  18
ATOM     18  C   UNL     1      13.985   6.730 -10.254  1.00  0.00    -0.000 C 
BRANCH  18  19
ATOM     19  C   UNL     1      12.623   6.192  -9.777  1.00  0.00    -0.000 C 
BRANCH  19  20
ATOM     20  C   UNL     1      11.434   6.886 -10.457  1.00  0.00    -0.000 C 
BRANCH  20  21
ATOM     21  C   UNL     1      10.167   6.022 -10.361  1.00  0.00    -0.000 C 
BRANCH  21  22
ATOM     22  C   UNL     1       9.419   5.915 -11.699  1.00  0.00    -0.000 C 
BRANCH  22  23
ATOM     23  C   UNL     1      10.167   6.597 -12.854  1.00  0.00    -0.000 C 
BRANCH  23  24
ATOM     24  C   UNL     1      10.388   5.621 -14.019  1.00  0.00    -0.000 C 
BRANCH  24  25
ATOM     25  C   UNL     1      11.826   5.081 -14.071  1.00  0.00    -0.003 C 
ATOM     26  C   UNL     1      12.247   4.654 -15.478  1.00  0.00     0.004 C 
ENDBRANCH  24  25
ENDBRANCH  23  24
ENDBRANCH  22  23
ENDBRANCH  21  22
ENDBRANCH  20  21
ENDBRANCH  19  20
ENDBRANCH  18  19
ENDBRANCH  17  18
ENDBRANCH  16  17
ENDBRANCH  15  16
ENDBRANCH   1  15
TORSDOF 22
ENDMDL
MODEL 3
REMARK VINA RESULT:    -5.955      1.846      6.328
REMARK INTER + INTRA:         -17.981
REMARK INTER:                 -13.447
REMARK INTRA:                  -4.534
REMARK UNBOUND:                -4.367
REMARK SMILES CCCCCCCCCCCCCCCCCCCCCCCC(=O)[O-]
REMARK SMILES IDX 13 1 14 2 15 3 16 4 17 5 18 6 19 7 20 8 21 9 22 10 23 11
REMARK SMILES IDX 24 12 25 13 26 14 12 15 11 16 10 17 9 18 8 19 7 20 6 21 5 22
REMARK SMILES IDX 4 23 3 24 2 25 1 26
REMARK H PARENT
REMARK Flexibility Score: inf
ROOT
ATOM      1  C   UNL     1      11.933   5.078 -14.323  1.00  0.00     0.000 C 
ENDROOT
BRANCH   1   2
ATOM      2  C   UNL     1      10.992   5.894 -13.417  1.00  0.00     0.000 C 
BRANCH   2   3
ATOM      3  C   UNL     1       9.898   5.077 -12.705  1.00  0.00     0.000 C 
BRANCH   3   4
ATOM      4  C   UNL     1       9.453   5.707 -11.375  1.00  0.00     0.000 C 
BRANCH   4   5
ATOM      5  C   UNL     1      10.556   6.554 -10.718  1.00  0.00     0.000 C 
BRANCH   5   6
ATOM      6  C   UNL     1      10.925   6.065  -9.309  1.00  0.00     0.000 C 
BRANCH   6   7
ATOM      7  C   UNL     1      12.448   6.062  -9.107  1.00  0.00     0.000 C 
BRANCH   7   8
ATOM      8  C   UNL     1      13.209   5.870 -10.429  1.00  0.00     0.000 C 
BRANCH   8   9
ATOM      9  C   UNL     1      14.209   7.009 -10.697  1.00  0.00     0.000 C 
BRANCH   9  10
ATOM     10  C   UNL     1      13.958   7.716 -12.038  1.00  0.00     0.006 C 
BRANCH  10  11
ATOM     11  C   UNL     1      12.930   8.850 -11.928  1.00  0.00     0.053 C 
BRANCH  11  12
ATOM     12  C   UNL     1      13.526  10.142 -12.389  1.00  0.00     0.041 C 
ATOM     13  O   UNL     1      13.193  11.225 -11.841  1.00  0.00    -0.550 OA
ATOM     14  O   UNL     1      14.420  10.155 -13.453  1.00  0.00    -0.550 OA
ENDBRANCH  11  12
ENDBRANCH  10  11
ENDBRANCH   9  10
ENDBRANCH   8   9
ENDBRANCH   7   8
ENDBRANCH   6   7
ENDBRANCH   5   6
ENDBRANCH   4   5
ENDBRANCH   3   4
ENDBRANCH   2   3
ENDBRANCH   1   2
BRANCH   1  15
ATOM     15  C   UNL     1      12.462   5.888 -15.520  1.00  0.00     0.000 C 
BRANCH  15  16
ATOM     16  C   UNL     1      12.225   7.399 -15.361  1.00  0.00     0.000 C 
BRANCH  16  17
ATOM     17  C   UNL     1      12.872   8.220 -16.490  1.00  0.00     0.000 C 
BRANCH  17  18
ATOM     18  C   UNL     1      11.836   8.908 -17.397  1.00  0.00    -0.000 C 
BRANCH  18  19
ATOM     19  C   UNL     1      10.473   9.188 -16.736  1.00  0.00    -0.000 C 
BRANCH  19  20
ATOM     20  C   UNL     1       9.298   8.551 -17.493  1.00  0.00    -0.000 C 
BRANCH  20  21
ATOM     21  C   UNL     1       8.126   8.262 -16.543  1.00  0.00    -0.000 C 
BRANCH  21  22
ATOM     22  C   UNL     1       8.557   7.491 -15.285  1.00  0.00    -0.000 C 
BRANCH  22  23
ATOM     23  C   UNL     1       7.603   7.706 -14.101  1.00  0.00    -0.000 C 
BRANCH  23  24
ATOM     24  C   UNL     1       7.942   9.003 -13.350  1.00  0.00    -0.000 C 
BRANCH  24  25
ATOM     25  C   UNL     1       9.453   9.192 -13.150  1.00  0.00    -0.003 C 
ATOM     26  C   UNL     1       9.866  10.664 -13.116  1.00  0.00     0.004 C 
ENDBRANCH  24  25
ENDBRANCH  23  24
ENDBRANCH  22  23
ENDBRANCH  21  22
ENDBRANCH  20  21
ENDBRANCH  19  20
ENDBRANCH  18  19
ENDBRANCH  17  18
ENDBRANCH  16  17
ENDBRANCH  15  16
ENDBRANCH   1  15
TORSDOF 22
ENDMDL
MODEL 4
REMARK VINA RESULT:    -5.933      1.457      6.186
REMARK INTER + INTRA:         -17.930
REMARK INTER:                 -14.077
REMARK INTRA:                  -3.852
REMARK UNBOUND:                -4.367
REMARK SMILES CCCCCCCCCCCCCCCCCCCCCCCC(=O)[O-]
REMARK SMILES IDX 13 1 14 2 15 3 16 4 17 5 18 6 19 7 20 8 21 9 22 10 23 11
REMARK SMILES IDX 24 12 25 13 26 14 12 15 11 16 10 17 9 18 8 19 7 20 6 21 5 22
REMARK SMILES IDX 4 23 3 24 2 25 1 26
REMARK H PARENT
REMARK Flexibility Score: inf
ROOT
ATOM      1  C   UNL     1       8.853   8.167 -12.489  1.00  0.00     0.000 C 
ENDROOT
BRANCH   1   2
ATOM      2  C   UNL     1       8.309   6.727 -12.425  1.00  0.00     0.000 C 
BRANCH   2   3
ATOM      3  C   UNL     1       9.084   5.776 -11.495  1.00  0.00     0.000 C 
BRANCH   3   4
ATOM      4  C   UNL     1      10.416   6.370 -11.008  1.00  0.00     0.000 C 
BRANCH   4   5
ATOM      5  C   UNL     1      10.706   6.052  -9.532  1.00  0.00     0.000 C 
BRANCH   5   6
ATOM      6  C   UNL     1      12.204   6.097  -9.195  1.00  0.00     0.000 C 
BRANCH   6   7
ATOM      7  C   UNL     1      13.058   6.074 -10.472  1.00  0.00     0.000 C 
BRANCH   7   8
ATOM      8  C   UNL     1      14.274   7.009 -10.375  1.00  0.00     0.000 C 
BRANCH   8   9
ATOM      9  C   UNL     1      14.379   7.956 -11.584  1.00  0.00     0.000 C 
BRANCH   9  10
ATOM     10  C   UNL     1      13.033   8.595 -11.957  1.00  0.00     0.006 C 
BRANCH  10  11
ATOM     11  C   UNL     1      13.192   9.967 -12.625  1.00  0.00     0.053 C 
BRANCH  11  12
ATOM     12  C   UNL     1      12.325  10.982 -11.948  1.00  0.00     0.041 C 
ATOM     13  O   UNL     1      12.824  11.793 -11.124  1.00  0.00    -0.550 OA
ATOM     14  O   UNL     1      10.959  11.006 -12.197  1.00  0.00    -0.550 OA
ENDBRANCH  11  12
ENDBRANCH  10  11
ENDBRANCH   9  10
ENDBRANCH   8   9
ENDBRANCH   7   8
ENDBRANCH   6   7
ENDBRANCH   5   6
ENDBRANCH   4   5
ENDBRANCH   3   4
ENDBRANCH   2   3
ENDBRANCH   1   2
BRANCH   1  15
ATOM     15  C   UNL     1       9.046   8.669 -13.931  1.00  0.00     0.000 C 
BRANCH  15  16
ATOM     16  C   UNL     1       7.732   9.143 -14.572  1.00  0.00     0.000 C 
BRANCH  16  17
ATOM     17  C   UNL     1       7.597   8.698 -16.039  1.00  0.00     0.000 C 
BRANCH  17  18
ATOM     18  C   UNL     1       8.856   7.985 -16.565  1.00  0.00    -0.000 C 
BRANCH  18  19
ATOM     19  C   UNL     1       9.423   8.549 -17.882  1.00  0.00    -0.000 C 
BRANCH  19  20
ATOM     20  C   UNL     1      10.856   9.082 -17.737  1.00  0.00    -0.000 C 
BRANCH  20  21
ATOM     21  C   UNL     1      11.428   8.750 -16.350  1.00  0.00    -0.000 C 
BRANCH  21  22
ATOM     22  C   UNL     1      12.822   8.106 -16.422  1.00  0.00    -0.000 C 
BRANCH  22  23
ATOM     23  C   UNL     1      12.850   6.685 -15.841  1.00  0.00    -0.000 C 
BRANCH  23  24
ATOM     24  C   UNL     1      11.809   6.527 -14.723  1.00  0.00    -0.000 C 
BRANCH  24  25
ATOM     25  C   UNL     1      10.861   5.342 -14.962  1.00  0.00    -0.003 C 
ATOM     26  C   UNL     1      11.111   4.181 -13.998  1.00  0.00     0.004 C 
ENDBRANCH  24  25
ENDBRANCH  23  24
ENDBRANCH  22  23
ENDBRANCH  21  22
ENDBRANCH  20  21
ENDBRANCH  19  20
ENDBRANCH  18  19
ENDBRANCH  17  18
ENDBRANCH  16  17
ENDBRANCH  15  16
ENDBRANCH   1  15
TORSDOF 22
ENDMDL
MODEL 5
REMARK VINA RESULT:    -5.928      1.219      4.429
REMARK INTER + INTRA:         -17.918
REMARK INTER:                 -13.680
REMARK INTRA:                  -4.238
REMARK UNBOUND:                -4.367
REMARK SMILES CCCCCCCCCCCCCCCCCCCCCCCC(=O)[O-]
REMARK SMILES IDX 13 1 14 2 15 3 16 4 17 5 18 6 19 7 20 8 21 9 22 10 23 11
REMARK SMILES IDX 24 12 25 13 26 14 12 15 11 16 10 17 9 18 8 19 7 20 6 21 5 22
REMARK SMILES IDX 4 23 3 24 2 25 1 26
REMARK H PARENT
REMARK Flexibility Score: inf
ROOT
ATOM      1  C   UNL     1      11.810   8.864 -17.360  1.00  0.00     0.000 C 
ENDROOT
BRANCH   1   2
ATOM      2  C   UNL     1      12.985   8.196 -16.621  1.00  0.00     0.000 C 
BRANCH   2   3
ATOM      3  C   UNL     1      13.059   8.488 -15.111  1.00  0.00     0.000 C 
BRANCH   3   4
ATOM      4  C   UNL     1      14.502   8.654 -14.605  1.00  0.00     0.000 C 
BRANCH   4   5
ATOM      5  C   UNL     1      14.691   9.915 -13.745  1.00  0.00     0.000 C 
BRANCH   5   6
ATOM      6  C   UNL     1      14.258   9.711 -12.285  1.00  0.00     0.000 C 
BRANCH   6   7
ATOM      7  C   UNL     1      13.597  10.980 -11.724  1.00  0.00     0.000 C 
BRANCH   7   8
ATOM      8  C   UNL     1      12.067  10.953 -11.877  1.00  0.00     0.000 C 
BRANCH   8   9
ATOM      9  C   UNL     1      11.496   9.528 -11.769  1.00  0.00     0.000 C 
BRANCH   9  10
ATOM     10  C   UNL     1      10.449   9.224 -12.852  1.00  0.00     0.006 C 
BRANCH  10  11
ATOM     11  C   UNL     1       9.348  10.290 -12.928  1.00  0.00     0.053 C 
BRANCH  11  12
ATOM     12  C   UNL     1       8.017   9.649 -13.168  1.00  0.00     0.041 C 
ATOM     13  O   UNL     1       7.264  10.075 -14.082  1.00  0.00    -0.550 OA
ATOM     14  O   UNL     1       7.591   8.605 -12.356  1.00  0.00    -0.550 OA
ENDBRANCH  11  12
ENDBRANCH  10  11
ENDBRANCH   9  10
ENDBRANCH   8   9
ENDBRANCH   7   8
ENDBRANCH   6   7
ENDBRANCH   5   6
ENDBRANCH   4   5
ENDBRANCH   3   4
ENDBRANCH   2   3
ENDBRANCH   1   2
BRANCH   1  15
ATOM     15  C   UNL     1      10.582   9.081 -16.457  1.00  0.00     0.000 C 
BRANCH  15  16
ATOM     16  C   UNL     1       9.467   8.056 -16.722  1.00  0.00     0.000 C 
BRANCH  16  17
ATOM     17  C   UNL     1       9.269   7.083 -15.547  1.00  0.00     0.000 C 
BRANCH  17  18
ATOM     18  C   UNL     1      10.263   5.907 -15.571  1.00  0.00    -0.000 C 
BRANCH  18  19
ATOM     19  C   UNL     1      10.791   5.471 -14.191  1.00  0.00    -0.000 C 
BRANCH  19  20
ATOM     20  C   UNL     1      12.258   5.019 -14.227  1.00  0.00    -0.000 C 
BRANCH  20  21
ATOM     21  C   UNL     1      12.864   5.010 -12.815  1.00  0.00    -0.000 C 
BRANCH  21  22
ATOM     22  C   UNL     1      12.942   6.414 -12.195  1.00  0.00    -0.000 C 
BRANCH  22  23
ATOM     23  C   UNL     1      13.537   6.406 -10.779  1.00  0.00    -0.000 C 
BRANCH  23  24
ATOM     24  C   UNL     1      12.557   5.779  -9.775  1.00  0.00    -0.000 C 
BRANCH  24  25
ATOM     25  C   UNL     1      11.255   6.584  -9.639  1.00  0.00    -0.003 C 
ATOM     26  C   UNL     1      10.099   5.976 -10.434  1.00  0.00     0.004 C 
ENDBRANCH  24  25
ENDBRANCH  23  24
ENDBRANCH  22  23
ENDBRANCH  21  22
ENDBRANCH  20  21
ENDBRANCH  19  20
ENDBRANCH  18  19
ENDBRANCH  17  18
ENDBRANCH  16  17
ENDBRANCH  15  16
ENDBRANCH   1  15
TORSDOF 22
ENDMDL
MODEL 6
REMARK VINA RESULT:    -5.841      2.105      5.410
REMARK INTER + INTRA:         -17.720
REMARK INTER:                 -13.453
REMARK INTRA:                  -4.267
REMARK UNBOUND:                -4.367
REMARK SMILES CCCCCCCCCCCCCCCCCCCCCCCC(=O)[O-]
REMARK SMILES IDX 13 1 14 2 15 3 16 4 17 5 18 6 19 7 20 8 21 9 22 10 23 11
REMARK SMILES IDX 24 12 25 13 26 14 12 15 11 16 10 17 9 18 8 19 7 20 6 21 5 22
REMARK SMILES IDX 4 23 3 24 2 25 1 26
REMARK H PARENT
REMARK Flexibility Score: inf
ROOT
ATOM      1  C   UNL     1      10.593   9.041 -16.446  1.00  0.00     0.000 C 
ENDROOT
BRANCH   1   2
ATOM      2  C   UNL     1       9.326   8.528 -17.155  1.00  0.00     0.000 C 
BRANCH   2   3
ATOM      3  C   UNL     1       8.128   8.243 -16.230  1.00  0.00     0.000 C 
BRANCH   3   4
ATOM      4  C   UNL     1       8.522   7.454 -14.970  1.00  0.00     0.000 C 
BRANCH   4   5
ATOM      5  C   UNL     1       7.648   7.801 -13.752  1.00  0.00     0.000 C 
BRANCH   5   6
ATOM      6  C   UNL     1       8.334   8.774 -12.783  1.00  0.00     0.000 C 
BRANCH   6   7
ATOM      7  C   UNL     1       8.467  10.172 -13.407  1.00  0.00     0.000 C 
BRANCH   7   8
ATOM      8  C   UNL     1       9.819  10.827 -13.078  1.00  0.00     0.000 C 
BRANCH   8   9
ATOM      9  C   UNL     1      10.914   9.787 -12.784  1.00  0.00     0.000 C 
BRANCH   9  10
ATOM     10  C   UNL     1      12.235  10.428 -12.330  1.00  0.00     0.006 C 
BRANCH  10  11
ATOM     11  C   UNL     1      13.259   9.394 -11.841  1.00  0.00     0.053 C 
BRANCH  11  12
ATOM     12  C   UNL     1      14.335   9.201 -12.862  1.00  0.00     0.041 C 
ATOM     13  O   UNL     1      14.597  10.115 -13.688  1.00  0.00    -0.550 OA
ATOM     14  O   UNL     1      15.024   7.996 -12.928  1.00  0.00    -0.550 OA
ENDBRANCH  11  12
ENDBRANCH  10  11
ENDBRANCH   9  10
ENDBRANCH   8   9
ENDBRANCH   7   8
ENDBRANCH   6   7
ENDBRANCH   5   6
ENDBRANCH   4   5
ENDBRANCH   3   4
ENDBRANCH   2   3
ENDBRANCH   1   2
BRANCH   1  15
ATOM     15  C   UNL     1      11.888   8.669 -17.191  1.00  0.00     0.000 C 
BRANCH  15  16
ATOM     16  C   UNL     1      12.943   8.043 -16.265  1.00  0.00     0.000 C 
BRANCH  16  17
ATOM     17  C   UNL     1      12.315   7.201 -15.140  1.00  0.00     0.000 C 
BRANCH  17  18
ATOM     18  C   UNL     1      12.169   5.715 -15.517  1.00  0.00    -0.000 C 
BRANCH  18  19
ATOM     19  C   UNL     1      11.170   4.919 -14.656  1.00  0.00    -0.000 C 
BRANCH  19  20
ATOM     20  C   UNL     1      11.286   5.234 -13.158  1.00  0.00    -0.000 C 
BRANCH  20  21
ATOM     21  C   UNL     1       9.964   4.939 -12.432  1.00  0.00    -0.000 C 
BRANCH  21  22
ATOM     22  C   UNL     1       9.764   5.817 -11.186  1.00  0.00    -0.000 C 
BRANCH  22  23
ATOM     23  C   UNL     1      10.944   6.766 -10.932  1.00  0.00    -0.000 C 
BRANCH  23  24
ATOM     24  C   UNL     1      11.501   6.584  -9.512  1.00  0.00    -0.000 C 
BRANCH  24  25
ATOM     25  C   UNL     1      12.777   5.727  -9.483  1.00  0.00    -0.003 C 
ATOM     26  C   UNL     1      14.040   6.539  -9.772  1.00  0.00     0.004 C 
ENDBRANCH  24  25
ENDBRANCH  23  24
ENDBRANCH  22  23
ENDBRANCH  21  22
ENDBRANCH  20  21
ENDBRANCH  19  20
ENDBRANCH  18  19
ENDBRANCH  17  18
ENDBRANCH  16  17
ENDBRANCH  15  16
ENDBRANCH   1  15
TORSDOF 22
ENDMDL
MODEL 7
REMARK VINA RESULT:    -5.831      1.309      2.717
REMARK INTER + INTRA:         -17.697
REMARK INTER:                 -13.843
REMARK INTRA:                  -3.853
REMARK UNBOUND:                -4.367
REMARK SMILES CCCCCCCCCCCCCCCCCCCCCCCC(=O)[O-]
REMARK SMILES IDX 13 1 14 2 15 3 16 4 17 5 18 6 19 7 20 8 21 9 22 10 23 11
REMARK SMILES IDX 24 12 25 13 26 14 12 15 11 16 10 17 9 18 8 19 7 20 6 21 5 22
REMARK SMILES IDX 4 23 3 24 2 25 1 26
REMARK H PARENT
REMARK Flexibility Score: inf
ROOT
ATOM      1  C   UNL     1       9.509   5.917 -11.602  1.00  0.00     0.000 C 
ENDROOT
BRANCH   1   2
ATOM      2  C   UNL     1      10.433   6.017 -12.830  1.00  0.00     0.000 C 
BRANCH   2   3
ATOM      3  C   UNL     1      10.970   4.673 -13.356  1.00  0.00     0.000 C 
BRANCH   3   4
ATOM      4  C   UNL     1      11.925   4.837 -14.550  1.00  0.00     0.000 C 
BRANCH   4   5
ATOM      5  C   UNL     1      11.621   6.091 -15.387  1.00  0.00     0.000 C 
BRANCH   5   6
ATOM      6  C   UNL     1      12.890   6.775 -15.919  1.00  0.00     0.000 C 
BRANCH   6   7
ATOM      7  C   UNL     1      12.583   8.196 -16.417  1.00  0.00     0.000 C 
BRANCH   7   8
ATOM      8  C   UNL     1      11.095   8.554 -16.270  1.00  0.00     0.000 C 
BRANCH   8   9
ATOM      9  C   UNL     1      10.456   8.952 -17.613  1.00  0.00     0.000 C 
BRANCH   9  10
ATOM     10  C   UNL     1       8.966   8.586 -17.693  1.00  0.00     0.006 C 
BRANCH  10  11
ATOM     11  C   UNL     1       8.380   8.179 -16.334  1.00  0.00     0.053 C 
BRANCH  11  12
ATOM     12  C   UNL     1       7.177   9.009 -16.015  1.00  0.00     0.041 C 
ATOM     13  O   UNL     1       6.198   9.038 -16.806  1.00  0.00    -0.550 OA
ATOM     14  O   UNL     1       7.153   9.784 -14.862  1.00  0.00    -0.550 OA
ENDBRANCH  11  12
ENDBRANCH  10  11
ENDBRANCH   9  10
ENDBRANCH   8   9
ENDBRANCH   7   8
ENDBRANCH   6   7
ENDBRANCH   5   6
ENDBRANCH   4   5
ENDBRANCH   3   4
ENDBRANCH   2   3
ENDBRANCH   1   2
BRANCH   1  15
ATOM     15  C   UNL     1      10.274   6.004 -10.269  1.00  0.00     0.000 C 
BRANCH  15  16
ATOM     16  C   UNL     1      11.515   6.907 -10.359  1.00  0.00     0.000 C 
BRANCH  16  17
ATOM     17  C   UNL     1      12.808   6.175  -9.962  1.00  0.00     0.000 C 
BRANCH  17  18
ATOM     18  C   UNL     1      14.055   6.736 -10.670  1.00  0.00    -0.000 C 
BRANCH  18  19
ATOM     19  C   UNL     1      13.912   6.922 -12.193  1.00  0.00    -0.000 C 
BRANCH  19  20
ATOM     20  C   UNL     1      14.885   7.964 -12.763  1.00  0.00    -0.000 C 
BRANCH  20  21
ATOM     21  C   UNL     1      14.128   9.198 -13.277  1.00  0.00    -0.000 C 
BRANCH  21  22
ATOM     22  C   UNL     1      13.872  10.239 -12.175  1.00  0.00    -0.000 C 
BRANCH  22  23
ATOM     23  C   UNL     1      12.411  10.708 -12.128  1.00  0.00    -0.000 C 
BRANCH  23  24
ATOM     24  C   UNL     1      11.448   9.529 -12.332  1.00  0.00    -0.000 C 
BRANCH  24  25
ATOM     25  C   UNL     1      10.302   9.863 -13.300  1.00  0.00    -0.003 C 
ATOM     26  C   UNL     1       9.645  11.209 -12.997  1.00  0.00     0.004 C 
ENDBRANCH  24  25
ENDBRANCH  23  24
ENDBRANCH  22  23
ENDBRANCH  21  22
ENDBRANCH  20  21
ENDBRANCH  19  20
ENDBRANCH  18  19
ENDBRANCH  17  18
ENDBRANCH  16  17
ENDBRANCH  15  16
ENDBRANCH   1  15
TORSDOF 22
ENDMDL
MODEL 8
REMARK VINA RESULT:    -5.815      2.073      6.117
REMARK INTER + INTRA:         -17.661
REMARK INTER:                 -13.555
REMARK INTRA:                  -4.106
REMARK UNBOUND:                -4.367
REMARK SMILES CCCCCCCCCCCCCCCCCCCCCCCC(=O)[O-]
REMARK SMILES IDX 13 1 14 2 15 3 16 4 17 5 18 6 19 7 20 8 21 9 22 10 23 11
REMARK SMILES IDX 24 12 25 13 26 14 12 15 11 16 10 17 9 18 8 19 7 20 6 21 5 22
REMARK SMILES IDX 4 23 3 24 2 25 1 26
REMARK H PARENT
REMARK Flexibility Score: inf
ROOT
ATOM      1  C   UNL     1      13.151   9.845 -12.753  1.00  0.00     0.000 C 
ENDROOT
BRANCH   1   2
ATOM      2  C   UNL     1      13.896   8.550 -12.380  1.00  0.00     0.000 C 
BRANCH   2   3
ATOM      3  C   UNL     1      14.899   8.683 -11.219  1.00  0.00     0.000 C 
BRANCH   3   4
ATOM      4  C   UNL     1      14.903   7.457 -10.290  1.00  0.00     0.000 C 
BRANCH   4   5
ATOM      5  C   UNL     1      13.675   6.553 -10.492  1.00  0.00     0.000 C 
BRANCH   5   6
ATOM      6  C   UNL     1      13.185   5.912  -9.185  1.00  0.00     0.000 C 
BRANCH   6   7
ATOM      7  C   UNL     1      11.652   5.965  -9.085  1.00  0.00     0.000 C 
BRANCH   7   8
ATOM      8  C   UNL     1      11.013   6.622 -10.320  1.00  0.00     0.000 C 
BRANCH   8   9
ATOM      9  C   UNL     1       9.758   5.869 -10.795  1.00  0.00     0.000 C 
BRANCH   9  10
ATOM     10  C   UNL     1       9.775   5.579 -12.304  1.00  0.00     0.006 C 
BRANCH  10  11
ATOM     11  C   UNL     1      11.030   6.125 -12.999  1.00  0.00     0.053 C 
BRANCH  11  12
ATOM     12  C   UNL     1      11.822   5.007 -13.600  1.00  0.00     0.041 C 
ATOM     13  O   UNL     1      13.080   5.035 -13.572  1.00  0.00    -0.550 OA
ATOM     14  O   UNL     1      11.171   3.952 -14.227  1.00  0.00    -0.550 OA
ENDBRANCH  11  12
ENDBRANCH  10  11
ENDBRANCH   9  10
ENDBRANCH   8   9
ENDBRANCH   7   8
ENDBRANCH   6   7
ENDBRANCH   5   6
ENDBRANCH   4   5
ENDBRANCH   3   4
ENDBRANCH   2   3
ENDBRANCH   1   2
BRANCH   1  15
ATOM     15  C   UNL     1      11.735   9.914 -12.154  1.00  0.00     0.000 C 
BRANCH  15  16
ATOM     16  C   UNL     1      10.638   9.902 -13.231  1.00  0.00     0.000 C 
BRANCH  16  17
ATOM     17  C   UNL     1       9.370  10.654 -12.790  1.00  0.00     0.000 C 
BRANCH  17  18
ATOM     18  C   UNL     1       8.084  10.065 -13.398  1.00  0.00    -0.000 C 
BRANCH  18  19
ATOM     19  C   UNL     1       7.673   8.687 -12.845  1.00  0.00    -0.000 C 
BRANCH  19  20
ATOM     20  C   UNL     1       7.569   7.611 -13.935  1.00  0.00    -0.000 C 
BRANCH  20  21
ATOM     21  C   UNL     1       7.795   8.217 -15.328  1.00  0.00    -0.000 C 
BRANCH  21  22
ATOM     22  C   UNL     1       8.938   7.533 -16.095  1.00  0.00    -0.000 C 
BRANCH  22  23
ATOM     23  C   UNL     1       9.459   8.379 -17.266  1.00  0.00    -0.000 C 
BRANCH  23  24
ATOM     24  C   UNL     1      10.876   8.898 -16.981  1.00  0.00    -0.000 C 
BRANCH  24  25
ATOM     25  C   UNL     1      11.706   7.917 -16.138  1.00  0.00    -0.003 C 
ATOM     26  C   UNL     1      13.208   8.190 -16.222  1.00  0.00     0.004 C 
ENDBRANCH  24  25
ENDBRANCH  23  24
ENDBRANCH  22  23
ENDBRANCH  21  22
ENDBRANCH  20  21
ENDBRANCH  19  20
ENDBRANCH  18  19
ENDBRANCH  17  18
ENDBRANCH  16  17
ENDBRANCH  15  16
ENDBRANCH   1  15
TORSDOF 22
ENDMDL
MODEL 9
REMARK VINA RESULT:    -5.790      1.242      4.003
REMARK INTER + INTRA:         -17.602
REMARK INTER:                 -13.154
REMARK INTRA:                  -4.449
REMARK UNBOUND:                -4.367
REMARK SMILES CCCCCCCCCCCCCCCCCCCCCCCC(=O)[O-]
REMARK SMILES IDX 13 1 14 2 15 3 16 4 17 5 18 6 19 7 20 8 21 9 22 10 23 11
REMARK SMILES IDX 24 12 25 13 26 14 12 15 11 16 10 17 9 18 8 19 7 20 6 21 5 22
REMARK SMILES IDX 4 23 3 24 2 25 1 26
REMARK H PARENT
REMARK Flexibility Score: inf
ROOT
ATOM      1  C   UNL     1      14.154   6.763 -11.914  1.00  0.00     0.000 C 
ENDROOT
BRANCH   1   2
ATOM      2  C   UNL     1      15.378   7.563 -12.397  1.00  0.00     0.000 C 
BRANCH   2   3
ATOM      3  C   UNL     1      15.270   8.124 -13.827  1.00  0.00     0.000 C 
BRANCH   3   4
ATOM      4  C   UNL     1      14.518   9.464 -13.889  1.00  0.00     0.000 C 
BRANCH   4   5
ATOM      5  C   UNL     1      14.406  10.147 -12.515  1.00  0.00     0.000 C 
BRANCH   5   6
ATOM      6  C   UNL     1      12.952  10.399 -12.091  1.00  0.00     0.000 C 
BRANCH   6   7
ATOM      7  C   UNL     1      11.973   9.623 -12.986  1.00  0.00     0.000 C 
BRANCH   7   8
ATOM      8  C   UNL     1      10.529   9.691 -12.463  1.00  0.00     0.000 C 
BRANCH   8   9
ATOM      9  C   UNL     1       9.716  10.808 -13.141  1.00  0.00     0.000 C 
BRANCH   9  10
ATOM     10  C   UNL     1       8.216  10.487 -13.218  1.00  0.00     0.006 C 
BRANCH  10  11
ATOM     11  C   UNL     1       7.931   8.979 -13.231  1.00  0.00     0.053 C 
BRANCH  11  12
ATOM     12  C   UNL     1       7.670   8.509 -14.628  1.00  0.00     0.041 C 
ATOM     13  O   UNL     1       7.136   9.281 -15.467  1.00  0.00    -0.550 OA
ATOM     14  O   UNL     1       7.980   7.205 -14.992  1.00  0.00    -0.550 OA
ENDBRANCH  11  12
ENDBRANCH  10  11
ENDBRANCH   9  10
ENDBRANCH   8   9
ENDBRANCH   7   8
ENDBRANCH   6   7
ENDBRANCH   5   6
ENDBRANCH   4   5
ENDBRANCH   3   4
ENDBRANCH   2   3
ENDBRANCH   1   2
BRANCH   1  15
ATOM     15  C   UNL     1      13.732   7.124 -10.479  1.00  0.00     0.000 C 
BRANCH  15  16
ATOM     16  C   UNL     1      13.270   5.899  -9.673  1.00  0.00     0.000 C 
BRANCH  16  17
ATOM     17  C   UNL     1      11.777   5.964  -9.305  1.00  0.00     0.000 C 
BRANCH  17  18
ATOM     18  C   UNL     1      10.948   6.781 -10.312  1.00  0.00    -0.000 C 
BRANCH  18  19
ATOM     19  C   UNL     1       9.865   5.984 -11.064  1.00  0.00    -0.000 C 
BRANCH  19  20
ATOM     20  C   UNL     1      10.111   5.921 -12.579  1.00  0.00    -0.000 C 
BRANCH  20  21
ATOM     21  C   UNL     1      11.127   4.821 -12.924  1.00  0.00    -0.000 C 
BRANCH  21  22
ATOM     22  C   UNL     1      11.847   5.076 -14.258  1.00  0.00    -0.000 C 
BRANCH  22  23
ATOM     23  C   UNL     1      11.527   6.456 -14.851  1.00  0.00    -0.000 C 
BRANCH  23  24
ATOM     24  C   UNL     1      12.559   6.848 -15.920  1.00  0.00    -0.000 C 
BRANCH  24  25
ATOM     25  C   UNL     1      12.347   8.275 -16.450  1.00  0.00    -0.003 C 
ATOM     26  C   UNL     1      10.870   8.656 -16.550  1.00  0.00     0.004 C 
ENDBRANCH  24  25
ENDBRANCH  23  24
ENDBRANCH  22  23
ENDBRANCH  21  22
ENDBRANCH  20  21
ENDBRANCH  19  20
ENDBRANCH  18  19
ENDBRANCH  17  18
ENDBRANCH  16  17
ENDBRANCH  15  16
ENDBRANCH   1  15
TORSDOF 22
ENDMDL
