MODEL 1
REMARK VINA RESULT:    24.034      0.000      0.000
REMARK INTER + INTRA:          28.662
REMARK INTER:                  28.249
REMARK INTRA:                   0.413
REMARK UNBOUND:                 0.413
REMARK SMILES O=c1c(O)c(-c2ccc(O)cc2)oc2cc(O)cc(O)c12
REMARK SMILES IDX 5 1 3 2 2 3 1 4 21 5 19 6 18 7 16 8 15 9 14 10 13 11 6 12
REMARK SMILES IDX 7 13 8 14 9 15 12 16 11 17 10 18 4 20 20 22 17 24
REMARK H PARENT 10 19 4 21 20 23 17 25
REMARK Flexibility Score: inf
ROOT
ATOM      1  C   UNL     1      -7.375  -3.984  20.923  1.00  0.00     0.180 A 
ATOM      2  C   UNL     1      -7.432  -4.462  19.602  1.00  0.00     0.208 A 
ATOM      3  C   UNL     1      -7.880  -5.772  19.369  1.00  0.00     0.238 A 
ATOM      4  O   UNL     1      -7.876  -6.211  18.190  1.00  0.00    -0.285 OA
ATOM      5  C   UNL     1      -8.281  -6.582  20.459  1.00  0.00     0.111 A 
ATOM      6  C   UNL     1      -8.791  -7.910  20.336  1.00  0.00     0.134 A 
ATOM      7  C   UNL     1      -9.033  -8.666  21.490  1.00  0.00     0.093 A 
ATOM      8  C   UNL     1      -8.850  -8.121  22.760  1.00  0.00     0.123 A 
ATOM      9  C   UNL     1      -8.410  -6.803  22.891  1.00  0.00     0.094 A 
ATOM     10  C   UNL     1      -8.124  -6.037  21.759  1.00  0.00     0.146 A 
ATOM     11  O   UNL     1      -7.697  -4.791  21.928  1.00  0.00    -0.452 OA
ENDROOT
BRANCH   1  12
ATOM     12  C   UNL     1      -6.938  -2.607  21.245  1.00  0.00     0.021 A 
ATOM     13  C   UNL     1      -6.615  -2.276  22.572  1.00  0.00     0.016 A 
ATOM     14  C   UNL     1      -6.221  -0.976  22.901  1.00  0.00     0.047 A 
ATOM     15  C   UNL     1      -6.161   0.014  21.913  1.00  0.00     0.115 A 
ATOM     16  C   UNL     1      -6.894  -1.602  20.260  1.00  0.00     0.016 A 
ATOM     17  C   UNL     1      -6.500  -0.303  20.594  1.00  0.00     0.047 A 
BRANCH  15  18
ATOM     18  O   UNL     1      -5.769   1.313  22.229  1.00  0.00    -0.508 OA
ATOM     19  H   UNL     1      -4.837   1.516  22.571  1.00  0.00     0.293 HD
ENDBRANCH  15  18
ENDBRANCH   1  12
BRANCH   2  20
ATOM     20  O   UNL     1      -7.009  -3.652  18.544  1.00  0.00    -0.502 OA
ATOM     21  H   UNL     1      -6.800  -4.024  17.625  1.00  0.00     0.293 HD
ENDBRANCH   2  20
BRANCH   6  22
ATOM     22  O   UNL     1      -9.098  -8.519  19.115  1.00  0.00    -0.507 OA
ATOM     23  H   UNL     1      -8.995  -9.503  18.922  1.00  0.00     0.293 HD
ENDBRANCH   6  22
BRANCH   8  24
ATOM     24  O   UNL     1      -9.117  -8.896  23.886  1.00  0.00    -0.508 OA
ATOM     25  H   UNL     1      -9.228  -9.902  23.823  1.00  0.00     0.293 HD
ENDBRANCH   8  24
TORSDOF 5
ENDMDL
