MODEL 1
REMARK VINA RESULT:    -4.771      0.000      0.000
REMARK INTER + INTRA:          -9.724
REMARK INTER:                  -8.118
REMARK INTRA:                  -1.606
REMARK UNBOUND:                -1.606
REMARK SMILES CCCCCCCCCCCCCC(=O)[O-]
REMARK SMILES IDX 8 1 9 2 10 3 11 4 12 5 13 6 14 7 15 8 16 9 7 10 6 11 5 12
REMARK SMILES IDX 4 13 3 14 2 15 1 16
REMARK H PARENT
REMARK Flexibility Score: inf
ROOT
ATOM      1  C   UNL     1     -27.098 -34.746 -11.642  1.00  0.00     0.000 C 
ENDROOT
BRANCH   1   2
ATOM      2  C   UNL     1     -25.625 -35.089 -11.389  1.00  0.00     0.000 C 
BRANCH   2   3
ATOM      3  C   UNL     1     -24.990 -35.739 -12.624  1.00  0.00     0.000 C 
BRANCH   3   4
ATOM      4  C   UNL     1     -23.467 -35.545 -12.626  1.00  0.00     0.000 C 
BRANCH   4   5
ATOM      5  C   UNL     1     -23.058 -34.064 -12.658  1.00  0.00     0.006 C 
BRANCH   5   6
ATOM      6  C   UNL     1     -21.731 -33.834 -13.395  1.00  0.00     0.053 C 
BRANCH   6   7
ATOM      7  C   UNL     1     -20.674 -34.752 -12.866  1.00  0.00     0.041 C 
ATOM      8  O   UNL     1     -20.148 -35.612 -13.620  1.00  0.00    -0.550 OA
ATOM      9  O   UNL     1     -20.306 -34.691 -11.529  1.00  0.00    -0.550 OA
ENDBRANCH   6   7
ENDBRANCH   5   6
ENDBRANCH   4   5
ENDBRANCH   3   4
ENDBRANCH   2   3
ENDBRANCH   1   2
BRANCH   1  10
ATOM     10  C   UNL     1     -27.460 -34.927 -13.121  1.00  0.00     0.000 C 
BRANCH  10  11
ATOM     11  C   UNL     1     -27.768 -33.575 -13.781  1.00  0.00    -0.000 C 
BRANCH  11  12
ATOM     12  C   UNL     1     -28.442 -32.584 -12.818  1.00  0.00    -0.000 C 
BRANCH  12  13
ATOM     13  C   UNL     1     -27.694 -31.246 -12.725  1.00  0.00    -0.000 C 
BRANCH  13  14
ATOM     14  C   UNL     1     -26.209 -31.423 -13.076  1.00  0.00    -0.000 C 
BRANCH  14  15
ATOM     15  C   UNL     1     -25.298 -31.352 -11.840  1.00  0.00    -0.003 C 
ATOM     16  C   UNL     1     -26.083 -31.269 -10.530  1.00  0.00     0.004 C 
ENDBRANCH  14  15
ENDBRANCH  13  14
ENDBRANCH  12  13
ENDBRANCH  11  12
ENDBRANCH  10  11
ENDBRANCH   1  10
TORSDOF 12
ENDMDL
MODEL 2
REMARK VINA RESULT:    -4.634      2.463      5.610
REMARK INTER + INTRA:          -9.491
REMARK INTER:                  -8.285
REMARK INTRA:                  -1.206
REMARK UNBOUND:                -1.606
REMARK SMILES CCCCCCCCCCCCCC(=O)[O-]
REMARK SMILES IDX 8 1 9 2 10 3 11 4 12 5 13 6 14 7 15 8 16 9 7 10 6 11 5 12
REMARK SMILES IDX 4 13 3 14 2 15 1 16
REMARK H PARENT
REMARK Flexibility Score: inf
ROOT
ATOM      1  C   UNL     1     -26.964 -34.735 -11.694  1.00  0.00     0.000 C 
ENDROOT
BRANCH   1   2
ATOM      2  C   UNL     1     -27.322 -34.964 -13.168  1.00  0.00     0.000 C 
BRANCH   2   3
ATOM      3  C   UNL     1     -27.938 -33.704 -13.788  1.00  0.00     0.000 C 
BRANCH   3   4
ATOM      4  C   UNL     1     -28.620 -32.841 -12.716  1.00  0.00     0.000 C 
BRANCH   4   5
ATOM      5  C   UNL     1     -28.337 -31.341 -12.894  1.00  0.00     0.006 C 
BRANCH   5   6
ATOM      6  C   UNL     1     -27.718 -30.704 -11.642  1.00  0.00     0.053 C 
BRANCH   6   7
ATOM      7  C   UNL     1     -26.298 -31.146 -11.479  1.00  0.00     0.041 C 
ATOM      8  O   UNL     1     -25.533 -31.203 -12.478  1.00  0.00    -0.550 OA
ATOM      9  O   UNL     1     -25.832 -31.543 -10.232  1.00  0.00    -0.550 OA
ENDBRANCH   6   7
ENDBRANCH   5   6
ENDBRANCH   4   5
ENDBRANCH   3   4
ENDBRANCH   2   3
ENDBRANCH   1   2
BRANCH   1  10
ATOM     10  C   UNL     1     -25.454 -34.873 -11.467  1.00  0.00     0.000 C 
BRANCH  10  11
ATOM     11  C   UNL     1     -24.832 -35.840 -12.484  1.00  0.00    -0.000 C 
BRANCH  11  12
ATOM     12  C   UNL     1     -23.316 -35.642 -12.641  1.00  0.00    -0.000 C 
BRANCH  12  13
ATOM     13  C   UNL     1     -22.906 -34.162 -12.621  1.00  0.00    -0.000 C 
BRANCH  13  14
ATOM     14  C   UNL     1     -21.378 -34.015 -12.671  1.00  0.00    -0.000 C 
BRANCH  14  15
ATOM     15  C   UNL     1     -20.648 -35.321 -12.317  1.00  0.00    -0.003 C 
ATOM     16  C   UNL     1     -19.539 -35.666 -13.312  1.00  0.00     0.004 C 
ENDBRANCH  14  15
ENDBRANCH  13  14
ENDBRANCH  12  13
ENDBRANCH  11  12
ENDBRANCH  10  11
ENDBRANCH   1  10
TORSDOF 12
ENDMDL
MODEL 3
REMARK VINA RESULT:    -4.616      0.849      3.155
REMARK INTER + INTRA:          -9.460
REMARK INTER:                  -7.688
REMARK INTRA:                  -1.772
REMARK UNBOUND:                -1.606
REMARK SMILES CCCCCCCCCCCCCC(=O)[O-]
REMARK SMILES IDX 8 1 9 2 10 3 11 4 12 5 13 6 14 7 15 8 16 9 7 10 6 11 5 12
REMARK SMILES IDX 4 13 3 14 2 15 1 16
REMARK H PARENT
REMARK Flexibility Score: inf
ROOT
ATOM      1  C   UNL     1     -26.480 -31.122 -12.639  1.00  0.00     0.000 C 
ENDROOT
BRANCH   1   2
ATOM      2  C   UNL     1     -26.178 -31.273 -11.143  1.00  0.00     0.000 C 
BRANCH   2   3
ATOM      3  C   UNL     1     -24.705 -31.630 -10.911  1.00  0.00     0.000 C 
BRANCH   3   4
ATOM      4  C   UNL     1     -24.042 -32.101 -12.214  1.00  0.00     0.000 C 
BRANCH   4   5
ATOM      5  C   UNL     1     -22.759 -32.910 -11.967  1.00  0.00     0.006 C 
BRANCH   5   6
ATOM      6  C   UNL     1     -21.937 -33.118 -13.246  1.00  0.00     0.053 C 
BRANCH   6   7
ATOM      7  C   UNL     1     -21.279 -34.462 -13.230  1.00  0.00     0.041 C 
ATOM      8  O   UNL     1     -20.473 -34.783 -14.143  1.00  0.00    -0.550 OA
ATOM      9  O   UNL     1     -21.593 -35.378 -12.235  1.00  0.00    -0.550 OA
ENDBRANCH   6   7
ENDBRANCH   5   6
ENDBRANCH   4   5
ENDBRANCH   3   4
ENDBRANCH   2   3
ENDBRANCH   1   2
BRANCH   1  10
ATOM     10  C   UNL     1     -27.987 -31.196 -12.907  1.00  0.00     0.000 C 
BRANCH  10  11
ATOM     11  C   UNL     1     -28.500 -32.636 -12.763  1.00  0.00    -0.000 C 
BRANCH  11  12
ATOM     12  C   UNL     1     -27.807 -33.613 -13.725  1.00  0.00    -0.000 C 
BRANCH  12  13
ATOM     13  C   UNL     1     -27.464 -34.957 -13.062  1.00  0.00    -0.000 C 
BRANCH  13  14
ATOM     14  C   UNL     1     -26.830 -34.739 -11.680  1.00  0.00    -0.000 C 
BRANCH  14  15
ATOM     15  C   UNL     1     -25.433 -35.368 -11.566  1.00  0.00    -0.003 C 
ATOM     16  C   UNL     1     -24.908 -35.891 -12.904  1.00  0.00     0.004 C 
ENDBRANCH  14  15
ENDBRANCH  13  14
ENDBRANCH  12  13
ENDBRANCH  11  12
ENDBRANCH  10  11
ENDBRANCH   1  10
TORSDOF 12
ENDMDL
MODEL 4
REMARK VINA RESULT:    -4.581      1.256      2.978
REMARK INTER + INTRA:          -9.400
REMARK INTER:                  -8.123
REMARK INTRA:                  -1.277
REMARK UNBOUND:                -1.606
REMARK SMILES CCCCCCCCCCCCCC(=O)[O-]
REMARK SMILES IDX 8 1 9 2 10 3 11 4 12 5 13 6 14 7 15 8 16 9 7 10 6 11 5 12
REMARK SMILES IDX 4 13 3 14 2 15 1 16
REMARK H PARENT
REMARK Flexibility Score: inf
ROOT
ATOM      1  C   UNL     1     -24.950 -31.809 -10.785  1.00  0.00     0.000 C 
ENDROOT
BRANCH   1   2
ATOM      2  C   UNL     1     -24.280 -32.682 -11.854  1.00  0.00     0.000 C 
BRANCH   2   3
ATOM      3  C   UNL     1     -24.827 -34.114 -11.818  1.00  0.00     0.000 C 
BRANCH   3   4
ATOM      4  C   UNL     1     -23.880 -35.082 -12.542  1.00  0.00     0.000 C 
BRANCH   4   5
ATOM      5  C   UNL     1     -22.485 -34.482 -12.777  1.00  0.00     0.006 C 
BRANCH   5   6
ATOM      6  C   UNL     1     -21.355 -35.465 -12.442  1.00  0.00     0.053 C 
BRANCH   6   7
ATOM      7  C   UNL     1     -20.269 -35.382 -13.468  1.00  0.00     0.041 C 
ATOM      8  O   UNL     1     -19.249 -36.115 -13.373  1.00  0.00    -0.550 OA
ATOM      9  O   UNL     1     -20.360 -34.460 -14.503  1.00  0.00    -0.550 OA
ENDBRANCH   6   7
ENDBRANCH   5   6
ENDBRANCH   4   5
ENDBRANCH   3   4
ENDBRANCH   2   3
ENDBRANCH   1   2
BRANCH   1  10
ATOM     10  C   UNL     1     -25.378 -30.457 -11.367  1.00  0.00     0.000 C 
BRANCH  10  11
ATOM     11  C   UNL     1     -26.372 -30.647 -12.523  1.00  0.00    -0.000 C 
BRANCH  11  12
ATOM     12  C   UNL     1     -27.813 -30.870 -12.037  1.00  0.00    -0.000 C 
BRANCH  12  13
ATOM     13  C   UNL     1     -28.637 -31.733 -13.004  1.00  0.00    -0.000 C 
BRANCH  13  14
ATOM     14  C   UNL     1     -28.331 -33.225 -12.805  1.00  0.00    -0.000 C 
BRANCH  14  15
ATOM     15  C   UNL     1     -27.806 -33.896 -14.085  1.00  0.00    -0.003 C 
ATOM     16  C   UNL     1     -27.604 -35.403 -13.923  1.00  0.00     0.004 C 
ENDBRANCH  14  15
ENDBRANCH  13  14
ENDBRANCH  12  13
ENDBRANCH  11  12
ENDBRANCH  10  11
ENDBRANCH   1  10
TORSDOF 12
ENDMDL
MODEL 5
REMARK VINA RESULT:    -4.465      2.597      5.516
REMARK INTER + INTRA:          -9.204
REMARK INTER:                  -7.974
REMARK INTRA:                  -1.229
REMARK UNBOUND:                -1.606
REMARK SMILES CCCCCCCCCCCCCC(=O)[O-]
REMARK SMILES IDX 8 1 9 2 10 3 11 4 12 5 13 6 14 7 15 8 16 9 7 10 6 11 5 12
REMARK SMILES IDX 4 13 3 14 2 15 1 16
REMARK H PARENT
REMARK Flexibility Score: inf
ROOT
ATOM      1  C   UNL     1     -26.338 -30.422 -11.446  1.00  0.00     0.000 C 
ENDROOT
BRANCH   1   2
ATOM      2  C   UNL     1     -27.841 -30.728 -11.440  1.00  0.00     0.000 C 
BRANCH   2   3
ATOM      3  C   UNL     1     -28.348 -31.020 -12.857  1.00  0.00     0.000 C 
BRANCH   3   4
ATOM      4  C   UNL     1     -27.919 -32.421 -13.316  1.00  0.00     0.000 C 
BRANCH   4   5
ATOM      5  C   UNL     1     -28.606 -33.542 -12.521  1.00  0.00     0.006 C 
BRANCH   5   6
ATOM      6  C   UNL     1     -27.653 -34.695 -12.180  1.00  0.00     0.053 C 
BRANCH   6   7
ATOM      7  C   UNL     1     -27.026 -35.240 -13.425  1.00  0.00     0.041 C 
ATOM      8  O   UNL     1     -25.795 -35.505 -13.451  1.00  0.00    -0.550 OA
ATOM      9  O   UNL     1     -27.790 -35.408 -14.573  1.00  0.00    -0.550 OA
ENDBRANCH   6   7
ENDBRANCH   5   6
ENDBRANCH   4   5
ENDBRANCH   3   4
ENDBRANCH   2   3
ENDBRANCH   1   2
BRANCH   1  10
ATOM     10  C   UNL     1     -25.598 -31.275 -10.408  1.00  0.00     0.000 C 
BRANCH  10  11
ATOM     11  C   UNL     1     -25.126 -32.601 -11.023  1.00  0.00    -0.000 C 
BRANCH  11  12
ATOM     12  C   UNL     1     -24.280 -32.399 -12.291  1.00  0.00    -0.000 C 
BRANCH  12  13
ATOM     13  C   UNL     1     -22.811 -32.807 -12.093  1.00  0.00    -0.000 C 
BRANCH  13  14
ATOM     14  C   UNL     1     -22.520 -34.153 -12.775  1.00  0.00    -0.000 C 
BRANCH  14  15
ATOM     15  C   UNL     1     -21.320 -34.082 -13.733  1.00  0.00    -0.003 C 
ATOM     16  C   UNL     1     -21.012 -32.656 -14.190  1.00  0.00     0.004 C 
ENDBRANCH  14  15
ENDBRANCH  13  14
ENDBRANCH  12  13
ENDBRANCH  11  12
ENDBRANCH  10  11
ENDBRANCH   1  10
TORSDOF 12
ENDMDL
MODEL 6
REMARK VINA RESULT:    -4.426      2.854      5.882
REMARK INTER + INTRA:          -9.137
REMARK INTER:                  -7.938
REMARK INTRA:                  -1.200
REMARK UNBOUND:                -1.606
REMARK SMILES CCCCCCCCCCCCCC(=O)[O-]
REMARK SMILES IDX 8 1 9 2 10 3 11 4 12 5 13 6 14 7 15 8 16 9 7 10 6 11 5 12
REMARK SMILES IDX 4 13 3 14 2 15 1 16
REMARK H PARENT
REMARK Flexibility Score: inf
ROOT
ATOM      1  C   UNL     1     -25.537 -31.380 -10.444  1.00  0.00     0.000 C 
ENDROOT
BRANCH   1   2
ATOM      2  C   UNL     1     -26.273 -30.211 -11.110  1.00  0.00     0.000 C 
BRANCH   2   3
ATOM      3  C   UNL     1     -27.776 -30.492 -11.212  1.00  0.00     0.000 C 
BRANCH   3   4
ATOM      4  C   UNL     1     -28.129 -31.100 -12.577  1.00  0.00     0.000 C 
BRANCH   4   5
ATOM      5  C   UNL     1     -28.231 -32.633 -12.535  1.00  0.00     0.006 C 
BRANCH   5   6
ATOM      6  C   UNL     1     -27.799 -33.290 -13.852  1.00  0.00     0.053 C 
BRANCH   6   7
ATOM      7  C   UNL     1     -27.646 -34.768 -13.674  1.00  0.00     0.041 C 
ATOM      8  O   UNL     1     -27.786 -35.286 -12.534  1.00  0.00    -0.550 OA
ATOM      9  O   UNL     1     -27.302 -35.567 -14.756  1.00  0.00    -0.550 OA
ENDBRANCH   6   7
ENDBRANCH   5   6
ENDBRANCH   4   5
ENDBRANCH   3   4
ENDBRANCH   2   3
ENDBRANCH   1   2
BRANCH   1  10
ATOM     10  C   UNL     1     -24.088 -31.472 -10.937  1.00  0.00     0.000 C 
BRANCH  10  11
ATOM     11  C   UNL     1     -23.993 -32.327 -12.209  1.00  0.00    -0.000 C 
BRANCH  11  12
ATOM     12  C   UNL     1     -24.631 -33.715 -12.040  1.00  0.00    -0.000 C 
BRANCH  12  13
ATOM     13  C   UNL     1     -23.750 -34.844 -12.597  1.00  0.00    -0.000 C 
BRANCH  13  14
ATOM     14  C   UNL     1     -22.298 -34.372 -12.767  1.00  0.00    -0.000 C 
BRANCH  14  15
ATOM     15  C   UNL     1     -21.288 -35.528 -12.681  1.00  0.00    -0.003 C 
ATOM     16  C   UNL     1     -20.418 -35.461 -11.425  1.00  0.00     0.004 C 
ENDBRANCH  14  15
ENDBRANCH  13  14
ENDBRANCH  12  13
ENDBRANCH  11  12
ENDBRANCH  10  11
ENDBRANCH   1  10
TORSDOF 12
ENDMDL
MODEL 7
REMARK VINA RESULT:    -4.270      1.615      3.613
REMARK INTER + INTRA:          -8.871
REMARK INTER:                  -7.124
REMARK INTRA:                  -1.747
REMARK UNBOUND:                -1.606
REMARK SMILES CCCCCCCCCCCCCC(=O)[O-]
REMARK SMILES IDX 8 1 9 2 10 3 11 4 12 5 13 6 14 7 15 8 16 9 7 10 6 11 5 12
REMARK SMILES IDX 4 13 3 14 2 15 1 16
REMARK H PARENT
REMARK Flexibility Score: inf
ROOT
ATOM      1  C   UNL     1     -27.821 -30.976 -11.712  1.00  0.00     0.000 C 
ENDROOT
BRANCH   1   2
ATOM      2  C   UNL     1     -26.750 -30.428 -10.760  1.00  0.00     0.000 C 
BRANCH   2   3
ATOM      3  C   UNL     1     -25.699 -31.497 -10.439  1.00  0.00     0.000 C 
BRANCH   3   4
ATOM      4  C   UNL     1     -24.285 -30.897 -10.452  1.00  0.00     0.000 C 
BRANCH   4   5
ATOM      5  C   UNL     1     -23.233 -31.873 -11.003  1.00  0.00     0.006 C 
BRANCH   5   6
ATOM      6  C   UNL     1     -23.084 -31.782 -12.527  1.00  0.00     0.053 C 
BRANCH   6   7
ATOM      7  C   UNL     1     -21.709 -32.201 -12.943  1.00  0.00     0.041 C 
ATOM      8  O   UNL     1     -21.555 -33.025 -13.883  1.00  0.00    -0.550 OA
ATOM      9  O   UNL     1     -20.599 -31.721 -12.261  1.00  0.00    -0.550 OA
ENDBRANCH   6   7
ENDBRANCH   5   6
ENDBRANCH   4   5
ENDBRANCH   3   4
ENDBRANCH   2   3
ENDBRANCH   1   2
BRANCH   1  10
ATOM     10  C   UNL     1     -27.198 -31.431 -13.037  1.00  0.00     0.000 C 
BRANCH  10  11
ATOM     11  C   UNL     1     -27.702 -32.828 -13.430  1.00  0.00    -0.000 C 
BRANCH  11  12
ATOM     12  C   UNL     1     -28.446 -33.535 -12.285  1.00  0.00    -0.000 C 
BRANCH  12  13
ATOM     13  C   UNL     1     -27.648 -34.709 -11.697  1.00  0.00    -0.000 C 
BRANCH  13  14
ATOM     14  C   UNL     1     -26.419 -35.025 -12.563  1.00  0.00    -0.000 C 
BRANCH  14  15
ATOM     15  C   UNL     1     -25.115 -35.054 -11.750  1.00  0.00    -0.003 C 
ATOM     16  C   UNL     1     -23.892 -35.387 -12.604  1.00  0.00     0.004 C 
ENDBRANCH  14  15
ENDBRANCH  13  14
ENDBRANCH  12  13
ENDBRANCH  11  12
ENDBRANCH  10  11
ENDBRANCH   1  10
TORSDOF 12
ENDMDL
MODEL 8
REMARK VINA RESULT:    -4.203      3.420      6.408
REMARK INTER + INTRA:          -8.757
REMARK INTER:                  -7.686
REMARK INTRA:                  -1.072
REMARK UNBOUND:                -1.606
REMARK SMILES CCCCCCCCCCCCCC(=O)[O-]
REMARK SMILES IDX 8 1 9 2 10 3 11 4 12 5 13 6 14 7 15 8 16 9 7 10 6 11 5 12
REMARK SMILES IDX 4 13 3 14 2 15 1 16
REMARK H PARENT
REMARK Flexibility Score: inf
ROOT
ATOM      1  C   UNL     1     -23.799 -35.459 -12.650  1.00  0.00     0.000 C 
ENDROOT
BRANCH   1   2
ATOM      2  C   UNL     1     -25.130 -36.170 -12.924  1.00  0.00     0.000 C 
BRANCH   2   3
ATOM      3  C   UNL     1     -26.118 -35.236 -13.631  1.00  0.00     0.000 C 
BRANCH   3   4
ATOM      4  C   UNL     1     -27.515 -35.334 -13.000  1.00  0.00     0.000 C 
BRANCH   4   5
ATOM      5  C   UNL     1     -27.955 -34.024 -12.327  1.00  0.00     0.006 C 
BRANCH   5   6
ATOM      6  C   UNL     1     -27.472 -32.780 -13.084  1.00  0.00     0.053 C 
BRANCH   6   7
ATOM      7  C   UNL     1     -28.187 -31.560 -12.595  1.00  0.00     0.041 C 
ATOM      8  O   UNL     1     -29.059 -31.006 -13.314  1.00  0.00    -0.550 OA
ATOM      9  O   UNL     1     -27.854 -31.006 -11.366  1.00  0.00    -0.550 OA
ENDBRANCH   6   7
ENDBRANCH   5   6
ENDBRANCH   4   5
ENDBRANCH   3   4
ENDBRANCH   2   3
ENDBRANCH   1   2
BRANCH   1  10
ATOM     10  C   UNL     1     -24.027 -33.993 -12.266  1.00  0.00     0.000 C 
BRANCH  10  11
ATOM     11  C   UNL     1     -22.744 -33.170 -12.453  1.00  0.00    -0.000 C 
BRANCH  11  12
ATOM     12  C   UNL     1     -21.770 -33.808 -13.457  1.00  0.00    -0.000 C 
BRANCH  12  13
ATOM     13  C   UNL     1     -20.353 -33.972 -12.887  1.00  0.00    -0.000 C 
BRANCH  13  14
ATOM     14  C   UNL     1     -19.695 -35.255 -13.415  1.00  0.00    -0.000 C 
BRANCH  14  15
ATOM     15  C   UNL     1     -19.435 -36.286 -12.304  1.00  0.00    -0.003 C 
ATOM     16  C   UNL     1     -19.682 -35.722 -10.905  1.00  0.00     0.004 C 
ENDBRANCH  14  15
ENDBRANCH  13  14
ENDBRANCH  12  13
ENDBRANCH  11  12
ENDBRANCH  10  11
ENDBRANCH   1  10
TORSDOF 12
ENDMDL
MODEL 9
REMARK VINA RESULT:    -4.189     15.499     17.220
REMARK INTER + INTRA:          -8.733
REMARK INTER:                  -7.323
REMARK INTRA:                  -1.410
REMARK UNBOUND:                -1.606
REMARK SMILES CCCCCCCCCCCCCC(=O)[O-]
REMARK SMILES IDX 8 1 9 2 10 3 11 4 12 5 13 6 14 7 15 8 16 9 7 10 6 11 5 12
REMARK SMILES IDX 4 13 3 14 2 15 1 16
REMARK H PARENT
REMARK Flexibility Score: inf
ROOT
ATOM      1  C   UNL     1     -30.928 -48.699  -8.768  1.00  0.00     0.000 C 
ENDROOT
BRANCH   1   2
ATOM      2  C   UNL     1     -29.945 -49.367  -7.797  1.00  0.00     0.000 C 
BRANCH   2   3
ATOM      3  C   UNL     1     -29.863 -48.594  -6.476  1.00  0.00     0.000 C 
BRANCH   3   4
ATOM      4  C   UNL     1     -30.919 -47.479  -6.426  1.00  0.00     0.000 C 
BRANCH   4   5
ATOM      5  C   UNL     1     -32.035 -47.766  -5.408  1.00  0.00     0.006 C 
BRANCH   5   6
ATOM      6  C   UNL     1     -33.432 -47.741  -6.041  1.00  0.00     0.053 C 
BRANCH   6   7
ATOM      7  C   UNL     1     -34.480 -47.576  -4.986  1.00  0.00     0.041 C 
ATOM      8  O   UNL     1     -35.192 -48.556  -4.641  1.00  0.00    -0.550 OA
ATOM      9  O   UNL     1     -34.706 -46.328  -4.419  1.00  0.00    -0.550 OA
ENDBRANCH   6   7
ENDBRANCH   5   6
ENDBRANCH   4   5
ENDBRANCH   3   4
ENDBRANCH   2   3
ENDBRANCH   1   2
BRANCH   1  10
ATOM     10  C   UNL     1     -32.081 -49.645  -9.122  1.00  0.00     0.000 C 
BRANCH  10  11
ATOM     11  C   UNL     1     -33.211 -48.890  -9.836  1.00  0.00    -0.000 C 
BRANCH  11  12
ATOM     12  C   UNL     1     -33.051 -47.363  -9.752  1.00  0.00    -0.000 C 
BRANCH  12  13
ATOM     13  C   UNL     1     -34.400 -46.628  -9.699  1.00  0.00    -0.000 C 
BRANCH  13  14
ATOM     14  C   UNL     1     -34.257 -45.185 -10.204  1.00  0.00    -0.000 C 
BRANCH  14  15
ATOM     15  C   UNL     1     -34.647 -44.146  -9.141  1.00  0.00    -0.003 C 
ATOM     16  C   UNL     1     -34.011 -44.425  -7.779  1.00  0.00     0.004 C 
ENDBRANCH  14  15
ENDBRANCH  13  14
ENDBRANCH  12  13
ENDBRANCH  11  12
ENDBRANCH  10  11
ENDBRANCH   1  10
TORSDOF 12
ENDMDL
