MODEL 1
REMARK VINA RESULT:    -3.452      0.000      0.000
REMARK INTER + INTRA:         -10.587
REMARK INTER:                  -7.891
REMARK INTRA:                  -2.696
REMARK UNBOUND:                -2.696
REMARK SMILES CCCCCCCCCCCCCCCCCCCCCCCC(=O)[O-]
REMARK SMILES IDX 13 1 14 2 15 3 16 4 17 5 18 6 19 7 20 8 21 9 22 10 23 11
REMARK SMILES IDX 24 12 25 13 26 14 12 15 11 16 10 17 9 18 8 19 7 20 6 21 5 22
REMARK SMILES IDX 4 23 3 24 2 25 1 26
REMARK H PARENT
REMARK Flexibility Score: inf
ROOT
ATOM      1  C   UNL     1      -0.399   0.749  -8.379  1.00  0.00     0.000 C 
ENDROOT
BRANCH   1   2
ATOM      2  C   UNL     1       0.147   1.976  -9.128  1.00  0.00     0.000 C 
BRANCH   2   3
ATOM      3  C   UNL     1       1.572   1.753  -9.664  1.00  0.00     0.000 C 
BRANCH   3   4
ATOM      4  C   UNL     1       2.472   2.988  -9.474  1.00  0.00     0.000 C 
BRANCH   4   5
ATOM      5  C   UNL     1       3.953   2.618  -9.290  1.00  0.00     0.000 C 
BRANCH   5   6
ATOM      6  C   UNL     1       4.148   1.231  -8.658  1.00  0.00     0.000 C 
BRANCH   6   7
ATOM      7  C   UNL     1       5.339   1.230  -7.687  1.00  0.00     0.000 C 
BRANCH   7   8
ATOM      8  C   UNL     1       5.343   0.015  -6.739  1.00  0.00     0.000 C 
BRANCH   8   9
ATOM      9  C   UNL     1       4.531  -1.199  -7.228  1.00  0.00     0.000 C 
BRANCH   9  10
ATOM     10  C   UNL     1       3.733  -1.881  -6.103  1.00  0.00     0.006 C 
BRANCH  10  11
ATOM     11  C   UNL     1       4.369  -1.654  -4.724  1.00  0.00     0.053 C 
BRANCH  11  12
ATOM     12  C   UNL     1       3.392  -1.895  -3.615  1.00  0.00     0.041 C 
ATOM     13  O   UNL     1       3.724  -1.689  -2.418  1.00  0.00    -0.550 OA
ATOM     14  O   UNL     1       2.102  -2.324  -3.908  1.00  0.00    -0.550 OA
ENDBRANCH  11  12
ENDBRANCH  10  11
ENDBRANCH   9  10
ENDBRANCH   8   9
ENDBRANCH   7   8
ENDBRANCH   6   7
ENDBRANCH   5   6
ENDBRANCH   4   5
ENDBRANCH   3   4
ENDBRANCH   2   3
ENDBRANCH   1   2
BRANCH   1  15
ATOM     15  C   UNL     1       0.624  -0.396  -8.281  1.00  0.00     0.000 C 
BRANCH  15  16
ATOM     16  C   UNL     1       0.392  -1.337  -7.080  1.00  0.00     0.000 C 
BRANCH  16  17
ATOM     17  C   UNL     1       0.309  -2.815  -7.502  1.00  0.00     0.000 C 
BRANCH  17  18
ATOM     18  C   UNL     1      -0.971  -3.128  -8.297  1.00  0.00    -0.000 C 
BRANCH  18  19
ATOM     19  C   UNL     1      -2.241  -2.984  -7.443  1.00  0.00    -0.000 C 
BRANCH  19  20
ATOM     20  C   UNL     1      -3.126  -1.840  -7.959  1.00  0.00    -0.000 C 
BRANCH  20  21
ATOM     21  C   UNL     1      -3.643  -0.925  -6.826  1.00  0.00    -0.000 C 
BRANCH  21  22
ATOM     22  C   UNL     1      -5.180  -0.881  -6.710  1.00  0.00    -0.000 C 
BRANCH  22  23
ATOM     23  C   UNL     1      -5.744  -1.408  -5.379  1.00  0.00    -0.000 C 
BRANCH  23  24
ATOM     24  C   UNL     1      -4.675  -1.590  -4.276  1.00  0.00    -0.000 C 
BRANCH  24  25
ATOM     25  C   UNL     1      -4.798  -2.935  -3.544  1.00  0.00    -0.003 C 
ATOM     26  C   UNL     1      -3.876  -3.983  -4.164  1.00  0.00     0.004 C 
ENDBRANCH  24  25
ENDBRANCH  23  24
ENDBRANCH  22  23
ENDBRANCH  21  22
ENDBRANCH  20  21
ENDBRANCH  19  20
ENDBRANCH  18  19
ENDBRANCH  17  18
ENDBRANCH  16  17
ENDBRANCH  15  16
ENDBRANCH   1  15
TORSDOF 22
ENDMDL
MODEL 2
REMARK VINA RESULT:    -3.367      2.886      5.818
REMARK INTER + INTRA:         -10.395
REMARK INTER:                  -6.240
REMARK INTRA:                  -4.155
REMARK UNBOUND:                -2.696
REMARK SMILES CCCCCCCCCCCCCCCCCCCCCCCC(=O)[O-]
REMARK SMILES IDX 13 1 14 2 15 3 16 4 17 5 18 6 19 7 20 8 21 9 22 10 23 11
REMARK SMILES IDX 24 12 25 13 26 14 12 15 11 16 10 17 9 18 8 19 7 20 6 21 5 22
REMARK SMILES IDX 4 23 3 24 2 25 1 26
REMARK H PARENT
REMARK Flexibility Score: inf
ROOT
ATOM      1  C   UNL     1      -4.867  -0.810  -5.678  1.00  0.00     0.000 C 
ENDROOT
BRANCH   1   2
ATOM      2  C   UNL     1      -6.124  -0.980  -6.547  1.00  0.00     0.000 C 
BRANCH   2   3
ATOM      3  C   UNL     1      -5.822  -0.867  -8.051  1.00  0.00     0.000 C 
BRANCH   3   4
ATOM      4  C   UNL     1      -4.792   0.235  -8.363  1.00  0.00     0.000 C 
BRANCH   4   5
ATOM      5  C   UNL     1      -3.644  -0.263  -9.257  1.00  0.00     0.000 C 
BRANCH   5   6
ATOM      6  C   UNL     1      -2.279  -0.225  -8.551  1.00  0.00     0.000 C 
BRANCH   6   7
ATOM      7  C   UNL     1      -2.055  -1.495  -7.715  1.00  0.00     0.000 C 
BRANCH   7   8
ATOM      8  C   UNL     1      -0.595  -1.663  -7.253  1.00  0.00     0.000 C 
BRANCH   8   9
ATOM      9  C   UNL     1       0.029  -3.042  -7.543  1.00  0.00     0.000 C 
BRANCH   9  10
ATOM     10  C   UNL     1       1.006  -3.501  -6.447  1.00  0.00     0.006 C 
BRANCH  10  11
ATOM     11  C   UNL     1       2.109  -2.466  -6.185  1.00  0.00     0.053 C 
BRANCH  11  12
ATOM     12  C   UNL     1       2.720  -2.638  -4.829  1.00  0.00     0.041 C 
ATOM     13  O   UNL     1       2.114  -2.232  -3.801  1.00  0.00    -0.550 OA
ATOM     14  O   UNL     1       3.952  -3.269  -4.697  1.00  0.00    -0.550 OA
ENDBRANCH  11  12
ENDBRANCH  10  11
ENDBRANCH   9  10
ENDBRANCH   8   9
ENDBRANCH   7   8
ENDBRANCH   6   7
ENDBRANCH   5   6
ENDBRANCH   4   5
ENDBRANCH   3   4
ENDBRANCH   2   3
ENDBRANCH   1   2
BRANCH   1  15
ATOM     15  C   UNL     1      -4.971  -1.539  -4.327  1.00  0.00     0.000 C 
BRANCH  15  16
ATOM     16  C   UNL     1      -6.422  -1.778  -3.859  1.00  0.00     0.000 C 
BRANCH  16  17
ATOM     17  C   UNL     1      -6.530  -2.946  -2.863  1.00  0.00     0.000 C 
BRANCH  17  18
ATOM     18  C   UNL     1      -5.170  -3.611  -2.587  1.00  0.00    -0.000 C 
BRANCH  18  19
ATOM     19  C   UNL     1      -5.238  -5.144  -2.677  1.00  0.00    -0.000 C 
BRANCH  19  20
ATOM     20  C   UNL     1      -4.170  -5.689  -3.637  1.00  0.00    -0.000 C 
BRANCH  20  21
ATOM     21  C   UNL     1      -2.989  -4.712  -3.837  1.00  0.00    -0.000 C 
BRANCH  21  22
ATOM     22  C   UNL     1      -2.729  -4.340  -5.310  1.00  0.00    -0.000 C 
BRANCH  22  23
ATOM     23  C   UNL     1      -3.582  -5.112  -6.332  1.00  0.00    -0.000 C 
BRANCH  23  24
ATOM     24  C   UNL     1      -4.458  -4.205  -7.227  1.00  0.00    -0.000 C 
BRANCH  24  25
ATOM     25  C   UNL     1      -5.867  -4.773  -7.452  1.00  0.00    -0.003 C 
ATOM     26  C   UNL     1      -6.712  -4.662  -6.185  1.00  0.00     0.004 C 
ENDBRANCH  24  25
ENDBRANCH  23  24
ENDBRANCH  22  23
ENDBRANCH  21  22
ENDBRANCH  20  21
ENDBRANCH  19  20
ENDBRANCH  18  19
ENDBRANCH  17  18
ENDBRANCH  16  17
ENDBRANCH  15  16
ENDBRANCH   1  15
TORSDOF 22
ENDMDL
MODEL 3
REMARK VINA RESULT:    -3.363     10.882     14.464
REMARK INTER + INTRA:         -10.384
REMARK INTER:                  -7.689
REMARK INTRA:                  -2.695
REMARK UNBOUND:                -2.696
REMARK SMILES CCCCCCCCCCCCCCCCCCCCCCCC(=O)[O-]
REMARK SMILES IDX 13 1 14 2 15 3 16 4 17 5 18 6 19 7 20 8 21 9 22 10 23 11
REMARK SMILES IDX 24 12 25 13 26 14 12 15 11 16 10 17 9 18 8 19 7 20 6 21 5 22
REMARK SMILES IDX 4 23 3 24 2 25 1 26
REMARK H PARENT
REMARK Flexibility Score: inf
ROOT
ATOM      1  C   UNL     1       7.256   5.120   5.826  1.00  0.00     0.000 C 
ENDROOT
BRANCH   1   2
ATOM      2  C   UNL     1       6.068   4.702   6.707  1.00  0.00     0.000 C 
BRANCH   2   3
ATOM      3  C   UNL     1       4.853   5.631   6.539  1.00  0.00     0.000 C 
BRANCH   3   4
ATOM      4  C   UNL     1       5.170   6.864   5.672  1.00  0.00     0.000 C 
BRANCH   4   5
ATOM      5  C   UNL     1       3.933   7.739   5.413  1.00  0.00     0.000 C 
BRANCH   5   6
ATOM      6  C   UNL     1       4.124   8.710   4.237  1.00  0.00     0.000 C 
BRANCH   6   7
ATOM      7  C   UNL     1       5.274   8.252   3.325  1.00  0.00     0.000 C 
BRANCH   7   8
ATOM      8  C   UNL     1       5.096   8.696   1.860  1.00  0.00     0.000 C 
BRANCH   8   9
ATOM      9  C   UNL     1       4.055   7.894   1.055  1.00  0.00     0.000 C 
BRANCH   9  10
ATOM     10  C   UNL     1       2.921   8.771   0.498  1.00  0.00     0.006 C 
BRANCH  10  11
ATOM     11  C   UNL     1       1.674   7.948   0.146  1.00  0.00     0.053 C 
BRANCH  11  12
ATOM     12  C   UNL     1       0.942   7.498   1.373  1.00  0.00     0.041 C 
ATOM     13  O   UNL     1       0.242   6.450   1.347  1.00  0.00    -0.550 OA
ATOM     14  O   UNL     1       1.054   8.223   2.553  1.00  0.00    -0.550 OA
ENDBRANCH  11  12
ENDBRANCH  10  11
ENDBRANCH   9  10
ENDBRANCH   8   9
ENDBRANCH   7   8
ENDBRANCH   6   7
ENDBRANCH   5   6
ENDBRANCH   4   5
ENDBRANCH   3   4
ENDBRANCH   2   3
ENDBRANCH   1   2
BRANCH   1  15
ATOM     15  C   UNL     1       8.273   3.985   5.614  1.00  0.00     0.000 C 
BRANCH  15  16
ATOM     16  C   UNL     1       9.258   4.239   4.454  1.00  0.00     0.000 C 
BRANCH  16  17
ATOM     17  C   UNL     1       8.924   3.398   3.208  1.00  0.00     0.000 C 
BRANCH  17  18
ATOM     18  C   UNL     1       8.678   4.266   1.962  1.00  0.00    -0.000 C 
BRANCH  18  19
ATOM     19  C   UNL     1       8.146   5.664   2.317  1.00  0.00    -0.000 C 
BRANCH  19  20
ATOM     20  C   UNL     1       7.836   6.475   1.051  1.00  0.00    -0.000 C 
BRANCH  20  21
ATOM     21  C   UNL     1       7.932   5.630  -0.240  1.00  0.00    -0.000 C 
BRANCH  21  22
ATOM     22  C   UNL     1       7.076   6.170  -1.404  1.00  0.00    -0.000 C 
BRANCH  22  23
ATOM     23  C   UNL     1       5.611   5.699  -1.402  1.00  0.00    -0.000 C 
BRANCH  23  24
ATOM     24  C   UNL     1       4.860   5.991  -2.722  1.00  0.00    -0.000 C 
BRANCH  24  25
ATOM     25  C   UNL     1       4.084   7.316  -2.684  1.00  0.00    -0.003 C 
ATOM     26  C   UNL     1       4.588   8.277  -3.759  1.00  0.00     0.004 C 
ENDBRANCH  24  25
ENDBRANCH  23  24
ENDBRANCH  22  23
ENDBRANCH  21  22
ENDBRANCH  20  21
ENDBRANCH  19  20
ENDBRANCH  18  19
ENDBRANCH  17  18
ENDBRANCH  16  17
ENDBRANCH  15  16
ENDBRANCH   1  15
TORSDOF 22
ENDMDL
MODEL 4
REMARK VINA RESULT:    -3.361     11.195     14.445
REMARK INTER + INTRA:         -10.379
REMARK INTER:                  -7.606
REMARK INTRA:                  -2.774
REMARK UNBOUND:                -2.696
REMARK SMILES CCCCCCCCCCCCCCCCCCCCCCCC(=O)[O-]
REMARK SMILES IDX 13 1 14 2 15 3 16 4 17 5 18 6 19 7 20 8 21 9 22 10 23 11
REMARK SMILES IDX 24 12 25 13 26 14 12 15 11 16 10 17 9 18 8 19 7 20 6 21 5 22
REMARK SMILES IDX 4 23 3 24 2 25 1 26
REMARK H PARENT
REMARK Flexibility Score: inf
ROOT
ATOM      1  C   UNL     1       4.154   9.080   5.043  1.00  0.00     0.000 C 
ENDROOT
BRANCH   1   2
ATOM      2  C   UNL     1       4.083   8.350   3.691  1.00  0.00     0.000 C 
BRANCH   2   3
ATOM      3  C   UNL     1       4.952   9.020   2.613  1.00  0.00     0.000 C 
BRANCH   3   4
ATOM      4  C   UNL     1       4.363   8.861   1.199  1.00  0.00     0.000 C 
BRANCH   4   5
ATOM      5  C   UNL     1       3.174   7.887   1.159  1.00  0.00     0.000 C 
BRANCH   5   6
ATOM      6  C   UNL     1       2.138   8.254   0.084  1.00  0.00     0.000 C 
BRANCH   6   7
ATOM      7  C   UNL     1       0.742   7.737   0.466  1.00  0.00     0.000 C 
BRANCH   7   8
ATOM      8  C   UNL     1       0.712   7.044   1.842  1.00  0.00     0.000 C 
BRANCH   8   9
ATOM      9  C   UNL     1      -0.695   6.781   2.412  1.00  0.00     0.000 C 
BRANCH   9  10
ATOM     10  C   UNL     1      -1.809   6.948   1.363  1.00  0.00     0.006 C 
BRANCH  10  11
ATOM     11  C   UNL     1      -2.260   5.601   0.781  1.00  0.00     0.053 C 
BRANCH  11  12
ATOM     12  C   UNL     1      -3.657   5.257   1.197  1.00  0.00     0.041 C 
ATOM     13  O   UNL     1      -3.987   5.296   2.412  1.00  0.00    -0.550 OA
ATOM     14  O   UNL     1      -4.603   4.915   0.237  1.00  0.00    -0.550 OA
ENDBRANCH  11  12
ENDBRANCH  10  11
ENDBRANCH   9  10
ENDBRANCH   8   9
ENDBRANCH   7   8
ENDBRANCH   6   7
ENDBRANCH   5   6
ENDBRANCH   4   5
ENDBRANCH   3   4
ENDBRANCH   2   3
ENDBRANCH   1   2
BRANCH   1  15
ATOM     15  C   UNL     1       4.600   8.162   6.195  1.00  0.00     0.000 C 
BRANCH  15  16
ATOM     16  C   UNL     1       4.292   6.669   5.955  1.00  0.00     0.000 C 
BRANCH  16  17
ATOM     17  C   UNL     1       5.486   5.762   6.306  1.00  0.00     0.000 C 
BRANCH  17  18
ATOM     18  C   UNL     1       6.839   6.439   6.026  1.00  0.00    -0.000 C 
BRANCH  18  19
ATOM     19  C   UNL     1       7.576   5.805   4.836  1.00  0.00    -0.000 C 
BRANCH  19  20
ATOM     20  C   UNL     1       7.658   6.781   3.653  1.00  0.00    -0.000 C 
BRANCH  20  21
ATOM     21  C   UNL     1       7.946   6.071   2.310  1.00  0.00    -0.000 C 
BRANCH  21  22
ATOM     22  C   UNL     1       7.340   6.785   1.085  1.00  0.00    -0.000 C 
BRANCH  22  23
ATOM     23  C   UNL     1       6.705   5.852   0.040  1.00  0.00    -0.000 C 
BRANCH  23  24
ATOM     24  C   UNL     1       6.249   6.575  -1.249  1.00  0.00    -0.000 C 
BRANCH  24  25
ATOM     25  C   UNL     1       5.217   5.768  -2.050  1.00  0.00    -0.003 C 
ATOM     26  C   UNL     1       4.142   6.680  -2.637  1.00  0.00     0.004 C 
ENDBRANCH  24  25
ENDBRANCH  23  24
ENDBRANCH  22  23
ENDBRANCH  21  22
ENDBRANCH  20  21
ENDBRANCH  19  20
ENDBRANCH  18  19
ENDBRANCH  17  18
ENDBRANCH  16  17
ENDBRANCH  15  16
ENDBRANCH   1  15
TORSDOF 22
ENDMDL
MODEL 5
REMARK VINA RESULT:    -3.360      4.385      8.811
REMARK INTER + INTRA:         -10.378
REMARK INTER:                  -5.729
REMARK INTRA:                  -4.649
REMARK UNBOUND:                -2.696
REMARK SMILES CCCCCCCCCCCCCCCCCCCCCCCC(=O)[O-]
REMARK SMILES IDX 13 1 14 2 15 3 16 4 17 5 18 6 19 7 20 8 21 9 22 10 23 11
REMARK SMILES IDX 24 12 25 13 26 14 12 15 11 16 10 17 9 18 8 19 7 20 6 21 5 22
REMARK SMILES IDX 4 23 3 24 2 25 1 26
REMARK H PARENT
REMARK Flexibility Score: inf
ROOT
ATOM      1  C   UNL     1      -5.051  -6.734  -3.087  1.00  0.00     0.000 C 
ENDROOT
BRANCH   1   2
ATOM      2  C   UNL     1      -6.521  -6.744  -2.638  1.00  0.00     0.000 C 
BRANCH   2   3
ATOM      3  C   UNL     1      -7.408  -5.830  -3.500  1.00  0.00     0.000 C 
BRANCH   3   4
ATOM      4  C   UNL     1      -7.014  -4.345  -3.383  1.00  0.00     0.000 C 
BRANCH   4   5
ATOM      5  C   UNL     1      -7.680  -3.470  -4.457  1.00  0.00     0.000 C 
BRANCH   5   6
ATOM      6  C   UNL     1      -7.267  -1.992  -4.363  1.00  0.00     0.000 C 
BRANCH   6   7
ATOM      7  C   UNL     1      -5.888  -1.847  -3.700  1.00  0.00     0.000 C 
BRANCH   7   8
ATOM      8  C   UNL     1      -4.839  -1.201  -4.626  1.00  0.00     0.000 C 
BRANCH   8   9
ATOM      9  C   UNL     1      -5.263  -1.067  -6.101  1.00  0.00     0.000 C 
BRANCH   9  10
ATOM     10  C   UNL     1      -4.074  -0.828  -7.048  1.00  0.00     0.006 C 
BRANCH  10  11
ATOM     11  C   UNL     1      -2.795  -1.519  -6.556  1.00  0.00     0.053 C 
BRANCH  11  12
ATOM     12  C   UNL     1      -1.564  -0.790  -6.999  1.00  0.00     0.041 C 
ATOM     13  O   UNL     1      -0.592  -0.644  -6.211  1.00  0.00    -0.550 OA
ATOM     14  O   UNL     1      -1.482  -0.290  -8.294  1.00  0.00    -0.550 OA
ENDBRANCH  11  12
ENDBRANCH  10  11
ENDBRANCH   9  10
ENDBRANCH   8   9
ENDBRANCH   7   8
ENDBRANCH   6   7
ENDBRANCH   5   6
ENDBRANCH   4   5
ENDBRANCH   3   4
ENDBRANCH   2   3
ENDBRANCH   1   2
BRANCH   1  15
ATOM     15  C   UNL     1      -4.099  -6.193  -2.007  1.00  0.00     0.000 C 
BRANCH  15  16
ATOM     16  C   UNL     1      -2.973  -5.294  -2.562  1.00  0.00     0.000 C 
BRANCH  16  17
ATOM     17  C   UNL     1      -3.392  -4.560  -3.848  1.00  0.00     0.000 C 
BRANCH  17  18
ATOM     18  C   UNL     1      -2.435  -4.835  -5.020  1.00  0.00    -0.000 C 
BRANCH  18  19
ATOM     19  C   UNL     1      -3.180  -5.059  -6.346  1.00  0.00    -0.000 C 
BRANCH  19  20
ATOM     20  C   UNL     1      -4.696  -4.899  -6.162  1.00  0.00    -0.000 C 
BRANCH  20  21
ATOM     21  C   UNL     1      -5.505  -6.012  -6.864  1.00  0.00    -0.000 C 
BRANCH  21  22
ATOM     22  C   UNL     1      -4.659  -7.232  -7.279  1.00  0.00    -0.000 C 
BRANCH  22  23
ATOM     23  C   UNL     1      -4.587  -8.357  -6.232  1.00  0.00    -0.000 C 
BRANCH  23  24
ATOM     24  C   UNL     1      -3.164  -8.927  -6.025  1.00  0.00    -0.000 C 
BRANCH  24  25
ATOM     25  C   UNL     1      -2.696  -8.841  -4.564  1.00  0.00    -0.003 C 
ATOM     26  C   UNL     1      -1.304  -8.220  -4.470  1.00  0.00     0.004 C 
ENDBRANCH  24  25
ENDBRANCH  23  24
ENDBRANCH  22  23
ENDBRANCH  21  22
ENDBRANCH  20  21
ENDBRANCH  19  20
ENDBRANCH  18  19
ENDBRANCH  17  18
ENDBRANCH  16  17
ENDBRANCH  15  16
ENDBRANCH   1  15
TORSDOF 22
ENDMDL
MODEL 6
REMARK VINA RESULT:    -3.360      2.938      7.730
REMARK INTER + INTRA:         -10.378
REMARK INTER:                  -7.578
REMARK INTRA:                  -2.800
REMARK UNBOUND:                -2.696
REMARK SMILES CCCCCCCCCCCCCCCCCCCCCCCC(=O)[O-]
REMARK SMILES IDX 13 1 14 2 15 3 16 4 17 5 18 6 19 7 20 8 21 9 22 10 23 11
REMARK SMILES IDX 24 12 25 13 26 14 12 15 11 16 10 17 9 18 8 19 7 20 6 21 5 22
REMARK SMILES IDX 4 23 3 24 2 25 1 26
REMARK H PARENT
REMARK Flexibility Score: inf
ROOT
ATOM      1  C   UNL     1       1.601   2.052  -9.483  1.00  0.00     0.000 C 
ENDROOT
BRANCH   1   2
ATOM      2  C   UNL     1       0.277   2.830  -9.405  1.00  0.00     0.000 C 
BRANCH   2   3
ATOM      3  C   UNL     1      -0.949   1.903  -9.358  1.00  0.00     0.000 C 
BRANCH   3   4
ATOM      4  C   UNL     1      -0.562   0.413  -9.375  1.00  0.00     0.000 C 
BRANCH   4   5
ATOM      5  C   UNL     1      -0.795  -0.275  -8.020  1.00  0.00     0.000 C 
BRANCH   5   6
ATOM      6  C   UNL     1       0.453  -1.005  -7.498  1.00  0.00     0.000 C 
BRANCH   6   7
ATOM      7  C   UNL     1       0.975  -2.013  -8.535  1.00  0.00     0.000 C 
BRANCH   7   8
ATOM      8  C   UNL     1       2.469  -2.344  -8.354  1.00  0.00     0.000 C 
BRANCH   8   9
ATOM      9  C   UNL     1       3.309  -1.235  -7.693  1.00  0.00     0.000 C 
BRANCH   9  10
ATOM     10  C   UNL     1       3.939  -1.673  -6.359  1.00  0.00     0.006 C 
BRANCH  10  11
ATOM     11  C   UNL     1       3.494  -3.083  -5.946  1.00  0.00     0.053 C 
BRANCH  11  12
ATOM     12  C   UNL     1       2.323  -3.044  -5.013  1.00  0.00     0.041 C 
ATOM     13  O   UNL     1       2.329  -2.273  -4.016  1.00  0.00    -0.550 OA
ATOM     14  O   UNL     1       1.213  -3.843  -5.259  1.00  0.00    -0.550 OA
ENDBRANCH  11  12
ENDBRANCH  10  11
ENDBRANCH   9  10
ENDBRANCH   8   9
ENDBRANCH   7   8
ENDBRANCH   6   7
ENDBRANCH   5   6
ENDBRANCH   4   5
ENDBRANCH   3   4
ENDBRANCH   2   3
ENDBRANCH   1   2
BRANCH   1  15
ATOM     15  C   UNL     1       2.837   2.963  -9.383  1.00  0.00     0.000 C 
BRANCH  15  16
ATOM     16  C   UNL     1       4.148   2.204  -9.090  1.00  0.00     0.000 C 
BRANCH  16  17
ATOM     17  C   UNL     1       5.371   3.138  -9.058  1.00  0.00     0.000 C 
BRANCH  17  18
ATOM     18  C   UNL     1       6.424   2.692  -8.029  1.00  0.00    -0.000 C 
BRANCH  18  19
ATOM     19  C   UNL     1       6.746   1.193  -8.131  1.00  0.00    -0.000 C 
BRANCH  19  20
ATOM     20  C   UNL     1       6.894   0.564  -6.737  1.00  0.00    -0.000 C 
BRANCH  20  21
ATOM     21  C   UNL     1       5.927   1.175  -5.698  1.00  0.00    -0.000 C 
BRANCH  21  22
ATOM     22  C   UNL     1       6.538   1.326  -4.291  1.00  0.00    -0.000 C 
BRANCH  22  23
ATOM     23  C   UNL     1       7.696   2.334  -4.193  1.00  0.00    -0.000 C 
BRANCH  23  24
ATOM     24  C   UNL     1       7.299   3.780  -4.571  1.00  0.00    -0.000 C 
BRANCH  24  25
ATOM     25  C   UNL     1       7.294   4.730  -3.364  1.00  0.00    -0.003 C 
ATOM     26  C   UNL     1       5.867   5.090  -2.955  1.00  0.00     0.004 C 
ENDBRANCH  24  25
ENDBRANCH  23  24
ENDBRANCH  22  23
ENDBRANCH  21  22
ENDBRANCH  20  21
ENDBRANCH  19  20
ENDBRANCH  18  19
ENDBRANCH  17  18
ENDBRANCH  16  17
ENDBRANCH  15  16
ENDBRANCH   1  15
TORSDOF 22
ENDMDL
MODEL 7
REMARK VINA RESULT:    -3.346      8.457     11.436
REMARK INTER + INTRA:         -10.346
REMARK INTER:                  -7.714
REMARK INTRA:                  -2.631
REMARK UNBOUND:                -2.696
REMARK SMILES CCCCCCCCCCCCCCCCCCCCCCCC(=O)[O-]
REMARK SMILES IDX 13 1 14 2 15 3 16 4 17 5 18 6 19 7 20 8 21 9 22 10 23 11
REMARK SMILES IDX 24 12 25 13 26 14 12 15 11 16 10 17 9 18 8 19 7 20 6 21 5 22
REMARK SMILES IDX 4 23 3 24 2 25 1 26
REMARK H PARENT
REMARK Flexibility Score: inf
ROOT
ATOM      1  C   UNL     1       5.690   6.575  -0.446  1.00  0.00     0.000 C 
ENDROOT
BRANCH   1   2
ATOM      2  C   UNL     1       5.025   6.593  -1.832  1.00  0.00     0.000 C 
BRANCH   2   3
ATOM      3  C   UNL     1       5.258   5.288  -2.614  1.00  0.00     0.000 C 
BRANCH   3   4
ATOM      4  C   UNL     1       6.458   5.383  -3.575  1.00  0.00     0.000 C 
BRANCH   4   5
ATOM      5  C   UNL     1       7.586   4.403  -3.212  1.00  0.00     0.000 C 
BRANCH   5   6
ATOM      6  C   UNL     1       8.157   3.671  -4.437  1.00  0.00     0.000 C 
BRANCH   6   7
ATOM      7  C   UNL     1       8.021   2.148  -4.281  1.00  0.00     0.000 C 
BRANCH   7   8
ATOM      8  C   UNL     1       6.719   1.595  -4.891  1.00  0.00     0.000 C 
BRANCH   8   9
ATOM      9  C   UNL     1       6.482   0.088  -4.672  1.00  0.00     0.000 C 
BRANCH   9  10
ATOM     10  C   UNL     1       5.180  -0.211  -3.910  1.00  0.00     0.006 C 
BRANCH  10  11
ATOM     11  C   UNL     1       4.610  -1.593  -4.259  1.00  0.00     0.053 C 
BRANCH  11  12
ATOM     12  C   UNL     1       3.462  -1.960  -3.371  1.00  0.00     0.041 C 
ATOM     13  O   UNL     1       3.590  -1.925  -2.118  1.00  0.00    -0.550 OA
ATOM     14  O   UNL     1       2.240  -2.320  -3.929  1.00  0.00    -0.550 OA
ENDBRANCH  11  12
ENDBRANCH  10  11
ENDBRANCH   9  10
ENDBRANCH   8   9
ENDBRANCH   7   8
ENDBRANCH   6   7
ENDBRANCH   5   6
ENDBRANCH   4   5
ENDBRANCH   3   4
ENDBRANCH   2   3
ENDBRANCH   1   2
BRANCH   1  15
ATOM     15  C   UNL     1       6.982   7.409  -0.392  1.00  0.00     0.000 C 
BRANCH  15  16
ATOM     16  C   UNL     1       8.208   6.623   0.121  1.00  0.00     0.000 C 
BRANCH  16  17
ATOM     17  C   UNL     1       7.813   5.472   1.064  1.00  0.00     0.000 C 
BRANCH  17  18
ATOM     18  C   UNL     1       8.491   5.581   2.440  1.00  0.00    -0.000 C 
BRANCH  18  19
ATOM     19  C   UNL     1       8.321   6.974   3.069  1.00  0.00    -0.000 C 
BRANCH  19  20
ATOM     20  C   UNL     1       6.965   7.098   3.779  1.00  0.00    -0.000 C 
BRANCH  20  21
ATOM     21  C   UNL     1       6.250   8.434   3.475  1.00  0.00    -0.000 C 
BRANCH  21  22
ATOM     22  C   UNL     1       4.952   8.276   2.659  1.00  0.00    -0.000 C 
BRANCH  22  23
ATOM     23  C   UNL     1       4.610   9.467   1.748  1.00  0.00    -0.000 C 
BRANCH  23  24
ATOM     24  C   UNL     1       3.493   9.168   0.721  1.00  0.00    -0.000 C 
BRANCH  24  25
ATOM     25  C   UNL     1       2.594   7.997   1.144  1.00  0.00    -0.003 C 
ATOM     26  C   UNL     1       1.383   7.874   0.224  1.00  0.00     0.004 C 
ENDBRANCH  24  25
ENDBRANCH  23  24
ENDBRANCH  22  23
ENDBRANCH  21  22
ENDBRANCH  20  21
ENDBRANCH  19  20
ENDBRANCH  18  19
ENDBRANCH  17  18
ENDBRANCH  16  17
ENDBRANCH  15  16
ENDBRANCH   1  15
TORSDOF 22
ENDMDL
MODEL 8
REMARK VINA RESULT:    -3.345      3.081      7.076
REMARK INTER + INTRA:         -10.342
REMARK INTER:                  -6.360
REMARK INTRA:                  -3.983
REMARK UNBOUND:                -2.696
REMARK SMILES CCCCCCCCCCCCCCCCCCCCCCCC(=O)[O-]
REMARK SMILES IDX 13 1 14 2 15 3 16 4 17 5 18 6 19 7 20 8 21 9 22 10 23 11
REMARK SMILES IDX 24 12 25 13 26 14 12 15 11 16 10 17 9 18 8 19 7 20 6 21 5 22
REMARK SMILES IDX 4 23 3 24 2 25 1 26
REMARK H PARENT
REMARK Flexibility Score: inf
ROOT
ATOM      1  C   UNL     1       5.927   1.137  -7.420  1.00  0.00     0.000 C 
ENDROOT
BRANCH   1   2
ATOM      2  C   UNL     1       6.696   1.181  -8.751  1.00  0.00     0.000 C 
BRANCH   2   3
ATOM      3  C   UNL     1       6.882   2.615  -9.276  1.00  0.00     0.000 C 
BRANCH   3   4
ATOM      4  C   UNL     1       5.862   3.600  -8.675  1.00  0.00     0.000 C 
BRANCH   4   5
ATOM      5  C   UNL     1       5.023   4.312  -9.749  1.00  0.00     0.000 C 
BRANCH   5   6
ATOM      6  C   UNL     1       3.517   4.286  -9.444  1.00  0.00     0.000 C 
BRANCH   6   7
ATOM      7  C   UNL     1       2.986   2.844  -9.408  1.00  0.00     0.000 C 
BRANCH   7   8
ATOM      8  C   UNL     1       1.448   2.768  -9.422  1.00  0.00     0.000 C 
BRANCH   8   9
ATOM      9  C   UNL     1       0.864   1.368  -9.695  1.00  0.00     0.000 C 
BRANCH   9  10
ATOM     10  C   UNL     1       0.015   0.833  -8.529  1.00  0.00     0.006 C 
BRANCH  10  11
ATOM     11  C   UNL     1       0.266  -0.659  -8.269  1.00  0.00     0.053 C 
BRANCH  11  12
ATOM     12  C   UNL     1      -0.030  -1.032  -6.850  1.00  0.00     0.041 C 
ATOM     13  O   UNL     1       0.817  -1.670  -6.169  1.00  0.00    -0.550 OA
ATOM     14  O   UNL     1      -1.236  -0.654  -6.270  1.00  0.00    -0.550 OA
ENDBRANCH  11  12
ENDBRANCH  10  11
ENDBRANCH   9  10
ENDBRANCH   8   9
ENDBRANCH   7   8
ENDBRANCH   6   7
ENDBRANCH   5   6
ENDBRANCH   4   5
ENDBRANCH   3   4
ENDBRANCH   2   3
ENDBRANCH   1   2
BRANCH   1  15
ATOM     15  C   UNL     1       4.663   0.263  -7.488  1.00  0.00     0.000 C 
BRANCH  15  16
ATOM     16  C   UNL     1       4.446  -0.412  -8.859  1.00  0.00     0.000 C 
BRANCH  16  17
ATOM     17  C   UNL     1       3.782  -1.795  -8.731  1.00  0.00     0.000 C 
BRANCH  17  18
ATOM     18  C   UNL     1       3.958  -2.404  -7.330  1.00  0.00    -0.000 C 
BRANCH  18  19
ATOM     19  C   UNL     1       4.782  -3.702  -7.353  1.00  0.00    -0.000 C 
BRANCH  19  20
ATOM     20  C   UNL     1       6.054  -3.564  -6.503  1.00  0.00    -0.000 C 
BRANCH  20  21
ATOM     21  C   UNL     1       7.057  -2.543  -7.087  1.00  0.00    -0.000 C 
BRANCH  21  22
ATOM     22  C   UNL     1       7.782  -1.701  -6.019  1.00  0.00    -0.000 C 
BRANCH  22  23
ATOM     23  C   UNL     1       7.228  -1.850  -4.591  1.00  0.00    -0.000 C 
BRANCH  23  24
ATOM     24  C   UNL     1       6.411  -0.629  -4.108  1.00  0.00    -0.000 C 
BRANCH  24  25
ATOM     25  C   UNL     1       4.898  -0.893  -4.095  1.00  0.00    -0.003 C 
ATOM     26  C   UNL     1       4.525  -1.896  -3.006  1.00  0.00     0.004 C 
ENDBRANCH  24  25
ENDBRANCH  23  24
ENDBRANCH  22  23
ENDBRANCH  21  22
ENDBRANCH  20  21
ENDBRANCH  19  20
ENDBRANCH  18  19
ENDBRANCH  17  18
ENDBRANCH  16  17
ENDBRANCH  15  16
ENDBRANCH   1  15
TORSDOF 22
ENDMDL
MODEL 9
REMARK VINA RESULT:    -3.340      4.269      8.167
REMARK INTER + INTRA:         -10.332
REMARK INTER:                  -6.321
REMARK INTRA:                  -4.010
REMARK UNBOUND:                -2.696
REMARK SMILES CCCCCCCCCCCCCCCCCCCCCCCC(=O)[O-]
REMARK SMILES IDX 13 1 14 2 15 3 16 4 17 5 18 6 19 7 20 8 21 9 22 10 23 11
REMARK SMILES IDX 24 12 25 13 26 14 12 15 11 16 10 17 9 18 8 19 7 20 6 21 5 22
REMARK SMILES IDX 4 23 3 24 2 25 1 26
REMARK H PARENT
REMARK Flexibility Score: inf
ROOT
ATOM      1  C   UNL     1      -5.264  -1.659  -4.118  1.00  0.00     0.000 C 
ENDROOT
BRANCH   1   2
ATOM      2  C   UNL     1      -4.965  -2.660  -5.247  1.00  0.00     0.000 C 
BRANCH   2   3
ATOM      3  C   UNL     1      -5.977  -2.564  -6.401  1.00  0.00     0.000 C 
BRANCH   3   4
ATOM      4  C   UNL     1      -6.734  -1.223  -6.413  1.00  0.00     0.000 C 
BRANCH   4   5
ATOM      5  C   UNL     1      -7.610  -1.048  -7.663  1.00  0.00     0.000 C 
BRANCH   5   6
ATOM      6  C   UNL     1      -7.001  -0.079  -8.689  1.00  0.00     0.000 C 
BRANCH   6   7
ATOM      7  C   UNL     1      -6.594   1.245  -8.022  1.00  0.00     0.000 C 
BRANCH   7   8
ATOM      8  C   UNL     1      -5.118   1.613  -8.264  1.00  0.00     0.000 C 
BRANCH   8   9
ATOM      9  C   UNL     1      -4.240   0.472  -8.813  1.00  0.00     0.000 C 
BRANCH   9  10
ATOM     10  C   UNL     1      -3.510  -0.309  -7.707  1.00  0.00     0.006 C 
BRANCH  10  11
ATOM     11  C   UNL     1      -2.041  -0.577  -8.062  1.00  0.00     0.053 C 
BRANCH  11  12
ATOM     12  C   UNL     1      -1.333  -1.322  -6.973  1.00  0.00     0.041 C 
ATOM     13  O   UNL     1      -1.780  -2.427  -6.563  1.00  0.00    -0.550 OA
ATOM     14  O   UNL     1      -0.164  -0.806  -6.426  1.00  0.00    -0.550 OA
ENDBRANCH  11  12
ENDBRANCH  10  11
ENDBRANCH   9  10
ENDBRANCH   8   9
ENDBRANCH   7   8
ENDBRANCH   6   7
ENDBRANCH   5   6
ENDBRANCH   4   5
ENDBRANCH   3   4
ENDBRANCH   2   3
ENDBRANCH   1   2
BRANCH   1  15
ATOM     15  C   UNL     1      -6.007  -2.299  -2.933  1.00  0.00     0.000 C 
BRANCH  15  16
ATOM     16  C   UNL     1      -7.182  -1.450  -2.403  1.00  0.00     0.000 C 
BRANCH  16  17
ATOM     17  C   UNL     1      -8.537  -2.165  -2.558  1.00  0.00     0.000 C 
BRANCH  17  18
ATOM     18  C   UNL     1      -8.970  -2.288  -4.029  1.00  0.00    -0.000 C 
BRANCH  18  19
ATOM     19  C   UNL     1      -9.095  -3.751  -4.483  1.00  0.00    -0.000 C 
BRANCH  19  20
ATOM     20  C   UNL     1      -8.953  -4.713  -3.294  1.00  0.00    -0.000 C 
BRANCH  20  21
ATOM     21  C   UNL     1      -8.089  -5.951  -3.625  1.00  0.00    -0.000 C 
BRANCH  21  22
ATOM     22  C   UNL     1      -6.882  -5.645  -4.533  1.00  0.00    -0.000 C 
BRANCH  22  23
ATOM     23  C   UNL     1      -5.531  -6.161  -4.009  1.00  0.00    -0.000 C 
BRANCH  23  24
ATOM     24  C   UNL     1      -5.284  -5.857  -2.513  1.00  0.00    -0.000 C 
BRANCH  24  25
ATOM     25  C   UNL     1      -3.906  -5.229  -2.253  1.00  0.00    -0.003 C 
ATOM     26  C   UNL     1      -3.027  -5.299  -3.500  1.00  0.00     0.004 C 
ENDBRANCH  24  25
ENDBRANCH  23  24
ENDBRANCH  22  23
ENDBRANCH  21  22
ENDBRANCH  20  21
ENDBRANCH  19  20
ENDBRANCH  18  19
ENDBRANCH  17  18
ENDBRANCH  16  17
ENDBRANCH  15  16
ENDBRANCH   1  15
TORSDOF 22
ENDMDL
