MODEL 1
REMARK VINA RESULT:    -6.293      0.000      0.000
REMARK INTER + INTRA:          -7.639
REMARK INTER:                  -7.397
REMARK INTRA:                  -0.242
REMARK UNBOUND:                -0.242
REMARK SMILES O=c1c(O)c(-c2ccc(O)cc2)oc2cc(O)cc(O)c12
REMARK SMILES IDX 5 1 3 2 2 3 1 4 21 5 19 6 18 7 16 8 15 9 14 10 13 11 6 12
REMARK SMILES IDX 7 13 8 14 9 15 12 16 11 17 10 18 4 20 20 22 17 24
REMARK H PARENT 10 19 4 21 20 23 17 25
REMARK Flexibility Score: inf
ROOT
ATOM      1  C   UNL     1      -9.897  25.756  22.545  1.00  0.00     0.180 A 
ATOM      2  C   UNL     1      -9.551  26.529  21.420  1.00  0.00     0.208 A 
ATOM      3  C   UNL     1      -9.566  25.927  20.153  1.00  0.00     0.238 A 
ATOM      4  O   UNL     1      -9.248  26.606  19.139  1.00  0.00    -0.285 OA
ATOM      5  C   UNL     1      -9.944  24.573  20.028  1.00  0.00     0.111 A 
ATOM      6  C   UNL     1      -9.988  23.892  18.787  1.00  0.00     0.134 A 
ATOM      7  C   UNL     1     -10.384  22.548  18.746  1.00  0.00     0.093 A 
ATOM      8  C   UNL     1     -10.735  21.872  19.917  1.00  0.00     0.123 A 
ATOM      9  C   UNL     1     -10.692  22.539  21.145  1.00  0.00     0.094 A 
ATOM     10  C   UNL     1     -10.299  23.878  21.208  1.00  0.00     0.146 A 
ATOM     11  O   UNL     1     -10.262  24.487  22.388  1.00  0.00    -0.452 OA
ENDROOT
BRANCH   1  12
ATOM     12  C   UNL     1      -9.887  26.314  23.916  1.00  0.00     0.021 A 
ATOM     13  C   UNL     1      -8.681  26.558  24.600  1.00  0.00     0.016 A 
ATOM     14  C   UNL     1      -8.699  27.063  25.904  1.00  0.00     0.047 A 
ATOM     15  C   UNL     1      -9.918  27.316  26.546  1.00  0.00     0.115 A 
ATOM     16  C   UNL     1     -11.105  26.552  24.575  1.00  0.00     0.016 A 
ATOM     17  C   UNL     1     -11.119  27.057  25.879  1.00  0.00     0.047 A 
BRANCH  15  18
ATOM     18  O   UNL     1      -9.947  27.820  27.844  1.00  0.00    -0.508 OA
ATOM     19  H   UNL     1      -9.927  27.206  28.650  1.00  0.00     0.293 HD
ENDBRANCH  15  18
ENDBRANCH   1  12
BRANCH   2  20
ATOM     20  O   UNL     1      -9.229  27.881  21.565  1.00  0.00    -0.502 OA
ATOM     21  H   UNL     1      -9.860  28.546  21.999  1.00  0.00     0.293 HD
ENDBRANCH   2  20
BRANCH   6  22
ATOM     22  O   UNL     1      -9.645  24.540  17.600  1.00  0.00    -0.507 OA
ATOM     23  H   UNL     1      -9.976  25.474  17.388  1.00  0.00     0.293 HD
ENDBRANCH   6  22
BRANCH   8  24
ATOM     24  O   UNL     1     -11.125  20.536  19.847  1.00  0.00    -0.508 OA
ATOM     25  H   UNL     1     -12.026  20.266  19.471  1.00  0.00     0.293 HD
ENDBRANCH   8  24
TORSDOF 5
ENDMDL
MODEL 2
REMARK VINA RESULT:    -5.960      2.016      3.204
REMARK INTER + INTRA:          -7.247
REMARK INTER:                  -6.986
REMARK INTRA:                  -0.261
REMARK UNBOUND:                -0.242
REMARK SMILES O=c1c(O)c(-c2ccc(O)cc2)oc2cc(O)cc(O)c12
REMARK SMILES IDX 5 1 3 2 2 3 1 4 21 5 19 6 18 7 16 8 15 9 14 10 13 11 6 12
REMARK SMILES IDX 7 13 8 14 9 15 12 16 11 17 10 18 4 20 20 22 17 24
REMARK H PARENT 10 19 4 21 20 23 17 25
REMARK Flexibility Score: inf
ROOT
ATOM      1  C   UNL     1     -10.070  26.401  22.232  1.00  0.00     0.180 A 
ATOM      2  C   UNL     1      -9.799  25.138  22.794  1.00  0.00     0.208 A 
ATOM      3  C   UNL     1      -9.850  24.004  21.969  1.00  0.00     0.238 A 
ATOM      4  O   UNL     1      -9.621  22.866  22.463  1.00  0.00    -0.285 OA
ATOM      5  C   UNL     1     -10.149  24.151  20.599  1.00  0.00     0.111 A 
ATOM      6  C   UNL     1     -10.217  23.060  19.699  1.00  0.00     0.134 A 
ATOM      7  C   UNL     1     -10.511  23.290  18.348  1.00  0.00     0.093 A 
ATOM      8  C   UNL     1     -10.738  24.586  17.878  1.00  0.00     0.123 A 
ATOM      9  C   UNL     1     -10.673  25.667  18.762  1.00  0.00     0.094 A 
ATOM     10  C   UNL     1     -10.383  25.459  20.113  1.00  0.00     0.146 A 
ATOM     11  O   UNL     1     -10.333  26.503  20.932  1.00  0.00    -0.452 OA
ENDROOT
BRANCH   1  12
ATOM     12  C   UNL     1     -10.053  27.641  23.040  1.00  0.00     0.021 A 
ATOM     13  C   UNL     1     -11.125  27.979  23.887  1.00  0.00     0.016 A 
ATOM     14  C   UNL     1     -11.097  29.168  24.622  1.00  0.00     0.047 A 
ATOM     15  C   UNL     1     -10.008  30.041  24.509  1.00  0.00     0.115 A 
ATOM     16  C   UNL     1      -8.974  28.532  22.918  1.00  0.00     0.016 A 
ATOM     17  C   UNL     1      -8.949  29.721  23.654  1.00  0.00     0.047 A 
BRANCH  15  18
ATOM     18  O   UNL     1      -9.969  31.228  25.237  1.00  0.00    -0.508 OA
ATOM     19  H   UNL     1      -9.939  31.226  26.251  1.00  0.00     0.293 HD
ENDBRANCH  15  18
ENDBRANCH   1  12
BRANCH   2  20
ATOM     20  O   UNL     1      -9.457  25.025  24.144  1.00  0.00    -0.502 OA
ATOM     21  H   UNL     1      -8.807  24.325  24.482  1.00  0.00     0.293 HD
ENDBRANCH   2  20
BRANCH   6  22
ATOM     22  O   UNL     1      -9.994  21.753  20.136  1.00  0.00    -0.507 OA
ATOM     23  H   UNL     1     -10.234  21.457  21.075  1.00  0.00     0.293 HD
ENDBRANCH   6  22
BRANCH   8  24
ATOM     24  O   UNL     1     -11.027  24.787  16.530  1.00  0.00    -0.508 OA
ATOM     25  H   UNL     1     -11.592  25.569  16.221  1.00  0.00     0.293 HD
ENDBRANCH   8  24
TORSDOF 5
ENDMDL
MODEL 3
REMARK VINA RESULT:    -5.890      1.400      6.536
REMARK INTER + INTRA:          -7.165
REMARK INTER:                  -7.182
REMARK INTRA:                   0.017
REMARK UNBOUND:                -0.242
REMARK SMILES O=c1c(O)c(-c2ccc(O)cc2)oc2cc(O)cc(O)c12
REMARK SMILES IDX 5 1 3 2 2 3 1 4 21 5 19 6 18 7 16 8 15 9 14 10 13 11 6 12
REMARK SMILES IDX 7 13 8 14 9 15 12 16 11 17 10 18 4 20 20 22 17 24
REMARK H PARENT 10 19 4 21 20 23 17 25
REMARK Flexibility Score: inf
ROOT
ATOM      1  C   UNL     1     -10.110  25.278  22.350  1.00  0.00     0.180 A 
ATOM      2  C   UNL     1      -9.541  26.488  21.910  1.00  0.00     0.208 A 
ATOM      3  C   UNL     1      -9.413  27.548  22.821  1.00  0.00     0.238 A 
ATOM      4  O   UNL     1      -8.914  28.641  22.436  1.00  0.00    -0.285 OA
ATOM      5  C   UNL     1      -9.835  27.376  24.156  1.00  0.00     0.111 A 
ATOM      6  C   UNL     1      -9.739  28.392  25.136  1.00  0.00     0.134 A 
ATOM      7  C   UNL     1     -10.172  28.138  26.445  1.00  0.00     0.093 A 
ATOM      8  C   UNL     1     -10.699  26.892  26.793  1.00  0.00     0.123 A 
ATOM      9  C   UNL     1     -10.799  25.886  25.828  1.00  0.00     0.094 A 
ATOM     10  C   UNL     1     -10.374  26.118  24.518  1.00  0.00     0.146 A 
ATOM     11  O   UNL     1     -10.483  25.146  23.620  1.00  0.00    -0.452 OA
ENDROOT
BRANCH   1  12
ATOM     12  C   UNL     1     -10.296  24.121  21.445  1.00  0.00     0.021 A 
ATOM     13  C   UNL     1     -10.906  24.266  20.185  1.00  0.00     0.016 A 
ATOM     14  C   UNL     1     -11.092  23.154  19.358  1.00  0.00     0.047 A 
ATOM     15  C   UNL     1     -10.685  21.883  19.784  1.00  0.00     0.115 A 
ATOM     16  C   UNL     1      -9.910  22.839  21.872  1.00  0.00     0.016 A 
ATOM     17  C   UNL     1     -10.097  21.729  21.043  1.00  0.00     0.047 A 
BRANCH  15  18
ATOM     18  O   UNL     1     -10.864  20.768  18.968  1.00  0.00    -0.508 OA
ATOM     19  H   UNL     1     -11.789  20.460  18.689  1.00  0.00     0.293 HD
ENDBRANCH  15  18
ENDBRANCH   1  12
BRANCH   2  20
ATOM     20  O   UNL     1      -9.085  26.617  20.596  1.00  0.00    -0.502 OA
ATOM     21  H   UNL     1      -8.432  25.961  20.181  1.00  0.00     0.293 HD
ENDBRANCH   2  20
BRANCH   6  22
ATOM     22  O   UNL     1      -9.214  29.646  24.821  1.00  0.00    -0.507 OA
ATOM     23  H   UNL     1      -8.792  30.239  25.526  1.00  0.00     0.293 HD
ENDBRANCH   6  22
BRANCH   8  24
ATOM     24  O   UNL     1     -11.123  26.667  28.101  1.00  0.00    -0.508 OA
ATOM     25  H   UNL     1     -10.472  26.678  28.878  1.00  0.00     0.293 HD
ENDBRANCH   8  24
TORSDOF 5
ENDMDL
MODEL 4
REMARK VINA RESULT:    -5.751      2.000      6.791
REMARK INTER + INTRA:          -7.001
REMARK INTER:                  -6.726
REMARK INTRA:                  -0.275
REMARK UNBOUND:                -0.242
REMARK SMILES O=c1c(O)c(-c2ccc(O)cc2)oc2cc(O)cc(O)c12
REMARK SMILES IDX 5 1 3 2 2 3 1 4 21 5 19 6 18 7 16 8 15 9 14 10 13 11 6 12
REMARK SMILES IDX 7 13 8 14 9 15 12 16 11 17 10 18 4 20 20 22 17 24
REMARK H PARENT 10 19 4 21 20 23 17 25
REMARK Flexibility Score: inf
ROOT
ATOM      1  C   UNL     1     -10.240  26.945  22.690  1.00  0.00     0.180 A 
ATOM      2  C   UNL     1     -10.322  28.347  22.591  1.00  0.00     0.208 A 
ATOM      3  C   UNL     1     -10.580  29.096  23.749  1.00  0.00     0.238 A 
ATOM      4  O   UNL     1     -10.666  30.352  23.671  1.00  0.00    -0.285 OA
ATOM      5  C   UNL     1     -10.732  28.436  24.987  1.00  0.00     0.111 A 
ATOM      6  C   UNL     1     -10.990  29.116  26.201  1.00  0.00     0.134 A 
ATOM      7  C   UNL     1     -11.118  28.387  27.392  1.00  0.00     0.093 A 
ATOM      8  C   UNL     1     -10.993  26.996  27.394  1.00  0.00     0.123 A 
ATOM      9  C   UNL     1     -10.739  26.319  26.198  1.00  0.00     0.094 A 
ATOM     10  C   UNL     1     -10.609  27.026  24.999  1.00  0.00     0.146 A 
ATOM     11  O   UNL     1     -10.373  26.358  23.876  1.00  0.00    -0.452 OA
ENDROOT
BRANCH   1  12
ATOM     12  C   UNL     1      -9.989  26.086  21.511  1.00  0.00     0.021 A 
ATOM     13  C   UNL     1      -8.691  25.652  21.183  1.00  0.00     0.016 A 
ATOM     14  C   UNL     1      -8.476  24.862  20.049  1.00  0.00     0.047 A 
ATOM     15  C   UNL     1      -9.551  24.506  19.224  1.00  0.00     0.115 A 
ATOM     16  C   UNL     1     -11.058  25.742  20.666  1.00  0.00     0.016 A 
ATOM     17  C   UNL     1     -10.840  24.950  19.534  1.00  0.00     0.047 A 
BRANCH  15  18
ATOM     18  O   UNL     1      -9.348  23.717  18.094  1.00  0.00    -0.508 OA
ATOM     19  H   UNL     1      -8.673  22.961  18.090  1.00  0.00     0.293 HD
ENDBRANCH  15  18
ENDBRANCH   1  12
BRANCH   2  20
ATOM     20  O   UNL     1     -10.118  28.981  21.362  1.00  0.00    -0.502 OA
ATOM     21  H   UNL     1      -9.970  28.463  20.503  1.00  0.00     0.293 HD
ENDBRANCH   2  20
BRANCH   6  22
ATOM     22  O   UNL     1     -11.118  30.505  26.233  1.00  0.00    -0.507 OA
ATOM     23  H   UNL     1     -11.120  31.020  27.105  1.00  0.00     0.293 HD
ENDBRANCH   6  22
BRANCH   8  24
ATOM     24  O   UNL     1     -11.125  26.297  28.592  1.00  0.00    -0.508 OA
ATOM     25  H   UNL     1     -11.839  25.589  28.716  1.00  0.00     0.293 HD
ENDBRANCH   8  24
TORSDOF 5
ENDMDL
MODEL 5
REMARK VINA RESULT:    -5.709      1.430      3.107
REMARK INTER + INTRA:          -6.951
REMARK INTER:                  -6.663
REMARK INTRA:                  -0.289
REMARK UNBOUND:                -0.242
REMARK SMILES O=c1c(O)c(-c2ccc(O)cc2)oc2cc(O)cc(O)c12
REMARK SMILES IDX 5 1 3 2 2 3 1 4 21 5 19 6 18 7 16 8 15 9 14 10 13 11 6 12
REMARK SMILES IDX 7 13 8 14 9 15 12 16 11 17 10 18 4 20 20 22 17 24
REMARK H PARENT 10 19 4 21 20 23 17 25
REMARK Flexibility Score: inf
ROOT
ATOM      1  C   UNL     1      -9.774  24.738  22.512  1.00  0.00     0.180 A 
ATOM      2  C   UNL     1      -9.675  23.335  22.452  1.00  0.00     0.208 A 
ATOM      3  C   UNL     1      -9.916  22.690  21.229  1.00  0.00     0.238 A 
ATOM      4  O   UNL     1      -9.841  21.432  21.166  1.00  0.00    -0.285 OA
ATOM      5  C   UNL     1     -10.230  23.454  20.086  1.00  0.00     0.111 A 
ATOM      6  C   UNL     1     -10.483  22.882  18.816  1.00  0.00     0.134 A 
ATOM      7  C   UNL     1     -10.779  23.713  17.726  1.00  0.00     0.093 A 
ATOM      8  C   UNL     1     -10.827  25.101  17.879  1.00  0.00     0.123 A 
ATOM      9  C   UNL     1     -10.580  25.671  19.132  1.00  0.00     0.094 A 
ATOM     10  C   UNL     1     -10.284  24.861  20.231  1.00  0.00     0.146 A 
ATOM     11  O   UNL     1     -10.057  25.428  21.411  1.00  0.00    -0.452 OA
ENDROOT
BRANCH   1  12
ATOM     12  C   UNL     1      -9.553  25.490  23.768  1.00  0.00     0.021 A 
ATOM     13  C   UNL     1     -10.576  25.639  24.723  1.00  0.00     0.016 A 
ATOM     14  C   UNL     1     -10.350  26.374  25.891  1.00  0.00     0.047 A 
ATOM     15  C   UNL     1      -9.107  26.980  26.113  1.00  0.00     0.115 A 
ATOM     16  C   UNL     1      -8.316  26.118  23.989  1.00  0.00     0.016 A 
ATOM     17  C   UNL     1      -8.093  26.852  25.158  1.00  0.00     0.047 A 
BRANCH  15  18
ATOM     18  O   UNL     1      -8.871  27.713  27.273  1.00  0.00    -0.508 OA
ATOM     19  H   UNL     1      -7.929  27.920  27.586  1.00  0.00     0.293 HD
ENDBRANCH  15  18
ENDBRANCH   1  12
BRANCH   2  20
ATOM     20  O   UNL     1      -9.314  22.604  23.586  1.00  0.00    -0.502 OA
ATOM     21  H   UNL     1      -8.512  22.847  24.156  1.00  0.00     0.293 HD
ENDBRANCH   2  20
BRANCH   6  22
ATOM     22  O   UNL     1     -10.440  21.500  18.630  1.00  0.00    -0.507 OA
ATOM     23  H   UNL     1      -9.634  20.950  18.902  1.00  0.00     0.293 HD
ENDBRANCH   6  22
BRANCH   8  24
ATOM     24  O   UNL     1     -11.124  25.903  16.780  1.00  0.00    -0.508 OA
ATOM     25  H   UNL     1     -11.559  26.812  16.889  1.00  0.00     0.293 HD
ENDBRANCH   8  24
TORSDOF 5
ENDMDL
MODEL 6
REMARK VINA RESULT:    -4.693      2.008      7.306
REMARK INTER + INTRA:          -5.758
REMARK INTER:                  -5.461
REMARK INTRA:                  -0.296
REMARK UNBOUND:                -0.242
REMARK SMILES O=c1c(O)c(-c2ccc(O)cc2)oc2cc(O)cc(O)c12
REMARK SMILES IDX 5 1 3 2 2 3 1 4 21 5 19 6 18 7 16 8 15 9 14 10 13 11 6 12
REMARK SMILES IDX 7 13 8 14 9 15 12 16 11 17 10 18 4 20 20 22 17 24
REMARK H PARENT 10 19 4 21 20 23 17 25
REMARK Flexibility Score: inf
ROOT
ATOM      1  C   UNL     1     -10.224  26.305  23.043  1.00  0.00     0.180 A 
ATOM      2  C   UNL     1     -10.359  25.458  24.160  1.00  0.00     0.208 A 
ATOM      3  C   UNL     1     -10.609  26.028  25.417  1.00  0.00     0.238 A 
ATOM      4  O   UNL     1     -10.722  25.281  26.427  1.00  0.00    -0.285 OA
ATOM      5  C   UNL     1     -10.739  27.428  25.535  1.00  0.00     0.111 A 
ATOM      6  C   UNL     1     -10.994  28.082  26.765  1.00  0.00     0.134 A 
ATOM      7  C   UNL     1     -11.119  29.478  26.797  1.00  0.00     0.093 A 
ATOM      8  C   UNL     1     -10.996  30.232  25.628  1.00  0.00     0.123 A 
ATOM      9  C   UNL     1     -10.742  29.592  24.411  1.00  0.00     0.094 A 
ATOM     10  C   UNL     1     -10.613  28.202  24.357  1.00  0.00     0.146 A 
ATOM     11  O   UNL     1     -10.368  27.619  23.189  1.00  0.00    -0.452 OA
ENDROOT
BRANCH   1  12
ATOM     12  C   UNL     1      -9.942  25.781  21.688  1.00  0.00     0.021 A 
ATOM     13  C   UNL     1      -8.623  25.637  21.217  1.00  0.00     0.016 A 
ATOM     14  C   UNL     1      -8.383  25.163  19.923  1.00  0.00     0.047 A 
ATOM     15  C   UNL     1      -9.454  24.839  19.081  1.00  0.00     0.115 A 
ATOM     16  C   UNL     1     -11.010  25.472  20.829  1.00  0.00     0.016 A 
ATOM     17  C   UNL     1     -10.767  24.998  19.537  1.00  0.00     0.047 A 
BRANCH  15  18
ATOM     18  O   UNL     1      -9.227  24.364  17.792  1.00  0.00    -0.508 OA
ATOM     19  H   UNL     1      -8.287  24.218  17.440  1.00  0.00     0.293 HD
ENDBRANCH  15  18
ENDBRANCH   1  12
BRANCH   2  20
ATOM     20  O   UNL     1     -10.276  24.072  24.009  1.00  0.00    -0.502 OA
ATOM     21  H   UNL     1      -9.796  23.480  24.677  1.00  0.00     0.293 HD
ENDBRANCH   2  20
BRANCH   6  22
ATOM     22  O   UNL     1     -11.125  27.357  27.950  1.00  0.00    -0.507 OA
ATOM     23  H   UNL     1     -11.998  27.328  28.463  1.00  0.00     0.293 HD
ENDBRANCH   6  22
BRANCH   8  24
ATOM     24  O   UNL     1     -11.125  31.618  25.687  1.00  0.00    -0.508 OA
ATOM     25  H   UNL     1     -11.000  32.198  24.865  1.00  0.00     0.293 HD
ENDBRANCH   8  24
TORSDOF 5
ENDMDL
MODEL 7
REMARK VINA RESULT:    -4.639      1.492      2.369
REMARK INTER + INTRA:          -5.694
REMARK INTER:                  -6.052
REMARK INTRA:                   0.357
REMARK UNBOUND:                -0.242
REMARK SMILES O=c1c(O)c(-c2ccc(O)cc2)oc2cc(O)cc(O)c12
REMARK SMILES IDX 5 1 3 2 2 3 1 4 21 5 19 6 18 7 16 8 15 9 14 10 13 11 6 12
REMARK SMILES IDX 7 13 8 14 9 15 12 16 11 17 10 18 4 20 20 22 17 24
REMARK H PARENT 10 19 4 21 20 23 17 25
REMARK Flexibility Score: inf
ROOT
ATOM      1  C   UNL     1     -10.274  26.791  24.046  1.00  0.00     0.180 A 
ATOM      2  C   UNL     1      -9.910  27.908  23.270  1.00  0.00     0.208 A 
ATOM      3  C   UNL     1      -9.674  27.733  21.898  1.00  0.00     0.238 A 
ATOM      4  O   UNL     1      -9.336  28.724  21.195  1.00  0.00    -0.285 OA
ATOM      5  C   UNL     1      -9.823  26.454  21.322  1.00  0.00     0.111 A 
ATOM      6  C   UNL     1      -9.607  26.193  19.948  1.00  0.00     0.134 A 
ATOM      7  C   UNL     1      -9.787  24.895  19.450  1.00  0.00     0.093 A 
ATOM      8  C   UNL     1     -10.177  23.854  20.296  1.00  0.00     0.123 A 
ATOM      9  C   UNL     1     -10.391  24.106  21.655  1.00  0.00     0.094 A 
ATOM     10  C   UNL     1     -10.216  25.392  22.171  1.00  0.00     0.146 A 
ATOM     11  O   UNL     1     -10.421  25.603  23.467  1.00  0.00    -0.452 OA
ENDROOT
BRANCH   1  12
ATOM     12  C   UNL     1     -10.522  26.892  25.502  1.00  0.00     0.021 A 
ATOM     13  C   UNL     1     -10.917  28.104  26.097  1.00  0.00     0.016 A 
ATOM     14  C   UNL     1     -11.121  28.180  27.478  1.00  0.00     0.047 A 
ATOM     15  C   UNL     1     -10.921  27.052  28.283  1.00  0.00     0.115 A 
ATOM     16  C   UNL     1     -10.304  25.770  26.320  1.00  0.00     0.016 A 
ATOM     17  C   UNL     1     -10.509  25.849  27.701  1.00  0.00     0.047 A 
BRANCH  15  18
ATOM     18  O   UNL     1     -11.123  27.116  29.660  1.00  0.00    -0.508 OA
ATOM     19  H   UNL     1     -10.974  26.309  30.255  1.00  0.00     0.293 HD
ENDBRANCH  15  18
ENDBRANCH   1  12
BRANCH   2  20
ATOM     20  O   UNL     1      -9.817  29.174  23.855  1.00  0.00    -0.502 OA
ATOM     21  H   UNL     1      -9.201  29.894  23.495  1.00  0.00     0.293 HD
ENDBRANCH   2  20
BRANCH   6  22
ATOM     22  O   UNL     1      -9.219  27.211  19.076  1.00  0.00    -0.507 OA
ATOM     23  H   UNL     1      -9.670  27.345  18.179  1.00  0.00     0.293 HD
ENDBRANCH   6  22
BRANCH   8  24
ATOM     24  O   UNL     1     -10.349  22.574  19.776  1.00  0.00    -0.508 OA
ATOM     25  H   UNL     1      -9.711  22.192  19.087  1.00  0.00     0.293 HD
ENDBRANCH   8  24
TORSDOF 5
ENDMDL
MODEL 8
REMARK VINA RESULT:    -4.467      2.266      7.047
REMARK INTER + INTRA:          -5.492
REMARK INTER:                  -5.259
REMARK INTRA:                  -0.233
REMARK UNBOUND:                -0.242
REMARK SMILES O=c1c(O)c(-c2ccc(O)cc2)oc2cc(O)cc(O)c12
REMARK SMILES IDX 5 1 3 2 2 3 1 4 21 5 19 6 18 7 16 8 15 9 14 10 13 11 6 12
REMARK SMILES IDX 7 13 8 14 9 15 12 16 11 17 10 18 4 20 20 22 17 24
REMARK H PARENT 10 19 4 21 20 23 17 25
REMARK Flexibility Score: inf
ROOT
ATOM      1  C   UNL     1      -9.538  26.008  20.960  1.00  0.00     0.180 A 
ATOM      2  C   UNL     1      -8.457  25.454  21.673  1.00  0.00     0.208 A 
ATOM      3  C   UNL     1      -8.084  26.032  22.896  1.00  0.00     0.238 A 
ATOM      4  O   UNL     1      -7.110  25.552  23.538  1.00  0.00    -0.285 OA
ATOM      5  C   UNL     1      -8.805  27.137  23.395  1.00  0.00     0.111 A 
ATOM      6  C   UNL     1      -8.496  27.775  24.620  1.00  0.00     0.134 A 
ATOM      7  C   UNL     1      -9.268  28.862  25.052  1.00  0.00     0.093 A 
ATOM      8  C   UNL     1     -10.342  29.324  24.286  1.00  0.00     0.123 A 
ATOM      9  C   UNL     1     -10.651  28.698  23.074  1.00  0.00     0.094 A 
ATOM     10  C   UNL     1      -9.893  27.613  22.625  1.00  0.00     0.146 A 
ATOM     11  O   UNL     1     -10.205  27.040  21.469  1.00  0.00    -0.452 OA
ENDROOT
BRANCH   1  12
ATOM     12  C   UNL     1      -9.980  25.467  19.655  1.00  0.00     0.021 A 
ATOM     13  C   UNL     1     -10.714  24.269  19.569  1.00  0.00     0.016 A 
ATOM     14  C   UNL     1     -11.099  23.765  18.323  1.00  0.00     0.047 A 
ATOM     15  C   UNL     1     -10.745  24.442  17.149  1.00  0.00     0.115 A 
ATOM     16  C   UNL     1      -9.612  26.128  18.471  1.00  0.00     0.016 A 
ATOM     17  C   UNL     1      -9.999  25.622  17.227  1.00  0.00     0.047 A 
BRANCH  15  18
ATOM     18  O   UNL     1     -11.125  23.950  15.902  1.00  0.00    -0.508 OA
ATOM     19  H   UNL     1     -10.630  24.212  15.057  1.00  0.00     0.293 HD
ENDBRANCH  15  18
ENDBRANCH   1  12
BRANCH   2  20
ATOM     20  O   UNL     1      -7.790  24.329  21.181  1.00  0.00    -0.502 OA
ATOM     21  H   UNL     1      -6.828  24.120  21.421  1.00  0.00     0.293 HD
ENDBRANCH   2  20
BRANCH   6  22
ATOM     22  O   UNL     1      -7.431  27.337  25.409  1.00  0.00    -0.507 OA
ATOM     23  H   UNL     1      -7.077  27.890  26.180  1.00  0.00     0.293 HD
ENDBRANCH   6  22
BRANCH   8  24
ATOM     24  O   UNL     1     -11.093  30.406  24.739  1.00  0.00    -0.508 OA
ATOM     25  H   UNL     1     -11.540  31.047  24.094  1.00  0.00     0.293 HD
ENDBRANCH   8  24
TORSDOF 5
ENDMDL
MODEL 9
REMARK VINA RESULT:    -4.381      1.827      2.118
REMARK INTER + INTRA:          -5.390
REMARK INTER:                  -5.865
REMARK INTRA:                   0.475
REMARK UNBOUND:                -0.242
REMARK SMILES O=c1c(O)c(-c2ccc(O)cc2)oc2cc(O)cc(O)c12
REMARK SMILES IDX 5 1 3 2 2 3 1 4 21 5 19 6 18 7 16 8 15 9 14 10 13 11 6 12
REMARK SMILES IDX 7 13 8 14 9 15 12 16 11 17 10 18 4 20 20 22 17 24
REMARK H PARENT 10 19 4 21 20 23 17 25
REMARK Flexibility Score: inf
ROOT
ATOM      1  C   UNL     1     -10.377  27.444  23.011  1.00  0.00     0.180 A 
ATOM      2  C   UNL     1     -10.245  28.027  21.736  1.00  0.00     0.208 A 
ATOM      3  C   UNL     1     -10.027  27.193  20.628  1.00  0.00     0.238 A 
ATOM      4  O   UNL     1      -9.896  27.705  19.483  1.00  0.00    -0.285 OA
ATOM      5  C   UNL     1      -9.964  25.796  20.808  1.00  0.00     0.111 A 
ATOM      6  C   UNL     1      -9.750  24.886  19.745  1.00  0.00     0.134 A 
ATOM      7  C   UNL     1      -9.710  23.509  20.005  1.00  0.00     0.093 A 
ATOM      8  C   UNL     1      -9.880  23.024  21.304  1.00  0.00     0.123 A 
ATOM      9  C   UNL     1     -10.090  23.917  22.358  1.00  0.00     0.094 A 
ATOM     10  C   UNL     1     -10.132  25.294  22.121  1.00  0.00     0.146 A 
ATOM     11  O   UNL     1     -10.328  26.121  23.141  1.00  0.00    -0.452 OA
ENDROOT
BRANCH   1  12
ATOM     12  C   UNL     1     -10.590  28.256  24.230  1.00  0.00     0.021 A 
ATOM     13  C   UNL     1     -10.508  29.661  24.198  1.00  0.00     0.016 A 
ATOM     14  C   UNL     1     -10.689  30.405  25.368  1.00  0.00     0.047 A 
ATOM     15  C   UNL     1     -10.941  29.758  26.584  1.00  0.00     0.115 A 
ATOM     16  C   UNL     1     -10.823  27.614  25.458  1.00  0.00     0.016 A 
ATOM     17  C   UNL     1     -11.004  28.362  26.625  1.00  0.00     0.047 A 
BRANCH  15  18
ATOM     18  O   UNL     1     -11.125  30.490  27.755  1.00  0.00    -0.508 OA
ATOM     19  H   UNL     1     -10.375  30.610  28.426  1.00  0.00     0.293 HD
ENDBRANCH  15  18
ENDBRANCH   1  12
BRANCH   2  20
ATOM     20  O   UNL     1     -10.361  29.410  21.577  1.00  0.00    -0.502 OA
ATOM     21  H   UNL     1      -9.673  29.958  21.073  1.00  0.00     0.293 HD
ENDBRANCH   2  20
BRANCH   6  22
ATOM     22  O   UNL     1      -9.580  25.339  18.436  1.00  0.00    -0.507 OA
ATOM     23  H   UNL     1      -9.142  24.765  17.726  1.00  0.00     0.293 HD
ENDBRANCH   6  22
BRANCH   8  24
ATOM     24  O   UNL     1      -9.836  21.651  21.535  1.00  0.00    -0.508 OA
ATOM     25  H   UNL     1      -9.396  21.017  20.877  1.00  0.00     0.293 HD
ENDBRANCH   8  24
TORSDOF 5
ENDMDL
