MODEL 1
REMARK VINA RESULT:    -7.114      0.000      0.000
REMARK INTER + INTRA:          -7.926
REMARK INTER:                  -7.738
REMARK INTRA:                  -0.188
REMARK UNBOUND:                -0.188
REMARK SMILES C[C@@H]1[C@H]2C3=CC[C@H]4[C@]5(C)CC[C@H](O)C(C)(C)[C@H]5CC[C@@]4(C)[C@]3(C)CC[C@@]2(C(=O)[O-])CC[C@@H]1C
REMARK SMILES IDX 26 1 30 2 25 3 3 4 31 5 24 6 4 7 2 8 32 9 22 10 5 11 1 12
REMARK SMILES IDX 33 13 23 14 20 15 6 16 7 17 19 18 21 19 8 20 18 21 17 22
REMARK SMILES IDX 10 23 9 24 14 25 11 26 12 27 15 28 16 29 27 30 28 31 29 32
REMARK SMILES IDX 13 33
REMARK H PARENT 13 34
REMARK Flexibility Score: inf
ROOT
ATOM      1  C   UNL     1     107.913  41.964 138.062  1.00  0.00     0.017 C 
ATOM      2  C   UNL     1     106.994  40.758 138.382  1.00  0.00     0.014 C 
ATOM      3  C   UNL     1     108.395  42.573 139.415  1.00  0.00     0.014 C 
ATOM      4  C   UNL     1     107.096  42.991 137.163  1.00  0.00     0.030 C 
ATOM      5  C   UNL     1     106.594  39.938 137.145  1.00  0.00     0.004 C 
ATOM      6  C   UNL     1     108.547  44.093 139.338  1.00  0.00     0.013 C 
ATOM      7  C   UNL     1     106.409  44.115 138.003  1.00  0.00    -0.063 C 
ATOM      8  C   UNL     1     106.129  42.279 136.130  1.00  0.00    -0.003 C 
ATOM      9  C   UNL     1     106.406  40.769 135.849  1.00  0.00    -0.011 C 
ATOM     10  C   UNL     1     107.156  44.781 139.174  1.00  0.00    -0.006 C 
ATOM     11  C   UNL     1     105.241  44.695 137.627  1.00  0.00    -0.027 C 
ATOM     12  C   UNL     1     106.038  43.072 134.802  1.00  0.00     0.008 C 
ATOM     13  C   UNL     1     107.509  40.500 134.801  1.00  0.00     0.008 C 
ATOM     14  C   UNL     1     106.356  44.489 140.494  1.00  0.00     0.017 C 
ATOM     15  C   UNL     1     107.280  46.363 138.885  1.00  0.00    -0.020 C 
ATOM     16  C   UNL     1     104.723  45.939 138.290  1.00  0.00     0.032 C 
ATOM     17  C   UNL     1     105.855  46.998 138.456  1.00  0.00     0.006 C 
ATOM     18  C   UNL     1     107.923  47.080 140.132  1.00  0.00     0.008 C 
ATOM     19  C   UNL     1     108.266  46.583 137.685  1.00  0.00     0.012 C 
ATOM     20  C   UNL     1     105.429  48.324 139.228  1.00  0.00    -0.025 C 
ATOM     21  C   UNL     1     107.814  48.622 140.199  1.00  0.00     0.005 C 
ATOM     22  C   UNL     1     106.718  49.224 139.293  1.00  0.00     0.003 C 
ATOM     23  C   UNL     1     104.299  49.102 138.461  1.00  0.00     0.010 C 
ATOM     24  C   UNL     1     104.855  47.986 140.639  1.00  0.00     0.012 C 
ATOM     25  C   UNL     1     106.479  50.784 139.414  1.00  0.00    -0.006 C 
ATOM     26  C   UNL     1     104.831  50.143 137.475  1.00  0.00     0.033 C 
ATOM     27  C   UNL     1     105.603  51.278 138.186  1.00  0.00     0.120 C 
ATOM     28  C   UNL     1     107.850  51.519 139.422  1.00  0.00     0.014 C 
ATOM     29  C   UNL     1     105.772  51.181 140.736  1.00  0.00     0.014 C 
ENDROOT
BRANCH   1  30
ATOM     30  C   UNL     1     109.185  41.496 137.358  1.00  0.00     0.048 C 
ATOM     31  O   UNL     1     109.706  42.193 136.446  1.00  0.00    -0.550 OA
ATOM     32  O   UNL     1     109.870  40.371 137.809  1.00  0.00    -0.550 OA
ENDBRANCH   1  30
BRANCH  27  33
ATOM     33  O   UNL     1     106.386  51.920 137.207  1.00  0.00    -0.393 OA
ATOM     34  H   UNL     1     105.766  52.342 136.555  1.00  0.00     0.210 HD
ENDBRANCH  27  33
TORSDOF 2
ENDMDL
MODEL 2
REMARK VINA RESULT:    -6.729      3.201      4.491
REMARK INTER + INTRA:          -7.507
REMARK INTER:                  -7.303
REMARK INTRA:                  -0.204
REMARK UNBOUND:                -0.188
REMARK SMILES C[C@@H]1[C@H]2C3=CC[C@H]4[C@]5(C)CC[C@H](O)C(C)(C)[C@H]5CC[C@@]4(C)[C@]3(C)CC[C@@]2(C(=O)[O-])CC[C@@H]1C
REMARK SMILES IDX 26 1 30 2 25 3 3 4 31 5 24 6 4 7 2 8 32 9 22 10 5 11 1 12
REMARK SMILES IDX 33 13 23 14 20 15 6 16 7 17 19 18 21 19 8 20 18 21 17 22
REMARK SMILES IDX 10 23 9 24 14 25 11 26 12 27 15 28 16 29 27 30 28 31 29 32
REMARK SMILES IDX 13 33
REMARK H PARENT 13 34
REMARK Flexibility Score: inf
ROOT
ATOM      1  C   UNL     1     107.071  42.145 138.251  1.00  0.00     0.017 C 
ATOM      2  C   UNL     1     106.806  40.652 138.566  1.00  0.00     0.014 C 
ATOM      3  C   UNL     1     106.272  43.003 139.281  1.00  0.00     0.014 C 
ATOM      4  C   UNL     1     106.652  42.421 136.741  1.00  0.00     0.030 C 
ATOM      5  C   UNL     1     107.677  39.683 137.751  1.00  0.00     0.004 C 
ATOM      6  C   UNL     1     105.751  44.302 138.665  1.00  0.00     0.013 C 
ATOM      7  C   UNL     1     105.190  42.957 136.609  1.00  0.00    -0.063 C 
ATOM      8  C   UNL     1     106.981  41.210 135.775  1.00  0.00    -0.003 C 
ATOM      9  C   UNL     1     107.999  40.154 136.310  1.00  0.00    -0.011 C 
ATOM     10  C   UNL     1     104.651  44.007 137.599  1.00  0.00    -0.006 C 
ATOM     11  C   UNL     1     104.414  42.697 135.526  1.00  0.00    -0.027 C 
ATOM     12  C   UNL     1     107.402  41.708 134.369  1.00  0.00     0.008 C 
ATOM     13  C   UNL     1     109.484  40.537 136.122  1.00  0.00     0.008 C 
ATOM     14  C   UNL     1     103.440  43.375 138.372  1.00  0.00     0.017 C 
ATOM     15  C   UNL     1     104.217  45.327 136.779  1.00  0.00    -0.020 C 
ATOM     16  C   UNL     1     103.119  43.420 135.286  1.00  0.00     0.032 C 
ATOM     17  C   UNL     1     103.283  44.953 135.511  1.00  0.00     0.006 C 
ATOM     18  C   UNL     1     103.542  46.360 137.757  1.00  0.00     0.008 C 
ATOM     19  C   UNL     1     105.507  46.021 136.216  1.00  0.00     0.012 C 
ATOM     20  C   UNL     1     101.945  45.803 135.366  1.00  0.00    -0.025 C 
ATOM     21  C   UNL     1     102.752  47.529 137.122  1.00  0.00     0.005 C 
ATOM     22  C   UNL     1     102.343  47.298 135.651  1.00  0.00     0.003 C 
ATOM     23  C   UNL     1     101.349  45.699 133.914  1.00  0.00     0.010 C 
ATOM     24  C   UNL     1     100.842  45.275 136.335  1.00  0.00     0.012 C 
ATOM     25  C   UNL     1     101.429  48.407 134.989  1.00  0.00    -0.006 C 
ATOM     26  C   UNL     1     101.852  46.789 132.966  1.00  0.00     0.033 C 
ATOM     27  C   UNL     1     101.410  48.201 133.414  1.00  0.00     0.120 C 
ATOM     28  C   UNL     1     101.989  49.816 135.337  1.00  0.00     0.014 C 
ATOM     29  C   UNL     1      99.973  48.380 135.523  1.00  0.00     0.014 C 
ENDROOT
BRANCH   1  30
ATOM     30  C   UNL     1     108.539  42.492 138.494  1.00  0.00     0.048 C 
ATOM     31  O   UNL     1     109.101  43.402 137.827  1.00  0.00    -0.550 OA
ATOM     32  O   UNL     1     109.236  41.914 139.550  1.00  0.00    -0.550 OA
ENDBRANCH   1  30
BRANCH  27  33
ATOM     33  O   UNL     1     102.245  49.123 132.755  1.00  0.00    -0.393 OA
ATOM     34  H   UNL     1     102.708  49.660 133.451  1.00  0.00     0.210 HD
ENDBRANCH  27  33
TORSDOF 2
ENDMDL
MODEL 3
REMARK VINA RESULT:    -6.528      4.631      6.288
REMARK INTER + INTRA:          -7.288
REMARK INTER:                  -7.082
REMARK INTRA:                  -0.206
REMARK UNBOUND:                -0.188
REMARK SMILES C[C@@H]1[C@H]2C3=CC[C@H]4[C@]5(C)CC[C@H](O)C(C)(C)[C@H]5CC[C@@]4(C)[C@]3(C)CC[C@@]2(C(=O)[O-])CC[C@@H]1C
REMARK SMILES IDX 26 1 30 2 25 3 3 4 31 5 24 6 4 7 2 8 32 9 22 10 5 11 1 12
REMARK SMILES IDX 33 13 23 14 20 15 6 16 7 17 19 18 21 19 8 20 18 21 17 22
REMARK SMILES IDX 10 23 9 24 14 25 11 26 12 27 15 28 16 29 27 30 28 31 29 32
REMARK SMILES IDX 13 33
REMARK H PARENT 13 34
REMARK Flexibility Score: inf
ROOT
ATOM      1  C   UNL     1     106.211  44.190 137.874  1.00  0.00     0.017 C 
ATOM      2  C   UNL     1     106.267  42.909 138.744  1.00  0.00     0.014 C 
ATOM      3  C   UNL     1     105.290  45.222 138.597  1.00  0.00     0.014 C 
ATOM      4  C   UNL     1     105.693  43.790 136.425  1.00  0.00     0.030 C 
ATOM      5  C   UNL     1     107.289  41.872 138.253  1.00  0.00     0.004 C 
ATOM      6  C   UNL     1     104.495  46.074 137.607  1.00  0.00     0.013 C 
ATOM      7  C   UNL     1     104.149  43.969 136.264  1.00  0.00    -0.063 C 
ATOM      8  C   UNL     1     106.229  42.380 135.942  1.00  0.00    -0.003 C 
ATOM      9  C   UNL     1     107.458  41.804 136.714  1.00  0.00    -0.011 C 
ATOM     10  C   UNL     1     103.443  45.206 136.851  1.00  0.00    -0.006 C 
ATOM     11  C   UNL     1     103.405  43.183 135.445  1.00  0.00    -0.027 C 
ATOM     12  C   UNL     1     106.491  42.368 134.415  1.00  0.00     0.008 C 
ATOM     13  C   UNL     1     108.827  42.341 136.238  1.00  0.00     0.008 C 
ATOM     14  C   UNL     1     102.412  44.716 137.929  1.00  0.00     0.017 C 
ATOM     15  C   UNL     1     102.721  46.014 135.655  1.00  0.00    -0.020 C 
ATOM     16  C   UNL     1     101.983  43.520 135.098  1.00  0.00     0.032 C 
ATOM     17  C   UNL     1     101.839  45.026 134.724  1.00  0.00     0.006 C 
ATOM     18  C   UNL     1     101.883  47.207 136.252  1.00  0.00     0.008 C 
ATOM     19  C   UNL     1     103.822  46.654 134.739  1.00  0.00     0.012 C 
ATOM     20  C   UNL     1     100.352  45.507 134.423  1.00  0.00    -0.025 C 
ATOM     21  C   UNL     1     100.851  47.886 135.321  1.00  0.00     0.005 C 
ATOM     22  C   UNL     1     100.447  47.043 134.092  1.00  0.00     0.003 C 
ATOM     23  C   UNL     1      99.740  44.753 133.185  1.00  0.00     0.010 C 
ATOM     24  C   UNL     1      99.414  45.205 135.632  1.00  0.00     0.012 C 
ATOM     25  C   UNL     1      99.304  47.635 133.173  1.00  0.00    -0.006 C 
ATOM     26  C   UNL     1      99.978  45.468 131.854  1.00  0.00     0.033 C 
ATOM     27  C   UNL     1      99.273  46.843 131.797  1.00  0.00     0.120 C 
ATOM     28  C   UNL     1      99.577  49.144 132.914  1.00  0.00     0.014 C 
ATOM     29  C   UNL     1      97.903  47.559 133.834  1.00  0.00     0.014 C 
ENDROOT
BRANCH   1  30
ATOM     30  C   UNL     1     107.585  44.855 137.811  1.00  0.00     0.048 C 
ATOM     31  O   UNL     1     107.937  45.505 136.789  1.00  0.00    -0.550 OA
ATOM     32  O   UNL     1     108.410  44.881 138.932  1.00  0.00    -0.550 OA
ENDBRANCH   1  30
BRANCH  27  33
ATOM     33  O   UNL     1      99.880  47.574 130.757  1.00  0.00    -0.393 OA
ATOM     34  H   UNL     1     100.840  47.683 130.988  1.00  0.00     0.210 HD
ENDBRANCH  27  33
TORSDOF 2
ENDMDL
MODEL 4
REMARK VINA RESULT:    -6.507      4.202      8.356
REMARK INTER + INTRA:          -7.266
REMARK INTER:                  -7.058
REMARK INTRA:                  -0.207
REMARK UNBOUND:                -0.188
REMARK SMILES C[C@@H]1[C@H]2C3=CC[C@H]4[C@]5(C)CC[C@H](O)C(C)(C)[C@H]5CC[C@@]4(C)[C@]3(C)CC[C@@]2(C(=O)[O-])CC[C@@H]1C
REMARK SMILES IDX 26 1 30 2 25 3 3 4 31 5 24 6 4 7 2 8 32 9 22 10 5 11 1 12
REMARK SMILES IDX 33 13 23 14 20 15 6 16 7 17 19 18 21 19 8 20 18 21 17 22
REMARK SMILES IDX 10 23 9 24 14 25 11 26 12 27 15 28 16 29 27 30 28 31 29 32
REMARK SMILES IDX 13 33
REMARK H PARENT 13 34
REMARK Flexibility Score: inf
ROOT
ATOM      1  C   UNL     1     100.495  46.192 136.599  1.00  0.00     0.017 C 
ATOM      2  C   UNL     1     100.347  47.671 137.035  1.00  0.00     0.014 C 
ATOM      3  C   UNL     1     100.817  45.346 137.870  1.00  0.00     0.014 C 
ATOM      4  C   UNL     1     101.627  46.110 135.484  1.00  0.00     0.030 C 
ATOM      5  C   UNL     1      99.842  48.598 135.918  1.00  0.00     0.004 C 
ATOM      6  C   UNL     1     101.759  44.182 137.562  1.00  0.00     0.013 C 
ATOM      7  C   UNL     1     103.033  45.769 136.075  1.00  0.00    -0.063 C 
ATOM      8  C   UNL     1     101.627  47.356 134.506  1.00  0.00    -0.003 C 
ATOM      9  C   UNL     1     100.332  48.227 134.495  1.00  0.00    -0.011 C 
ATOM     10  C   UNL     1     103.178  44.705 137.179  1.00  0.00    -0.006 C 
ATOM     11  C   UNL     1     104.186  46.220 135.519  1.00  0.00    -0.027 C 
ATOM     12  C   UNL     1     102.017  46.942 133.065  1.00  0.00     0.008 C 
ATOM     13  C   UNL     1      99.198  47.685 133.594  1.00  0.00     0.008 C 
ATOM     14  C   UNL     1     103.755  45.405 138.461  1.00  0.00     0.017 C 
ATOM     15  C   UNL     1     104.148  43.529 136.651  1.00  0.00    -0.020 C 
ATOM     16  C   UNL     1     105.528  45.685 135.929  1.00  0.00     0.032 C 
ATOM     17  C   UNL     1     105.509  44.128 136.013  1.00  0.00     0.006 C 
ATOM     18  C   UNL     1     104.414  42.499 137.813  1.00  0.00     0.008 C 
ATOM     19  C   UNL     1     103.411  42.739 135.512  1.00  0.00     0.012 C 
ATOM     20  C   UNL     1     106.862  43.464 136.525  1.00  0.00    -0.025 C 
ATOM     21  C   UNL     1     105.578  41.498 137.622  1.00  0.00     0.005 C 
ATOM     22  C   UNL     1     106.606  41.912 136.547  1.00  0.00     0.003 C 
ATOM     23  C   UNL     1     108.061  43.773 135.556  1.00  0.00     0.010 C 
ATOM     24  C   UNL     1     107.266  44.030 137.922  1.00  0.00     0.012 C 
ATOM     25  C   UNL     1     107.882  40.988 136.396  1.00  0.00    -0.006 C 
ATOM     26  C   UNL     1     108.249  42.722 134.460  1.00  0.00     0.033 C 
ATOM     27  C   UNL     1     108.627  41.339 135.038  1.00  0.00     0.120 C 
ATOM     28  C   UNL     1     107.443  39.495 136.394  1.00  0.00     0.014 C 
ATOM     29  C   UNL     1     108.876  41.142 137.576  1.00  0.00     0.014 C 
ENDROOT
BRANCH   1  30
ATOM     30  C   UNL     1      99.164  45.649 136.082  1.00  0.00     0.048 C 
ATOM     31  O   UNL     1      99.138  44.767 135.182  1.00  0.00    -0.550 OA
ATOM     32  O   UNL     1      97.968  46.009 136.696  1.00  0.00    -0.550 OA
ENDBRANCH   1  30
BRANCH  27  33
ATOM     33  O   UNL     1     108.363  40.387 134.034  1.00  0.00    -0.393 OA
ATOM     34  H   UNL     1     108.522  39.487 134.424  1.00  0.00     0.210 HD
ENDBRANCH  27  33
TORSDOF 2
ENDMDL
MODEL 5
REMARK VINA RESULT:    -6.435      3.154     10.158
REMARK INTER + INTRA:          -7.187
REMARK INTER:                  -6.982
REMARK INTRA:                  -0.205
REMARK UNBOUND:                -0.188
REMARK SMILES C[C@@H]1[C@H]2C3=CC[C@H]4[C@]5(C)CC[C@H](O)C(C)(C)[C@H]5CC[C@@]4(C)[C@]3(C)CC[C@@]2(C(=O)[O-])CC[C@@H]1C
REMARK SMILES IDX 26 1 30 2 25 3 3 4 31 5 24 6 4 7 2 8 32 9 22 10 5 11 1 12
REMARK SMILES IDX 33 13 23 14 20 15 6 16 7 17 19 18 21 19 8 20 18 21 17 22
REMARK SMILES IDX 10 23 9 24 14 25 11 26 12 27 15 28 16 29 27 30 28 31 29 32
REMARK SMILES IDX 13 33
REMARK H PARENT 13 34
REMARK Flexibility Score: inf
ROOT
ATOM      1  C   UNL     1     104.690  55.143 139.185  1.00  0.00     0.017 C 
ATOM      2  C   UNL     1     105.037  56.082 140.367  1.00  0.00     0.014 C 
ATOM      3  C   UNL     1     103.535  54.199 139.644  1.00  0.00     0.014 C 
ATOM      4  C   UNL     1     106.010  54.363 138.760  1.00  0.00     0.030 C 
ATOM      5  C   UNL     1     106.030  57.197 140.001  1.00  0.00     0.004 C 
ATOM      6  C   UNL     1     103.654  52.805 139.029  1.00  0.00     0.013 C 
ATOM      7  C   UNL     1     106.134  52.966 139.449  1.00  0.00    -0.063 C 
ATOM      8  C   UNL     1     107.317  55.250 138.869  1.00  0.00    -0.003 C 
ATOM      9  C   UNL     1     107.101  56.794 138.955  1.00  0.00    -0.011 C 
ATOM     10  C   UNL     1     104.900  52.055 139.594  1.00  0.00    -0.006 C 
ATOM     11  C   UNL     1     107.333  52.408 139.755  1.00  0.00    -0.027 C 
ATOM     12  C   UNL     1     108.330  54.904 137.749  1.00  0.00     0.008 C 
ATOM     13  C   UNL     1     106.898  57.493 137.591  1.00  0.00     0.008 C 
ATOM     14  C   UNL     1     104.631  51.834 141.125  1.00  0.00     0.017 C 
ATOM     15  C   UNL     1     105.183  50.663 138.828  1.00  0.00    -0.020 C 
ATOM     16  C   UNL     1     107.456  50.971 140.174  1.00  0.00     0.032 C 
ATOM     17  C   UNL     1     106.618  50.042 139.244  1.00  0.00     0.006 C 
ATOM     18  C   UNL     1     103.986  49.670 139.076  1.00  0.00     0.008 C 
ATOM     19  C   UNL     1     105.226  50.935 137.283  1.00  0.00     0.012 C 
ATOM     20  C   UNL     1     106.611  48.504 139.656  1.00  0.00    -0.025 C 
ATOM     21  C   UNL     1     104.214  48.181 138.723  1.00  0.00     0.005 C 
ATOM     22  C   UNL     1     105.699  47.774 138.601  1.00  0.00     0.003 C 
ATOM     23  C   UNL     1     108.055  47.885 139.601  1.00  0.00     0.010 C 
ATOM     24  C   UNL     1     106.107  48.323 141.121  1.00  0.00     0.012 C 
ATOM     25  C   UNL     1     105.994  46.237 138.364  1.00  0.00    -0.006 C 
ATOM     26  C   UNL     1     108.406  47.266 138.248  1.00  0.00     0.033 C 
ATOM     27  C   UNL     1     107.505  46.057 137.908  1.00  0.00     0.120 C 
ATOM     28  C   UNL     1     105.037  45.690 137.267  1.00  0.00     0.014 C 
ATOM     29  C   UNL     1     105.738  45.376 139.627  1.00  0.00     0.014 C 
ENDROOT
BRANCH   1  30
ATOM     30  C   UNL     1     104.114  55.941 138.017  1.00  0.00     0.048 C 
ATOM     31  O   UNL     1     104.276  55.548 136.830  1.00  0.00    -0.550 OA
ATOM     32  O   UNL     1     103.281  57.031 138.248  1.00  0.00    -0.550 OA
ENDBRANCH   1  30
BRANCH  27  33
ATOM     33  O   UNL     1     107.612  45.840 136.521  1.00  0.00    -0.393 OA
ATOM     34  H   UNL     1     108.022  44.945 136.387  1.00  0.00     0.210 HD
ENDBRANCH  27  33
TORSDOF 2
ENDMDL
MODEL 6
REMARK VINA RESULT:    -6.415      1.863      8.024
REMARK INTER + INTRA:          -7.165
REMARK INTER:                  -7.066
REMARK INTRA:                  -0.100
REMARK UNBOUND:                -0.188
REMARK SMILES C[C@@H]1[C@H]2C3=CC[C@H]4[C@]5(C)CC[C@H](O)C(C)(C)[C@H]5CC[C@@]4(C)[C@]3(C)CC[C@@]2(C(=O)[O-])CC[C@@H]1C
REMARK SMILES IDX 26 1 30 2 25 3 3 4 31 5 24 6 4 7 2 8 32 9 22 10 5 11 1 12
REMARK SMILES IDX 33 13 23 14 20 15 6 16 7 17 19 18 21 19 8 20 18 21 17 22
REMARK SMILES IDX 10 23 9 24 14 25 11 26 12 27 15 28 16 29 27 30 28 31 29 32
REMARK SMILES IDX 13 33
REMARK H PARENT 13 34
REMARK Flexibility Score: inf
ROOT
ATOM      1  C   UNL     1     106.132  48.676 139.097  1.00  0.00     0.017 C 
ATOM      2  C   UNL     1     106.106  49.873 138.114  1.00  0.00     0.014 C 
ATOM      3  C   UNL     1     107.622  48.259 139.307  1.00  0.00     0.014 C 
ATOM      4  C   UNL     1     105.230  47.512 138.495  1.00  0.00     0.030 C 
ATOM      5  C   UNL     1     104.719  50.516 137.958  1.00  0.00     0.004 C 
ATOM      6  C   UNL     1     107.773  46.749 139.495  1.00  0.00     0.013 C 
ATOM      7  C   UNL     1     106.056  46.473 137.671  1.00  0.00    -0.063 C 
ATOM      8  C   UNL     1     103.943  48.051 137.744  1.00  0.00    -0.003 C 
ATOM      9  C   UNL     1     103.530  49.525 138.048  1.00  0.00    -0.011 C 
ATOM     10  C   UNL     1     107.428  45.989 138.177  1.00  0.00    -0.006 C 
ATOM     11  C   UNL     1     105.535  45.803 136.612  1.00  0.00    -0.027 C 
ATOM     12  C   UNL     1     102.738  47.096 137.936  1.00  0.00     0.008 C 
ATOM     13  C   UNL     1     102.694  49.708 139.336  1.00  0.00     0.008 C 
ATOM     14  C   UNL     1     108.514  46.408 137.124  1.00  0.00     0.017 C 
ATOM     15  C   UNL     1     107.377  44.389 138.382  1.00  0.00    -0.020 C 
ATOM     16  C   UNL     1     106.237  44.630 135.991  1.00  0.00     0.032 C 
ATOM     17  C   UNL     1     106.760  43.648 137.083  1.00  0.00     0.006 C 
ATOM     18  C   UNL     1     108.808  43.859 138.772  1.00  0.00     0.008 C 
ATOM     19  C   UNL     1     106.434  44.064 139.593  1.00  0.00     0.012 C 
ATOM     20  C   UNL     1     107.598  42.411 136.531  1.00  0.00    -0.025 C 
ATOM     21  C   UNL     1     109.051  42.335 138.676  1.00  0.00     0.005 C 
ATOM     22  C   UNL     1     108.032  41.580 137.795  1.00  0.00     0.003 C 
ATOM     23  C   UNL     1     106.729  41.498 135.591  1.00  0.00     0.010 C 
ATOM     24  C   UNL     1     108.811  42.896 135.680  1.00  0.00     0.012 C 
ATOM     25  C   UNL     1     108.304  40.039 137.561  1.00  0.00    -0.006 C 
ATOM     26  C   UNL     1     106.011  40.366 136.327  1.00  0.00     0.033 C 
ATOM     27  C   UNL     1     107.001  39.360 136.958  1.00  0.00     0.120 C 
ATOM     28  C   UNL     1     108.677  39.367 138.914  1.00  0.00     0.014 C 
ATOM     29  C   UNL     1     109.500  39.779 136.608  1.00  0.00     0.014 C 
ENDROOT
BRANCH   1  30
ATOM     30  C   UNL     1     105.639  49.105 140.478  1.00  0.00     0.048 C 
ATOM     31  O   UNL     1     104.835  48.382 141.125  1.00  0.00    -0.550 OA
ATOM     32  O   UNL     1     106.180  50.224 141.105  1.00  0.00    -0.550 OA
ENDBRANCH   1  30
BRANCH  27  33
ATOM     33  O   UNL     1     106.287  38.636 137.933  1.00  0.00    -0.393 OA
ATOM     34  H   UNL     1     105.856  39.293 138.539  1.00  0.00     0.210 HD
ENDBRANCH  27  33
TORSDOF 2
ENDMDL
MODEL 7
REMARK VINA RESULT:    -6.301      2.609      7.833
REMARK INTER + INTRA:          -7.042
REMARK INTER:                  -6.837
REMARK INTRA:                  -0.205
REMARK UNBOUND:                -0.188
REMARK SMILES C[C@@H]1[C@H]2C3=CC[C@H]4[C@]5(C)CC[C@H](O)C(C)(C)[C@H]5CC[C@@]4(C)[C@]3(C)CC[C@@]2(C(=O)[O-])CC[C@@H]1C
REMARK SMILES IDX 26 1 30 2 25 3 3 4 31 5 24 6 4 7 2 8 32 9 22 10 5 11 1 12
REMARK SMILES IDX 33 13 23 14 20 15 6 16 7 17 19 18 21 19 8 20 18 21 17 22
REMARK SMILES IDX 10 23 9 24 14 25 11 26 12 27 15 28 16 29 27 30 28 31 29 32
REMARK SMILES IDX 13 33
REMARK H PARENT 13 34
REMARK Flexibility Score: inf
ROOT
ATOM      1  C   UNL     1     103.445  47.898 137.924  1.00  0.00     0.017 C 
ATOM      2  C   UNL     1     103.850  49.253 137.291  1.00  0.00     0.014 C 
ATOM      3  C   UNL     1     104.173  47.773 139.299  1.00  0.00     0.014 C 
ATOM      4  C   UNL     1     103.820  46.736 136.904  1.00  0.00     0.030 C 
ATOM      5  C   UNL     1     103.062  49.602 136.018  1.00  0.00     0.004 C 
ATOM      6  C   UNL     1     104.564  46.329 139.611  1.00  0.00     0.013 C 
ATOM      7  C   UNL     1     105.224  46.113 137.188  1.00  0.00    -0.063 C 
ATOM      8  C   UNL     1     103.592  47.142 135.390  1.00  0.00    -0.003 C 
ATOM      9  C   UNL     1     102.683  48.385 135.135  1.00  0.00    -0.011 C 
ATOM     10  C   UNL     1     105.675  45.832 138.634  1.00  0.00    -0.006 C 
ATOM     11  C   UNL     1     106.009  45.605 136.204  1.00  0.00    -0.027 C 
ATOM     12  C   UNL     1     103.112  45.934 134.548  1.00  0.00     0.008 C 
ATOM     13  C   UNL     1     101.166  48.087 135.147  1.00  0.00     0.008 C 
ATOM     14  C   UNL     1     106.948  46.702 138.928  1.00  0.00     0.017 C 
ATOM     15  C   UNL     1     105.977  44.255 138.792  1.00  0.00    -0.020 C 
ATOM     16  C   UNL     1     107.229  44.783 136.507  1.00  0.00     0.032 C 
ATOM     17  C   UNL     1     106.927  43.714 137.600  1.00  0.00     0.006 C 
ATOM     18  C   UNL     1     106.564  43.970 140.226  1.00  0.00     0.008 C 
ATOM     19  C   UNL     1     104.622  43.468 138.700  1.00  0.00     0.012 C 
ATOM     20  C   UNL     1     108.180  42.844 138.056  1.00  0.00    -0.025 C 
ATOM     21  C   UNL     1     107.236  42.595 140.458  1.00  0.00     0.005 C 
ATOM     22  C   UNL     1     107.648  41.860 139.164  1.00  0.00     0.003 C 
ATOM     23  C   UNL     1     108.766  42.004 136.863  1.00  0.00     0.010 C 
ATOM     24  C   UNL     1     109.337  43.758 138.564  1.00  0.00     0.012 C 
ATOM     25  C   UNL     1     108.449  40.507 139.344  1.00  0.00    -0.006 C 
ATOM     26  C   UNL     1     108.154  40.608 136.737  1.00  0.00     0.033 C 
ATOM     27  C   UNL     1     108.469  39.721 137.964  1.00  0.00     0.120 C 
ATOM     28  C   UNL     1     107.765  39.642 140.441  1.00  0.00     0.014 C 
ATOM     29  C   UNL     1     109.907  40.733 139.821  1.00  0.00     0.014 C 
ENDROOT
BRANCH   1  30
ATOM     30  C   UNL     1     101.954  47.886 138.258  1.00  0.00     0.048 C 
ATOM     31  O   UNL     1     101.299  46.810 138.229  1.00  0.00    -0.550 OA
ATOM     32  O   UNL     1     101.329  49.033 138.740  1.00  0.00    -0.550 OA
ENDBRANCH   1  30
BRANCH  27  33
ATOM     33  O   UNL     1     107.545  38.658 137.952  1.00  0.00    -0.393 OA
ATOM     34  H   UNL     1     108.031  37.840 137.668  1.00  0.00     0.210 HD
ENDBRANCH  27  33
TORSDOF 2
ENDMDL
MODEL 8
REMARK VINA RESULT:    -6.281      3.727      5.618
REMARK INTER + INTRA:          -7.019
REMARK INTER:                  -6.838
REMARK INTRA:                  -0.181
REMARK UNBOUND:                -0.188
REMARK SMILES C[C@@H]1[C@H]2C3=CC[C@H]4[C@]5(C)CC[C@H](O)C(C)(C)[C@H]5CC[C@@]4(C)[C@]3(C)CC[C@@]2(C(=O)[O-])CC[C@@H]1C
REMARK SMILES IDX 26 1 30 2 25 3 3 4 31 5 24 6 4 7 2 8 32 9 22 10 5 11 1 12
REMARK SMILES IDX 33 13 23 14 20 15 6 16 7 17 19 18 21 19 8 20 18 21 17 22
REMARK SMILES IDX 10 23 9 24 14 25 11 26 12 27 15 28 16 29 27 30 28 31 29 32
REMARK SMILES IDX 13 33
REMARK H PARENT 13 34
REMARK Flexibility Score: inf
ROOT
ATOM      1  C   UNL     1     107.814  41.896 136.447  1.00  0.00     0.017 C 
ATOM      2  C   UNL     1     109.118  42.323 137.166  1.00  0.00     0.014 C 
ATOM      3  C   UNL     1     107.578  42.877 135.256  1.00  0.00     0.014 C 
ATOM      4  C   UNL     1     106.631  41.901 137.511  1.00  0.00     0.030 C 
ATOM      5  C   UNL     1     109.582  41.334 138.247  1.00  0.00     0.004 C 
ATOM      6  C   UNL     1     106.092  43.143 135.017  1.00  0.00     0.013 C 
ATOM      7  C   UNL     1     105.835  43.245 137.523  1.00  0.00    -0.063 C 
ATOM      8  C   UNL     1     107.086  41.411 138.947  1.00  0.00    -0.003 C 
ATOM      9  C   UNL     1     108.435  40.629 139.017  1.00  0.00    -0.011 C 
ATOM     10  C   UNL     1     105.478  43.952 136.202  1.00  0.00    -0.006 C 
ATOM     11  C   UNL     1     105.250  43.736 138.645  1.00  0.00    -0.027 C 
ATOM     12  C   UNL     1     105.959  40.617 139.655  1.00  0.00     0.008 C 
ATOM     13  C   UNL     1     108.326  39.124 138.682  1.00  0.00     0.008 C 
ATOM     14  C   UNL     1     106.179  45.357 136.193  1.00  0.00     0.017 C 
ATOM     15  C   UNL     1     103.873  44.083 136.094  1.00  0.00    -0.020 C 
ATOM     16  C   UNL     1     104.278  44.880 138.598  1.00  0.00     0.032 C 
ATOM     17  C   UNL     1     103.238  44.685 137.454  1.00  0.00     0.006 C 
ATOM     18  C   UNL     1     103.495  44.920 134.814  1.00  0.00     0.008 C 
ATOM     19  C   UNL     1     103.261  42.652 135.890  1.00  0.00     0.012 C 
ATOM     20  C   UNL     1     102.213  45.888 137.264  1.00  0.00    -0.025 C 
ATOM     21  C   UNL     1     102.045  45.449 134.715  1.00  0.00     0.005 C 
ATOM     22  C   UNL     1     101.284  45.485 136.058  1.00  0.00     0.003 C 
ATOM     23  C   UNL     1     101.326  46.101 138.545  1.00  0.00     0.010 C 
ATOM     24  C   UNL     1     102.969  47.231 137.022  1.00  0.00     0.012 C 
ATOM     25  C   UNL     1      99.841  46.132 136.037  1.00  0.00    -0.006 C 
ATOM     26  C   UNL     1     100.018  45.309 138.523  1.00  0.00     0.033 C 
ATOM     27  C   UNL     1      99.080  45.763 137.382  1.00  0.00     0.120 C 
ATOM     28  C   UNL     1      99.049  45.593 134.811  1.00  0.00     0.014 C 
ATOM     29  C   UNL     1      99.878  47.674 135.881  1.00  0.00     0.014 C 
ENDROOT
BRANCH   1  30
ATOM     30  C   UNL     1     107.981  40.520 135.806  1.00  0.00     0.048 C 
ATOM     31  O   UNL     1     107.031  39.692 135.808  1.00  0.00    -0.550 OA
ATOM     32  O   UNL     1     109.130  40.212 135.082  1.00  0.00    -0.550 OA
ENDBRANCH   1  30
BRANCH  27  33
ATOM     33  O   UNL     1      98.139  44.732 137.186  1.00  0.00    -0.393 OA
ATOM     34  H   UNL     1      98.609  43.868 137.320  1.00  0.00     0.210 HD
ENDBRANCH  27  33
TORSDOF 2
ENDMDL
MODEL 9
REMARK VINA RESULT:    -6.272      3.139      8.183
REMARK INTER + INTRA:          -7.010
REMARK INTER:                  -6.804
REMARK INTRA:                  -0.206
REMARK UNBOUND:                -0.188
REMARK SMILES C[C@@H]1[C@H]2C3=CC[C@H]4[C@]5(C)CC[C@H](O)C(C)(C)[C@H]5CC[C@@]4(C)[C@]3(C)CC[C@@]2(C(=O)[O-])CC[C@@H]1C
REMARK SMILES IDX 26 1 30 2 25 3 3 4 31 5 24 6 4 7 2 8 32 9 22 10 5 11 1 12
REMARK SMILES IDX 33 13 23 14 20 15 6 16 7 17 19 18 21 19 8 20 18 21 17 22
REMARK SMILES IDX 10 23 9 24 14 25 11 26 12 27 15 28 16 29 27 30 28 31 29 32
REMARK SMILES IDX 13 33
REMARK H PARENT 13 34
REMARK Flexibility Score: inf
ROOT
ATOM      1  C   UNL     1     103.020  47.047 136.393  1.00  0.00     0.017 C 
ATOM      2  C   UNL     1     103.129  47.947 135.137  1.00  0.00     0.014 C 
ATOM      3  C   UNL     1     104.276  47.308 137.282  1.00  0.00     0.014 C 
ATOM      4  C   UNL     1     102.888  45.535 135.916  1.00  0.00     0.030 C 
ATOM      5  C   UNL     1     101.869  47.940 134.258  1.00  0.00     0.004 C 
ATOM      6  C   UNL     1     104.740  46.043 138.005  1.00  0.00     0.013 C 
ATOM      7  C   UNL     1     104.263  44.795 135.868  1.00  0.00    -0.063 C 
ATOM      8  C   UNL     1     102.025  45.373 134.598  1.00  0.00    -0.003 C 
ATOM      9  C   UNL     1     101.118  46.584 134.211  1.00  0.00    -0.011 C 
ATOM     10  C   UNL     1     105.298  44.998 136.990  1.00  0.00    -0.006 C 
ATOM     11  C   UNL     1     104.526  43.803 134.979  1.00  0.00    -0.027 C 
ATOM     12  C   UNL     1     101.202  44.061 134.619  1.00  0.00     0.008 C 
ATOM     13  C   UNL     1      99.756  46.628 134.940  1.00  0.00     0.008 C 
ATOM     14  C   UNL     1     106.587  45.636 136.358  1.00  0.00     0.017 C 
ATOM     15  C   UNL     1     105.611  43.573 137.680  1.00  0.00    -0.020 C 
ATOM     16  C   UNL     1     105.740  42.927 135.103  1.00  0.00     0.032 C 
ATOM     17  C   UNL     1     105.930  42.439 136.571  1.00  0.00     0.006 C 
ATOM     18  C   UNL     1     106.764  43.740 138.740  1.00  0.00     0.008 C 
ATOM     19  C   UNL     1     104.340  43.104 138.471  1.00  0.00     0.012 C 
ATOM     20  C   UNL     1     107.241  41.572 136.828  1.00  0.00    -0.025 C 
ATOM     21  C   UNL     1     107.444  42.451 139.258  1.00  0.00     0.005 C 
ATOM     22  C   UNL     1     107.233  41.212 138.360  1.00  0.00     0.003 C 
ATOM     23  C   UNL     1     107.228  40.242 135.989  1.00  0.00     0.010 C 
ATOM     24  C   UNL     1     108.519  42.354 136.397  1.00  0.00     0.012 C 
ATOM     25  C   UNL     1     108.007  39.896 138.776  1.00  0.00    -0.006 C 
ATOM     26  C   UNL     1     106.598  39.058 136.726  1.00  0.00     0.033 C 
ATOM     27  C   UNL     1     107.405  38.659 137.983  1.00  0.00     0.120 C 
ATOM     28  C   UNL     1     107.860  39.671 140.309  1.00  0.00     0.014 C 
ATOM     29  C   UNL     1     109.530  39.985 138.499  1.00  0.00     0.014 C 
ENDROOT
BRANCH   1  30
ATOM     30  C   UNL     1     101.828  47.467 137.251  1.00  0.00     0.048 C 
ATOM     31  O   UNL     1     101.203  46.616 137.941  1.00  0.00    -0.550 OA
ATOM     32  O   UNL     1     101.504  48.812 137.401  1.00  0.00    -0.550 OA
ENDBRANCH   1  30
BRANCH  27  33
ATOM     33  O   UNL     1     106.551  37.884 138.792  1.00  0.00    -0.393 OA
ATOM     34  H   UNL     1     106.909  37.909 139.718  1.00  0.00     0.210 HD
ENDBRANCH  27  33
TORSDOF 2
ENDMDL
