MODEL 1
REMARK VINA RESULT:     0.860      0.000      0.000
REMARK INTER + INTRA:           0.177
REMARK INTER:                   2.268
REMARK INTRA:                  -2.091
REMARK UNBOUND:                -2.091
REMARK SMILES CCCCCCCCCCCCCCCCCCCCCCCCCCCCCC(=O)[O-]
REMARK SMILES IDX 16 1 17 2 18 3 19 4 20 5 21 6 22 7 23 8 24 9 25 10 26 11
REMARK SMILES IDX 27 12 28 13 29 14 30 15 31 16 32 17 15 18 14 19 13 20 12 21
REMARK SMILES IDX 11 22 10 23 9 24 8 25 7 26 6 27 5 28 4 29 3 30 2 31 1 32
REMARK H PARENT
REMARK Flexibility Score: inf
ROOT
ATOM      1  C   UNL     1      27.910   2.235  38.563  1.00  0.00     0.000 C 
ENDROOT
BRANCH   1   2
ATOM      2  C   UNL     1      26.378   2.367  38.709  1.00  0.00     0.000 C 
BRANCH   2   3
ATOM      3  C   UNL     1      25.856   3.791  38.974  1.00  0.00     0.000 C 
BRANCH   3   4
ATOM      4  C   UNL     1      24.335   3.842  39.200  1.00  0.00     0.000 C 
BRANCH   4   5
ATOM      5  C   UNL     1      23.909   3.160  40.515  1.00  0.00     0.000 C 
BRANCH   5   6
ATOM      6  C   UNL     1      22.412   2.817  40.619  1.00  0.00     0.000 C 
BRANCH   6   7
ATOM      7  C   UNL     1      22.062   1.471  39.962  1.00  0.00     0.000 C 
BRANCH   7   8
ATOM      8  C   UNL     1      20.784   0.831  40.539  1.00  0.00     0.000 C 
BRANCH   8   9
ATOM      9  C   UNL     1      21.001  -0.055  41.781  1.00  0.00     0.000 C 
BRANCH   9  10
ATOM     10  C   UNL     1      19.828  -1.014  42.045  1.00  0.00     0.000 C 
BRANCH  10  11
ATOM     11  C   UNL     1      19.048  -0.659  43.323  1.00  0.00     0.000 C 
BRANCH  11  12
ATOM     12  C   UNL     1      17.536  -0.445  43.091  1.00  0.00     0.000 C 
BRANCH  12  13
ATOM     13  C   UNL     1      16.861  -1.698  42.507  1.00  0.00     0.006 C 
BRANCH  13  14
ATOM     14  C   UNL     1      15.347  -1.718  42.760  1.00  0.00     0.053 C 
BRANCH  14  15
ATOM     15  C   UNL     1      14.560  -1.446  41.511  1.00  0.00     0.041 C 
ATOM     16  O   UNL     1      15.000  -0.646  40.643  1.00  0.00    -0.550 OA
ATOM     17  O   UNL     1      13.345  -2.083  41.304  1.00  0.00    -0.550 OA
ENDBRANCH  14  15
ENDBRANCH  13  14
ENDBRANCH  12  13
ENDBRANCH  11  12
ENDBRANCH  10  11
ENDBRANCH   9  10
ENDBRANCH   8   9
ENDBRANCH   7   8
ENDBRANCH   6   7
ENDBRANCH   5   6
ENDBRANCH   4   5
ENDBRANCH   3   4
ENDBRANCH   2   3
ENDBRANCH   1   2
BRANCH   1  18
ATOM     18  C   UNL     1      28.491   0.862  38.947  1.00  0.00     0.000 C 
BRANCH  18  19
ATOM     19  C   UNL     1      29.081   0.102  37.747  1.00  0.00     0.000 C 
BRANCH  19  20
ATOM     20  C   UNL     1      30.128   0.941  36.997  1.00  0.00     0.000 C 
BRANCH  20  21
ATOM     21  C   UNL     1      31.522   0.820  37.633  1.00  0.00     0.000 C 
BRANCH  21  22
ATOM     22  C   UNL     1      31.688   1.811  38.793  1.00  0.00     0.000 C 
BRANCH  22  23
ATOM     23  C   UNL     1      31.828   1.114  40.161  1.00  0.00     0.000 C 
BRANCH  23  24
ATOM     24  C   UNL     1      32.100  -0.404  40.099  1.00  0.00    -0.000 C 
BRANCH  24  25
ATOM     25  C   UNL     1      30.928  -1.280  40.576  1.00  0.00    -0.000 C 
BRANCH  25  26
ATOM     26  C   UNL     1      30.289  -0.764  41.879  1.00  0.00    -0.000 C 
BRANCH  26  27
ATOM     27  C   UNL     1      28.875  -1.331  42.102  1.00  0.00    -0.000 C 
BRANCH  27  28
ATOM     28  C   UNL     1      28.006  -0.454  43.024  1.00  0.00    -0.000 C 
BRANCH  28  29
ATOM     29  C   UNL     1      28.251  -0.744  44.514  1.00  0.00    -0.000 C 
BRANCH  29  30
ATOM     30  C   UNL     1      28.889  -2.125  44.707  1.00  0.00    -0.000 C 
BRANCH  30  31
ATOM     31  C   UNL     1      30.280  -2.000  45.341  1.00  0.00    -0.003 C 
ATOM     32  C   UNL     1      30.204  -1.367  46.727  1.00  0.00     0.004 C 
ENDBRANCH  30  31
ENDBRANCH  29  30
ENDBRANCH  28  29
ENDBRANCH  27  28
ENDBRANCH  26  27
ENDBRANCH  25  26
ENDBRANCH  24  25
ENDBRANCH  23  24
ENDBRANCH  22  23
ENDBRANCH  21  22
ENDBRANCH  20  21
ENDBRANCH  19  20
ENDBRANCH  18  19
ENDBRANCH   1  18
TORSDOF 28
ENDMDL
MODEL 2
REMARK VINA RESULT:     1.014      1.977      2.542
REMARK INTER + INTRA:           0.582
REMARK INTER:                   2.900
REMARK INTRA:                  -2.318
REMARK UNBOUND:                -2.091
REMARK SMILES CCCCCCCCCCCCCCCCCCCCCCCCCCCCCC(=O)[O-]
REMARK SMILES IDX 16 1 17 2 18 3 19 4 20 5 21 6 22 7 23 8 24 9 25 10 26 11
REMARK SMILES IDX 27 12 28 13 29 14 30 15 31 16 32 17 15 18 14 19 13 20 12 21
REMARK SMILES IDX 11 22 10 23 9 24 8 25 7 26 6 27 5 28 4 29 3 30 2 31 1 32
REMARK H PARENT
REMARK Flexibility Score: inf
ROOT
ATOM      1  C   UNL     1      28.181   2.152  38.559  1.00  0.00     0.000 C 
ENDROOT
BRANCH   1   2
ATOM      2  C   UNL     1      26.650   2.309  38.686  1.00  0.00     0.000 C 
BRANCH   2   3
ATOM      3  C   UNL     1      26.143   3.750  38.883  1.00  0.00     0.000 C 
BRANCH   3   4
ATOM      4  C   UNL     1      24.636   3.822  39.182  1.00  0.00     0.000 C 
BRANCH   4   5
ATOM      5  C   UNL     1      24.231   2.959  40.392  1.00  0.00     0.000 C 
BRANCH   5   6
ATOM      6  C   UNL     1      22.715   2.782  40.592  1.00  0.00     0.000 C 
BRANCH   6   7
ATOM      7  C   UNL     1      22.068   1.909  39.503  1.00  0.00     0.000 C 
BRANCH   7   8
ATOM      8  C   UNL     1      21.155   0.806  40.075  1.00  0.00     0.000 C 
BRANCH   8   9
ATOM      9  C   UNL     1      21.355   0.505  41.573  1.00  0.00     0.000 C 
BRANCH   9  10
ATOM     10  C   UNL     1      20.174  -0.260  42.193  1.00  0.00     0.000 C 
BRANCH  10  11
ATOM     11  C   UNL     1      19.355   0.602  43.170  1.00  0.00     0.000 C 
BRANCH  11  12
ATOM     12  C   UNL     1      17.974   1.023  42.621  1.00  0.00     0.000 C 
BRANCH  12  13
ATOM     13  C   UNL     1      18.045   1.436  41.141  1.00  0.00     0.006 C 
BRANCH  13  14
ATOM     14  C   UNL     1      18.642   2.837  40.953  1.00  0.00     0.053 C 
BRANCH  14  15
ATOM     15  C   UNL     1      18.366   3.393  39.586  1.00  0.00     0.041 C 
ATOM     16  O   UNL     1      17.377   2.983  38.921  1.00  0.00    -0.550 OA
ATOM     17  O   UNL     1      19.197   4.366  39.052  1.00  0.00    -0.550 OA
ENDBRANCH  14  15
ENDBRANCH  13  14
ENDBRANCH  12  13
ENDBRANCH  11  12
ENDBRANCH  10  11
ENDBRANCH   9  10
ENDBRANCH   8   9
ENDBRANCH   7   8
ENDBRANCH   6   7
ENDBRANCH   5   6
ENDBRANCH   4   5
ENDBRANCH   3   4
ENDBRANCH   2   3
ENDBRANCH   1   2
BRANCH   1  18
ATOM     18  C   UNL     1      28.702   0.705  38.637  1.00  0.00     0.000 C 
BRANCH  18  19
ATOM     19  C   UNL     1      29.752   0.386  37.559  1.00  0.00     0.000 C 
BRANCH  19  20
ATOM     20  C   UNL     1      30.699   1.572  37.314  1.00  0.00     0.000 C 
BRANCH  20  21
ATOM     21  C   UNL     1      32.025   1.415  38.075  1.00  0.00     0.000 C 
BRANCH  21  22
ATOM     22  C   UNL     1      31.925   2.009  39.487  1.00  0.00     0.000 C 
BRANCH  22  23
ATOM     23  C   UNL     1      32.106   0.953  40.596  1.00  0.00     0.000 C 
BRANCH  23  24
ATOM     24  C   UNL     1      32.125  -0.512  40.109  1.00  0.00    -0.000 C 
BRANCH  24  25
ATOM     25  C   UNL     1      30.781  -1.248  40.260  1.00  0.00    -0.000 C 
BRANCH  25  26
ATOM     26  C   UNL     1      30.172  -1.094  41.667  1.00  0.00    -0.000 C 
BRANCH  26  27
ATOM     27  C   UNL     1      28.740  -1.655  41.748  1.00  0.00    -0.000 C 
BRANCH  27  28
ATOM     28  C   UNL     1      27.802  -0.805  42.628  1.00  0.00    -0.000 C 
BRANCH  28  29
ATOM     29  C   UNL     1      28.328  -0.645  44.064  1.00  0.00    -0.000 C 
BRANCH  29  30
ATOM     30  C   UNL     1      28.466  -2.008  44.753  1.00  0.00    -0.000 C 
BRANCH  30  31
ATOM     31  C   UNL     1      29.699  -2.037  45.665  1.00  0.00    -0.003 C 
ATOM     32  C   UNL     1      30.761  -1.049  45.194  1.00  0.00     0.004 C 
ENDBRANCH  30  31
ENDBRANCH  29  30
ENDBRANCH  28  29
ENDBRANCH  27  28
ENDBRANCH  26  27
ENDBRANCH  25  26
ENDBRANCH  24  25
ENDBRANCH  23  24
ENDBRANCH  22  23
ENDBRANCH  21  22
ENDBRANCH  20  21
ENDBRANCH  19  20
ENDBRANCH  18  19
ENDBRANCH   1  18
TORSDOF 28
ENDMDL
MODEL 3
REMARK VINA RESULT:     1.379      4.539     12.677
REMARK INTER + INTRA:           1.546
REMARK INTER:                   2.088
REMARK INTRA:                  -0.542
REMARK UNBOUND:                -2.091
REMARK SMILES CCCCCCCCCCCCCCCCCCCCCCCCCCCCCC(=O)[O-]
REMARK SMILES IDX 16 1 17 2 18 3 19 4 20 5 21 6 22 7 23 8 24 9 25 10 26 11
REMARK SMILES IDX 27 12 28 13 29 14 30 15 31 16 32 17 15 18 14 19 13 20 12 21
REMARK SMILES IDX 11 22 10 23 9 24 8 25 7 26 6 27 5 28 4 29 3 30 2 31 1 32
REMARK H PARENT
REMARK Flexibility Score: inf
ROOT
ATOM      1  C   UNL     1      22.023   2.277  41.160  1.00  0.00     0.000 C 
ENDROOT
BRANCH   1   2
ATOM      2  C   UNL     1      23.564   2.200  41.228  1.00  0.00     0.000 C 
BRANCH   2   3
ATOM      3  C   UNL     1      24.136   1.172  42.221  1.00  0.00     0.000 C 
BRANCH   3   4
ATOM      4  C   UNL     1      25.672   1.103  42.198  1.00  0.00     0.000 C 
BRANCH   4   5
ATOM      5  C   UNL     1      26.234   0.068  43.191  1.00  0.00     0.000 C 
BRANCH   5   6
ATOM      6  C   UNL     1      27.711  -0.311  42.978  1.00  0.00     0.000 C 
BRANCH   6   7
ATOM      7  C   UNL     1      28.076  -1.668  43.604  1.00  0.00     0.000 C 
BRANCH   7   8
ATOM      8  C   UNL     1      29.090  -1.548  44.758  1.00  0.00     0.000 C 
BRANCH   8   9
ATOM      9  C   UNL     1      30.342  -0.706  44.443  1.00  0.00     0.000 C 
BRANCH   9  10
ATOM     10  C   UNL     1      31.283  -1.387  43.435  1.00  0.00     0.000 C 
BRANCH  10  11
ATOM     11  C   UNL     1      31.293  -0.685  42.066  1.00  0.00     0.000 C 
BRANCH  11  12
ATOM     12  C   UNL     1      30.220  -1.212  41.088  1.00  0.00     0.000 C 
BRANCH  12  13
ATOM     13  C   UNL     1      29.308  -0.085  40.574  1.00  0.00     0.006 C 
BRANCH  13  14
ATOM     14  C   UNL     1      29.420   0.111  39.056  1.00  0.00     0.053 C 
BRANCH  14  15
ATOM     15  C   UNL     1      30.557   1.018  38.684  1.00  0.00     0.041 C 
ATOM     16  O   UNL     1      31.485   0.602  37.940  1.00  0.00    -0.550 OA
ATOM     17  O   UNL     1      30.586   2.323  39.154  1.00  0.00    -0.550 OA
ENDBRANCH  14  15
ENDBRANCH  13  14
ENDBRANCH  12  13
ENDBRANCH  11  12
ENDBRANCH  10  11
ENDBRANCH   9  10
ENDBRANCH   8   9
ENDBRANCH   7   8
ENDBRANCH   6   7
ENDBRANCH   5   6
ENDBRANCH   4   5
ENDBRANCH   3   4
ENDBRANCH   2   3
ENDBRANCH   1   2
BRANCH   1  18
ATOM     18  C   UNL     1      21.406   1.904  39.800  1.00  0.00     0.000 C 
BRANCH  18  19
ATOM     19  C   UNL     1      20.518   0.649  39.866  1.00  0.00     0.000 C 
BRANCH  19  20
ATOM     20  C   UNL     1      20.996  -0.332  40.949  1.00  0.00     0.000 C 
BRANCH  20  21
ATOM     21  C   UNL     1      20.403  -0.000  42.327  1.00  0.00     0.000 C 
BRANCH  21  22
ATOM     22  C   UNL     1      19.193   0.936  42.197  1.00  0.00     0.000 C 
BRANCH  22  23
ATOM     23  C   UNL     1      17.847   0.190  42.279  1.00  0.00     0.000 C 
BRANCH  23  24
ATOM     24  C   UNL     1      17.919  -1.230  42.882  1.00  0.00    -0.000 C 
BRANCH  24  25
ATOM     25  C   UNL     1      16.680  -2.101  42.605  1.00  0.00    -0.000 C 
BRANCH  25  26
ATOM     26  C   UNL     1      15.418  -1.268  42.311  1.00  0.00    -0.000 C 
BRANCH  26  27
ATOM     27  C   UNL     1      14.132  -2.110  42.386  1.00  0.00    -0.000 C 
BRANCH  27  28
ATOM     28  C   UNL     1      13.294  -2.059  41.092  1.00  0.00    -0.000 C 
BRANCH  28  29
ATOM     29  C   UNL     1      14.100  -1.537  39.891  1.00  0.00    -0.000 C 
BRANCH  29  30
ATOM     30  C   UNL     1      13.332  -1.752  38.580  1.00  0.00    -0.000 C 
BRANCH  30  31
ATOM     31  C   UNL     1      14.182  -1.334  37.374  1.00  0.00    -0.003 C 
ATOM     32  C   UNL     1      13.681  -1.985  36.089  1.00  0.00     0.004 C 
ENDBRANCH  30  31
ENDBRANCH  29  30
ENDBRANCH  28  29
ENDBRANCH  27  28
ENDBRANCH  26  27
ENDBRANCH  25  26
ENDBRANCH  24  25
ENDBRANCH  23  24
ENDBRANCH  22  23
ENDBRANCH  21  22
ENDBRANCH  20  21
ENDBRANCH  19  20
ENDBRANCH  18  19
ENDBRANCH   1  18
TORSDOF 28
ENDMDL
MODEL 4
REMARK VINA RESULT:     1.792      4.313     10.763
REMARK INTER + INTRA:           2.634
REMARK INTER:                   5.068
REMARK INTRA:                  -2.434
REMARK UNBOUND:                -2.091
REMARK SMILES CCCCCCCCCCCCCCCCCCCCCCCCCCCCCC(=O)[O-]
REMARK SMILES IDX 16 1 17 2 18 3 19 4 20 5 21 6 22 7 23 8 24 9 25 10 26 11
REMARK SMILES IDX 27 12 28 13 29 14 30 15 31 16 32 17 15 18 14 19 13 20 12 21
REMARK SMILES IDX 11 22 10 23 9 24 8 25 7 26 6 27 5 28 4 29 3 30 2 31 1 32
REMARK H PARENT
REMARK Flexibility Score: inf
ROOT
ATOM      1  C   UNL     1      25.631   3.442  38.498  1.00  0.00     0.000 C 
ENDROOT
BRANCH   1   2
ATOM      2  C   UNL     1      27.049   3.426  39.108  1.00  0.00     0.000 C 
BRANCH   2   3
ATOM      3  C   UNL     1      28.068   2.516  38.398  1.00  0.00     0.000 C 
BRANCH   3   4
ATOM      4  C   UNL     1      28.090   1.085  38.960  1.00  0.00     0.000 C 
BRANCH   4   5
ATOM      5  C   UNL     1      29.066   0.165  38.201  1.00  0.00     0.000 C 
BRANCH   5   6
ATOM      6  C   UNL     1      30.311   0.864  37.625  1.00  0.00     0.000 C 
BRANCH   6   7
ATOM      7  C   UNL     1      31.605   0.482  38.364  1.00  0.00     0.000 C 
BRANCH   7   8
ATOM      8  C   UNL     1      31.808   1.268  39.674  1.00  0.00     0.000 C 
BRANCH   8   9
ATOM      9  C   UNL     1      31.040   0.719  40.891  1.00  0.00     0.000 C 
BRANCH   9  10
ATOM     10  C   UNL     1      31.131  -0.811  41.017  1.00  0.00     0.000 C 
BRANCH  10  11
ATOM     11  C   UNL     1      29.896  -1.426  41.699  1.00  0.00     0.000 C 
BRANCH  11  12
ATOM     12  C   UNL     1      28.866  -0.380  42.181  1.00  0.00     0.000 C 
BRANCH  12  13
ATOM     13  C   UNL     1      28.253  -0.761  43.539  1.00  0.00     0.006 C 
BRANCH  13  14
ATOM     14  C   UNL     1      28.953  -1.970  44.177  1.00  0.00     0.053 C 
BRANCH  14  15
ATOM     15  C   UNL     1      29.953  -1.561  45.219  1.00  0.00     0.041 C 
ATOM     16  O   UNL     1      29.810  -1.927  46.416  1.00  0.00    -0.550 OA
ATOM     17  O   UNL     1      31.046  -0.784  44.865  1.00  0.00    -0.550 OA
ENDBRANCH  14  15
ENDBRANCH  13  14
ENDBRANCH  12  13
ENDBRANCH  11  12
ENDBRANCH  10  11
ENDBRANCH   9  10
ENDBRANCH   8   9
ENDBRANCH   7   8
ENDBRANCH   6   7
ENDBRANCH   5   6
ENDBRANCH   4   5
ENDBRANCH   3   4
ENDBRANCH   2   3
ENDBRANCH   1   2
BRANCH   1  18
ATOM     18  C   UNL     1      24.506   3.871  39.458  1.00  0.00     0.000 C 
BRANCH  18  19
ATOM     19  C   UNL     1      23.986   2.716  40.330  1.00  0.00     0.000 C 
BRANCH  19  20
ATOM     20  C   UNL     1      22.537   2.952  40.787  1.00  0.00     0.000 C 
BRANCH  20  21
ATOM     21  C   UNL     1      21.597   1.830  40.319  1.00  0.00     0.000 C 
BRANCH  21  22
ATOM     22  C   UNL     1      22.003   0.480  40.925  1.00  0.00     0.000 C 
BRANCH  22  23
ATOM     23  C   UNL     1      21.604  -0.719  40.041  1.00  0.00     0.000 C 
BRANCH  23  24
ATOM     24  C   UNL     1      20.505  -1.630  40.629  1.00  0.00    -0.000 C 
BRANCH  24  25
ATOM     25  C   UNL     1      20.340  -1.522  42.155  1.00  0.00    -0.000 C 
BRANCH  25  26
ATOM     26  C   UNL     1      18.956  -1.994  42.640  1.00  0.00    -0.000 C 
BRANCH  26  27
ATOM     27  C   UNL     1      17.961  -0.829  42.791  1.00  0.00    -0.000 C 
BRANCH  27  28
ATOM     28  C   UNL     1      18.616   0.468  43.305  1.00  0.00    -0.000 C 
BRANCH  28  29
ATOM     29  C   UNL     1      18.095   1.719  42.579  1.00  0.00    -0.000 C 
BRANCH  29  30
ATOM     30  C   UNL     1      18.847   1.943  41.261  1.00  0.00    -0.000 C 
BRANCH  30  31
ATOM     31  C   UNL     1      17.880   2.342  40.140  1.00  0.00    -0.003 C 
ATOM     32  C   UNL     1      18.468   3.447  39.267  1.00  0.00     0.004 C 
ENDBRANCH  30  31
ENDBRANCH  29  30
ENDBRANCH  28  29
ENDBRANCH  27  28
ENDBRANCH  26  27
ENDBRANCH  25  26
ENDBRANCH  24  25
ENDBRANCH  23  24
ENDBRANCH  22  23
ENDBRANCH  21  22
ENDBRANCH  20  21
ENDBRANCH  19  20
ENDBRANCH  18  19
ENDBRANCH   1  18
TORSDOF 28
ENDMDL
MODEL 5
REMARK VINA RESULT:     2.149      1.838      5.183
REMARK INTER + INTRA:           3.575
REMARK INTER:                   1.698
REMARK INTRA:                   1.877
REMARK UNBOUND:                -2.091
REMARK SMILES CCCCCCCCCCCCCCCCCCCCCCCCCCCCCC(=O)[O-]
REMARK SMILES IDX 16 1 17 2 18 3 19 4 20 5 21 6 22 7 23 8 24 9 25 10 26 11
REMARK SMILES IDX 27 12 28 13 29 14 30 15 31 16 32 17 15 18 14 19 13 20 12 21
REMARK SMILES IDX 11 22 10 23 9 24 8 25 7 26 6 27 5 28 4 29 3 30 2 31 1 32
REMARK H PARENT
REMARK Flexibility Score: inf
ROOT
ATOM      1  C   UNL     1      23.869   0.976  41.748  1.00  0.00     0.000 C 
ENDROOT
BRANCH   1   2
ATOM      2  C   UNL     1      23.021   2.206  41.360  1.00  0.00     0.000 C 
BRANCH   2   3
ATOM      3  C   UNL     1      21.891   1.942  40.347  1.00  0.00     0.000 C 
BRANCH   3   4
ATOM      4  C   UNL     1      21.355   0.502  40.405  1.00  0.00     0.000 C 
BRANCH   4   5
ATOM      5  C   UNL     1      20.221   0.333  41.434  1.00  0.00     0.000 C 
BRANCH   5   6
ATOM      6  C   UNL     1      20.508  -0.668  42.568  1.00  0.00     0.000 C 
BRANCH   6   7
ATOM      7  C   UNL     1      19.422  -1.749  42.699  1.00  0.00     0.000 C 
BRANCH   7   8
ATOM      8  C   UNL     1      18.018  -1.167  42.956  1.00  0.00     0.000 C 
BRANCH   8   9
ATOM      9  C   UNL     1      16.848  -2.112  42.620  1.00  0.00     0.000 C 
BRANCH   9  10
ATOM     10  C   UNL     1      15.535  -1.362  42.338  1.00  0.00     0.000 C 
BRANCH  10  11
ATOM     11  C   UNL     1      14.612  -2.125  41.372  1.00  0.00     0.000 C 
BRANCH  11  12
ATOM     12  C   UNL     1      13.849  -1.212  40.387  1.00  0.00     0.000 C 
BRANCH  12  13
ATOM     13  C   UNL     1      12.431  -1.733  40.100  1.00  0.00     0.006 C 
BRANCH  13  14
ATOM     14  C   UNL     1      12.138  -1.831  38.596  1.00  0.00     0.053 C 
BRANCH  14  15
ATOM     15  C   UNL     1      13.384  -1.715  37.767  1.00  0.00     0.041 C 
ATOM     16  O   UNL     1      13.329  -1.239  36.601  1.00  0.00    -0.550 OA
ATOM     17  O   UNL     1      14.603  -2.125  38.285  1.00  0.00    -0.550 OA
ENDBRANCH  14  15
ENDBRANCH  13  14
ENDBRANCH  12  13
ENDBRANCH  11  12
ENDBRANCH  10  11
ENDBRANCH   9  10
ENDBRANCH   8   9
ENDBRANCH   7   8
ENDBRANCH   6   7
ENDBRANCH   5   6
ENDBRANCH   4   5
ENDBRANCH   3   4
ENDBRANCH   2   3
ENDBRANCH   1   2
BRANCH   1  18
ATOM     18  C   UNL     1      25.284   1.290  42.267  1.00  0.00     0.000 C 
BRANCH  18  19
ATOM     19  C   UNL     1      26.084   0.029  42.635  1.00  0.00     0.000 C 
BRANCH  19  20
ATOM     20  C   UNL     1      27.354  -0.113  41.780  1.00  0.00     0.000 C 
BRANCH  20  21
ATOM     21  C   UNL     1      27.917  -1.543  41.822  1.00  0.00     0.000 C 
BRANCH  21  22
ATOM     22  C   UNL     1      28.393  -1.908  43.234  1.00  0.00     0.000 C 
BRANCH  22  23
ATOM     23  C   UNL     1      28.902  -0.688  44.029  1.00  0.00     0.000 C 
BRANCH  23  24
ATOM     24  C   UNL     1      30.434  -0.495  44.023  1.00  0.00    -0.000 C 
BRANCH  24  25
ATOM     25  C   UNL     1      31.002   0.038  42.696  1.00  0.00    -0.000 C 
BRANCH  25  26
ATOM     26  C   UNL     1      31.062  -1.041  41.597  1.00  0.00    -0.000 C 
BRANCH  26  27
ATOM     27  C   UNL     1      30.841  -0.455  40.191  1.00  0.00    -0.000 C 
BRANCH  27  28
ATOM     28  C   UNL     1      31.820   0.684  39.845  1.00  0.00    -0.000 C 
BRANCH  28  29
ATOM     29  C   UNL     1      31.946   0.912  38.329  1.00  0.00    -0.000 C 
BRANCH  29  30
ATOM     30  C   UNL     1      30.599   0.696  37.627  1.00  0.00    -0.000 C 
BRANCH  30  31
ATOM     31  C   UNL     1      29.455   0.635  38.647  1.00  0.00    -0.003 C 
ATOM     32  C   UNL     1      28.291  -0.202  38.125  1.00  0.00     0.004 C 
ENDBRANCH  30  31
ENDBRANCH  29  30
ENDBRANCH  28  29
ENDBRANCH  27  28
ENDBRANCH  26  27
ENDBRANCH  25  26
ENDBRANCH  24  25
ENDBRANCH  23  24
ENDBRANCH  22  23
ENDBRANCH  21  22
ENDBRANCH  20  21
ENDBRANCH  19  20
ENDBRANCH  18  19
ENDBRANCH   1  18
TORSDOF 28
ENDMDL
MODEL 6
REMARK VINA RESULT:     2.395      1.593      4.785
REMARK INTER + INTRA:           4.224
REMARK INTER:                   5.070
REMARK INTRA:                  -0.845
REMARK UNBOUND:                -2.091
REMARK SMILES CCCCCCCCCCCCCCCCCCCCCCCCCCCCCC(=O)[O-]
REMARK SMILES IDX 16 1 17 2 18 3 19 4 20 5 21 6 22 7 23 8 24 9 25 10 26 11
REMARK SMILES IDX 27 12 28 13 29 14 30 15 31 16 32 17 15 18 14 19 13 20 12 21
REMARK SMILES IDX 11 22 10 23 9 24 8 25 7 26 6 27 5 28 4 29 3 30 2 31 1 32
REMARK H PARENT
REMARK Flexibility Score: inf
ROOT
ATOM      1  C   UNL     1      23.533   2.724  41.362  1.00  0.00     0.000 C 
ENDROOT
BRANCH   1   2
ATOM      2  C   UNL     1      22.015   2.451  41.273  1.00  0.00     0.000 C 
BRANCH   2   3
ATOM      3  C   UNL     1      21.461   2.235  39.853  1.00  0.00     0.000 C 
BRANCH   3   4
ATOM      4  C   UNL     1      20.668   0.925  39.709  1.00  0.00     0.000 C 
BRANCH   4   5
ATOM      5  C   UNL     1      21.261  -0.222  40.548  1.00  0.00     0.000 C 
BRANCH   5   6
ATOM      6  C   UNL     1      20.975  -0.144  42.059  1.00  0.00     0.000 C 
BRANCH   6   7
ATOM      7  C   UNL     1      19.501  -0.420  42.402  1.00  0.00     0.000 C 
BRANCH   7   8
ATOM      8  C   UNL     1      18.910   0.603  43.391  1.00  0.00     0.000 C 
BRANCH   8   9
ATOM      9  C   UNL     1      17.810   1.513  42.811  1.00  0.00     0.000 C 
BRANCH   9  10
ATOM     10  C   UNL     1      17.394   1.116  41.384  1.00  0.00     0.000 C 
BRANCH  10  11
ATOM     11  C   UNL     1      16.070   0.334  41.348  1.00  0.00     0.000 C 
BRANCH  11  12
ATOM     12  C   UNL     1      15.996  -0.814  42.379  1.00  0.00     0.000 C 
BRANCH  12  13
ATOM     13  C   UNL     1      15.213  -2.023  41.838  1.00  0.00     0.006 C 
BRANCH  13  14
ATOM     14  C   UNL     1      13.701  -1.889  42.067  1.00  0.00     0.053 C 
BRANCH  14  15
ATOM     15  C   UNL     1      12.972  -1.484  40.819  1.00  0.00     0.041 C 
ATOM     16  O   UNL     1      13.163  -2.108  39.741  1.00  0.00    -0.550 OA
ATOM     17  O   UNL     1      12.079  -0.424  40.850  1.00  0.00    -0.550 OA
ENDBRANCH  14  15
ENDBRANCH  13  14
ENDBRANCH  12  13
ENDBRANCH  11  12
ENDBRANCH  10  11
ENDBRANCH   9  10
ENDBRANCH   8   9
ENDBRANCH   7   8
ENDBRANCH   6   7
ENDBRANCH   5   6
ENDBRANCH   4   5
ENDBRANCH   3   4
ENDBRANCH   2   3
ENDBRANCH   1   2
BRANCH   1  18
ATOM     18  C   UNL     1      24.422   1.469  41.440  1.00  0.00     0.000 C 
BRANCH  18  19
ATOM     19  C   UNL     1      25.195   1.362  42.766  1.00  0.00     0.000 C 
BRANCH  19  20
ATOM     20  C   UNL     1      25.863  -0.013  42.928  1.00  0.00     0.000 C 
BRANCH  20  21
ATOM     21  C   UNL     1      27.385   0.107  43.111  1.00  0.00     0.000 C 
BRANCH  21  22
ATOM     22  C   UNL     1      28.062  -1.267  43.021  1.00  0.00     0.000 C 
BRANCH  22  23
ATOM     23  C   UNL     1      28.664  -1.728  44.364  1.00  0.00     0.000 C 
BRANCH  23  24
ATOM     24  C   UNL     1      29.885  -0.915  44.848  1.00  0.00    -0.000 C 
BRANCH  24  25
ATOM     25  C   UNL     1      31.089  -0.946  43.889  1.00  0.00    -0.000 C 
BRANCH  25  26
ATOM     26  C   UNL     1      30.672  -0.902  42.407  1.00  0.00    -0.000 C 
BRANCH  26  27
ATOM     27  C   UNL     1      31.883  -0.800  41.462  1.00  0.00    -0.000 C 
BRANCH  27  28
ATOM     28  C   UNL     1      31.492  -0.761  39.972  1.00  0.00    -0.000 C 
BRANCH  28  29
ATOM     29  C   UNL     1      30.070  -0.218  39.751  1.00  0.00    -0.000 C 
BRANCH  29  30
ATOM     30  C   UNL     1      30.031   0.754  38.565  1.00  0.00    -0.000 C 
BRANCH  30  31
ATOM     31  C   UNL     1      31.239   1.698  38.591  1.00  0.00    -0.003 C 
ATOM     32  C   UNL     1      31.125   2.714  39.723  1.00  0.00     0.004 C 
ENDBRANCH  30  31
ENDBRANCH  29  30
ENDBRANCH  28  29
ENDBRANCH  27  28
ENDBRANCH  26  27
ENDBRANCH  25  26
ENDBRANCH  24  25
ENDBRANCH  23  24
ENDBRANCH  22  23
ENDBRANCH  21  22
ENDBRANCH  20  21
ENDBRANCH  19  20
ENDBRANCH  18  19
ENDBRANCH   1  18
TORSDOF 28
ENDMDL
MODEL 7
REMARK VINA RESULT:     2.620      3.477     11.009
REMARK INTER + INTRA:           4.818
REMARK INTER:                   4.782
REMARK INTRA:                   0.036
REMARK UNBOUND:                -2.091
REMARK SMILES CCCCCCCCCCCCCCCCCCCCCCCCCCCCCC(=O)[O-]
REMARK SMILES IDX 16 1 17 2 18 3 19 4 20 5 21 6 22 7 23 8 24 9 25 10 26 11
REMARK SMILES IDX 27 12 28 13 29 14 30 15 31 16 32 17 15 18 14 19 13 20 12 21
REMARK SMILES IDX 11 22 10 23 9 24 8 25 7 26 6 27 5 28 4 29 3 30 2 31 1 32
REMARK H PARENT
REMARK Flexibility Score: inf
ROOT
ATOM      1  C   UNL     1      26.397   4.007  38.529  1.00  0.00     0.000 C 
ENDROOT
BRANCH   1   2
ATOM      2  C   UNL     1      26.972   2.662  39.023  1.00  0.00     0.000 C 
BRANCH   2   3
ATOM      3  C   UNL     1      28.250   2.183  38.309  1.00  0.00     0.000 C 
BRANCH   3   4
ATOM      4  C   UNL     1      28.914   0.982  39.005  1.00  0.00     0.000 C 
BRANCH   4   5
ATOM      5  C   UNL     1      30.033   0.350  38.156  1.00  0.00     0.000 C 
BRANCH   5   6
ATOM      6  C   UNL     1      31.240   1.263  37.878  1.00  0.00     0.000 C 
BRANCH   6   7
ATOM      7  C   UNL     1      31.703   2.036  39.125  1.00  0.00     0.000 C 
BRANCH   7   8
ATOM      8  C   UNL     1      31.434   1.278  40.440  1.00  0.00     0.000 C 
BRANCH   8   9
ATOM      9  C   UNL     1      31.604  -0.251  40.359  1.00  0.00     0.000 C 
BRANCH   9  10
ATOM     10  C   UNL     1      30.887  -0.995  41.498  1.00  0.00     0.000 C 
BRANCH  10  11
ATOM     11  C   UNL     1      31.049  -0.296  42.859  1.00  0.00     0.000 C 
BRANCH  11  12
ATOM     12  C   UNL     1      30.981  -1.259  44.065  1.00  0.00     0.000 C 
BRANCH  12  13
ATOM     13  C   UNL     1      29.753  -0.985  44.950  1.00  0.00     0.006 C 
BRANCH  13  14
ATOM     14  C   UNL     1      28.538  -1.828  44.539  1.00  0.00     0.053 C 
BRANCH  14  15
ATOM     15  C   UNL     1      27.822  -1.251  43.352  1.00  0.00     0.041 C 
ATOM     16  O   UNL     1      27.743  -1.905  42.278  1.00  0.00    -0.550 OA
ATOM     17  O   UNL     1      27.237   0.004  43.437  1.00  0.00    -0.550 OA
ENDBRANCH  14  15
ENDBRANCH  13  14
ENDBRANCH  12  13
ENDBRANCH  11  12
ENDBRANCH  10  11
ENDBRANCH   9  10
ENDBRANCH   8   9
ENDBRANCH   7   8
ENDBRANCH   6   7
ENDBRANCH   5   6
ENDBRANCH   4   5
ENDBRANCH   3   4
ENDBRANCH   2   3
ENDBRANCH   1   2
BRANCH   1  18
ATOM     18  C   UNL     1      24.919   4.258  38.880  1.00  0.00     0.000 C 
BRANCH  18  19
ATOM     19  C   UNL     1      24.149   2.967  39.202  1.00  0.00     0.000 C 
BRANCH  19  20
ATOM     20  C   UNL     1      23.442   3.047  40.565  1.00  0.00     0.000 C 
BRANCH  20  21
ATOM     21  C   UNL     1      22.002   2.516  40.497  1.00  0.00     0.000 C 
BRANCH  21  22
ATOM     22  C   UNL     1      21.931   1.053  40.956  1.00  0.00     0.000 C 
BRANCH  22  23
ATOM     23  C   UNL     1      21.130   0.159  39.988  1.00  0.00     0.000 C 
BRANCH  23  24
ATOM     24  C   UNL     1      20.804  -1.254  40.518  1.00  0.00    -0.000 C 
BRANCH  24  25
ATOM     25  C   UNL     1      20.511  -1.314  42.028  1.00  0.00    -0.000 C 
BRANCH  25  26
ATOM     26  C   UNL     1      19.234  -2.112  42.356  1.00  0.00    -0.000 C 
BRANCH  26  27
ATOM     27  C   UNL     1      18.331  -1.379  43.364  1.00  0.00    -0.000 C 
BRANCH  27  28
ATOM     28  C   UNL     1      16.928  -2.005  43.493  1.00  0.00    -0.000 C 
BRANCH  28  29
ATOM     29  C   UNL     1      16.210  -2.125  42.138  1.00  0.00    -0.000 C 
BRANCH  29  30
ATOM     30  C   UNL     1      14.726  -1.762  42.268  1.00  0.00    -0.000 C 
BRANCH  30  31
ATOM     31  C   UNL     1      14.070  -1.639  40.888  1.00  0.00    -0.003 C 
ATOM     32  C   UNL     1      12.558  -1.820  40.974  1.00  0.00     0.004 C 
ENDBRANCH  30  31
ENDBRANCH  29  30
ENDBRANCH  28  29
ENDBRANCH  27  28
ENDBRANCH  26  27
ENDBRANCH  25  26
ENDBRANCH  24  25
ENDBRANCH  23  24
ENDBRANCH  22  23
ENDBRANCH  21  22
ENDBRANCH  20  21
ENDBRANCH  19  20
ENDBRANCH  18  19
ENDBRANCH   1  18
TORSDOF 28
ENDMDL
MODEL 8
REMARK VINA RESULT:     2.945      1.142      2.482
REMARK INTER + INTRA:           5.674
REMARK INTER:                   5.747
REMARK INTRA:                  -0.073
REMARK UNBOUND:                -2.091
REMARK SMILES CCCCCCCCCCCCCCCCCCCCCCCCCCCCCC(=O)[O-]
REMARK SMILES IDX 16 1 17 2 18 3 19 4 20 5 21 6 22 7 23 8 24 9 25 10 26 11
REMARK SMILES IDX 27 12 28 13 29 14 30 15 31 16 32 17 15 18 14 19 13 20 12 21
REMARK SMILES IDX 11 22 10 23 9 24 8 25 7 26 6 27 5 28 4 29 3 30 2 31 1 32
REMARK H PARENT
REMARK Flexibility Score: inf
ROOT
ATOM      1  C   UNL     1      25.091   3.989  38.932  1.00  0.00     0.000 C 
ENDROOT
BRANCH   1   2
ATOM      2  C   UNL     1      24.099   2.970  39.533  1.00  0.00     0.000 C 
BRANCH   2   3
ATOM      3  C   UNL     1      23.430   3.392  40.853  1.00  0.00     0.000 C 
BRANCH   3   4
ATOM      4  C   UNL     1      22.147   2.601  41.158  1.00  0.00     0.000 C 
BRANCH   4   5
ATOM      5  C   UNL     1      22.256   1.117  40.757  1.00  0.00     0.000 C 
BRANCH   5   6
ATOM      6  C   UNL     1      21.084   0.228  41.208  1.00  0.00     0.000 C 
BRANCH   6   7
ATOM      7  C   UNL     1      20.075   0.976  42.096  1.00  0.00     0.000 C 
BRANCH   7   8
ATOM      8  C   UNL     1      18.782   0.177  42.348  1.00  0.00     0.000 C 
BRANCH   8   9
ATOM      9  C   UNL     1      18.958  -1.354  42.390  1.00  0.00     0.000 C 
BRANCH   9  10
ATOM     10  C   UNL     1      17.712  -2.087  42.914  1.00  0.00     0.000 C 
BRANCH  10  11
ATOM     11  C   UNL     1      16.482  -1.168  43.016  1.00  0.00     0.000 C 
BRANCH  11  12
ATOM     12  C   UNL     1      15.141  -1.930  43.106  1.00  0.00     0.000 C 
BRANCH  12  13
ATOM     13  C   UNL     1      14.491  -2.115  41.724  1.00  0.00     0.006 C 
BRANCH  13  14
ATOM     14  C   UNL     1      14.488  -0.819  40.902  1.00  0.00     0.053 C 
BRANCH  14  15
ATOM     15  C   UNL     1      13.600  -0.914  39.695  1.00  0.00     0.041 C 
ATOM     16  O   UNL     1      12.352  -0.793  39.814  1.00  0.00    -0.550 OA
ATOM     17  O   UNL     1      14.153  -1.129  38.442  1.00  0.00    -0.550 OA
ENDBRANCH  14  15
ENDBRANCH  13  14
ENDBRANCH  12  13
ENDBRANCH  11  12
ENDBRANCH  10  11
ENDBRANCH   9  10
ENDBRANCH   8   9
ENDBRANCH   7   8
ENDBRANCH   6   7
ENDBRANCH   5   6
ENDBRANCH   4   5
ENDBRANCH   3   4
ENDBRANCH   2   3
ENDBRANCH   1   2
BRANCH   1  18
ATOM     18  C   UNL     1      26.579   3.620  39.073  1.00  0.00     0.000 C 
BRANCH  18  19
ATOM     19  C   UNL     1      26.977   2.394  38.234  1.00  0.00     0.000 C 
BRANCH  19  20
ATOM     20  C   UNL     1      28.377   1.878  38.604  1.00  0.00     0.000 C 
BRANCH  20  21
ATOM     21  C   UNL     1      28.924   0.897  37.554  1.00  0.00     0.000 C 
BRANCH  21  22
ATOM     22  C   UNL     1      30.457   0.845  37.592  1.00  0.00     0.000 C 
BRANCH  22  23
ATOM     23  C   UNL     1      31.050   1.557  38.824  1.00  0.00     0.000 C 
BRANCH  23  24
ATOM     24  C   UNL     1      32.021   0.705  39.670  1.00  0.00    -0.000 C 
BRANCH  24  25
ATOM     25  C   UNL     1      31.376  -0.528  40.327  1.00  0.00    -0.000 C 
BRANCH  25  26
ATOM     26  C   UNL     1      30.107  -1.001  39.592  1.00  0.00    -0.000 C 
BRANCH  26  27
ATOM     27  C   UNL     1      28.952  -1.309  40.561  1.00  0.00    -0.000 C 
BRANCH  27  28
ATOM     28  C   UNL     1      29.357  -1.207  42.044  1.00  0.00    -0.000 C 
BRANCH  28  29
ATOM     29  C   UNL     1      28.217  -1.608  42.995  1.00  0.00    -0.000 C 
BRANCH  29  30
ATOM     30  C   UNL     1      28.733  -1.783  44.429  1.00  0.00    -0.000 C 
BRANCH  30  31
ATOM     31  C   UNL     1      29.654  -0.622  44.824  1.00  0.00    -0.003 C 
ATOM     32  C   UNL     1      31.082  -0.859  44.343  1.00  0.00     0.004 C 
ENDBRANCH  30  31
ENDBRANCH  29  30
ENDBRANCH  28  29
ENDBRANCH  27  28
ENDBRANCH  26  27
ENDBRANCH  25  26
ENDBRANCH  24  25
ENDBRANCH  23  24
ENDBRANCH  22  23
ENDBRANCH  21  22
ENDBRANCH  20  21
ENDBRANCH  19  20
ENDBRANCH  18  19
ENDBRANCH   1  18
TORSDOF 28
ENDMDL
