MODEL 1
REMARK VINA RESULT:    -4.108      0.000      0.000
REMARK INTER + INTRA:          -7.561
REMARK INTER:                  -6.510
REMARK INTRA:                  -1.050
REMARK UNBOUND:                -1.050
REMARK SMILES CCCCCCCCCCCC(=O)[O-]
REMARK SMILES IDX 7 1 8 2 9 3 10 4 11 5 12 6 13 7 14 8 6 9 5 10 4 11 3 12 2 13
REMARK SMILES IDX 1 14
REMARK H PARENT
REMARK Flexibility Score: inf
ROOT
ATOM      1  C   UNL     1      -8.565 -36.280 -10.071  1.00  0.00     0.000 C 
ENDROOT
BRANCH   1   2
ATOM      2  C   UNL     1      -7.460 -37.322 -10.293  1.00  0.00     0.000 C 
BRANCH   2   3
ATOM      3  C   UNL     1      -7.297 -38.276  -9.100  1.00  0.00     0.000 C 
BRANCH   3   4
ATOM      4  C   UNL     1      -6.545 -39.566  -9.471  1.00  0.00     0.006 C 
BRANCH   4   5
ATOM      5  C   UNL     1      -5.902 -39.481 -10.861  1.00  0.00     0.053 C 
BRANCH   5   6
ATOM      6  C   UNL     1      -6.537 -40.437 -11.824  1.00  0.00     0.041 C 
ATOM      7  O   UNL     1      -6.808 -41.613 -11.465  1.00  0.00    -0.550 OA
ATOM      8  O   UNL     1      -6.799 -40.038 -13.128  1.00  0.00    -0.550 OA
ENDBRANCH   5   6
ENDBRANCH   4   5
ENDBRANCH   3   4
ENDBRANCH   2   3
ENDBRANCH   1   2
BRANCH   1   9
ATOM      9  C   UNL     1      -8.082 -34.876 -10.454  1.00  0.00     0.000 C 
BRANCH   9  10
ATOM     10  C   UNL     1      -6.551 -34.791 -10.419  1.00  0.00    -0.000 C 
BRANCH  10  11
ATOM     11  C   UNL     1      -6.066 -34.076  -9.149  1.00  0.00    -0.000 C 
BRANCH  11  12
ATOM     12  C   UNL     1      -5.474 -35.059  -8.116  1.00  0.00    -0.000 C 
BRANCH  12  13
ATOM     13  C   UNL     1      -4.404 -35.995  -8.701  1.00  0.00    -0.003 C 
ATOM     14  C   UNL     1      -2.988 -35.640  -8.252  1.00  0.00     0.004 C 
ENDBRANCH  12  13
ENDBRANCH  11  12
ENDBRANCH  10  11
ENDBRANCH   9  10
ENDBRANCH   1   9
TORSDOF 10
ENDMDL
MODEL 2
REMARK VINA RESULT:    -4.068      0.888      1.498
REMARK INTER + INTRA:          -7.496
REMARK INTER:                  -6.279
REMARK INTRA:                  -1.217
REMARK UNBOUND:                -1.050
REMARK SMILES CCCCCCCCCCCC(=O)[O-]
REMARK SMILES IDX 7 1 8 2 9 3 10 4 11 5 12 6 13 7 14 8 6 9 5 10 4 11 3 12 2 13
REMARK SMILES IDX 1 14
REMARK H PARENT
REMARK Flexibility Score: inf
ROOT
ATOM      1  C   UNL     1      -8.372 -37.359  -8.955  1.00  0.00     0.000 C 
ENDROOT
BRANCH   1   2
ATOM      2  C   UNL     1      -7.412 -38.557  -8.915  1.00  0.00     0.000 C 
BRANCH   2   3
ATOM      3  C   UNL     1      -6.074 -38.267  -9.613  1.00  0.00     0.000 C 
BRANCH   3   4
ATOM      4  C   UNL     1      -5.518 -39.493 -10.360  1.00  0.00     0.006 C 
BRANCH   4   5
ATOM      5  C   UNL     1      -6.633 -40.406 -10.884  1.00  0.00     0.053 C 
BRANCH   5   6
ATOM      6  C   UNL     1      -6.864 -40.212 -12.351  1.00  0.00     0.041 C 
ATOM      7  O   UNL     1      -6.251 -40.923 -13.190  1.00  0.00    -0.550 OA
ATOM      8  O   UNL     1      -7.732 -39.221 -12.794  1.00  0.00    -0.550 OA
ENDBRANCH   5   6
ENDBRANCH   4   5
ENDBRANCH   3   4
ENDBRANCH   2   3
ENDBRANCH   1   2
BRANCH   1   9
ATOM      9  C   UNL     1      -8.298 -36.642 -10.308  1.00  0.00     0.000 C 
BRANCH   9  10
ATOM     10  C   UNL     1      -8.166 -35.126 -10.122  1.00  0.00    -0.000 C 
BRANCH  10  11
ATOM     11  C   UNL     1      -6.725 -34.661 -10.383  1.00  0.00    -0.000 C 
BRANCH  11  12
ATOM     12  C   UNL     1      -6.091 -34.000  -9.141  1.00  0.00    -0.000 C 
BRANCH  12  13
ATOM     13  C   UNL     1      -5.500 -35.009  -8.142  1.00  0.00    -0.003 C 
ATOM     14  C   UNL     1      -4.111 -35.503  -8.540  1.00  0.00     0.004 C 
ENDBRANCH  12  13
ENDBRANCH  11  12
ENDBRANCH  10  11
ENDBRANCH   9  10
ENDBRANCH   1   9
TORSDOF 10
ENDMDL
MODEL 3
REMARK VINA RESULT:    -4.059      1.137      1.617
REMARK INTER + INTRA:          -7.482
REMARK INTER:                  -6.211
REMARK INTRA:                  -1.271
REMARK UNBOUND:                -1.050
REMARK SMILES CCCCCCCCCCCC(=O)[O-]
REMARK SMILES IDX 7 1 8 2 9 3 10 4 11 5 12 6 13 7 14 8 6 9 5 10 4 11 3 12 2 13
REMARK SMILES IDX 1 14
REMARK H PARENT
REMARK Flexibility Score: inf
ROOT
ATOM      1  C   UNL     1      -8.842 -36.555 -10.334  1.00  0.00     0.000 C 
ENDROOT
BRANCH   1   2
ATOM      2  C   UNL     1      -8.667 -37.014  -8.879  1.00  0.00     0.000 C 
BRANCH   2   3
ATOM      3  C   UNL     1      -7.604 -38.114  -8.730  1.00  0.00     0.000 C 
BRANCH   3   4
ATOM      4  C   UNL     1      -6.973 -38.514 -10.076  1.00  0.00     0.006 C 
BRANCH   4   5
ATOM      5  C   UNL     1      -5.902 -39.600  -9.912  1.00  0.00     0.053 C 
BRANCH   5   6
ATOM      6  C   UNL     1      -6.511 -40.961  -9.770  1.00  0.00     0.041 C 
ATOM      7  O   UNL     1      -7.146 -41.475 -10.728  1.00  0.00    -0.550 OA
ATOM      8  O   UNL     1      -6.405 -41.648  -8.568  1.00  0.00    -0.550 OA
ENDBRANCH   5   6
ENDBRANCH   4   5
ENDBRANCH   3   4
ENDBRANCH   2   3
ENDBRANCH   1   2
BRANCH   1   9
ATOM      9  C   UNL     1      -8.491 -35.070 -10.487  1.00  0.00     0.000 C 
BRANCH   9  10
ATOM     10  C   UNL     1      -6.973 -34.854 -10.433  1.00  0.00    -0.000 C 
BRANCH  10  11
ATOM     11  C   UNL     1      -6.582 -33.985  -9.228  1.00  0.00    -0.000 C 
BRANCH  11  12
ATOM     12  C   UNL     1      -5.588 -34.702  -8.290  1.00  0.00    -0.000 C 
BRANCH  12  13
ATOM     13  C   UNL     1      -4.684 -35.716  -9.011  1.00  0.00    -0.003 C 
ATOM     14  C   UNL     1      -3.326 -35.893  -8.336  1.00  0.00     0.004 C 
ENDBRANCH  12  13
ENDBRANCH  11  12
ENDBRANCH  10  11
ENDBRANCH   9  10
ENDBRANCH   1   9
TORSDOF 10
ENDMDL
MODEL 4
REMARK VINA RESULT:    -3.847      1.787      3.204
REMARK INTER + INTRA:          -7.146
REMARK INTER:                  -6.464
REMARK INTRA:                  -0.682
REMARK UNBOUND:                -1.050
REMARK SMILES CCCCCCCCCCCC(=O)[O-]
REMARK SMILES IDX 7 1 8 2 9 3 10 4 11 5 12 6 13 7 14 8 6 9 5 10 4 11 3 12 2 13
REMARK SMILES IDX 1 14
REMARK H PARENT
REMARK Flexibility Score: inf
ROOT
ATOM      1  C   UNL     1      -5.151 -38.643 -10.125  1.00  0.00     0.000 C 
ENDROOT
BRANCH   1   2
ATOM      2  C   UNL     1      -6.372 -39.467 -10.559  1.00  0.00     0.000 C 
BRANCH   2   3
ATOM      3  C   UNL     1      -7.449 -38.612 -11.245  1.00  0.00     0.000 C 
BRANCH   3   4
ATOM      4  C   UNL     1      -8.088 -39.321 -12.453  1.00  0.00     0.006 C 
BRANCH   4   5
ATOM      5  C   UNL     1      -7.066 -40.146 -13.246  1.00  0.00     0.053 C 
BRANCH   5   6
ATOM      6  C   UNL     1      -7.152 -39.868 -14.715  1.00  0.00     0.041 C 
ATOM      7  O   UNL     1      -6.416 -40.494 -15.523  1.00  0.00    -0.550 OA
ATOM      8  O   UNL     1      -8.021 -38.894 -15.189  1.00  0.00    -0.550 OA
ENDBRANCH   5   6
ENDBRANCH   4   5
ENDBRANCH   3   4
ENDBRANCH   2   3
ENDBRANCH   1   2
BRANCH   1   9
ATOM      9  C   UNL     1      -5.580 -37.397  -9.342  1.00  0.00     0.000 C 
BRANCH   9  10
ATOM     10  C   UNL     1      -4.441 -36.371  -9.270  1.00  0.00    -0.000 C 
BRANCH  10  11
ATOM     11  C   UNL     1      -4.745 -35.281  -8.231  1.00  0.00    -0.000 C 
BRANCH  11  12
ATOM     12  C   UNL     1      -6.241 -34.904  -8.201  1.00  0.00    -0.000 C 
BRANCH  12  13
ATOM     13  C   UNL     1      -6.643 -33.896  -9.291  1.00  0.00    -0.003 C 
ATOM     14  C   UNL     1      -7.552 -34.500 -10.359  1.00  0.00     0.004 C 
ENDBRANCH  12  13
ENDBRANCH  11  12
ENDBRANCH  10  11
ENDBRANCH   9  10
ENDBRANCH   1   9
TORSDOF 10
ENDMDL
MODEL 5
REMARK VINA RESULT:    -3.804      1.407      3.106
REMARK INTER + INTRA:          -7.078
REMARK INTER:                  -6.070
REMARK INTRA:                  -1.008
REMARK UNBOUND:                -1.050
REMARK SMILES CCCCCCCCCCCC(=O)[O-]
REMARK SMILES IDX 7 1 8 2 9 3 10 4 11 5 12 6 13 7 14 8 6 9 5 10 4 11 3 12 2 13
REMARK SMILES IDX 1 14
REMARK H PARENT
REMARK Flexibility Score: inf
ROOT
ATOM      1  C   UNL     1      -4.212 -36.266  -8.917  1.00  0.00     0.000 C 
ENDROOT
BRANCH   1   2
ATOM      2  C   UNL     1      -5.217 -36.771  -9.962  1.00  0.00     0.000 C 
BRANCH   2   3
ATOM      3  C   UNL     1      -5.858 -38.110  -9.567  1.00  0.00     0.000 C 
BRANCH   3   4
ATOM      4  C   UNL     1      -5.343 -39.286 -10.416  1.00  0.00     0.006 C 
BRANCH   4   5
ATOM      5  C   UNL     1      -6.397 -39.788 -11.411  1.00  0.00     0.053 C 
BRANCH   5   6
ATOM      6  C   UNL     1      -7.266 -40.849 -10.809  1.00  0.00     0.041 C 
ATOM      7  O   UNL     1      -8.483 -40.926 -11.121  1.00  0.00    -0.550 OA
ATOM      8  O   UNL     1      -6.738 -41.734  -9.878  1.00  0.00    -0.550 OA
ENDBRANCH   5   6
ENDBRANCH   4   5
ENDBRANCH   3   4
ENDBRANCH   2   3
ENDBRANCH   1   2
BRANCH   1   9
ATOM      9  C   UNL     1      -4.815 -35.132  -8.079  1.00  0.00     0.000 C 
BRANCH   9  10
ATOM     10  C   UNL     1      -5.684 -34.209  -8.942  1.00  0.00    -0.000 C 
BRANCH  10  11
ATOM     11  C   UNL     1      -7.027 -33.916  -8.257  1.00  0.00    -0.000 C 
BRANCH  11  12
ATOM     12  C   UNL     1      -7.782 -35.207  -7.876  1.00  0.00    -0.000 C 
BRANCH  12  13
ATOM     13  C   UNL     1      -9.036 -35.461  -8.729  1.00  0.00    -0.003 C 
ATOM     14  C   UNL     1      -8.728 -35.610 -10.217  1.00  0.00     0.004 C 
ENDBRANCH  12  13
ENDBRANCH  11  12
ENDBRANCH  10  11
ENDBRANCH   9  10
ENDBRANCH   1   9
TORSDOF 10
ENDMDL
MODEL 6
REMARK VINA RESULT:    -3.780      1.912      3.342
REMARK INTER + INTRA:          -7.040
REMARK INTER:                  -6.500
REMARK INTRA:                  -0.540
REMARK UNBOUND:                -1.050
REMARK SMILES CCCCCCCCCCCC(=O)[O-]
REMARK SMILES IDX 7 1 8 2 9 3 10 4 11 5 12 6 13 7 14 8 6 9 5 10 4 11 3 12 2 13
REMARK SMILES IDX 1 14
REMARK H PARENT
REMARK Flexibility Score: inf
ROOT
ATOM      1  C   UNL     1      -5.207 -38.695 -10.179  1.00  0.00     0.000 C 
ENDROOT
BRANCH   1   2
ATOM      2  C   UNL     1      -6.188 -39.876 -10.181  1.00  0.00     0.000 C 
BRANCH   2   3
ATOM      3  C   UNL     1      -7.059 -39.923  -8.916  1.00  0.00     0.000 C 
BRANCH   3   4
ATOM      4  C   UNL     1      -7.544 -41.346  -8.584  1.00  0.00     0.006 C 
BRANCH   4   5
ATOM      5  C   UNL     1      -6.406 -42.373  -8.645  1.00  0.00     0.053 C 
BRANCH   5   6
ATOM      6  C   UNL     1      -6.689 -43.453  -9.644  1.00  0.00     0.041 C 
ATOM      7  O   UNL     1      -6.187 -44.598  -9.501  1.00  0.00    -0.550 OA
ATOM      8  O   UNL     1      -7.482 -43.184 -10.753  1.00  0.00    -0.550 OA
ENDBRANCH   5   6
ENDBRANCH   4   5
ENDBRANCH   3   4
ENDBRANCH   2   3
ENDBRANCH   1   2
BRANCH   1   9
ATOM      9  C   UNL     1      -5.684 -37.585  -9.234  1.00  0.00     0.000 C 
BRANCH   9  10
ATOM     10  C   UNL     1      -4.843 -36.315  -9.407  1.00  0.00    -0.000 C 
BRANCH  10  11
ATOM     11  C   UNL     1      -5.213 -35.261  -8.352  1.00  0.00    -0.000 C 
BRANCH  11  12
ATOM     12  C   UNL     1      -6.164 -34.183  -8.912  1.00  0.00    -0.000 C 
BRANCH  12  13
ATOM     13  C   UNL     1      -6.636 -34.465 -10.348  1.00  0.00    -0.003 C 
ATOM     14  C   UNL     1      -8.093 -34.916 -10.422  1.00  0.00     0.004 C 
ENDBRANCH  12  13
ENDBRANCH  11  12
ENDBRANCH  10  11
ENDBRANCH   9  10
ENDBRANCH   1   9
TORSDOF 10
ENDMDL
MODEL 7
REMARK VINA RESULT:    -3.743      3.179      5.001
REMARK INTER + INTRA:          -6.982
REMARK INTER:                  -6.554
REMARK INTRA:                  -0.427
REMARK UNBOUND:                -1.050
REMARK SMILES CCCCCCCCCCCC(=O)[O-]
REMARK SMILES IDX 7 1 8 2 9 3 10 4 11 5 12 6 13 7 14 8 6 9 5 10 4 11 3 12 2 13
REMARK SMILES IDX 1 14
REMARK H PARENT
REMARK Flexibility Score: inf
ROOT
ATOM      1  C   UNL     1      -6.915 -39.759 -12.397  1.00  0.00     0.000 C 
ENDROOT
BRANCH   1   2
ATOM      2  C   UNL     1      -6.333 -40.907 -13.233  1.00  0.00     0.000 C 
BRANCH   2   3
ATOM      3  C   UNL     1      -6.608 -40.744 -14.736  1.00  0.00     0.000 C 
BRANCH   3   4
ATOM      4  C   UNL     1      -7.530 -39.550 -15.043  1.00  0.00     0.006 C 
BRANCH   4   5
ATOM      5  C   UNL     1      -7.697 -39.321 -16.550  1.00  0.00     0.053 C 
BRANCH   5   6
ATOM      6  C   UNL     1      -8.188 -37.937 -16.849  1.00  0.00     0.041 C 
ATOM      7  O   UNL     1      -7.538 -37.187 -17.622  1.00  0.00    -0.550 OA
ATOM      8  O   UNL     1      -9.347 -37.465 -16.246  1.00  0.00    -0.550 OA
ENDBRANCH   5   6
ENDBRANCH   4   5
ENDBRANCH   3   4
ENDBRANCH   2   3
ENDBRANCH   1   2
BRANCH   1   9
ATOM      9  C   UNL     1      -6.754 -40.035 -10.897  1.00  0.00     0.000 C 
BRANCH   9  10
ATOM     10  C   UNL     1      -5.580 -39.241 -10.313  1.00  0.00    -0.000 C 
BRANCH  10  11
ATOM     11  C   UNL     1      -6.044 -37.870  -9.797  1.00  0.00    -0.000 C 
BRANCH  11  12
ATOM     12  C   UNL     1      -4.864 -36.995  -9.324  1.00  0.00    -0.000 C 
BRANCH  12  13
ATOM     13  C   UNL     1      -5.191 -35.492  -9.281  1.00  0.00    -0.003 C 
ATOM     14  C   UNL     1      -6.245 -35.079 -10.305  1.00  0.00     0.004 C 
ENDBRANCH  12  13
ENDBRANCH  11  12
ENDBRANCH  10  11
ENDBRANCH   9  10
ENDBRANCH   1   9
TORSDOF 10
ENDMDL
MODEL 8
REMARK VINA RESULT:    -3.739      3.597      6.662
REMARK INTER + INTRA:          -6.975
REMARK INTER:                  -6.483
REMARK INTRA:                  -0.492
REMARK UNBOUND:                -1.050
REMARK SMILES CCCCCCCCCCCC(=O)[O-]
REMARK SMILES IDX 7 1 8 2 9 3 10 4 11 5 12 6 13 7 14 8 6 9 5 10 4 11 3 12 2 13
REMARK SMILES IDX 1 14
REMARK H PARENT
REMARK Flexibility Score: inf
ROOT
ATOM      1  C   UNL     1      -6.222 -39.681 -11.330  1.00  0.00     0.000 C 
ENDROOT
BRANCH   1   2
ATOM      2  C   UNL     1      -6.254 -39.038  -9.936  1.00  0.00     0.000 C 
BRANCH   2   3
ATOM      3  C   UNL     1      -5.211 -37.921  -9.776  1.00  0.00     0.000 C 
BRANCH   3   4
ATOM      4  C   UNL     1      -5.814 -36.625  -9.205  1.00  0.00     0.006 C 
BRANCH   4   5
ATOM      5  C   UNL     1      -5.837 -35.492 -10.240  1.00  0.00     0.053 C 
BRANCH   5   6
ATOM      6  C   UNL     1      -6.952 -34.527  -9.979  1.00  0.00     0.041 C 
ATOM      7  O   UNL     1      -6.775 -33.545  -9.211  1.00  0.00    -0.550 OA
ATOM      8  O   UNL     1      -8.198 -34.730 -10.559  1.00  0.00    -0.550 OA
ENDBRANCH   5   6
ENDBRANCH   4   5
ENDBRANCH   3   4
ENDBRANCH   2   3
ENDBRANCH   1   2
BRANCH   1   9
ATOM      9  C   UNL     1      -7.516 -39.388 -12.100  1.00  0.00     0.000 C 
BRANCH   9  10
ATOM     10  C   UNL     1      -7.351 -39.697 -13.593  1.00  0.00    -0.000 C 
BRANCH  10  11
ATOM     11  C   UNL     1      -6.431 -40.908 -13.808  1.00  0.00    -0.000 C 
BRANCH  11  12
ATOM     12  C   UNL     1      -6.206 -41.213 -15.304  1.00  0.00    -0.000 C 
BRANCH  12  13
ATOM     13  C   UNL     1      -6.940 -40.243 -16.246  1.00  0.00    -0.003 C 
ATOM     14  C   UNL     1      -6.498 -40.373 -17.702  1.00  0.00     0.004 C 
ENDBRANCH  12  13
ENDBRANCH  11  12
ENDBRANCH  10  11
ENDBRANCH   9  10
ENDBRANCH   1   9
TORSDOF 10
ENDMDL
MODEL 9
REMARK VINA RESULT:    -3.733      3.566      6.532
REMARK INTER + INTRA:          -6.966
REMARK INTER:                  -6.375
REMARK INTRA:                  -0.591
REMARK UNBOUND:                -1.050
REMARK SMILES CCCCCCCCCCCC(=O)[O-]
REMARK SMILES IDX 7 1 8 2 9 3 10 4 11 5 12 6 13 7 14 8 6 9 5 10 4 11 3 12 2 13
REMARK SMILES IDX 1 14
REMARK H PARENT
REMARK Flexibility Score: inf
ROOT
ATOM      1  C   UNL     1      -6.408 -40.298 -11.450  1.00  0.00     0.000 C 
ENDROOT
BRANCH   1   2
ATOM      2  C   UNL     1      -5.672 -39.360 -10.483  1.00  0.00     0.000 C 
BRANCH   2   3
ATOM      3  C   UNL     1      -6.604 -38.750  -9.425  1.00  0.00     0.000 C 
BRANCH   3   4
ATOM      4  C   UNL     1      -6.255 -37.287  -9.100  1.00  0.00     0.006 C 
BRANCH   4   5
ATOM      5  C   UNL     1      -4.816 -36.933  -9.499  1.00  0.00     0.053 C 
BRANCH   5   6
ATOM      6  C   UNL     1      -4.332 -35.705  -8.791  1.00  0.00     0.041 C 
ATOM      7  O   UNL     1      -3.188 -35.686  -8.265  1.00  0.00    -0.550 OA
ATOM      8  O   UNL     1      -5.157 -34.593  -8.684  1.00  0.00    -0.550 OA
ENDBRANCH   5   6
ENDBRANCH   4   5
ENDBRANCH   3   4
ENDBRANCH   2   3
ENDBRANCH   1   2
BRANCH   1   9
ATOM      9  C   UNL     1      -7.273 -39.502 -12.435  1.00  0.00     0.000 C 
BRANCH   9  10
ATOM     10  C   UNL     1      -7.742 -40.387 -13.597  1.00  0.00    -0.000 C 
BRANCH  10  11
ATOM     11  C   UNL     1      -7.263 -39.827 -14.945  1.00  0.00    -0.000 C 
BRANCH  11  12
ATOM     12  C   UNL     1      -6.362 -40.824 -15.704  1.00  0.00    -0.000 C 
BRANCH  12  13
ATOM     13  C   UNL     1      -5.781 -41.932 -14.810  1.00  0.00    -0.003 C 
ATOM     14  C   UNL     1      -4.525 -42.576 -15.394  1.00  0.00     0.004 C 
ENDBRANCH  12  13
ENDBRANCH  11  12
ENDBRANCH  10  11
ENDBRANCH   9  10
ENDBRANCH   1   9
TORSDOF 10
ENDMDL
