MODEL 1
REMARK VINA RESULT:    -3.425      0.000      0.000
REMARK INTER + INTRA:         -14.556
REMARK INTER:                  -8.631
REMARK INTRA:                  -5.925
REMARK UNBOUND:                -5.925
REMARK SMILES CCCCCCCCCCCCCCCCCCCCCCCCCCCC(=O)[O-]
REMARK SMILES IDX 15 1 16 2 17 3 18 4 19 5 20 6 21 7 22 8 23 9 24 10 25 11
REMARK SMILES IDX 26 12 27 13 28 14 29 15 30 16 14 17 13 18 12 19 11 20 10 21
REMARK SMILES IDX 9 22 8 23 7 24 6 25 5 26 4 27 3 28 2 29 1 30
REMARK H PARENT
REMARK Flexibility Score: inf
ROOT
ATOM      1  C   UNL     1      19.489  13.410 -21.539  1.00  0.00     0.000 C 
ENDROOT
BRANCH   1   2
ATOM      2  C   UNL     1      20.657  12.454 -21.261  1.00  0.00     0.000 C 
BRANCH   2   3
ATOM      3  C   UNL     1      21.441  12.820 -19.989  1.00  0.00     0.000 C 
BRANCH   3   4
ATOM      4  C   UNL     1      22.975  12.788 -20.139  1.00  0.00     0.000 C 
BRANCH   4   5
ATOM      5  C   UNL     1      23.767  12.881 -18.820  1.00  0.00     0.000 C 
BRANCH   5   6
ATOM      6  C   UNL     1      23.745  11.608 -17.954  1.00  0.00     0.000 C 
BRANCH   6   7
ATOM      7  C   UNL     1      23.928  10.322 -18.773  1.00  0.00     0.000 C 
BRANCH   7   8
ATOM      8  C   UNL     1      22.849   9.288 -18.415  1.00  0.00     0.000 C 
BRANCH   8   9
ATOM      9  C   UNL     1      21.794   9.133 -19.530  1.00  0.00     0.000 C 
BRANCH   9  10
ATOM     10  C   UNL     1      20.363   9.464 -19.073  1.00  0.00     0.000 C 
BRANCH  10  11
ATOM     11  C   UNL     1      20.246   9.618 -17.549  1.00  0.00     0.000 C 
BRANCH  11  12
ATOM     12  C   UNL     1      19.327   8.551 -16.917  1.00  0.00     0.006 C 
BRANCH  12  13
ATOM     13  C   UNL     1      19.808   7.109 -17.149  1.00  0.00     0.053 C 
BRANCH  13  14
ATOM     14  C   UNL     1      18.839   6.310 -17.961  1.00  0.00     0.041 C 
ATOM     15  O   UNL     1      17.680   6.083 -17.524  1.00  0.00    -0.550 OA
ATOM     16  O   UNL     1      19.220   5.801 -19.197  1.00  0.00    -0.550 OA
ENDBRANCH  13  14
ENDBRANCH  12  13
ENDBRANCH  11  12
ENDBRANCH  10  11
ENDBRANCH   9  10
ENDBRANCH   8   9
ENDBRANCH   7   8
ENDBRANCH   6   7
ENDBRANCH   5   6
ENDBRANCH   4   5
ENDBRANCH   3   4
ENDBRANCH   2   3
ENDBRANCH   1   2
BRANCH   1  17
ATOM     17  C   UNL     1      18.555  13.501 -20.325  1.00  0.00     0.000 C 
BRANCH  17  18
ATOM     18  C   UNL     1      17.719  12.221 -20.175  1.00  0.00     0.000 C 
BRANCH  18  19
ATOM     19  C   UNL     1      17.494  11.823 -18.707  1.00  0.00     0.000 C 
BRANCH  19  20
ATOM     20  C   UNL     1      17.975  12.905 -17.723  1.00  0.00     0.000 C 
BRANCH  20  21
ATOM     21  C   UNL     1      18.291  12.346 -16.323  1.00  0.00     0.000 C 
BRANCH  21  22
ATOM     22  C   UNL     1      19.487  12.998 -15.604  1.00  0.00    -0.000 C 
BRANCH  22  23
ATOM     23  C   UNL     1      20.735  13.113 -16.497  1.00  0.00    -0.000 C 
BRANCH  23  24
ATOM     24  C   UNL     1      21.456  14.466 -16.353  1.00  0.00    -0.000 C 
BRANCH  24  25
ATOM     25  C   UNL     1      20.542  15.671 -16.060  1.00  0.00    -0.000 C 
BRANCH  25  26
ATOM     26  C   UNL     1      20.666  16.790 -17.105  1.00  0.00    -0.000 C 
BRANCH  26  27
ATOM     27  C   UNL     1      19.869  16.447 -18.373  1.00  0.00    -0.000 C 
BRANCH  27  28
ATOM     28  C   UNL     1      20.746  16.413 -19.635  1.00  0.00    -0.000 C 
BRANCH  28  29
ATOM     29  C   UNL     1      22.248  16.441 -19.312  1.00  0.00    -0.003 C 
ATOM     30  C   UNL     1      23.078  16.605 -20.582  1.00  0.00     0.004 C 
ENDBRANCH  28  29
ENDBRANCH  27  28
ENDBRANCH  26  27
ENDBRANCH  25  26
ENDBRANCH  24  25
ENDBRANCH  23  24
ENDBRANCH  22  23
ENDBRANCH  21  22
ENDBRANCH  20  21
ENDBRANCH  19  20
ENDBRANCH  18  19
ENDBRANCH  17  18
ENDBRANCH   1  17
TORSDOF 26
ENDMDL
MODEL 2
REMARK VINA RESULT:    -3.418      2.067      4.525
REMARK INTER + INTRA:         -14.537
REMARK INTER:                  -9.038
REMARK INTRA:                  -5.499
REMARK UNBOUND:                -5.925
REMARK SMILES CCCCCCCCCCCCCCCCCCCCCCCCCCCC(=O)[O-]
REMARK SMILES IDX 15 1 16 2 17 3 18 4 19 5 20 6 21 7 22 8 23 9 24 10 25 11
REMARK SMILES IDX 26 12 27 13 28 14 29 15 30 16 14 17 13 18 12 19 11 20 10 21
REMARK SMILES IDX 9 22 8 23 7 24 6 25 5 26 4 27 3 28 2 29 1 30
REMARK H PARENT
REMARK Flexibility Score: inf
ROOT
ATOM      1  C   UNL     1      20.464  13.020 -20.834  1.00  0.00     0.000 C 
ENDROOT
BRANCH   1   2
ATOM      2  C   UNL     1      21.193  11.797 -20.260  1.00  0.00     0.000 C 
BRANCH   2   3
ATOM      3  C   UNL     1      22.717  11.990 -20.184  1.00  0.00     0.000 C 
BRANCH   3   4
ATOM      4  C   UNL     1      23.292  12.065 -18.755  1.00  0.00     0.000 C 
BRANCH   4   5
ATOM      5  C   UNL     1      22.945  13.347 -17.974  1.00  0.00     0.000 C 
BRANCH   5   6
ATOM      6  C   UNL     1      21.931  13.162 -16.830  1.00  0.00     0.000 C 
BRANCH   6   7
ATOM      7  C   UNL     1      21.427  14.493 -16.254  1.00  0.00     0.000 C 
BRANCH   7   8
ATOM      8  C   UNL     1      20.036  14.324 -15.625  1.00  0.00     0.000 C 
BRANCH   8   9
ATOM      9  C   UNL     1      19.491  12.890 -15.784  1.00  0.00     0.000 C 
BRANCH   9  10
ATOM     10  C   UNL     1      18.280  12.792 -16.726  1.00  0.00     0.000 C 
BRANCH  10  11
ATOM     11  C   UNL     1      17.933  11.342 -17.101  1.00  0.00     0.000 C 
BRANCH  11  12
ATOM     12  C   UNL     1      19.185  10.506 -17.442  1.00  0.00     0.006 C 
BRANCH  12  13
ATOM     13  C   UNL     1      19.311   9.220 -16.609  1.00  0.00     0.053 C 
BRANCH  13  14
ATOM     14  C   UNL     1      20.314   8.268 -17.181  1.00  0.00     0.041 C 
ATOM     15  O   UNL     1      20.276   7.047 -16.875  1.00  0.00    -0.550 OA
ATOM     16  O   UNL     1      21.303   8.732 -18.040  1.00  0.00    -0.550 OA
ENDBRANCH  13  14
ENDBRANCH  12  13
ENDBRANCH  11  12
ENDBRANCH  10  11
ENDBRANCH   9  10
ENDBRANCH   8   9
ENDBRANCH   7   8
ENDBRANCH   6   7
ENDBRANCH   5   6
ENDBRANCH   4   5
ENDBRANCH   3   4
ENDBRANCH   2   3
ENDBRANCH   1   2
BRANCH   1  17
ATOM     17  C   UNL     1      19.692  13.762 -19.736  1.00  0.00     0.000 C 
BRANCH  17  18
ATOM     18  C   UNL     1      19.560  15.257 -20.068  1.00  0.00     0.000 C 
BRANCH  18  19
ATOM     19  C   UNL     1      19.854  16.165 -18.862  1.00  0.00     0.000 C 
BRANCH  19  20
ATOM     20  C   UNL     1      20.923  17.227 -19.172  1.00  0.00     0.000 C 
BRANCH  20  21
ATOM     21  C   UNL     1      22.359  16.722 -18.934  1.00  0.00     0.000 C 
BRANCH  21  22
ATOM     22  C   UNL     1      23.287  16.761 -20.163  1.00  0.00    -0.000 C 
BRANCH  22  23
ATOM     23  C   UNL     1      23.020  15.614 -21.154  1.00  0.00    -0.000 C 
BRANCH  23  24
ATOM     24  C   UNL     1      22.372  16.091 -22.466  1.00  0.00    -0.000 C 
BRANCH  24  25
ATOM     25  C   UNL     1      22.356  17.617 -22.676  1.00  0.00    -0.000 C 
BRANCH  25  26
ATOM     26  C   UNL     1      21.106  18.111 -23.420  1.00  0.00    -0.000 C 
BRANCH  26  27
ATOM     27  C   UNL     1      19.826  17.657 -22.704  1.00  0.00    -0.000 C 
BRANCH  27  28
ATOM     28  C   UNL     1      19.137  18.797 -21.938  1.00  0.00    -0.000 C 
BRANCH  28  29
ATOM     29  C   UNL     1      17.814  18.362 -21.291  1.00  0.00    -0.003 C 
ATOM     30  C   UNL     1      17.161  17.232 -22.084  1.00  0.00     0.004 C 
ENDBRANCH  28  29
ENDBRANCH  27  28
ENDBRANCH  26  27
ENDBRANCH  25  26
ENDBRANCH  24  25
ENDBRANCH  23  24
ENDBRANCH  22  23
ENDBRANCH  21  22
ENDBRANCH  20  21
ENDBRANCH  19  20
ENDBRANCH  18  19
ENDBRANCH  17  18
ENDBRANCH   1  17
TORSDOF 26
ENDMDL
MODEL 3
REMARK VINA RESULT:    -3.404      1.445      3.279
REMARK INTER + INTRA:         -14.503
REMARK INTER:                  -9.278
REMARK INTRA:                  -5.224
REMARK UNBOUND:                -5.925
REMARK SMILES CCCCCCCCCCCCCCCCCCCCCCCCCCCC(=O)[O-]
REMARK SMILES IDX 15 1 16 2 17 3 18 4 19 5 20 6 21 7 22 8 23 9 24 10 25 11
REMARK SMILES IDX 26 12 27 13 28 14 29 15 30 16 14 17 13 18 12 19 11 20 10 21
REMARK SMILES IDX 9 22 8 23 7 24 6 25 5 26 4 27 3 28 2 29 1 30
REMARK H PARENT
REMARK Flexibility Score: inf
ROOT
ATOM      1  C   UNL     1      18.924  11.960 -19.026  1.00  0.00     0.000 C 
ENDROOT
BRANCH   1   2
ATOM      2  C   UNL     1      17.879  12.214 -17.931  1.00  0.00     0.000 C 
BRANCH   2   3
ATOM      3  C   UNL     1      18.043  11.280 -16.719  1.00  0.00     0.000 C 
BRANCH   3   4
ATOM      4  C   UNL     1      19.341  10.448 -16.711  1.00  0.00     0.000 C 
BRANCH   4   5
ATOM      5  C   UNL     1      19.165   8.958 -16.359  1.00  0.00     0.000 C 
BRANCH   5   6
ATOM      6  C   UNL     1      20.313   8.038 -16.814  1.00  0.00     0.000 C 
BRANCH   6   7
ATOM      7  C   UNL     1      21.154   8.644 -17.947  1.00  0.00     0.000 C 
BRANCH   7   8
ATOM      8  C   UNL     1      20.957   7.862 -19.253  1.00  0.00     0.000 C 
BRANCH   8   9
ATOM      9  C   UNL     1      20.402   8.747 -20.388  1.00  0.00     0.000 C 
BRANCH   9  10
ATOM     10  C   UNL     1      18.965   8.388 -20.802  1.00  0.00     0.000 C 
BRANCH  10  11
ATOM     11  C   UNL     1      18.077   8.013 -19.605  1.00  0.00     0.000 C 
BRANCH  11  12
ATOM     12  C   UNL     1      17.770   6.502 -19.549  1.00  0.00     0.006 C 
BRANCH  12  13
ATOM     13  C   UNL     1      17.416   5.998 -18.140  1.00  0.00     0.053 C 
BRANCH  13  14
ATOM     14  C   UNL     1      18.210   4.790 -17.752  1.00  0.00     0.041 C 
ATOM     15  O   UNL     1      19.449   4.883 -17.552  1.00  0.00    -0.550 OA
ATOM     16  O   UNL     1      17.583   3.556 -17.629  1.00  0.00    -0.550 OA
ENDBRANCH  13  14
ENDBRANCH  12  13
ENDBRANCH  11  12
ENDBRANCH  10  11
ENDBRANCH   9  10
ENDBRANCH   8   9
ENDBRANCH   7   8
ENDBRANCH   6   7
ENDBRANCH   5   6
ENDBRANCH   4   5
ENDBRANCH   3   4
ENDBRANCH   2   3
ENDBRANCH   1   2
BRANCH   1  17
ATOM     17  C   UNL     1      19.378  13.277 -19.666  1.00  0.00     0.000 C 
BRANCH  17  18
ATOM     18  C   UNL     1      20.911  13.382 -19.686  1.00  0.00     0.000 C 
BRANCH  18  19
ATOM     19  C   UNL     1      21.603  12.114 -19.157  1.00  0.00     0.000 C 
BRANCH  19  20
ATOM     20  C   UNL     1      22.540  12.405 -17.972  1.00  0.00     0.000 C 
BRANCH  20  21
ATOM     21  C   UNL     1      22.128  13.657 -17.174  1.00  0.00     0.000 C 
BRANCH  21  22
ATOM     22  C   UNL     1      21.108  13.415 -16.045  1.00  0.00    -0.000 C 
BRANCH  22  23
ATOM     23  C   UNL     1      20.106  14.572 -15.883  1.00  0.00    -0.000 C 
BRANCH  23  24
ATOM     24  C   UNL     1      20.632  15.907 -16.442  1.00  0.00    -0.000 C 
BRANCH  24  25
ATOM     25  C   UNL     1      19.890  16.437 -17.684  1.00  0.00    -0.000 C 
BRANCH  25  26
ATOM     26  C   UNL     1      20.833  17.017 -18.749  1.00  0.00    -0.000 C 
BRANCH  26  27
ATOM     27  C   UNL     1      20.152  17.052 -20.125  1.00  0.00    -0.000 C 
BRANCH  27  28
ATOM     28  C   UNL     1      21.135  16.802 -21.280  1.00  0.00    -0.000 C 
BRANCH  28  29
ATOM     29  C   UNL     1      22.554  16.478 -20.790  1.00  0.00    -0.003 C 
ATOM     30  C   UNL     1      23.510  16.286 -21.965  1.00  0.00     0.004 C 
ENDBRANCH  28  29
ENDBRANCH  27  28
ENDBRANCH  26  27
ENDBRANCH  25  26
ENDBRANCH  24  25
ENDBRANCH  23  24
ENDBRANCH  22  23
ENDBRANCH  21  22
ENDBRANCH  20  21
ENDBRANCH  19  20
ENDBRANCH  18  19
ENDBRANCH  17  18
ENDBRANCH   1  17
TORSDOF 26
ENDMDL
MODEL 4
REMARK VINA RESULT:    -3.298      1.146      3.490
REMARK INTER + INTRA:         -14.236
REMARK INTER:                  -8.586
REMARK INTRA:                  -5.650
REMARK UNBOUND:                -5.925
REMARK SMILES CCCCCCCCCCCCCCCCCCCCCCCCCCCC(=O)[O-]
REMARK SMILES IDX 15 1 16 2 17 3 18 4 19 5 20 6 21 7 22 8 23 9 24 10 25 11
REMARK SMILES IDX 26 12 27 13 28 14 29 15 30 16 14 17 13 18 12 19 11 20 10 21
REMARK SMILES IDX 9 22 8 23 7 24 6 25 5 26 4 27 3 28 2 29 1 30
REMARK H PARENT
REMARK Flexibility Score: inf
ROOT
ATOM      1  C   UNL     1      21.209  14.074 -19.858  1.00  0.00     0.000 C 
ENDROOT
BRANCH   1   2
ATOM      2  C   UNL     1      22.159  14.998 -20.632  1.00  0.00     0.000 C 
BRANCH   2   3
ATOM      3  C   UNL     1      23.436  15.339 -19.844  1.00  0.00     0.000 C 
BRANCH   3   4
ATOM      4  C   UNL     1      23.770  14.365 -18.696  1.00  0.00     0.000 C 
BRANCH   4   5
ATOM      5  C   UNL     1      24.962  13.425 -18.958  1.00  0.00     0.000 C 
BRANCH   5   6
ATOM      6  C   UNL     1      24.604  11.932 -19.072  1.00  0.00     0.000 C 
BRANCH   6   7
ATOM      7  C   UNL     1      23.604  11.471 -18.001  1.00  0.00     0.000 C 
BRANCH   7   8
ATOM      8  C   UNL     1      22.427  10.719 -18.639  1.00  0.00     0.000 C 
BRANCH   8   9
ATOM      9  C   UNL     1      22.745   9.229 -18.879  1.00  0.00     0.000 C 
BRANCH   9  10
ATOM     10  C   UNL     1      21.608   8.281 -18.462  1.00  0.00     0.000 C 
BRANCH  10  11
ATOM     11  C   UNL     1      20.584   8.954 -17.533  1.00  0.00     0.000 C 
BRANCH  11  12
ATOM     12  C   UNL     1      19.287   8.130 -17.390  1.00  0.00     0.006 C 
BRANCH  12  13
ATOM     13  C   UNL     1      19.532   6.624 -17.201  1.00  0.00     0.053 C 
BRANCH  13  14
ATOM     14  C   UNL     1      18.763   5.795 -18.182  1.00  0.00     0.041 C 
ATOM     15  O   UNL     1      19.316   5.387 -19.237  1.00  0.00    -0.550 OA
ATOM     16  O   UNL     1      17.431   5.486 -17.940  1.00  0.00    -0.550 OA
ENDBRANCH  13  14
ENDBRANCH  12  13
ENDBRANCH  11  12
ENDBRANCH  10  11
ENDBRANCH   9  10
ENDBRANCH   8   9
ENDBRANCH   7   8
ENDBRANCH   6   7
ENDBRANCH   5   6
ENDBRANCH   4   5
ENDBRANCH   3   4
ENDBRANCH   2   3
ENDBRANCH   1   2
BRANCH   1  17
ATOM     17  C   UNL     1      19.795  14.666 -19.801  1.00  0.00     0.000 C 
BRANCH  17  18
ATOM     18  C   UNL     1      19.840  16.173 -19.506  1.00  0.00     0.000 C 
BRANCH  18  19
ATOM     19  C   UNL     1      19.718  16.492 -18.006  1.00  0.00     0.000 C 
BRANCH  19  20
ATOM     20  C   UNL     1      21.070  16.859 -17.370  1.00  0.00     0.000 C 
BRANCH  20  21
ATOM     21  C   UNL     1      21.568  15.802 -16.365  1.00  0.00     0.000 C 
BRANCH  21  22
ATOM     22  C   UNL     1      20.532  14.741 -15.952  1.00  0.00    -0.000 C 
BRANCH  22  23
ATOM     23  C   UNL     1      20.955  13.310 -16.325  1.00  0.00    -0.000 C 
BRANCH  23  24
ATOM     24  C   UNL     1      19.793  12.302 -16.263  1.00  0.00    -0.000 C 
BRANCH  24  25
ATOM     25  C   UNL     1      18.491  12.757 -16.951  1.00  0.00    -0.000 C 
BRANCH  25  26
ATOM     26  C   UNL     1      17.737  11.607 -17.637  1.00  0.00    -0.000 C 
BRANCH  26  27
ATOM     27  C   UNL     1      16.935  12.119 -18.843  1.00  0.00    -0.000 C 
BRANCH  27  28
ATOM     28  C   UNL     1      17.577  11.741 -20.187  1.00  0.00    -0.000 C 
BRANCH  28  29
ATOM     29  C   UNL     1      18.730  10.737 -20.030  1.00  0.00    -0.003 C 
ATOM     30  C   UNL     1      19.749  10.892 -21.157  1.00  0.00     0.004 C 
ENDBRANCH  28  29
ENDBRANCH  27  28
ENDBRANCH  26  27
ENDBRANCH  25  26
ENDBRANCH  24  25
ENDBRANCH  23  24
ENDBRANCH  22  23
ENDBRANCH  21  22
ENDBRANCH  20  21
ENDBRANCH  19  20
ENDBRANCH  18  19
ENDBRANCH  17  18
ENDBRANCH   1  17
TORSDOF 26
ENDMDL
MODEL 5
REMARK VINA RESULT:    -3.289      1.294      3.873
REMARK INTER + INTRA:         -14.215
REMARK INTER:                  -8.933
REMARK INTRA:                  -5.282
REMARK UNBOUND:                -5.925
REMARK SMILES CCCCCCCCCCCCCCCCCCCCCCCCCCCC(=O)[O-]
REMARK SMILES IDX 15 1 16 2 17 3 18 4 19 5 20 6 21 7 22 8 23 9 24 10 25 11
REMARK SMILES IDX 26 12 27 13 28 14 29 15 30 16 14 17 13 18 12 19 11 20 10 21
REMARK SMILES IDX 9 22 8 23 7 24 6 25 5 26 4 27 3 28 2 29 1 30
REMARK H PARENT
REMARK Flexibility Score: inf
ROOT
ATOM      1  C   UNL     1      19.530  14.882 -19.522  1.00  0.00     0.000 C 
ENDROOT
BRANCH   1   2
ATOM      2  C   UNL     1      20.108  13.857 -20.508  1.00  0.00     0.000 C 
BRANCH   2   3
ATOM      3  C   UNL     1      20.991  12.800 -19.822  1.00  0.00     0.000 C 
BRANCH   3   4
ATOM      4  C   UNL     1      22.505  12.958 -20.070  1.00  0.00     0.000 C 
BRANCH   4   5
ATOM      5  C   UNL     1      23.401  11.940 -19.338  1.00  0.00     0.000 C 
BRANCH   5   6
ATOM      6  C   UNL     1      22.655  10.953 -18.422  1.00  0.00     0.000 C 
BRANCH   6   7
ATOM      7  C   UNL     1      23.330   9.575 -18.349  1.00  0.00     0.000 C 
BRANCH   7   8
ATOM      8  C   UNL     1      22.302   8.451 -18.550  1.00  0.00     0.000 C 
BRANCH   8   9
ATOM      9  C   UNL     1      20.902   8.838 -18.031  1.00  0.00     0.000 C 
BRANCH   9  10
ATOM     10  C   UNL     1      20.345   7.866 -16.978  1.00  0.00     0.000 C 
BRANCH  10  11
ATOM     11  C   UNL     1      18.818   7.711 -17.059  1.00  0.00     0.000 C 
BRANCH  11  12
ATOM     12  C   UNL     1      18.392   6.518 -17.939  1.00  0.00     0.006 C 
BRANCH  12  13
ATOM     13  C   UNL     1      18.900   5.161 -17.424  1.00  0.00     0.053 C 
BRANCH  13  14
ATOM     14  C   UNL     1      18.229   4.008 -18.103  1.00  0.00     0.041 C 
ATOM     15  O   UNL     1      18.862   3.308 -18.937  1.00  0.00    -0.550 OA
ATOM     16  O   UNL     1      16.899   3.715 -17.828  1.00  0.00    -0.550 OA
ENDBRANCH  13  14
ENDBRANCH  12  13
ENDBRANCH  11  12
ENDBRANCH  10  11
ENDBRANCH   9  10
ENDBRANCH   8   9
ENDBRANCH   7   8
ENDBRANCH   6   7
ENDBRANCH   5   6
ENDBRANCH   4   5
ENDBRANCH   3   4
ENDBRANCH   2   3
ENDBRANCH   1   2
BRANCH   1  17
ATOM     17  C   UNL     1      19.927  16.309 -19.919  1.00  0.00     0.000 C 
BRANCH  17  18
ATOM     18  C   UNL     1      21.443  16.520 -19.776  1.00  0.00     0.000 C 
BRANCH  18  19
ATOM     19  C   UNL     1      21.869  16.817 -18.328  1.00  0.00     0.000 C 
BRANCH  19  20
ATOM     20  C   UNL     1      22.854  15.771 -17.777  1.00  0.00     0.000 C 
BRANCH  20  21
ATOM     21  C   UNL     1      22.170  14.708 -16.896  1.00  0.00     0.000 C 
BRANCH  21  22
ATOM     22  C   UNL     1      21.021  15.223 -16.009  1.00  0.00    -0.000 C 
BRANCH  22  23
ATOM     23  C   UNL     1      19.878  14.205 -15.855  1.00  0.00    -0.000 C 
BRANCH  23  24
ATOM     24  C   UNL     1      20.318  12.757 -16.138  1.00  0.00    -0.000 C 
BRANCH  24  25
ATOM     25  C   UNL     1      19.216  11.830 -16.685  1.00  0.00    -0.000 C 
BRANCH  25  26
ATOM     26  C   UNL     1      17.986  12.594 -17.200  1.00  0.00    -0.000 C 
BRANCH  26  27
ATOM     27  C   UNL     1      17.232  11.771 -18.256  1.00  0.00    -0.000 C 
BRANCH  27  28
ATOM     28  C   UNL     1      18.121  10.717 -18.934  1.00  0.00    -0.000 C 
BRANCH  28  29
ATOM     29  C   UNL     1      17.904  10.648 -20.453  1.00  0.00    -0.003 C 
ATOM     30  C   UNL     1      16.907  11.709 -20.913  1.00  0.00     0.004 C 
ENDBRANCH  28  29
ENDBRANCH  27  28
ENDBRANCH  26  27
ENDBRANCH  25  26
ENDBRANCH  24  25
ENDBRANCH  23  24
ENDBRANCH  22  23
ENDBRANCH  21  22
ENDBRANCH  20  21
ENDBRANCH  19  20
ENDBRANCH  18  19
ENDBRANCH  17  18
ENDBRANCH   1  17
TORSDOF 26
ENDMDL
MODEL 6
REMARK VINA RESULT:    -3.278      1.518      4.202
REMARK INTER + INTRA:         -14.186
REMARK INTER:                  -9.191
REMARK INTRA:                  -4.995
REMARK UNBOUND:                -5.925
REMARK SMILES CCCCCCCCCCCCCCCCCCCCCCCCCCCC(=O)[O-]
REMARK SMILES IDX 15 1 16 2 17 3 18 4 19 5 20 6 21 7 22 8 23 9 24 10 25 11
REMARK SMILES IDX 26 12 27 13 28 14 29 15 30 16 14 17 13 18 12 19 11 20 10 21
REMARK SMILES IDX 9 22 8 23 7 24 6 25 5 26 4 27 3 28 2 29 1 30
REMARK H PARENT
REMARK Flexibility Score: inf
ROOT
ATOM      1  C   UNL     1      21.080  15.041 -16.209  1.00  0.00     0.000 C 
ENDROOT
BRANCH   1   2
ATOM      2  C   UNL     1      19.887  14.480 -15.422  1.00  0.00     0.000 C 
BRANCH   2   3
ATOM      3  C   UNL     1      19.634  12.988 -15.702  1.00  0.00     0.000 C 
BRANCH   3   4
ATOM      4  C   UNL     1      18.402  12.692 -16.580  1.00  0.00     0.000 C 
BRANCH   4   5
ATOM      5  C   UNL     1      18.136  11.199 -16.857  1.00  0.00     0.000 C 
BRANCH   5   6
ATOM      6  C   UNL     1      19.386  10.300 -16.850  1.00  0.00     0.000 C 
BRANCH   6   7
ATOM      7  C   UNL     1      19.118   8.905 -16.267  1.00  0.00     0.000 C 
BRANCH   7   8
ATOM      8  C   UNL     1      20.207   7.913 -16.700  1.00  0.00     0.000 C 
BRANCH   8   9
ATOM      9  C   UNL     1      21.009   8.417 -17.918  1.00  0.00     0.000 C 
BRANCH   9  10
ATOM     10  C   UNL     1      20.618   7.733 -19.238  1.00  0.00     0.000 C 
BRANCH  10  11
ATOM     11  C   UNL     1      19.507   8.484 -19.990  1.00  0.00     0.000 C 
BRANCH  11  12
ATOM     12  C   UNL     1      18.126   7.816 -19.824  1.00  0.00     0.006 C 
BRANCH  12  13
ATOM     13  C   UNL     1      18.171   6.281 -19.905  1.00  0.00     0.053 C 
BRANCH  13  14
ATOM     14  C   UNL     1      17.423   5.630 -18.784  1.00  0.00     0.041 C 
ATOM     15  O   UNL     1      17.504   6.092 -17.615  1.00  0.00    -0.550 OA
ATOM     16  O   UNL     1      16.648   4.503 -19.026  1.00  0.00    -0.550 OA
ENDBRANCH  13  14
ENDBRANCH  12  13
ENDBRANCH  11  12
ENDBRANCH  10  11
ENDBRANCH   9  10
ENDBRANCH   8   9
ENDBRANCH   7   8
ENDBRANCH   6   7
ENDBRANCH   5   6
ENDBRANCH   4   5
ENDBRANCH   3   4
ENDBRANCH   2   3
ENDBRANCH   1   2
BRANCH   1  17
ATOM     17  C   UNL     1      20.750  16.420 -16.794  1.00  0.00     0.000 C 
BRANCH  17  18
ATOM     18  C   UNL     1      19.827  16.295 -18.016  1.00  0.00     0.000 C 
BRANCH  18  19
ATOM     19  C   UNL     1      20.570  16.495 -19.348  1.00  0.00     0.000 C 
BRANCH  19  20
ATOM     20  C   UNL     1      20.460  15.271 -20.274  1.00  0.00     0.000 C 
BRANCH  20  21
ATOM     21  C   UNL     1      19.434  14.234 -19.779  1.00  0.00     0.000 C 
BRANCH  21  22
ATOM     22  C   UNL     1      19.912  12.770 -19.797  1.00  0.00    -0.000 C 
BRANCH  22  23
ATOM     23  C   UNL     1      21.442  12.635 -19.707  1.00  0.00    -0.000 C 
BRANCH  23  24
ATOM     24  C   UNL     1      21.920  12.085 -18.352  1.00  0.00    -0.000 C 
BRANCH  24  25
ATOM     25  C   UNL     1      23.248  12.673 -17.835  1.00  0.00    -0.000 C 
BRANCH  25  26
ATOM     26  C   UNL     1      24.004  13.481 -18.900  1.00  0.00    -0.000 C 
BRANCH  26  27
ATOM     27  C   UNL     1      24.275  14.913 -18.413  1.00  0.00    -0.000 C 
BRANCH  27  28
ATOM     28  C   UNL     1      24.167  15.953 -19.539  1.00  0.00    -0.000 C 
BRANCH  28  29
ATOM     29  C   UNL     1      24.093  17.393 -19.009  1.00  0.00    -0.003 C 
ATOM     30  C   UNL     1      25.489  17.950 -18.739  1.00  0.00     0.004 C 
ENDBRANCH  28  29
ENDBRANCH  27  28
ENDBRANCH  26  27
ENDBRANCH  25  26
ENDBRANCH  24  25
ENDBRANCH  23  24
ENDBRANCH  22  23
ENDBRANCH  21  22
ENDBRANCH  20  21
ENDBRANCH  19  20
ENDBRANCH  18  19
ENDBRANCH  17  18
ENDBRANCH   1  17
TORSDOF 26
ENDMDL
MODEL 7
REMARK VINA RESULT:    -3.257      3.439      7.091
REMARK INTER + INTRA:         -14.132
REMARK INTER:                  -8.631
REMARK INTRA:                  -5.501
REMARK UNBOUND:                -5.925
REMARK SMILES CCCCCCCCCCCCCCCCCCCCCCCCCCCC(=O)[O-]
REMARK SMILES IDX 15 1 16 2 17 3 18 4 19 5 20 6 21 7 22 8 23 9 24 10 25 11
REMARK SMILES IDX 26 12 27 13 28 14 29 15 30 16 14 17 13 18 12 19 11 20 10 21
REMARK SMILES IDX 9 22 8 23 7 24 6 25 5 26 4 27 3 28 2 29 1 30
REMARK H PARENT
REMARK Flexibility Score: inf
ROOT
ATOM      1  C   UNL     1      20.600  11.458 -20.212  1.00  0.00     0.000 C 
ENDROOT
BRANCH   1   2
ATOM      2  C   UNL     1      21.956  11.132 -20.852  1.00  0.00     0.000 C 
BRANCH   2   3
ATOM      3  C   UNL     1      22.951  10.502 -19.861  1.00  0.00     0.000 C 
BRANCH   3   4
ATOM      4  C   UNL     1      23.046  11.215 -18.496  1.00  0.00     0.000 C 
BRANCH   4   5
ATOM      5  C   UNL     1      23.668  12.624 -18.533  1.00  0.00     0.000 C 
BRANCH   5   6
ATOM      6  C   UNL     1      22.871  13.710 -17.788  1.00  0.00     0.000 C 
BRANCH   6   7
ATOM      7  C   UNL     1      21.753  13.135 -16.906  1.00  0.00     0.000 C 
BRANCH   7   8
ATOM      8  C   UNL     1      20.976  14.259 -16.206  1.00  0.00     0.000 C 
BRANCH   8   9
ATOM      9  C   UNL     1      21.571  15.653 -16.496  1.00  0.00     0.000 C 
BRANCH   9  10
ATOM     10  C   UNL     1      20.510  16.736 -16.749  1.00  0.00     0.000 C 
BRANCH  10  11
ATOM     11  C   UNL     1      19.870  16.628 -18.142  1.00  0.00     0.000 C 
BRANCH  11  12
ATOM     12  C   UNL     1      20.921  16.505 -19.266  1.00  0.00     0.006 C 
BRANCH  12  13
ATOM     13  C   UNL     1      20.348  16.738 -20.673  1.00  0.00     0.053 C 
BRANCH  13  14
ATOM     14  C   UNL     1      21.409  17.086 -21.670  1.00  0.00     0.041 C 
ATOM     15  O   UNL     1      22.623  16.907 -21.390  1.00  0.00    -0.550 OA
ATOM     16  O   UNL     1      21.058  17.622 -22.902  1.00  0.00    -0.550 OA
ENDBRANCH  13  14
ENDBRANCH  12  13
ENDBRANCH  11  12
ENDBRANCH  10  11
ENDBRANCH   9  10
ENDBRANCH   8   9
ENDBRANCH   7   8
ENDBRANCH   6   7
ENDBRANCH   5   6
ENDBRANCH   4   5
ENDBRANCH   3   4
ENDBRANCH   2   3
ENDBRANCH   1   2
BRANCH   1  17
ATOM     17  C   UNL     1      20.261  12.945 -20.374  1.00  0.00     0.000 C 
BRANCH  17  18
ATOM     18  C   UNL     1      19.024  13.323 -19.544  1.00  0.00     0.000 C 
BRANCH  18  19
ATOM     19  C   UNL     1      18.379  12.112 -18.849  1.00  0.00     0.000 C 
BRANCH  19  20
ATOM     20  C   UNL     1      17.903  12.437 -17.422  1.00  0.00     0.000 C 
BRANCH  20  21
ATOM     21  C   UNL     1      18.446  11.453 -16.369  1.00  0.00     0.000 C 
BRANCH  21  22
ATOM     22  C   UNL     1      19.369  10.346 -16.911  1.00  0.00    -0.000 C 
BRANCH  22  23
ATOM     23  C   UNL     1      19.051   8.959 -16.325  1.00  0.00    -0.000 C 
BRANCH  23  24
ATOM     24  C   UNL     1      20.126   7.906 -16.653  1.00  0.00    -0.000 C 
BRANCH  24  25
ATOM     25  C   UNL     1      20.957   8.187 -17.920  1.00  0.00    -0.000 C 
BRANCH  25  26
ATOM     26  C   UNL     1      20.645   7.221 -19.073  1.00  0.00    -0.000 C 
BRANCH  26  27
ATOM     27  C   UNL     1      19.886   7.938 -20.200  1.00  0.00    -0.000 C 
BRANCH  27  28
ATOM     28  C   UNL     1      18.403   8.164 -19.867  1.00  0.00    -0.000 C 
BRANCH  28  29
ATOM     29  C   UNL     1      17.715   6.895 -19.339  1.00  0.00    -0.003 C 
ATOM     30  C   UNL     1      16.834   6.261 -20.413  1.00  0.00     0.004 C 
ENDBRANCH  28  29
ENDBRANCH  27  28
ENDBRANCH  26  27
ENDBRANCH  25  26
ENDBRANCH  24  25
ENDBRANCH  23  24
ENDBRANCH  22  23
ENDBRANCH  21  22
ENDBRANCH  20  21
ENDBRANCH  19  20
ENDBRANCH  18  19
ENDBRANCH  17  18
ENDBRANCH   1  17
TORSDOF 26
ENDMDL
MODEL 8
REMARK VINA RESULT:    -3.229      3.380      7.122
REMARK INTER + INTRA:         -14.061
REMARK INTER:                  -8.895
REMARK INTRA:                  -5.166
REMARK UNBOUND:                -5.925
REMARK SMILES CCCCCCCCCCCCCCCCCCCCCCCCCCCC(=O)[O-]
REMARK SMILES IDX 15 1 16 2 17 3 18 4 19 5 20 6 21 7 22 8 23 9 24 10 25 11
REMARK SMILES IDX 26 12 27 13 28 14 29 15 30 16 14 17 13 18 12 19 11 20 10 21
REMARK SMILES IDX 9 22 8 23 7 24 6 25 5 26 4 27 3 28 2 29 1 30
REMARK H PARENT
REMARK Flexibility Score: inf
ROOT
ATOM      1  C   UNL     1      18.207  10.904 -17.191  1.00  0.00     0.000 C 
ENDROOT
BRANCH   1   2
ATOM      2  C   UNL     1      18.260  12.381 -16.777  1.00  0.00     0.000 C 
BRANCH   2   3
ATOM      3  C   UNL     1      19.439  12.698 -15.841  1.00  0.00     0.000 C 
BRANCH   3   4
ATOM      4  C   UNL     1      19.910  14.166 -15.864  1.00  0.00     0.000 C 
BRANCH   4   5
ATOM      5  C   UNL     1      21.354  14.385 -16.358  1.00  0.00     0.000 C 
BRANCH   5   6
ATOM      6  C   UNL     1      22.057  13.128 -16.902  1.00  0.00     0.000 C 
BRANCH   6   7
ATOM      7  C   UNL     1      22.328  13.198 -18.412  1.00  0.00     0.000 C 
BRANCH   7   8
ATOM      8  C   UNL     1      21.506  12.141 -19.165  1.00  0.00     0.000 C 
BRANCH   8   9
ATOM      9  C   UNL     1      20.195  12.718 -19.739  1.00  0.00     0.000 C 
BRANCH   9  10
ATOM     10  C   UNL     1      20.389  14.030 -20.517  1.00  0.00     0.000 C 
BRANCH  10  11
ATOM     11  C   UNL     1      19.597  15.201 -19.915  1.00  0.00     0.000 C 
BRANCH  11  12
ATOM     12  C   UNL     1      20.278  16.563 -20.162  1.00  0.00     0.006 C 
BRANCH  12  13
ATOM     13  C   UNL     1      21.815  16.493 -20.158  1.00  0.00     0.053 C 
BRANCH  13  14
ATOM     14  C   UNL     1      22.403  16.972 -18.868  1.00  0.00     0.041 C 
ATOM     15  O   UNL     1      21.657  17.427 -17.961  1.00  0.00    -0.550 OA
ATOM     16  O   UNL     1      23.777  16.931 -18.672  1.00  0.00    -0.550 OA
ENDBRANCH  13  14
ENDBRANCH  12  13
ENDBRANCH  11  12
ENDBRANCH  10  11
ENDBRANCH   9  10
ENDBRANCH   8   9
ENDBRANCH   7   8
ENDBRANCH   6   7
ENDBRANCH   5   6
ENDBRANCH   4   5
ENDBRANCH   3   4
ENDBRANCH   2   3
ENDBRANCH   1   2
BRANCH   1  17
ATOM     17  C   UNL     1      19.472  10.163 -16.742  1.00  0.00     0.000 C 
BRANCH  17  18
ATOM     18  C   UNL     1      19.137   8.748 -16.245  1.00  0.00     0.000 C 
BRANCH  18  19
ATOM     19  C   UNL     1      20.105   7.681 -16.783  1.00  0.00     0.000 C 
BRANCH  19  20
ATOM     20  C   UNL     1      19.387   6.378 -17.175  1.00  0.00     0.000 C 
BRANCH  20  21
ATOM     21  C   UNL     1      18.254   6.599 -18.195  1.00  0.00     0.000 C 
BRANCH  21  22
ATOM     22  C   UNL     1      18.705   6.790 -19.655  1.00  0.00    -0.000 C 
BRANCH  22  23
ATOM     23  C   UNL     1      18.420   8.203 -20.193  1.00  0.00    -0.000 C 
BRANCH  23  24
ATOM     24  C   UNL     1      19.666   9.107 -20.202  1.00  0.00    -0.000 C 
BRANCH  24  25
ATOM     25  C   UNL     1      20.997   8.390 -20.500  1.00  0.00    -0.000 C 
BRANCH  25  26
ATOM     26  C   UNL     1      22.015   8.508 -19.356  1.00  0.00    -0.000 C 
BRANCH  26  27
ATOM     27  C   UNL     1      23.360   9.044 -19.871  1.00  0.00    -0.000 C 
BRANCH  27  28
ATOM     28  C   UNL     1      24.473   8.966 -18.815  1.00  0.00    -0.000 C 
BRANCH  28  29
ATOM     29  C   UNL     1      24.443  10.148 -17.834  1.00  0.00    -0.003 C 
ATOM     30  C   UNL     1      25.528  10.006 -16.770  1.00  0.00     0.004 C 
ENDBRANCH  28  29
ENDBRANCH  27  28
ENDBRANCH  26  27
ENDBRANCH  25  26
ENDBRANCH  24  25
ENDBRANCH  23  24
ENDBRANCH  22  23
ENDBRANCH  21  22
ENDBRANCH  20  21
ENDBRANCH  19  20
ENDBRANCH  18  19
ENDBRANCH  17  18
ENDBRANCH   1  17
TORSDOF 26
ENDMDL
MODEL 9
REMARK VINA RESULT:    -3.228      1.539      4.901
REMARK INTER + INTRA:         -14.060
REMARK INTER:                  -8.548
REMARK INTRA:                  -5.512
REMARK UNBOUND:                -5.925
REMARK SMILES CCCCCCCCCCCCCCCCCCCCCCCCCCCC(=O)[O-]
REMARK SMILES IDX 15 1 16 2 17 3 18 4 19 5 20 6 21 7 22 8 23 9 24 10 25 11
REMARK SMILES IDX 26 12 27 13 28 14 29 15 30 16 14 17 13 18 12 19 11 20 10 21
REMARK SMILES IDX 9 22 8 23 7 24 6 25 5 26 4 27 3 28 2 29 1 30
REMARK H PARENT
REMARK Flexibility Score: inf
ROOT
ATOM      1  C   UNL     1      22.268  16.101 -20.237  1.00  0.00     0.000 C 
ENDROOT
BRANCH   1   2
ATOM      2  C   UNL     1      21.923  14.685 -20.719  1.00  0.00     0.000 C 
BRANCH   2   3
ATOM      3  C   UNL     1      20.407  14.442 -20.825  1.00  0.00     0.000 C 
BRANCH   3   4
ATOM      4  C   UNL     1      19.851  13.375 -19.861  1.00  0.00     0.000 C 
BRANCH   4   5
ATOM      5  C   UNL     1      18.327  13.157 -19.930  1.00  0.00     0.000 C 
BRANCH   5   6
ATOM      6  C   UNL     1      17.744  12.260 -18.823  1.00  0.00     0.000 C 
BRANCH   6   7
ATOM      7  C   UNL     1      18.033  12.788 -17.410  1.00  0.00     0.000 C 
BRANCH   7   8
ATOM      8  C   UNL     1      18.138  11.631 -16.405  1.00  0.00     0.000 C 
BRANCH   8   9
ATOM      9  C   UNL     1      19.267  10.643 -16.764  1.00  0.00     0.000 C 
BRANCH   9  10
ATOM     10  C   UNL     1      18.798   9.182 -16.864  1.00  0.00     0.000 C 
BRANCH  10  11
ATOM     11  C   UNL     1      19.917   8.176 -16.553  1.00  0.00     0.000 C 
BRANCH  11  12
ATOM     12  C   UNL     1      19.649   6.786 -17.168  1.00  0.00     0.006 C 
BRANCH  12  13
ATOM     13  C   UNL     1      20.535   6.471 -18.385  1.00  0.00     0.053 C 
BRANCH  13  14
ATOM     14  C   UNL     1      21.777   5.726 -18.007  1.00  0.00     0.041 C 
ATOM     15  O   UNL     1      22.838   5.888 -18.666  1.00  0.00    -0.550 OA
ATOM     16  O   UNL     1      21.759   4.841 -16.937  1.00  0.00    -0.550 OA
ENDBRANCH  13  14
ENDBRANCH  12  13
ENDBRANCH  11  12
ENDBRANCH  10  11
ENDBRANCH   9  10
ENDBRANCH   8   9
ENDBRANCH   7   8
ENDBRANCH   6   7
ENDBRANCH   5   6
ENDBRANCH   4   5
ENDBRANCH   3   4
ENDBRANCH   2   3
ENDBRANCH   1   2
BRANCH   1  17
ATOM     17  C   UNL     1      21.002  16.867 -19.834  1.00  0.00     0.000 C 
BRANCH  17  18
ATOM     18  C   UNL     1      21.012  17.199 -18.334  1.00  0.00     0.000 C 
BRANCH  18  19
ATOM     19  C   UNL     1      20.043  16.323 -17.522  1.00  0.00     0.000 C 
BRANCH  19  20
ATOM     20  C   UNL     1      20.664  15.817 -16.208  1.00  0.00     0.000 C 
BRANCH  20  21
ATOM     21  C   UNL     1      21.037  14.323 -16.255  1.00  0.00     0.000 C 
BRANCH  21  22
ATOM     22  C   UNL     1      22.267  13.975 -17.114  1.00  0.00    -0.000 C 
BRANCH  22  23
ATOM     23  C   UNL     1      22.372  12.473 -17.433  1.00  0.00    -0.000 C 
BRANCH  23  24
ATOM     24  C   UNL     1      23.611  12.121 -18.276  1.00  0.00    -0.000 C 
BRANCH  24  25
ATOM     25  C   UNL     1      23.968  10.623 -18.326  1.00  0.00    -0.000 C 
BRANCH  25  26
ATOM     26  C   UNL     1      22.734   9.709 -18.348  1.00  0.00    -0.000 C 
BRANCH  26  27
ATOM     27  C   UNL     1      22.275   9.440 -19.789  1.00  0.00    -0.000 C 
BRANCH  27  28
ATOM     28  C   UNL     1      21.016  10.233 -20.170  1.00  0.00    -0.000 C 
BRANCH  28  29
ATOM     29  C   UNL     1      19.794   9.330 -20.397  1.00  0.00    -0.003 C 
ATOM     30  C   UNL     1      18.915   9.870 -21.523  1.00  0.00     0.004 C 
ENDBRANCH  28  29
ENDBRANCH  27  28
ENDBRANCH  26  27
ENDBRANCH  25  26
ENDBRANCH  24  25
ENDBRANCH  23  24
ENDBRANCH  22  23
ENDBRANCH  21  22
ENDBRANCH  20  21
ENDBRANCH  19  20
ENDBRANCH  18  19
ENDBRANCH  17  18
ENDBRANCH   1  17
TORSDOF 26
ENDMDL
