MODEL 1
REMARK VINA RESULT:    -5.697      0.000      0.000
REMARK INTER + INTRA:         -13.525
REMARK INTER:                 -11.026
REMARK INTRA:                  -2.499
REMARK UNBOUND:                -2.499
REMARK SMILES CCCCCCCCCCCCCCCCCC(=O)[O-]
REMARK SMILES IDX 10 1 11 2 12 3 13 4 14 5 15 6 16 7 17 8 18 9 19 10 20 11
REMARK SMILES IDX 9 12 8 13 7 14 6 15 5 16 4 17 3 18 2 19 1 20
REMARK H PARENT
REMARK Flexibility Score: inf
ROOT
ATOM      1  C   UNL     1      18.289  -6.864  35.978  1.00  0.00     0.000 C 
ENDROOT
BRANCH   1   2
ATOM      2  C   UNL     1      18.117  -5.587  36.812  1.00  0.00     0.000 C 
BRANCH   2   3
ATOM      3  C   UNL     1      17.124  -4.596  36.183  1.00  0.00     0.000 C 
BRANCH   3   4
ATOM      4  C   UNL     1      16.119  -5.278  35.239  1.00  0.00     0.000 C 
BRANCH   4   5
ATOM      5  C   UNL     1      16.212  -4.723  33.799  1.00  0.00     0.000 C 
BRANCH   5   6
ATOM      6  C   UNL     1      15.971  -5.792  32.717  1.00  0.00     0.000 C 
BRANCH   6   7
ATOM      7  C   UNL     1      15.940  -7.239  33.254  1.00  0.00     0.006 C 
BRANCH   7   8
ATOM      8  C   UNL     1      16.714  -8.239  32.380  1.00  0.00     0.053 C 
BRANCH   8   9
ATOM      9  C   UNL     1      15.819  -9.008  31.460  1.00  0.00     0.041 C 
ATOM     10  O   UNL     1      15.972  -8.929  30.213  1.00  0.00    -0.550 OA
ATOM     11  O   UNL     1      14.810  -9.808  31.979  1.00  0.00    -0.550 OA
ENDBRANCH   8   9
ENDBRANCH   7   8
ENDBRANCH   6   7
ENDBRANCH   5   6
ENDBRANCH   4   5
ENDBRANCH   3   4
ENDBRANCH   2   3
ENDBRANCH   1   2
BRANCH   1  12
ATOM     12  C   UNL     1      19.623  -6.845  35.218  1.00  0.00     0.000 C 
BRANCH  12  13
ATOM     13  C   UNL     1      19.453  -7.056  33.703  1.00  0.00    -0.000 C 
BRANCH  13  14
ATOM     14  C   UNL     1      19.946  -5.891  32.819  1.00  0.00    -0.000 C 
BRANCH  14  15
ATOM     15  C   UNL     1      19.476  -4.493  33.259  1.00  0.00    -0.000 C 
BRANCH  15  16
ATOM     16  C   UNL     1      20.627  -3.602  33.750  1.00  0.00    -0.000 C 
BRANCH  16  17
ATOM     17  C   UNL     1      20.209  -2.804  34.993  1.00  0.00    -0.000 C 
BRANCH  17  18
ATOM     18  C   UNL     1      18.899  -2.027  34.785  1.00  0.00    -0.000 C 
BRANCH  18  19
ATOM     19  C   UNL     1      18.784  -0.805  35.708  1.00  0.00    -0.003 C 
ATOM     20  C   UNL     1      20.163  -0.324  36.156  1.00  0.00     0.004 C 
ENDBRANCH  18  19
ENDBRANCH  17  18
ENDBRANCH  16  17
ENDBRANCH  15  16
ENDBRANCH  14  15
ENDBRANCH  13  14
ENDBRANCH  12  13
ENDBRANCH   1  12
TORSDOF 16
ENDMDL
MODEL 2
REMARK VINA RESULT:    -5.298     19.075     20.788
REMARK INTER + INTRA:         -12.752
REMARK INTER:                 -10.205
REMARK INTRA:                  -2.546
REMARK UNBOUND:                -2.499
REMARK SMILES CCCCCCCCCCCCCCCCCC(=O)[O-]
REMARK SMILES IDX 10 1 11 2 12 3 13 4 14 5 15 6 16 7 17 8 18 9 19 10 20 11
REMARK SMILES IDX 9 12 8 13 7 14 6 15 5 16 4 17 3 18 2 19 1 20
REMARK H PARENT
REMARK Flexibility Score: inf
ROOT
ATOM      1  C   UNL     1       8.781   6.630  18.014  1.00  0.00     0.000 C 
ENDROOT
BRANCH   1   2
ATOM      2  C   UNL     1       8.098   5.438  18.699  1.00  0.00     0.000 C 
BRANCH   2   3
ATOM      3  C   UNL     1       8.096   5.557  20.232  1.00  0.00     0.000 C 
BRANCH   3   4
ATOM      4  C   UNL     1       9.277   4.821  20.888  1.00  0.00     0.000 C 
BRANCH   4   5
ATOM      5  C   UNL     1      10.283   5.802  21.531  1.00  0.00     0.000 C 
BRANCH   5   6
ATOM      6  C   UNL     1       9.736   7.236  21.661  1.00  0.00     0.000 C 
BRANCH   6   7
ATOM      7  C   UNL     1      10.774   8.338  21.358  1.00  0.00     0.006 C 
BRANCH   7   8
ATOM      8  C   UNL     1      12.225   7.832  21.338  1.00  0.00     0.053 C 
BRANCH   8   9
ATOM      9  C   UNL     1      13.216   8.940  21.163  1.00  0.00     0.041 C 
ATOM     10  O   UNL     1      14.026   8.920  20.200  1.00  0.00    -0.550 OA
ATOM     11  O   UNL     1      13.248   9.993  22.067  1.00  0.00    -0.550 OA
ENDBRANCH   8   9
ENDBRANCH   7   8
ENDBRANCH   6   7
ENDBRANCH   5   6
ENDBRANCH   4   5
ENDBRANCH   3   4
ENDBRANCH   2   3
ENDBRANCH   1   2
BRANCH   1  12
ATOM     12  C   UNL     1      10.050   6.182  17.274  1.00  0.00     0.000 C 
BRANCH  12  13
ATOM     13  C   UNL     1      11.343   6.556  18.022  1.00  0.00    -0.000 C 
BRANCH  13  14
ATOM     14  C   UNL     1      12.281   5.374  18.343  1.00  0.00    -0.000 C 
BRANCH  14  15
ATOM     15  C   UNL     1      11.573   4.065  18.735  1.00  0.00    -0.000 C 
BRANCH  15  16
ATOM     16  C   UNL     1      11.532   3.041  17.591  1.00  0.00    -0.000 C 
BRANCH  16  17
ATOM     17  C   UNL     1      10.117   2.469  17.419  1.00  0.00    -0.000 C 
BRANCH  17  18
ATOM     18  C   UNL     1       9.452   2.120  18.761  1.00  0.00    -0.000 C 
BRANCH  18  19
ATOM     19  C   UNL     1       8.264   1.160  18.599  1.00  0.00    -0.003 C 
ATOM     20  C   UNL     1       8.358   0.388  17.284  1.00  0.00     0.004 C 
ENDBRANCH  18  19
ENDBRANCH  17  18
ENDBRANCH  16  17
ENDBRANCH  15  16
ENDBRANCH  14  15
ENDBRANCH  13  14
ENDBRANCH  12  13
ENDBRANCH   1  12
TORSDOF 16
ENDMDL
MODEL 3
REMARK VINA RESULT:    -5.259     18.622     20.145
REMARK INTER + INTRA:         -12.677
REMARK INTER:                  -9.679
REMARK INTRA:                  -2.998
REMARK UNBOUND:                -2.499
REMARK SMILES CCCCCCCCCCCCCCCCCC(=O)[O-]
REMARK SMILES IDX 10 1 11 2 12 3 13 4 14 5 15 6 16 7 17 8 18 9 19 10 20 11
REMARK SMILES IDX 9 12 8 13 7 14 6 15 5 16 4 17 3 18 2 19 1 20
REMARK H PARENT
REMARK Flexibility Score: inf
ROOT
ATOM      1  C   UNL     1       8.908   7.425  18.092  1.00  0.00     0.000 C 
ENDROOT
BRANCH   1   2
ATOM      2  C   UNL     1      10.423   7.598  17.911  1.00  0.00     0.000 C 
BRANCH   2   3
ATOM      3  C   UNL     1      11.106   6.327  17.380  1.00  0.00     0.000 C 
BRANCH   3   4
ATOM      4  C   UNL     1      12.235   5.830  18.298  1.00  0.00     0.000 C 
BRANCH   4   5
ATOM      5  C   UNL     1      11.930   4.431  18.882  1.00  0.00     0.000 C 
BRANCH   5   6
ATOM      6  C   UNL     1      11.771   3.343  17.804  1.00  0.00     0.000 C 
BRANCH   6   7
ATOM      7  C   UNL     1      10.319   2.863  17.598  1.00  0.00     0.006 C 
BRANCH   7   8
ATOM      8  C   UNL     1       9.771   2.030  18.768  1.00  0.00     0.053 C 
BRANCH   8   9
ATOM      9  C   UNL     1       8.566   1.230  18.387  1.00  0.00     0.041 C 
ATOM     10  O   UNL     1       8.699   0.088  17.874  1.00  0.00    -0.550 OA
ATOM     11  O   UNL     1       7.294   1.747  18.594  1.00  0.00    -0.550 OA
ENDBRANCH   8   9
ENDBRANCH   7   8
ENDBRANCH   6   7
ENDBRANCH   5   6
ENDBRANCH   4   5
ENDBRANCH   3   4
ENDBRANCH   2   3
ENDBRANCH   1   2
BRANCH   1  12
ATOM     12  C   UNL     1       8.470   6.004  17.709  1.00  0.00     0.000 C 
BRANCH  12  13
ATOM     13  C   UNL     1       8.007   5.173  18.920  1.00  0.00    -0.000 C 
BRANCH  13  14
ATOM     14  C   UNL     1       8.361   5.770  20.298  1.00  0.00    -0.000 C 
BRANCH  14  15
ATOM     15  C   UNL     1       9.475   5.032  21.064  1.00  0.00    -0.000 C 
BRANCH  15  16
ATOM     16  C   UNL     1      10.588   5.972  21.552  1.00  0.00    -0.000 C 
BRANCH  16  17
ATOM     17  C   UNL     1      10.079   7.417  21.650  1.00  0.00    -0.000 C 
BRANCH  17  18
ATOM     18  C   UNL     1      11.156   8.450  21.276  1.00  0.00    -0.000 C 
BRANCH  18  19
ATOM     19  C   UNL     1      12.577   7.872  21.345  1.00  0.00    -0.003 C 
ATOM     20  C   UNL     1      13.555   8.724  20.539  1.00  0.00     0.004 C 
ENDBRANCH  18  19
ENDBRANCH  17  18
ENDBRANCH  16  17
ENDBRANCH  15  16
ENDBRANCH  14  15
ENDBRANCH  13  14
ENDBRANCH  12  13
ENDBRANCH   1  12
TORSDOF 16
ENDMDL
MODEL 4
REMARK VINA RESULT:    -4.992      3.500      6.646
REMARK INTER + INTRA:         -12.159
REMARK INTER:                  -9.667
REMARK INTRA:                  -2.493
REMARK UNBOUND:                -2.499
REMARK SMILES CCCCCCCCCCCCCCCCCC(=O)[O-]
REMARK SMILES IDX 10 1 11 2 12 3 13 4 14 5 15 6 16 7 17 8 18 9 19 10 20 11
REMARK SMILES IDX 9 12 8 13 7 14 6 15 5 16 4 17 3 18 2 19 1 20
REMARK H PARENT
REMARK Flexibility Score: inf
ROOT
ATOM      1  C   UNL     1      16.761  -4.733  35.962  1.00  0.00     0.000 C 
ENDROOT
BRANCH   1   2
ATOM      2  C   UNL     1      15.916  -5.020  34.712  1.00  0.00     0.000 C 
BRANCH   2   3
ATOM      3  C   UNL     1      16.645  -4.661  33.408  1.00  0.00     0.000 C 
BRANCH   3   4
ATOM      4  C   UNL     1      17.761  -3.621  33.615  1.00  0.00     0.000 C 
BRANCH   4   5
ATOM      5  C   UNL     1      19.120  -4.118  33.072  1.00  0.00     0.000 C 
BRANCH   5   6
ATOM      6  C   UNL     1      20.328  -3.533  33.827  1.00  0.00     0.000 C 
BRANCH   6   7
ATOM      7  C   UNL     1      19.988  -2.971  35.224  1.00  0.00     0.006 C 
BRANCH   7   8
ATOM      8  C   UNL     1      20.299  -1.474  35.380  1.00  0.00     0.053 C 
BRANCH   8   9
ATOM      9  C   UNL     1      19.093  -0.676  35.767  1.00  0.00     0.041 C 
ATOM     10  O   UNL     1      18.860   0.430  35.213  1.00  0.00    -0.550 OA
ATOM     11  O   UNL     1      18.228  -1.152  36.743  1.00  0.00    -0.550 OA
ENDBRANCH   8   9
ENDBRANCH   7   8
ENDBRANCH   6   7
ENDBRANCH   5   6
ENDBRANCH   4   5
ENDBRANCH   3   4
ENDBRANCH   2   3
ENDBRANCH   1   2
BRANCH   1  12
ATOM     12  C   UNL     1      17.355  -6.030  36.530  1.00  0.00     0.000 C 
BRANCH  12  13
ATOM     13  C   UNL     1      18.894  -6.014  36.578  1.00  0.00    -0.000 C 
BRANCH  13  14
ATOM     14  C   UNL     1      19.593  -6.853  35.488  1.00  0.00    -0.000 C 
BRANCH  14  15
ATOM     15  C   UNL     1      18.649  -7.533  34.480  1.00  0.00    -0.000 C 
BRANCH  15  16
ATOM     16  C   UNL     1      19.159  -7.450  33.034  1.00  0.00    -0.000 C 
BRANCH  16  17
ATOM     17  C   UNL     1      18.413  -8.446  32.133  1.00  0.00    -0.000 C 
BRANCH  17  18
ATOM     18  C   UNL     1      16.895  -8.442  32.375  1.00  0.00    -0.000 C 
BRANCH  18  19
ATOM     19  C   UNL     1      16.102  -8.934  31.156  1.00  0.00    -0.003 C 
ATOM     20  C   UNL     1      14.946  -9.837  31.582  1.00  0.00     0.004 C 
ENDBRANCH  18  19
ENDBRANCH  17  18
ENDBRANCH  16  17
ENDBRANCH  15  16
ENDBRANCH  14  15
ENDBRANCH  13  14
ENDBRANCH  12  13
ENDBRANCH   1  12
TORSDOF 16
ENDMDL
MODEL 5
REMARK VINA RESULT:    -4.745     18.464     19.924
REMARK INTER + INTRA:         -11.682
REMARK INTER:                  -9.446
REMARK INTRA:                  -2.235
REMARK UNBOUND:                -2.499
REMARK SMILES CCCCCCCCCCCCCCCCCC(=O)[O-]
REMARK SMILES IDX 10 1 11 2 12 3 13 4 14 5 15 6 16 7 17 8 18 9 19 10 20 11
REMARK SMILES IDX 9 12 8 13 7 14 6 15 5 16 4 17 3 18 2 19 1 20
REMARK H PARENT
REMARK Flexibility Score: inf
ROOT
ATOM      1  C   UNL     1       8.004   5.281  20.304  1.00  0.00     0.000 C 
ENDROOT
BRANCH   1   2
ATOM      2  C   UNL     1       9.369   5.055  20.971  1.00  0.00     0.000 C 
BRANCH   2   3
ATOM      3  C   UNL     1      10.084   3.799  20.448  1.00  0.00     0.000 C 
BRANCH   3   4
ATOM      4  C   UNL     1      11.485   4.101  19.889  1.00  0.00     0.000 C 
BRANCH   4   5
ATOM      5  C   UNL     1      11.590   3.767  18.383  1.00  0.00     0.000 C 
BRANCH   5   6
ATOM      6  C   UNL     1      10.277   3.226  17.787  1.00  0.00     0.000 C 
BRANCH   6   7
ATOM      7  C   UNL     1      10.381   1.790  17.230  1.00  0.00     0.006 C 
BRANCH   7   8
ATOM      8  C   UNL     1       9.040   1.040  17.201  1.00  0.00     0.053 C 
BRANCH   8   9
ATOM      9  C   UNL     1       8.336   1.074  18.521  1.00  0.00     0.041 C 
ATOM     10  O   UNL     1       8.744   0.363  19.477  1.00  0.00    -0.550 OA
ATOM     11  O   UNL     1       7.225   1.889  18.695  1.00  0.00    -0.550 OA
ENDBRANCH   8   9
ENDBRANCH   7   8
ENDBRANCH   6   7
ENDBRANCH   5   6
ENDBRANCH   4   5
ENDBRANCH   3   4
ENDBRANCH   2   3
ENDBRANCH   1   2
BRANCH   1  12
ATOM     12  C   UNL     1       8.135   5.267  18.774  1.00  0.00     0.000 C 
BRANCH  12  13
ATOM     13  C   UNL     1       8.463   6.652  18.188  1.00  0.00    -0.000 C 
BRANCH  13  14
ATOM     14  C   UNL     1       9.688   6.694  17.250  1.00  0.00    -0.000 C 
BRANCH  14  15
ATOM     15  C   UNL     1      10.725   7.784  17.577  1.00  0.00    -0.000 C 
BRANCH  15  16
ATOM     16  C   UNL     1      11.712   7.359  18.674  1.00  0.00    -0.000 C 
BRANCH  16  17
ATOM     17  C   UNL     1      11.250   7.863  20.050  1.00  0.00    -0.000 C 
BRANCH  17  18
ATOM     18  C   UNL     1      12.248   7.525  21.170  1.00  0.00    -0.000 C 
BRANCH  18  19
ATOM     19  C   UNL     1      13.322   8.609  21.349  1.00  0.00    -0.003 C 
ATOM     20  C   UNL     1      12.747   9.840  22.046  1.00  0.00     0.004 C 
ENDBRANCH  18  19
ENDBRANCH  17  18
ENDBRANCH  16  17
ENDBRANCH  15  16
ENDBRANCH  14  15
ENDBRANCH  13  14
ENDBRANCH  12  13
ENDBRANCH   1  12
TORSDOF 16
ENDMDL
MODEL 6
REMARK VINA RESULT:    -4.687      0.962      2.582
REMARK INTER + INTRA:         -11.570
REMARK INTER:                  -9.411
REMARK INTRA:                  -2.159
REMARK UNBOUND:                -2.499
REMARK SMILES CCCCCCCCCCCCCCCCCC(=O)[O-]
REMARK SMILES IDX 10 1 11 2 12 3 13 4 14 5 15 6 16 7 17 8 18 9 19 10 20 11
REMARK SMILES IDX 9 12 8 13 7 14 6 15 5 16 4 17 3 18 2 19 1 20
REMARK H PARENT
REMARK Flexibility Score: inf
ROOT
ATOM      1  C   UNL     1      17.420  -5.265  36.392  1.00  0.00     0.000 C 
ENDROOT
BRANCH   1   2
ATOM      2  C   UNL     1      18.027  -6.495  37.081  1.00  0.00     0.000 C 
BRANCH   2   3
ATOM      3  C   UNL     1      19.551  -6.583  36.904  1.00  0.00     0.000 C 
BRANCH   3   4
ATOM      4  C   UNL     1      19.978  -6.617  35.426  1.00  0.00     0.000 C 
BRANCH   4   5
ATOM      5  C   UNL     1      19.237  -7.719  34.636  1.00  0.00     0.000 C 
BRANCH   5   6
ATOM      6  C   UNL     1      18.879  -7.302  33.198  1.00  0.00     0.000 C 
BRANCH   6   7
ATOM      7  C   UNL     1      18.037  -8.343  32.428  1.00  0.00     0.006 C 
BRANCH   7   8
ATOM      8  C   UNL     1      16.522  -8.174  32.617  1.00  0.00     0.053 C 
BRANCH   8   9
ATOM      9  C   UNL     1      15.729  -8.985  31.641  1.00  0.00     0.041 C 
ATOM     10  O   UNL     1      14.777  -9.705  32.041  1.00  0.00    -0.550 OA
ATOM     11  O   UNL     1      16.044  -8.949  30.289  1.00  0.00    -0.550 OA
ENDBRANCH   8   9
ENDBRANCH   7   8
ENDBRANCH   6   7
ENDBRANCH   5   6
ENDBRANCH   4   5
ENDBRANCH   3   4
ENDBRANCH   2   3
ENDBRANCH   1   2
BRANCH   1  12
ATOM     12  C   UNL     1      16.210  -5.660  35.534  1.00  0.00     0.000 C 
BRANCH  12  13
ATOM     13  C   UNL     1      15.827  -4.580  34.505  1.00  0.00    -0.000 C 
BRANCH  13  14
ATOM     14  C   UNL     1      16.802  -4.431  33.318  1.00  0.00    -0.000 C 
BRANCH  14  15
ATOM     15  C   UNL     1      17.742  -3.215  33.392  1.00  0.00    -0.000 C 
BRANCH  15  16
ATOM     16  C   UNL     1      19.218  -3.609  33.549  1.00  0.00    -0.000 C 
BRANCH  16  17
ATOM     17  C   UNL     1      19.744  -3.217  34.937  1.00  0.00    -0.000 C 
BRANCH  17  18
ATOM     18  C   UNL     1      20.173  -1.742  35.013  1.00  0.00    -0.000 C 
BRANCH  18  19
ATOM     19  C   UNL     1      19.318  -0.929  35.997  1.00  0.00    -0.003 C 
ATOM     20  C   UNL     1      20.177   0.060  36.782  1.00  0.00     0.004 C 
ENDBRANCH  18  19
ENDBRANCH  17  18
ENDBRANCH  16  17
ENDBRANCH  15  16
ENDBRANCH  14  15
ENDBRANCH  13  14
ENDBRANCH  12  13
ENDBRANCH   1  12
TORSDOF 16
ENDMDL
MODEL 7
REMARK VINA RESULT:    -4.626     18.925     20.845
REMARK INTER + INTRA:         -11.452
REMARK INTER:                  -9.073
REMARK INTRA:                  -2.379
REMARK UNBOUND:                -2.499
REMARK SMILES CCCCCCCCCCCCCCCCCC(=O)[O-]
REMARK SMILES IDX 10 1 11 2 12 3 13 4 14 5 15 6 16 7 17 8 18 9 19 10 20 11
REMARK SMILES IDX 9 12 8 13 7 14 6 15 5 16 4 17 3 18 2 19 1 20
REMARK H PARENT
REMARK Flexibility Score: inf
ROOT
ATOM      1  C   UNL     1      10.496   8.252  21.460  1.00  0.00     0.000 C 
ENDROOT
BRANCH   1   2
ATOM      2  C   UNL     1      11.918   8.500  21.981  1.00  0.00     0.000 C 
BRANCH   2   3
ATOM      3  C   UNL     1      12.794   9.262  20.974  1.00  0.00     0.000 C 
BRANCH   3   4
ATOM      4  C   UNL     1      13.636   8.326  20.089  1.00  0.00     0.000 C 
BRANCH   4   5
ATOM      5  C   UNL     1      12.973   8.083  18.713  1.00  0.00     0.000 C 
BRANCH   5   6
ATOM      6  C   UNL     1      12.421   6.655  18.547  1.00  0.00     0.000 C 
BRANCH   6   7
ATOM      7  C   UNL     1      11.109   6.574  17.738  1.00  0.00     0.006 C 
BRANCH   7   8
ATOM      8  C   UNL     1      10.325   7.896  17.698  1.00  0.00     0.053 C 
BRANCH   8   9
ATOM      9  C   UNL     1       8.862   7.687  17.467  1.00  0.00     0.041 C 
ATOM     10  O   UNL     1       8.116   8.665  17.199  1.00  0.00    -0.550 OA
ATOM     11  O   UNL     1       8.319   6.412  17.554  1.00  0.00    -0.550 OA
ENDBRANCH   8   9
ENDBRANCH   7   8
ENDBRANCH   6   7
ENDBRANCH   5   6
ENDBRANCH   4   5
ENDBRANCH   3   4
ENDBRANCH   2   3
ENDBRANCH   1   2
BRANCH   1  12
ATOM     12  C   UNL     1      10.208   6.748  21.351  1.00  0.00     0.000 C 
BRANCH  12  13
ATOM     13  C   UNL     1      11.420   5.877  21.728  1.00  0.00    -0.000 C 
BRANCH  13  14
ATOM     14  C   UNL     1      11.333   4.403  21.280  1.00  0.00    -0.000 C 
BRANCH  14  15
ATOM     15  C   UNL     1      10.257   4.103  20.221  1.00  0.00    -0.000 C 
BRANCH  15  16
ATOM     16  C   UNL     1      10.754   3.162  19.113  1.00  0.00    -0.000 C 
BRANCH  16  17
ATOM     17  C   UNL     1       9.658   2.926  18.064  1.00  0.00    -0.000 C 
BRANCH  17  18
ATOM     18  C   UNL     1       8.345   2.418  18.682  1.00  0.00    -0.000 C 
BRANCH  18  19
ATOM     19  C   UNL     1       8.257   0.885  18.701  1.00  0.00    -0.003 C 
ATOM     20  C   UNL     1       8.634   0.297  17.343  1.00  0.00     0.004 C 
ENDBRANCH  18  19
ENDBRANCH  17  18
ENDBRANCH  16  17
ENDBRANCH  15  16
ENDBRANCH  14  15
ENDBRANCH  13  14
ENDBRANCH  12  13
ENDBRANCH   1  12
TORSDOF 16
ENDMDL
MODEL 8
REMARK VINA RESULT:    -4.619     18.848     20.653
REMARK INTER + INTRA:         -11.437
REMARK INTER:                  -8.984
REMARK INTRA:                  -2.453
REMARK UNBOUND:                -2.499
REMARK SMILES CCCCCCCCCCCCCCCCCC(=O)[O-]
REMARK SMILES IDX 10 1 11 2 12 3 13 4 14 5 15 6 16 7 17 8 18 9 19 10 20 11
REMARK SMILES IDX 9 12 8 13 7 14 6 15 5 16 4 17 3 18 2 19 1 20
REMARK H PARENT
REMARK Flexibility Score: inf
ROOT
ATOM      1  C   UNL     1       7.875   4.568  19.037  1.00  0.00     0.000 C 
ENDROOT
BRANCH   1   2
ATOM      2  C   UNL     1       8.362   5.292  17.774  1.00  0.00     0.000 C 
BRANCH   2   3
ATOM      3  C   UNL     1       8.690   6.772  18.028  1.00  0.00     0.000 C 
BRANCH   3   4
ATOM      4  C   UNL     1       9.802   7.302  17.106  1.00  0.00     0.000 C 
BRANCH   4   5
ATOM      5  C   UNL     1      11.209   6.940  17.633  1.00  0.00     0.000 C 
BRANCH   5   6
ATOM      6  C   UNL     1      11.958   8.138  18.244  1.00  0.00     0.000 C 
BRANCH   6   7
ATOM      7  C   UNL     1      13.133   7.747  19.166  1.00  0.00     0.006 C 
BRANCH   7   8
ATOM      8  C   UNL     1      13.794   8.944  19.867  1.00  0.00     0.053 C 
BRANCH   8   9
ATOM      9  C   UNL     1      13.420   9.041  21.312  1.00  0.00     0.041 C 
ATOM     10  O   UNL     1      13.866   8.203  22.140  1.00  0.00    -0.550 OA
ATOM     11  O   UNL     1      12.574  10.053  21.745  1.00  0.00    -0.550 OA
ENDBRANCH   8   9
ENDBRANCH   7   8
ENDBRANCH   6   7
ENDBRANCH   5   6
ENDBRANCH   4   5
ENDBRANCH   3   4
ENDBRANCH   2   3
ENDBRANCH   1   2
BRANCH   1  12
ATOM     12  C   UNL     1       7.609   3.083  18.748  1.00  0.00     0.000 C 
BRANCH  12  13
ATOM     13  C   UNL     1       8.888   2.305  18.387  1.00  0.00    -0.000 C 
BRANCH  13  14
ATOM     14  C   UNL     1      10.108   2.596  19.286  1.00  0.00    -0.000 C 
BRANCH  14  15
ATOM     15  C   UNL     1      11.215   3.442  18.632  1.00  0.00    -0.000 C 
BRANCH  15  16
ATOM     16  C   UNL     1      11.912   4.385  19.623  1.00  0.00    -0.000 C 
BRANCH  16  17
ATOM     17  C   UNL     1      11.051   4.593  20.878  1.00  0.00    -0.000 C 
BRANCH  17  18
ATOM     18  C   UNL     1      11.380   5.903  21.613  1.00  0.00    -0.000 C 
BRANCH  18  19
ATOM     19  C   UNL     1      10.319   6.989  21.385  1.00  0.00    -0.003 C 
ATOM     20  C   UNL     1       8.913   6.439  21.612  1.00  0.00     0.004 C 
ENDBRANCH  18  19
ENDBRANCH  17  18
ENDBRANCH  16  17
ENDBRANCH  15  16
ENDBRANCH  14  15
ENDBRANCH  13  14
ENDBRANCH  12  13
ENDBRANCH   1  12
TORSDOF 16
ENDMDL
MODEL 9
REMARK VINA RESULT:    -4.618     18.755     20.857
REMARK INTER + INTRA:         -11.437
REMARK INTER:                  -9.222
REMARK INTRA:                  -2.215
REMARK UNBOUND:                -2.499
REMARK SMILES CCCCCCCCCCCCCCCCCC(=O)[O-]
REMARK SMILES IDX 10 1 11 2 12 3 13 4 14 5 15 6 16 7 17 8 18 9 19 10 20 11
REMARK SMILES IDX 9 12 8 13 7 14 6 15 5 16 4 17 3 18 2 19 1 20
REMARK H PARENT
REMARK Flexibility Score: inf
ROOT
ATOM      1  C   UNL     1       8.046   5.672  20.206  1.00  0.00     0.000 C 
ENDROOT
BRANCH   1   2
ATOM      2  C   UNL     1       8.005   5.200  18.745  1.00  0.00     0.000 C 
BRANCH   2   3
ATOM      3  C   UNL     1       8.403   6.304  17.754  1.00  0.00     0.000 C 
BRANCH   3   4
ATOM      4  C   UNL     1       9.864   6.185  17.284  1.00  0.00     0.000 C 
BRANCH   4   5
ATOM      5  C   UNL     1      10.594   7.547  17.322  1.00  0.00     0.000 C 
BRANCH   5   6
ATOM      6  C   UNL     1      11.220   7.865  18.692  1.00  0.00     0.000 C 
BRANCH   6   7
ATOM      7  C   UNL     1      12.705   7.465  18.818  1.00  0.00     0.006 C 
BRANCH   7   8
ATOM      8  C   UNL     1      13.559   8.491  19.579  1.00  0.00     0.053 C 
BRANCH   8   9
ATOM      9  C   UNL     1      13.154   8.622  21.014  1.00  0.00     0.041 C 
ATOM     10  O   UNL     1      13.081   9.759  21.551  1.00  0.00    -0.550 OA
ATOM     11  O   UNL     1      12.860   7.488  21.759  1.00  0.00    -0.550 OA
ENDBRANCH   8   9
ENDBRANCH   7   8
ENDBRANCH   6   7
ENDBRANCH   5   6
ENDBRANCH   4   5
ENDBRANCH   3   4
ENDBRANCH   2   3
ENDBRANCH   1   2
BRANCH   1  12
ATOM     12  C   UNL     1       9.012   4.810  21.032  1.00  0.00     0.000 C 
BRANCH  12  13
ATOM     13  C   UNL     1      10.456   5.344  21.014  1.00  0.00    -0.000 C 
BRANCH  13  14
ATOM     14  C   UNL     1      11.463   4.487  20.217  1.00  0.00    -0.000 C 
BRANCH  14  15
ATOM     15  C   UNL     1      10.901   3.165  19.663  1.00  0.00    -0.000 C 
BRANCH  15  16
ATOM     16  C   UNL     1      10.986   3.075  18.132  1.00  0.00    -0.000 C 
BRANCH  16  17
ATOM     17  C   UNL     1       9.800   2.282  17.564  1.00  0.00    -0.000 C 
BRANCH  17  18
ATOM     18  C   UNL     1       8.641   2.151  18.566  1.00  0.00    -0.000 C 
BRANCH  18  19
ATOM     19  C   UNL     1       8.019   0.747  18.569  1.00  0.00    -0.003 C 
ATOM     20  C   UNL     1       8.606  -0.115  17.453  1.00  0.00     0.004 C 
ENDBRANCH  18  19
ENDBRANCH  17  18
ENDBRANCH  16  17
ENDBRANCH  15  16
ENDBRANCH  14  15
ENDBRANCH  13  14
ENDBRANCH  12  13
ENDBRANCH   1  12
TORSDOF 16
ENDMDL
