MODEL 1
REMARK VINA RESULT:    -4.474      0.000      0.000
REMARK INTER + INTRA:         -12.367
REMARK INTER:                  -9.706
REMARK INTRA:                  -2.662
REMARK UNBOUND:                -2.662
REMARK SMILES CCCCCCCCCCCCCCCCCCCCCC(=O)[O-]
REMARK SMILES IDX 12 1 11 2 10 3 9 4 8 5 7 6 6 7 5 8 4 9 3 10 2 11 1 12 13 13
REMARK SMILES IDX 14 14 15 15 16 16 17 17 18 18 19 19 20 20 21 21 22 22 23 23
REMARK SMILES IDX 24 24
REMARK H PARENT
REMARK Flexibility Score: inf
ROOT
ATOM      1  C   UNL     1     -23.941 -11.938   4.847  1.00  0.00     0.000 C 
ENDROOT
BRANCH   1   2
ATOM      2  C   UNL     1     -22.948 -11.282   3.875  1.00  0.00     0.000 C 
BRANCH   2   3
ATOM      3  C   UNL     1     -22.225 -10.075   4.492  1.00  0.00     0.000 C 
BRANCH   3   4
ATOM      4  C   UNL     1     -23.072  -9.351   5.548  1.00  0.00    -0.000 C 
BRANCH   4   5
ATOM      5  C   UNL     1     -22.227  -8.989   6.776  1.00  0.00    -0.000 C 
BRANCH   5   6
ATOM      6  C   UNL     1     -22.665  -9.803   8.004  1.00  0.00    -0.000 C 
BRANCH   6   7
ATOM      7  C   UNL     1     -24.127 -10.270   7.915  1.00  0.00    -0.000 C 
BRANCH   7   8
ATOM      8  C   UNL     1     -25.057  -9.478   8.846  1.00  0.00    -0.000 C 
BRANCH   8   9
ATOM      9  C   UNL     1     -25.590  -8.221   8.146  1.00  0.00    -0.000 C 
BRANCH   9  10
ATOM     10  C   UNL     1     -25.874  -7.105   9.158  1.00  0.00    -0.000 C 
BRANCH  10  11
ATOM     11  C   UNL     1     -25.100  -5.830   8.803  1.00  0.00    -0.003 C 
ATOM     12  C   UNL     1     -23.631  -6.136   8.526  1.00  0.00     0.004 C 
ENDBRANCH  10  11
ENDBRANCH   9  10
ENDBRANCH   8   9
ENDBRANCH   7   8
ENDBRANCH   6   7
ENDBRANCH   5   6
ENDBRANCH   4   5
ENDBRANCH   3   4
ENDBRANCH   2   3
ENDBRANCH   1   2
BRANCH   1  13
ATOM     13  C   UNL     1     -25.339 -12.038   4.218  1.00  0.00     0.000 C 
BRANCH  13  14
ATOM     14  C   UNL     1     -25.821 -13.490   4.061  1.00  0.00     0.000 C 
BRANCH  14  15
ATOM     15  C   UNL     1     -24.784 -14.567   4.440  1.00  0.00     0.000 C 
BRANCH  15  16
ATOM     16  C   UNL     1     -25.266 -15.546   5.531  1.00  0.00     0.000 C 
BRANCH  16  17
ATOM     17  C   UNL     1     -25.625 -14.832   6.844  1.00  0.00     0.000 C 
BRANCH  17  18
ATOM     18  C   UNL     1     -24.446 -14.861   7.829  1.00  0.00     0.000 C 
BRANCH  18  19
ATOM     19  C   UNL     1     -24.538 -13.758   8.895  1.00  0.00     0.000 C 
BRANCH  19  20
ATOM     20  C   UNL     1     -23.790 -14.120  10.190  1.00  0.00     0.006 C 
BRANCH  20  21
ATOM     21  C   UNL     1     -22.328 -13.655  10.162  1.00  0.00     0.053 C 
BRANCH  21  22
ATOM     22  C   UNL     1     -22.169 -12.277  10.730  1.00  0.00     0.041 C 
ATOM     23  O   UNL     1     -23.185 -11.591  11.020  1.00  0.00    -0.550 OA
ATOM     24  O   UNL     1     -20.901 -11.765  10.971  1.00  0.00    -0.550 OA
ENDBRANCH  21  22
ENDBRANCH  20  21
ENDBRANCH  19  20
ENDBRANCH  18  19
ENDBRANCH  17  18
ENDBRANCH  16  17
ENDBRANCH  15  16
ENDBRANCH  14  15
ENDBRANCH  13  14
ENDBRANCH   1  13
TORSDOF 20
ENDMDL
MODEL 2
REMARK VINA RESULT:    -4.312      2.159      5.920
REMARK INTER + INTRA:         -12.015
REMARK INTER:                  -9.504
REMARK INTRA:                  -2.511
REMARK UNBOUND:                -2.662
REMARK SMILES CCCCCCCCCCCCCCCCCCCCCC(=O)[O-]
REMARK SMILES IDX 12 1 11 2 10 3 9 4 8 5 7 6 6 7 5 8 4 9 3 10 2 11 1 12 13 13
REMARK SMILES IDX 14 14 15 15 16 16 17 17 18 18 19 19 20 20 21 21 22 22 23 23
REMARK SMILES IDX 24 24
REMARK H PARENT
REMARK Flexibility Score: inf
ROOT
ATOM      1  C   UNL     1     -23.872 -11.614   4.681  1.00  0.00     0.000 C 
ENDROOT
BRANCH   1   2
ATOM      2  C   UNL     1     -23.907 -12.952   3.928  1.00  0.00     0.000 C 
BRANCH   2   3
ATOM      3  C   UNL     1     -25.188 -13.754   4.205  1.00  0.00     0.000 C 
BRANCH   3   4
ATOM      4  C   UNL     1     -24.944 -15.270   4.237  1.00  0.00    -0.000 C 
BRANCH   4   5
ATOM      5  C   UNL     1     -25.004 -15.806   5.673  1.00  0.00    -0.000 C 
BRANCH   5   6
ATOM      6  C   UNL     1     -25.676 -14.792   6.611  1.00  0.00    -0.000 C 
BRANCH   6   7
ATOM      7  C   UNL     1     -25.036 -14.763   8.009  1.00  0.00    -0.000 C 
BRANCH   7   8
ATOM      8  C   UNL     1     -24.252 -13.469   8.271  1.00  0.00    -0.000 C 
BRANCH   8   9
ATOM      9  C   UNL     1     -24.476 -12.976   9.707  1.00  0.00    -0.000 C 
BRANCH   9  10
ATOM     10  C   UNL     1     -23.444 -13.582  10.666  1.00  0.00    -0.000 C 
BRANCH  10  11
ATOM     11  C   UNL     1     -22.042 -13.028  10.387  1.00  0.00    -0.003 C 
ATOM     12  C   UNL     1     -21.892 -11.609  10.927  1.00  0.00     0.004 C 
ENDBRANCH  10  11
ENDBRANCH   9  10
ENDBRANCH   8   9
ENDBRANCH   7   8
ENDBRANCH   6   7
ENDBRANCH   5   6
ENDBRANCH   4   5
ENDBRANCH   3   4
ENDBRANCH   2   3
ENDBRANCH   1   2
BRANCH   1  13
ATOM     13  C   UNL     1     -23.070 -10.564   3.896  1.00  0.00     0.000 C 
BRANCH  13  14
ATOM     14  C   UNL     1     -21.860 -10.027   4.680  1.00  0.00     0.000 C 
BRANCH  14  15
ATOM     15  C   UNL     1     -22.116  -8.723   5.462  1.00  0.00     0.000 C 
BRANCH  15  16
ATOM     16  C   UNL     1     -21.381  -8.649   6.818  1.00  0.00     0.000 C 
BRANCH  16  17
ATOM     17  C   UNL     1     -22.349  -8.669   8.012  1.00  0.00     0.000 C 
BRANCH  17  18
ATOM     18  C   UNL     1     -23.241  -9.919   7.979  1.00  0.00     0.000 C 
BRANCH  18  19
ATOM     19  C   UNL     1     -24.696  -9.598   7.602  1.00  0.00     0.000 C 
BRANCH  19  20
ATOM     20  C   UNL     1     -25.475  -8.933   8.751  1.00  0.00     0.006 C 
BRANCH  20  21
ATOM     21  C   UNL     1     -26.144  -7.624   8.313  1.00  0.00     0.053 C 
BRANCH  21  22
ATOM     22  C   UNL     1     -25.542  -6.434   8.996  1.00  0.00     0.041 C 
ATOM     23  O   UNL     1     -25.958  -6.077  10.130  1.00  0.00    -0.550 OA
ATOM     24  O   UNL     1     -24.502  -5.737   8.394  1.00  0.00    -0.550 OA
ENDBRANCH  21  22
ENDBRANCH  20  21
ENDBRANCH  19  20
ENDBRANCH  18  19
ENDBRANCH  17  18
ENDBRANCH  16  17
ENDBRANCH  15  16
ENDBRANCH  14  15
ENDBRANCH  13  14
ENDBRANCH   1  13
TORSDOF 20
ENDMDL
MODEL 3
REMARK VINA RESULT:    -3.805      1.963      6.685
REMARK INTER + INTRA:         -10.915
REMARK INTER:                  -8.538
REMARK INTRA:                  -2.376
REMARK UNBOUND:                -2.662
REMARK SMILES CCCCCCCCCCCCCCCCCCCCCC(=O)[O-]
REMARK SMILES IDX 12 1 11 2 10 3 9 4 8 5 7 6 6 7 5 8 4 9 3 10 2 11 1 12 13 13
REMARK SMILES IDX 14 14 15 15 16 16 17 17 18 18 19 19 20 20 21 21 22 22 23 23
REMARK SMILES IDX 24 24
REMARK H PARENT
REMARK Flexibility Score: inf
ROOT
ATOM      1  C   UNL     1     -23.134 -11.747  10.659  1.00  0.00     0.000 C 
ENDROOT
BRANCH   1   2
ATOM      2  C   UNL     1     -21.892 -12.642  10.779  1.00  0.00     0.000 C 
BRANCH   2   3
ATOM      3  C   UNL     1     -22.210 -14.130  10.567  1.00  0.00     0.000 C 
BRANCH   3   4
ATOM      4  C   UNL     1     -23.691 -14.380  10.245  1.00  0.00    -0.000 C 
BRANCH   4   5
ATOM      5  C   UNL     1     -23.844 -15.174   8.942  1.00  0.00    -0.000 C 
BRANCH   5   6
ATOM      6  C   UNL     1     -24.466 -14.305   7.838  1.00  0.00    -0.000 C 
BRANCH   6   7
ATOM      7  C   UNL     1     -25.819 -14.848   7.349  1.00  0.00    -0.000 C 
BRANCH   7   8
ATOM      8  C   UNL     1     -25.717 -15.547   5.986  1.00  0.00    -0.000 C 
BRANCH   8   9
ATOM      9  C   UNL     1     -24.863 -14.725   5.012  1.00  0.00    -0.000 C 
BRANCH   9  10
ATOM     10  C   UNL     1     -25.733 -13.770   4.186  1.00  0.00    -0.000 C 
BRANCH  10  11
ATOM     11  C   UNL     1     -24.995 -12.456   3.906  1.00  0.00    -0.003 C 
ATOM     12  C   UNL     1     -23.484 -12.668   3.875  1.00  0.00     0.004 C 
ENDBRANCH  10  11
ENDBRANCH   9  10
ENDBRANCH   8   9
ENDBRANCH   7   8
ENDBRANCH   6   7
ENDBRANCH   5   6
ENDBRANCH   4   5
ENDBRANCH   3   4
ENDBRANCH   2   3
ENDBRANCH   1   2
BRANCH   1  13
ATOM     13  C   UNL     1     -23.035 -10.833   9.428  1.00  0.00     0.000 C 
BRANCH  13  14
ATOM     14  C   UNL     1     -24.358 -10.734   8.649  1.00  0.00     0.000 C 
BRANCH  14  15
ATOM     15  C   UNL     1     -24.248 -11.020   7.137  1.00  0.00     0.000 C 
BRANCH  15  16
ATOM     16  C   UNL     1     -24.209  -9.751   6.260  1.00  0.00     0.000 C 
BRANCH  16  17
ATOM     17  C   UNL     1     -22.852  -9.559   5.564  1.00  0.00     0.000 C 
BRANCH  17  18
ATOM     18  C   UNL     1     -21.902  -8.715   6.429  1.00  0.00     0.000 C 
BRANCH  18  19
ATOM     19  C   UNL     1     -22.549  -7.410   6.918  1.00  0.00     0.000 C 
BRANCH  19  20
ATOM     20  C   UNL     1     -23.052  -7.504   8.369  1.00  0.00     0.006 C 
BRANCH  20  21
ATOM     21  C   UNL     1     -23.892  -6.284   8.770  1.00  0.00     0.053 C 
BRANCH  21  22
ATOM     22  C   UNL     1     -25.345  -6.626   8.903  1.00  0.00     0.041 C 
ATOM     23  O   UNL     1     -26.194  -5.716   9.092  1.00  0.00    -0.550 OA
ATOM     24  O   UNL     1     -25.764  -7.945   8.786  1.00  0.00    -0.550 OA
ENDBRANCH  21  22
ENDBRANCH  20  21
ENDBRANCH  19  20
ENDBRANCH  18  19
ENDBRANCH  17  18
ENDBRANCH  16  17
ENDBRANCH  15  16
ENDBRANCH  14  15
ENDBRANCH  13  14
ENDBRANCH   1  13
TORSDOF 20
ENDMDL
MODEL 4
REMARK VINA RESULT:    -3.722      2.457      4.837
REMARK INTER + INTRA:         -10.735
REMARK INTER:                  -8.574
REMARK INTRA:                  -2.160
REMARK UNBOUND:                -2.662
REMARK SMILES CCCCCCCCCCCCCCCCCCCCCC(=O)[O-]
REMARK SMILES IDX 12 1 11 2 10 3 9 4 8 5 7 6 6 7 5 8 4 9 3 10 2 11 1 12 13 13
REMARK SMILES IDX 14 14 15 15 16 16 17 17 18 18 19 19 20 20 21 21 22 22 23 23
REMARK SMILES IDX 24 24
REMARK H PARENT
REMARK Flexibility Score: inf
ROOT
ATOM      1  C   UNL     1     -20.023 -10.450   9.495  1.00  0.00     0.000 C 
ENDROOT
BRANCH   1   2
ATOM      2  C   UNL     1     -21.237 -10.015   8.660  1.00  0.00     0.000 C 
BRANCH   2   3
ATOM      3  C   UNL     1     -20.904  -8.883   7.676  1.00  0.00     0.000 C 
BRANCH   3   4
ATOM      4  C   UNL     1     -22.121  -8.435   6.852  1.00  0.00    -0.000 C 
BRANCH   4   5
ATOM      5  C   UNL     1     -22.149  -9.137   5.489  1.00  0.00    -0.000 C 
BRANCH   5   6
ATOM      6  C   UNL     1     -23.230 -10.229   5.455  1.00  0.00    -0.000 C 
BRANCH   6   7
ATOM      7  C   UNL     1     -24.447  -9.885   6.329  1.00  0.00    -0.000 C 
BRANCH   7   8
ATOM      8  C   UNL     1     -24.374 -10.526   7.722  1.00  0.00    -0.000 C 
BRANCH   8   9
ATOM      9  C   UNL     1     -24.830  -9.539   8.804  1.00  0.00    -0.000 C 
BRANCH   9  10
ATOM     10  C   UNL     1     -25.633  -8.384   8.193  1.00  0.00    -0.000 C 
BRANCH  10  11
ATOM     11  C   UNL     1     -25.530  -7.123   9.059  1.00  0.00    -0.003 C 
ATOM     12  C   UNL     1     -24.292  -6.306   8.698  1.00  0.00     0.004 C 
ENDBRANCH  10  11
ENDBRANCH   9  10
ENDBRANCH   8   9
ENDBRANCH   7   8
ENDBRANCH   6   7
ENDBRANCH   5   6
ENDBRANCH   4   5
ENDBRANCH   3   4
ENDBRANCH   2   3
ENDBRANCH   1   2
BRANCH   1  13
ATOM     13  C   UNL     1     -20.468 -11.189  10.766  1.00  0.00     0.000 C 
BRANCH  13  14
ATOM     14  C   UNL     1     -21.433 -12.351  10.475  1.00  0.00     0.000 C 
BRANCH  14  15
ATOM     15  C   UNL     1     -22.903 -12.094  10.865  1.00  0.00     0.000 C 
BRANCH  15  16
ATOM     16  C   UNL     1     -23.850 -13.274  10.558  1.00  0.00     0.000 C 
BRANCH  16  17
ATOM     17  C   UNL     1     -23.232 -14.282   9.577  1.00  0.00     0.000 C 
BRANCH  17  18
ATOM     18  C   UNL     1     -24.321 -15.013   8.777  1.00  0.00     0.000 C 
BRANCH  18  19
ATOM     19  C   UNL     1     -24.745 -14.245   7.516  1.00  0.00     0.000 C 
BRANCH  19  20
ATOM     20  C   UNL     1     -25.668 -15.069   6.600  1.00  0.00     0.006 C 
BRANCH  20  21
ATOM     21  C   UNL     1     -25.047 -15.308   5.218  1.00  0.00     0.053 C 
BRANCH  21  22
ATOM     22  C   UNL     1     -25.092 -14.076   4.365  1.00  0.00     0.041 C 
ATOM     23  O   UNL     1     -26.199 -13.590   4.013  1.00  0.00    -0.550 OA
ATOM     24  O   UNL     1     -23.912 -13.447   3.987  1.00  0.00    -0.550 OA
ENDBRANCH  21  22
ENDBRANCH  20  21
ENDBRANCH  19  20
ENDBRANCH  18  19
ENDBRANCH  17  18
ENDBRANCH  16  17
ENDBRANCH  15  16
ENDBRANCH  14  15
ENDBRANCH  13  14
ENDBRANCH   1  13
TORSDOF 20
ENDMDL
MODEL 5
REMARK VINA RESULT:    -3.691      2.116      6.186
REMARK INTER + INTRA:         -10.669
REMARK INTER:                  -8.777
REMARK INTRA:                  -1.892
REMARK UNBOUND:                -2.662
REMARK SMILES CCCCCCCCCCCCCCCCCCCCCC(=O)[O-]
REMARK SMILES IDX 12 1 11 2 10 3 9 4 8 5 7 6 6 7 5 8 4 9 3 10 2 11 1 12 13 13
REMARK SMILES IDX 14 14 15 15 16 16 17 17 18 18 19 19 20 20 21 21 22 22 23 23
REMARK SMILES IDX 24 24
REMARK H PARENT
REMARK Flexibility Score: inf
ROOT
ATOM      1  C   UNL     1     -19.935 -10.330   9.229  1.00  0.00     0.000 C 
ENDROOT
BRANCH   1   2
ATOM      2  C   UNL     1     -21.327 -10.022   8.658  1.00  0.00     0.000 C 
BRANCH   2   3
ATOM      3  C   UNL     1     -21.313  -8.854   7.660  1.00  0.00     0.000 C 
BRANCH   3   4
ATOM      4  C   UNL     1     -22.355  -9.015   6.543  1.00  0.00    -0.000 C 
BRANCH   4   5
ATOM      5  C   UNL     1     -21.686  -9.011   5.163  1.00  0.00    -0.000 C 
BRANCH   5   6
ATOM      6  C   UNL     1     -22.050 -10.277   4.372  1.00  0.00    -0.000 C 
BRANCH   6   7
ATOM      7  C   UNL     1     -23.514 -10.700   4.571  1.00  0.00    -0.000 C 
BRANCH   7   8
ATOM      8  C   UNL     1     -23.806 -12.099   4.010  1.00  0.00    -0.000 C 
BRANCH   8   9
ATOM      9  C   UNL     1     -24.670 -12.910   4.985  1.00  0.00    -0.000 C 
BRANCH   9  10
ATOM     10  C   UNL     1     -25.226 -14.170   4.312  1.00  0.00    -0.000 C 
BRANCH  10  11
ATOM     11  C   UNL     1     -25.305 -15.335   5.305  1.00  0.00    -0.003 C 
ATOM     12  C   UNL     1     -24.753 -16.620   4.693  1.00  0.00     0.004 C 
ENDBRANCH  10  11
ENDBRANCH   9  10
ENDBRANCH   8   9
ENDBRANCH   7   8
ENDBRANCH   6   7
ENDBRANCH   5   6
ENDBRANCH   4   5
ENDBRANCH   3   4
ENDBRANCH   2   3
ENDBRANCH   1   2
BRANCH   1  13
ATOM     13  C   UNL     1     -20.042 -11.157  10.520  1.00  0.00     0.000 C 
BRANCH  13  14
ATOM     14  C   UNL     1     -21.498 -11.399  10.954  1.00  0.00     0.000 C 
BRANCH  14  15
ATOM     15  C   UNL     1     -22.087 -12.761  10.533  1.00  0.00     0.000 C 
BRANCH  15  16
ATOM     16  C   UNL     1     -23.629 -12.813  10.559  1.00  0.00     0.000 C 
BRANCH  16  17
ATOM     17  C   UNL     1     -24.230 -13.116   9.177  1.00  0.00     0.000 C 
BRANCH  17  18
ATOM     18  C   UNL     1     -24.238 -11.862   8.290  1.00  0.00     0.000 C 
BRANCH  18  19
ATOM     19  C   UNL     1     -24.659 -10.598   9.055  1.00  0.00     0.000 C 
BRANCH  19  20
ATOM     20  C   UNL     1     -24.938  -9.405   8.124  1.00  0.00     0.006 C 
BRANCH  20  21
ATOM     21  C   UNL     1     -25.912  -8.399   8.749  1.00  0.00     0.053 C 
BRANCH  21  22
ATOM     22  C   UNL     1     -25.310  -7.031   8.858  1.00  0.00     0.041 C 
ATOM     23  O   UNL     1     -26.048  -6.026   9.031  1.00  0.00    -0.550 OA
ATOM     24  O   UNL     1     -23.931  -6.871   8.800  1.00  0.00    -0.550 OA
ENDBRANCH  21  22
ENDBRANCH  20  21
ENDBRANCH  19  20
ENDBRANCH  18  19
ENDBRANCH  17  18
ENDBRANCH  16  17
ENDBRANCH  15  16
ENDBRANCH  14  15
ENDBRANCH  13  14
ENDBRANCH   1  13
TORSDOF 20
ENDMDL
MODEL 6
REMARK VINA RESULT:    -3.671      2.334      6.640
REMARK INTER + INTRA:         -10.624
REMARK INTER:                  -8.352
REMARK INTRA:                  -2.271
REMARK UNBOUND:                -2.662
REMARK SMILES CCCCCCCCCCCCCCCCCCCCCC(=O)[O-]
REMARK SMILES IDX 12 1 11 2 10 3 9 4 8 5 7 6 6 7 5 8 4 9 3 10 2 11 1 12 13 13
REMARK SMILES IDX 14 14 15 15 16 16 17 17 18 18 19 19 20 20 21 21 22 22 23 23
REMARK SMILES IDX 24 24
REMARK H PARENT
REMARK Flexibility Score: inf
ROOT
ATOM      1  C   UNL     1     -24.267 -11.198   9.299  1.00  0.00     0.000 C 
ENDROOT
BRANCH   1   2
ATOM      2  C   UNL     1     -22.758 -11.148   9.587  1.00  0.00     0.000 C 
BRANCH   2   3
ATOM      3  C   UNL     1     -22.295 -12.278  10.518  1.00  0.00     0.000 C 
BRANCH   3   4
ATOM      4  C   UNL     1     -23.464 -13.102  11.079  1.00  0.00    -0.000 C 
BRANCH   4   5
ATOM      5  C   UNL     1     -23.322 -14.582  10.705  1.00  0.00    -0.000 C 
BRANCH   5   6
ATOM      6  C   UNL     1     -23.294 -14.764   9.180  1.00  0.00    -0.000 C 
BRANCH   6   7
ATOM      7  C   UNL     1     -24.699 -14.757   8.556  1.00  0.00    -0.000 C 
BRANCH   7   8
ATOM      8  C   UNL     1     -24.687 -14.340   7.078  1.00  0.00    -0.000 C 
BRANCH   8   9
ATOM      9  C   UNL     1     -25.435 -15.364   6.215  1.00  0.00    -0.000 C 
BRANCH   9  10
ATOM     10  C   UNL     1     -25.019 -15.253   4.743  1.00  0.00    -0.000 C 
BRANCH  10  11
ATOM     11  C   UNL     1     -25.211 -13.823   4.224  1.00  0.00    -0.003 C 
ATOM     12  C   UNL     1     -23.873 -13.179   3.875  1.00  0.00     0.004 C 
ENDBRANCH  10  11
ENDBRANCH   9  10
ENDBRANCH   8   9
ENDBRANCH   7   8
ENDBRANCH   6   7
ENDBRANCH   5   6
ENDBRANCH   4   5
ENDBRANCH   3   4
ENDBRANCH   2   3
ENDBRANCH   1   2
BRANCH   1  13
ATOM     13  C   UNL     1     -24.620 -10.340   8.073  1.00  0.00     0.000 C 
BRANCH  13  14
ATOM     14  C   UNL     1     -24.198 -10.993   6.746  1.00  0.00     0.000 C 
BRANCH  14  15
ATOM     15  C   UNL     1     -24.056 -10.022   5.557  1.00  0.00     0.000 C 
BRANCH  15  16
ATOM     16  C   UNL     1     -22.630  -9.953   4.969  1.00  0.00     0.000 C 
BRANCH  16  17
ATOM     17  C   UNL     1     -21.665  -9.155   5.860  1.00  0.00     0.000 C 
BRANCH  17  18
ATOM     18  C   UNL     1     -22.333  -7.877   6.392  1.00  0.00     0.000 C 
BRANCH  18  19
ATOM     19  C   UNL     1     -22.459  -7.868   7.923  1.00  0.00     0.000 C 
BRANCH  19  20
ATOM     20  C   UNL     1     -23.457  -6.813   8.431  1.00  0.00     0.006 C 
BRANCH  20  21
ATOM     21  C   UNL     1     -24.642  -7.446   9.172  1.00  0.00     0.053 C 
BRANCH  21  22
ATOM     22  C   UNL     1     -25.943  -6.805   8.796  1.00  0.00     0.041 C 
ATOM     23  O   UNL     1     -26.210  -5.638   9.187  1.00  0.00    -0.550 OA
ATOM     24  O   UNL     1     -26.846  -7.484   7.987  1.00  0.00    -0.550 OA
ENDBRANCH  21  22
ENDBRANCH  20  21
ENDBRANCH  19  20
ENDBRANCH  18  19
ENDBRANCH  17  18
ENDBRANCH  16  17
ENDBRANCH  15  16
ENDBRANCH  14  15
ENDBRANCH  13  14
ENDBRANCH   1  13
TORSDOF 20
ENDMDL
MODEL 7
REMARK VINA RESULT:    -3.659      2.547      5.550
REMARK INTER + INTRA:         -10.600
REMARK INTER:                  -8.707
REMARK INTRA:                  -1.892
REMARK UNBOUND:                -2.662
REMARK SMILES CCCCCCCCCCCCCCCCCCCCCC(=O)[O-]
REMARK SMILES IDX 12 1 11 2 10 3 9 4 8 5 7 6 6 7 5 8 4 9 3 10 2 11 1 12 13 13
REMARK SMILES IDX 14 14 15 15 16 16 17 17 18 18 19 19 20 20 21 21 22 22 23 23
REMARK SMILES IDX 24 24
REMARK H PARENT
REMARK Flexibility Score: inf
ROOT
ATOM      1  C   UNL     1     -25.014 -10.035   9.030  1.00  0.00     0.000 C 
ENDROOT
BRANCH   1   2
ATOM      2  C   UNL     1     -25.237  -9.038   7.882  1.00  0.00     0.000 C 
BRANCH   2   3
ATOM      3  C   UNL     1     -26.012  -7.787   8.325  1.00  0.00     0.000 C 
BRANCH   3   4
ATOM      4  C   UNL     1     -25.152  -6.819   9.151  1.00  0.00    -0.000 C 
BRANCH   4   5
ATOM      5  C   UNL     1     -23.915  -6.373   8.362  1.00  0.00    -0.000 C 
BRANCH   5   6
ATOM      6  C   UNL     1     -22.873  -7.499   8.289  1.00  0.00    -0.000 C 
BRANCH   6   7
ATOM      7  C   UNL     1     -22.162  -7.563   6.927  1.00  0.00    -0.000 C 
BRANCH   7   8
ATOM      8  C   UNL     1     -21.958  -9.003   6.434  1.00  0.00    -0.000 C 
BRANCH   8   9
ATOM      9  C   UNL     1     -22.506  -9.177   5.012  1.00  0.00    -0.000 C 
BRANCH   9  10
ATOM     10  C   UNL     1     -21.926 -10.431   4.347  1.00  0.00    -0.000 C 
BRANCH  10  11
ATOM     11  C   UNL     1     -23.042 -11.373   3.881  1.00  0.00    -0.003 C 
ATOM     12  C   UNL     1     -24.157 -11.462   4.918  1.00  0.00     0.004 C 
ENDBRANCH  10  11
ENDBRANCH   9  10
ENDBRANCH   8   9
ENDBRANCH   7   8
ENDBRANCH   6   7
ENDBRANCH   5   6
ENDBRANCH   4   5
ENDBRANCH   3   4
ENDBRANCH   2   3
ENDBRANCH   1   2
BRANCH   1  13
ATOM     13  C   UNL     1     -23.946 -11.074   8.654  1.00  0.00     0.000 C 
BRANCH  13  14
ATOM     14  C   UNL     1     -22.673 -10.957   9.509  1.00  0.00     0.000 C 
BRANCH  14  15
ATOM     15  C   UNL     1     -22.320 -12.215  10.329  1.00  0.00     0.000 C 
BRANCH  15  16
ATOM     16  C   UNL     1     -23.540 -12.909  10.971  1.00  0.00     0.000 C 
BRANCH  16  17
ATOM     17  C   UNL     1     -23.571 -14.419  10.690  1.00  0.00     0.000 C 
BRANCH  17  18
ATOM     18  C   UNL     1     -23.385 -14.707   9.193  1.00  0.00     0.000 C 
BRANCH  18  19
ATOM     19  C   UNL     1     -24.716 -14.946   8.465  1.00  0.00     0.000 C 
BRANCH  19  20
ATOM     20  C   UNL     1     -24.684 -14.481   6.998  1.00  0.00     0.006 C 
BRANCH  20  21
ATOM     21  C   UNL     1     -25.556 -15.361   6.093  1.00  0.00     0.053 C 
BRANCH  21  22
ATOM     22  C   UNL     1     -24.856 -15.713   4.816  1.00  0.00     0.041 C 
ATOM     23  O   UNL     1     -24.709 -16.919   4.486  1.00  0.00    -0.550 OA
ATOM     24  O   UNL     1     -24.396 -14.708   3.974  1.00  0.00    -0.550 OA
ENDBRANCH  21  22
ENDBRANCH  20  21
ENDBRANCH  19  20
ENDBRANCH  18  19
ENDBRANCH  17  18
ENDBRANCH  16  17
ENDBRANCH  15  16
ENDBRANCH  14  15
ENDBRANCH  13  14
ENDBRANCH   1  13
TORSDOF 20
ENDMDL
MODEL 8
REMARK VINA RESULT:    -3.602      2.078      6.581
REMARK INTER + INTRA:         -10.476
REMARK INTER:                  -7.729
REMARK INTRA:                  -2.747
REMARK UNBOUND:                -2.662
REMARK SMILES CCCCCCCCCCCCCCCCCCCCCC(=O)[O-]
REMARK SMILES IDX 12 1 11 2 10 3 9 4 8 5 7 6 6 7 5 8 4 9 3 10 2 11 1 12 13 13
REMARK SMILES IDX 14 14 15 15 16 16 17 17 18 18 19 19 20 20 21 21 22 22 23 23
REMARK SMILES IDX 24 24
REMARK H PARENT
REMARK Flexibility Score: inf
ROOT
ATOM      1  C   UNL     1     -20.506 -11.179  10.541  1.00  0.00     0.000 C 
ENDROOT
BRANCH   1   2
ATOM      2  C   UNL     1     -21.614 -12.123  10.050  1.00  0.00     0.000 C 
BRANCH   2   3
ATOM      3  C   UNL     1     -22.957 -11.879  10.756  1.00  0.00     0.000 C 
BRANCH   3   4
ATOM      4  C   UNL     1     -24.071 -12.808  10.251  1.00  0.00    -0.000 C 
BRANCH   4   5
ATOM      5  C   UNL     1     -23.620 -14.273  10.281  1.00  0.00    -0.000 C 
BRANCH   5   6
ATOM      6  C   UNL     1     -23.855 -14.949   8.922  1.00  0.00    -0.000 C 
BRANCH   6   7
ATOM      7  C   UNL     1     -24.642 -14.059   7.946  1.00  0.00    -0.000 C 
BRANCH   7   8
ATOM      8  C   UNL     1     -25.447 -14.873   6.922  1.00  0.00    -0.000 C 
BRANCH   8   9
ATOM      9  C   UNL     1     -24.810 -14.784   5.529  1.00  0.00    -0.000 C 
BRANCH   9  10
ATOM     10  C   UNL     1     -25.775 -14.147   4.522  1.00  0.00    -0.000 C 
BRANCH  10  11
ATOM     11  C   UNL     1     -25.232 -12.808   4.011  1.00  0.00    -0.003 C 
ATOM     12  C   UNL     1     -23.706 -12.810   3.971  1.00  0.00     0.004 C 
ENDBRANCH  10  11
ENDBRANCH   9  10
ENDBRANCH   8   9
ENDBRANCH   7   8
ENDBRANCH   6   7
ENDBRANCH   5   6
ENDBRANCH   4   5
ENDBRANCH   3   4
ENDBRANCH   2   3
ENDBRANCH   1   2
BRANCH   1  13
ATOM     13  C   UNL     1     -20.070 -10.217   9.424  1.00  0.00     0.000 C 
BRANCH  13  14
ATOM     14  C   UNL     1     -21.123 -10.078   8.311  1.00  0.00     0.000 C 
BRANCH  14  15
ATOM     15  C   UNL     1     -21.409  -8.632   7.859  1.00  0.00     0.000 C 
BRANCH  15  16
ATOM     16  C   UNL     1     -22.001  -8.524   6.438  1.00  0.00     0.000 C 
BRANCH  16  17
ATOM     17  C   UNL     1     -22.702  -9.817   5.994  1.00  0.00     0.000 C 
BRANCH  17  18
ATOM     18  C   UNL     1     -24.202  -9.775   6.323  1.00  0.00     0.000 C 
BRANCH  18  19
ATOM     19  C   UNL     1     -24.529 -10.414   7.681  1.00  0.00     0.000 C 
BRANCH  19  20
ATOM     20  C   UNL     1     -24.746  -9.371   8.792  1.00  0.00     0.006 C 
BRANCH  20  21
ATOM     21  C   UNL     1     -25.745  -8.284   8.377  1.00  0.00     0.053 C 
BRANCH  21  22
ATOM     22  C   UNL     1     -25.299  -6.921   8.812  1.00  0.00     0.041 C 
ATOM     23  O   UNL     1     -26.133  -6.100   9.277  1.00  0.00    -0.550 OA
ATOM     24  O   UNL     1     -23.957  -6.569   8.734  1.00  0.00    -0.550 OA
ENDBRANCH  21  22
ENDBRANCH  20  21
ENDBRANCH  19  20
ENDBRANCH  18  19
ENDBRANCH  17  18
ENDBRANCH  16  17
ENDBRANCH  15  16
ENDBRANCH  14  15
ENDBRANCH  13  14
ENDBRANCH   1  13
TORSDOF 20
ENDMDL
MODEL 9
REMARK VINA RESULT:    -3.567      2.080      6.780
REMARK INTER + INTRA:         -10.398
REMARK INTER:                  -8.175
REMARK INTRA:                  -2.223
REMARK UNBOUND:                -2.662
REMARK SMILES CCCCCCCCCCCCCCCCCCCCCC(=O)[O-]
REMARK SMILES IDX 12 1 11 2 10 3 9 4 8 5 7 6 6 7 5 8 4 9 3 10 2 11 1 12 13 13
REMARK SMILES IDX 14 14 15 15 16 16 17 17 18 18 19 19 20 20 21 21 22 22 23 23
REMARK SMILES IDX 24 24
REMARK H PARENT
REMARK Flexibility Score: inf
ROOT
ATOM      1  C   UNL     1     -23.027 -11.910  10.958  1.00  0.00     0.000 C 
ENDROOT
BRANCH   1   2
ATOM      2  C   UNL     1     -24.082 -12.930  10.502  1.00  0.00     0.000 C 
BRANCH   2   3
ATOM      3  C   UNL     1     -23.497 -14.336  10.295  1.00  0.00     0.000 C 
BRANCH   3   4
ATOM      4  C   UNL     1     -23.812 -14.911   8.906  1.00  0.00    -0.000 C 
BRANCH   4   5
ATOM      5  C   UNL     1     -24.406 -13.836   7.988  1.00  0.00    -0.000 C 
BRANCH   5   6
ATOM      6  C   UNL     1     -25.458 -14.439   7.045  1.00  0.00    -0.000 C 
BRANCH   6   7
ATOM      7  C   UNL     1     -24.868 -15.496   6.097  1.00  0.00    -0.000 C 
BRANCH   7   8
ATOM      8  C   UNL     1     -25.114 -15.166   4.618  1.00  0.00    -0.000 C 
BRANCH   8   9
ATOM      9  C   UNL     1     -25.245 -13.652   4.409  1.00  0.00    -0.000 C 
BRANCH   9  10
ATOM     10  C   UNL     1     -23.922 -13.045   3.928  1.00  0.00    -0.000 C 
BRANCH  10  11
ATOM     11  C   UNL     1     -23.920 -11.522   4.100  1.00  0.00    -0.003 C 
ATOM     12  C   UNL     1     -22.526 -10.943   3.878  1.00  0.00     0.004 C 
ENDBRANCH  10  11
ENDBRANCH   9  10
ENDBRANCH   8   9
ENDBRANCH   7   8
ENDBRANCH   6   7
ENDBRANCH   5   6
ENDBRANCH   4   5
ENDBRANCH   3   4
ENDBRANCH   2   3
ENDBRANCH   1   2
BRANCH   1  13
ATOM     13  C   UNL     1     -21.609 -12.413  10.648  1.00  0.00     0.000 C 
BRANCH  13  14
ATOM     14  C   UNL     1     -20.548 -11.303  10.742  1.00  0.00     0.000 C 
BRANCH  14  15
ATOM     15  C   UNL     1     -20.216 -10.602   9.409  1.00  0.00     0.000 C 
BRANCH  15  16
ATOM     16  C   UNL     1     -21.435 -10.403   8.483  1.00  0.00     0.000 C 
BRANCH  16  17
ATOM     17  C   UNL     1     -21.540  -8.966   7.949  1.00  0.00     0.000 C 
BRANCH  17  18
ATOM     18  C   UNL     1     -22.806  -8.784   7.098  1.00  0.00     0.000 C 
BRANCH  18  19
ATOM     19  C   UNL     1     -23.939  -9.735   7.511  1.00  0.00     0.000 C 
BRANCH  19  20
ATOM     20  C   UNL     1     -24.741  -9.217   8.717  1.00  0.00     0.006 C 
BRANCH  20  21
ATOM     21  C   UNL     1     -25.707  -8.090   8.330  1.00  0.00     0.053 C 
BRANCH  21  22
ATOM     22  C   UNL     1     -25.287  -6.772   8.905  1.00  0.00     0.041 C 
ATOM     23  O   UNL     1     -24.103  -6.368   8.766  1.00  0.00    -0.550 OA
ATOM     24  O   UNL     1     -26.212  -5.975   9.568  1.00  0.00    -0.550 OA
ENDBRANCH  21  22
ENDBRANCH  20  21
ENDBRANCH  19  20
ENDBRANCH  18  19
ENDBRANCH  17  18
ENDBRANCH  16  17
ENDBRANCH  15  16
ENDBRANCH  14  15
ENDBRANCH  13  14
ENDBRANCH   1  13
TORSDOF 20
ENDMDL
