MODEL 1
REMARK VINA RESULT:    -7.243      0.000      0.000
REMARK INTER + INTRA:          -9.291
REMARK INTER:                  -8.937
REMARK INTRA:                  -0.355
REMARK UNBOUND:                -0.355
REMARK SMILES Oc1cc(O)c2cc(O)c(-c3cc(O)c(O)c(O)c3)[o+]c2c1
REMARK SMILES IDX 10 1 20 2 21 3 22 4 2 5 3 6 4 7 6 8 7 9 8 10 11 11 12 12
REMARK SMILES IDX 13 13 19 14 15 15 17 16 14 17 16 19 18 21 9 23 1 25 5 27
REMARK H PARENT 14 18 16 20 18 22 9 24 1 26 5 28
REMARK Flexibility Score: inf
ROOT
ATOM      1  C   UNL     1      22.876  54.360 -16.075  1.00  0.00     0.402 A 
ATOM      2  O   UNL     1      23.568  55.345 -15.508  1.00  0.00    -0.202 OA
ATOM      3  C   UNL     1      23.662  56.565 -16.029  1.00  0.00     0.368 A 
ATOM      4  C   UNL     1      24.416  57.533 -15.361  1.00  0.00     0.162 A 
ATOM      5  C   UNL     1      24.535  58.820 -15.884  1.00  0.00     0.128 A 
ATOM      6  C   UNL     1      23.895  59.144 -17.087  1.00  0.00     0.093 A 
ATOM      7  C   UNL     1      23.134  58.192 -17.775  1.00  0.00     0.136 A 
ATOM      8  C   UNL     1      23.009  56.882 -17.244  1.00  0.00     0.125 A 
ATOM      9  C   UNL     1      22.257  55.868 -17.859  1.00  0.00     0.078 A 
ATOM     10  C   UNL     1      22.176  54.601 -17.272  1.00  0.00     0.223 A 
ENDROOT
BRANCH   1  11
ATOM     11  C   UNL     1      22.856  53.041 -15.401  1.00  0.00     0.091 A 
ATOM     12  C   UNL     1      21.777  52.650 -14.595  1.00  0.00     0.068 A 
ATOM     13  C   UNL     1      21.762  51.392 -13.984  1.00  0.00     0.162 A 
ATOM     14  C   UNL     1      23.906  52.139 -15.617  1.00  0.00     0.068 A 
ATOM     15  C   UNL     1      22.829  50.496 -14.182  1.00  0.00     0.200 A 
ATOM     16  C   UNL     1      23.909  50.877 -15.015  1.00  0.00     0.162 A 
BRANCH  13  17
ATOM     17  O   UNL     1      20.671  51.048 -13.185  1.00  0.00    -0.504 OA
ATOM     18  H   UNL     1      20.436  50.085 -12.976  1.00  0.00     0.293 HD
ENDBRANCH  13  17
BRANCH  15  19
ATOM     19  O   UNL     1      22.779  49.253 -13.547  1.00  0.00    -0.502 OA
ATOM     20  H   UNL     1      23.589  48.682 -13.351  1.00  0.00     0.293 HD
ENDBRANCH  15  19
BRANCH  16  21
ATOM     21  O   UNL     1      24.997  50.039 -15.268  1.00  0.00    -0.504 OA
ATOM     22  H   UNL     1      25.843  50.333 -15.733  1.00  0.00     0.293 HD
ENDBRANCH  16  21
ENDBRANCH   1  11
BRANCH  10  23
ATOM     23  O   UNL     1      21.389  53.609 -17.855  1.00  0.00    -0.500 OA
ATOM     24  H   UNL     1      20.476  53.813 -18.244  1.00  0.00     0.294 HD
ENDBRANCH  10  23
BRANCH   5  25
ATOM     25  O   UNL     1      25.291  59.772 -15.203  1.00  0.00    -0.507 OA
ATOM     26  H   UNL     1      24.923  60.263 -14.397  1.00  0.00     0.293 HD
ENDBRANCH   5  25
BRANCH   7  27
ATOM     27  O   UNL     1      22.530  58.593 -18.970  1.00  0.00    -0.507 OA
ATOM     28  H   UNL     1      22.575  59.529 -19.346  1.00  0.00     0.293 HD
ENDBRANCH   7  27
TORSDOF 7
ENDMDL
MODEL 2
REMARK VINA RESULT:    -7.218      1.964      7.534
REMARK INTER + INTRA:          -9.260
REMARK INTER:                  -8.959
REMARK INTRA:                  -0.302
REMARK UNBOUND:                -0.355
REMARK SMILES Oc1cc(O)c2cc(O)c(-c3cc(O)c(O)c(O)c3)[o+]c2c1
REMARK SMILES IDX 10 1 20 2 21 3 22 4 2 5 3 6 4 7 6 8 7 9 8 10 11 11 12 12
REMARK SMILES IDX 13 13 19 14 15 15 17 16 14 17 16 19 18 21 9 23 1 25 5 27
REMARK H PARENT 14 18 16 20 18 22 9 24 1 26 5 28
REMARK Flexibility Score: inf
ROOT
ATOM      1  C   UNL     1      21.850  54.185 -16.444  1.00  0.00     0.402 A 
ATOM      2  O   UNL     1      21.963  53.073 -17.166  1.00  0.00    -0.202 OA
ATOM      3  C   UNL     1      21.770  51.856 -16.667  1.00  0.00     0.368 A 
ATOM      4  C   UNL     1      21.916  50.747 -17.504  1.00  0.00     0.162 A 
ATOM      5  C   UNL     1      21.723  49.458 -17.008  1.00  0.00     0.128 A 
ATOM      6  C   UNL     1      21.382  49.273 -15.663  1.00  0.00     0.093 A 
ATOM      7  C   UNL     1      21.230  50.368 -14.803  1.00  0.00     0.136 A 
ATOM      8  C   UNL     1      21.423  51.681 -15.306  1.00  0.00     0.125 A 
ATOM      9  C   UNL     1      21.280  52.837 -14.521  1.00  0.00     0.078 A 
ATOM     10  C   UNL     1      21.482  54.099 -15.088  1.00  0.00     0.223 A 
ENDROOT
BRANCH   1  11
ATOM     11  C   UNL     1      22.099  55.483 -17.113  1.00  0.00     0.091 A 
ATOM     12  C   UNL     1      23.226  56.258 -16.804  1.00  0.00     0.068 A 
ATOM     13  C   UNL     1      23.460  57.471 -17.460  1.00  0.00     0.162 A 
ATOM     14  C   UNL     1      21.225  55.921 -18.116  1.00  0.00     0.068 A 
ATOM     15  C   UNL     1      22.568  57.922 -18.451  1.00  0.00     0.200 A 
ATOM     16  C   UNL     1      21.442  57.131 -18.784  1.00  0.00     0.162 A 
BRANCH  13  17
ATOM     17  O   UNL     1      24.590  58.213 -17.115  1.00  0.00    -0.504 OA
ATOM     18  H   UNL     1      25.471  58.114 -17.604  1.00  0.00     0.293 HD
ENDBRANCH  13  17
BRANCH  15  19
ATOM     19  O   UNL     1      22.833  59.143 -19.077  1.00  0.00    -0.502 OA
ATOM     20  H   UNL     1      22.204  59.933 -19.070  1.00  0.00     0.293 HD
ENDBRANCH  15  19
BRANCH  16  21
ATOM     21  O   UNL     1      20.520  57.506 -19.763  1.00  0.00    -0.504 OA
ATOM     22  H   UNL     1      20.300  58.462 -19.999  1.00  0.00     0.293 HD
ENDBRANCH  16  21
ENDBRANCH   1  11
BRANCH  10  23
ATOM     23  O   UNL     1      21.291  55.249 -14.323  1.00  0.00    -0.500 OA
ATOM     24  H   UNL     1      21.947  55.524 -13.601  1.00  0.00     0.294 HD
ENDBRANCH  10  23
BRANCH   5  25
ATOM     25  O   UNL     1      21.872  48.365 -17.859  1.00  0.00    -0.507 OA
ATOM     26  H   UNL     1      22.454  48.413 -18.687  1.00  0.00     0.293 HD
ENDBRANCH   5  25
BRANCH   7  27
ATOM     27  O   UNL     1      20.892  50.100 -13.474  1.00  0.00    -0.507 OA
ATOM     28  H   UNL     1      21.563  49.941 -12.736  1.00  0.00     0.293 HD
ENDBRANCH   7  27
TORSDOF 7
ENDMDL
MODEL 3
REMARK VINA RESULT:    -7.175      2.452      7.440
REMARK INTER + INTRA:          -9.208
REMARK INTER:                  -8.836
REMARK INTRA:                  -0.372
REMARK UNBOUND:                -0.355
REMARK SMILES Oc1cc(O)c2cc(O)c(-c3cc(O)c(O)c(O)c3)[o+]c2c1
REMARK SMILES IDX 10 1 20 2 21 3 22 4 2 5 3 6 4 7 6 8 7 9 8 10 11 11 12 12
REMARK SMILES IDX 13 13 19 14 15 15 17 16 14 17 16 19 18 21 9 23 1 25 5 27
REMARK H PARENT 14 18 16 20 18 22 9 24 1 26 5 28
REMARK Flexibility Score: inf
ROOT
ATOM      1  C   UNL     1      21.365  53.871 -16.826  1.00  0.00     0.402 A 
ATOM      2  O   UNL     1      21.824  52.791 -17.451  1.00  0.00    -0.202 OA
ATOM      3  C   UNL     1      21.395  51.559 -17.192  1.00  0.00     0.368 A 
ATOM      4  C   UNL     1      21.942  50.485 -17.900  1.00  0.00     0.162 A 
ATOM      5  C   UNL     1      21.513  49.183 -17.646  1.00  0.00     0.128 A 
ATOM      6  C   UNL     1      20.531  48.948 -16.676  1.00  0.00     0.093 A 
ATOM      7  C   UNL     1      19.969  50.007 -15.953  1.00  0.00     0.136 A 
ATOM      8  C   UNL     1      20.400  51.334 -16.210  1.00  0.00     0.125 A 
ATOM      9  C   UNL     1      19.884  52.457 -15.543  1.00  0.00     0.078 A 
ATOM     10  C   UNL     1      20.356  53.736 -15.855  1.00  0.00     0.223 A 
ENDROOT
BRANCH   1  11
ATOM     11  C   UNL     1      21.930  55.189 -17.198  1.00  0.00     0.091 A 
ATOM     12  C   UNL     1      21.306  56.007 -18.151  1.00  0.00     0.068 A 
ATOM     13  C   UNL     1      21.839  57.258 -18.476  1.00  0.00     0.162 A 
ATOM     14  C   UNL     1      23.078  55.657 -16.546  1.00  0.00     0.068 A 
ATOM     15  C   UNL     1      23.006  57.717 -17.838  1.00  0.00     0.200 A 
ATOM     16  C   UNL     1      23.627  56.906 -16.857  1.00  0.00     0.162 A 
BRANCH  13  17
ATOM     17  O   UNL     1      21.189  58.036 -19.435  1.00  0.00    -0.504 OA
ATOM     18  H   UNL     1      20.920  57.666 -20.339  1.00  0.00     0.293 HD
ENDBRANCH  13  17
BRANCH  15  19
ATOM     19  O   UNL     1      23.511  58.970 -18.197  1.00  0.00    -0.502 OA
ATOM     20  H   UNL     1      24.170  59.497 -17.642  1.00  0.00     0.293 HD
ENDBRANCH  15  19
BRANCH  16  21
ATOM     21  O   UNL     1      24.780  57.297 -16.173  1.00  0.00    -0.504 OA
ATOM     22  H   UNL     1      24.876  57.285 -15.169  1.00  0.00     0.293 HD
ENDBRANCH  16  21
ENDBRANCH   1  11
BRANCH  10  23
ATOM     23  O   UNL     1      19.808  54.856 -15.229  1.00  0.00    -0.500 OA
ATOM     24  H   UNL     1      20.280  55.752 -15.232  1.00  0.00     0.294 HD
ENDBRANCH  10  23
BRANCH   5  25
ATOM     25  O   UNL     1      22.069  48.125 -18.363  1.00  0.00    -0.507 OA
ATOM     26  H   UNL     1      21.785  47.922 -19.314  1.00  0.00     0.293 HD
ENDBRANCH   5  25
BRANCH   7  27
ATOM     27  O   UNL     1      18.997  49.690 -15.000  1.00  0.00    -0.507 OA
ATOM     28  H   UNL     1      18.076  50.103 -14.965  1.00  0.00     0.293 HD
ENDBRANCH   7  27
TORSDOF 7
ENDMDL
MODEL 4
REMARK VINA RESULT:    -7.172      0.112      1.808
REMARK INTER + INTRA:          -9.203
REMARK INTER:                  -8.849
REMARK INTRA:                  -0.354
REMARK UNBOUND:                -0.355
REMARK SMILES Oc1cc(O)c2cc(O)c(-c3cc(O)c(O)c(O)c3)[o+]c2c1
REMARK SMILES IDX 10 1 20 2 21 3 22 4 2 5 3 6 4 7 6 8 7 9 8 10 11 11 12 12
REMARK SMILES IDX 13 13 19 14 15 15 17 16 14 17 16 19 18 21 9 23 1 25 5 27
REMARK H PARENT 14 18 16 20 18 22 9 24 1 26 5 28
REMARK Flexibility Score: inf
ROOT
ATOM      1  C   UNL     1      22.827  54.351 -16.198  1.00  0.00     0.402 A 
ATOM      2  O   UNL     1      23.540  55.315 -15.622  1.00  0.00    -0.202 OA
ATOM      3  C   UNL     1      23.639  56.546 -16.116  1.00  0.00     0.368 A 
ATOM      4  C   UNL     1      24.416  57.490 -15.440  1.00  0.00     0.162 A 
ATOM      5  C   UNL     1      24.540  58.787 -15.936  1.00  0.00     0.128 A 
ATOM      6  C   UNL     1      23.883  59.146 -17.120  1.00  0.00     0.093 A 
ATOM      7  C   UNL     1      23.099  58.218 -17.816  1.00  0.00     0.136 A 
ATOM      8  C   UNL     1      22.969  56.898 -17.312  1.00  0.00     0.125 A 
ATOM      9  C   UNL     1      22.194  55.906 -17.937  1.00  0.00     0.078 A 
ATOM     10  C   UNL     1      22.110  54.627 -17.377  1.00  0.00     0.223 A 
ENDROOT
BRANCH   1  11
ATOM     11  C   UNL     1      22.804  53.018 -15.555  1.00  0.00     0.091 A 
ATOM     12  C   UNL     1      23.865  52.113 -15.710  1.00  0.00     0.068 A 
ATOM     13  C   UNL     1      23.838  50.866 -15.078  1.00  0.00     0.162 A 
ATOM     14  C   UNL     1      21.728  52.670 -14.727  1.00  0.00     0.068 A 
ATOM     15  C   UNL     1      22.746  50.509 -14.265  1.00  0.00     0.200 A 
ATOM     16  C   UNL     1      21.683  51.427 -14.086  1.00  0.00     0.162 A 
BRANCH  13  17
ATOM     17  O   UNL     1      24.912  49.996 -15.266  1.00  0.00    -0.504 OA
ATOM     18  H   UNL     1      25.848  50.327 -15.464  1.00  0.00     0.293 HD
ENDBRANCH  13  17
BRANCH  15  19
ATOM     19  O   UNL     1      22.753  49.250 -13.658  1.00  0.00    -0.502 OA
ATOM     20  H   UNL     1      23.556  48.845 -13.198  1.00  0.00     0.293 HD
ENDBRANCH  15  19
BRANCH  16  21
ATOM     21  O   UNL     1      20.572  51.149 -13.287  1.00  0.00    -0.504 OA
ATOM     22  H   UNL     1      20.447  50.293 -12.767  1.00  0.00     0.293 HD
ENDBRANCH  16  21
ENDBRANCH   1  11
BRANCH  10  23
ATOM     23  O   UNL     1      21.301  53.657 -17.968  1.00  0.00    -0.500 OA
ATOM     24  H   UNL     1      20.514  53.905 -18.557  1.00  0.00     0.294 HD
ENDBRANCH  10  23
BRANCH   5  25
ATOM     25  O   UNL     1      25.318  59.715 -15.248  1.00  0.00    -0.507 OA
ATOM     26  H   UNL     1      25.585  60.598 -15.667  1.00  0.00     0.293 HD
ENDBRANCH   5  25
BRANCH   7  27
ATOM     27  O   UNL     1      22.480  58.652 -18.991  1.00  0.00    -0.507 OA
ATOM     28  H   UNL     1      21.663  58.220 -19.399  1.00  0.00     0.293 HD
ENDBRANCH   7  27
TORSDOF 7
ENDMDL
MODEL 5
REMARK VINA RESULT:    -7.161      1.860      7.265
REMARK INTER + INTRA:          -9.190
REMARK INTER:                  -8.871
REMARK INTRA:                  -0.319
REMARK UNBOUND:                -0.355
REMARK SMILES Oc1cc(O)c2cc(O)c(-c3cc(O)c(O)c(O)c3)[o+]c2c1
REMARK SMILES IDX 10 1 20 2 21 3 22 4 2 5 3 6 4 7 6 8 7 9 8 10 11 11 12 12
REMARK SMILES IDX 13 13 19 14 15 15 17 16 14 17 16 19 18 21 9 23 1 25 5 27
REMARK H PARENT 14 18 16 20 18 22 9 24 1 26 5 28
REMARK Flexibility Score: inf
ROOT
ATOM      1  C   UNL     1      21.538  55.320 -15.434  1.00  0.00     0.402 A 
ATOM      2  O   UNL     1      22.206  54.170 -15.418  1.00  0.00    -0.202 OA
ATOM      3  C   UNL     1      21.960  53.195 -14.549  1.00  0.00     0.368 A 
ATOM      4  C   UNL     1      22.719  52.023 -14.609  1.00  0.00     0.162 A 
ATOM      5  C   UNL     1      22.485  50.984 -13.708  1.00  0.00     0.128 A 
ATOM      6  C   UNL     1      21.485  51.116 -12.736  1.00  0.00     0.093 A 
ATOM      7  C   UNL     1      20.712  52.281 -12.655  1.00  0.00     0.136 A 
ATOM      8  C   UNL     1      20.945  53.338 -13.572  1.00  0.00     0.125 A 
ATOM      9  C   UNL     1      20.211  54.536 -13.573  1.00  0.00     0.078 A 
ATOM     10  C   UNL     1      20.496  55.532 -14.513  1.00  0.00     0.223 A 
ENDROOT
BRANCH   1  11
ATOM     11  C   UNL     1      21.913  56.334 -16.447  1.00  0.00     0.091 A 
ATOM     12  C   UNL     1      23.088  57.089 -16.324  1.00  0.00     0.068 A 
ATOM     13  C   UNL     1      23.439  58.027 -17.300  1.00  0.00     0.162 A 
ATOM     14  C   UNL     1      21.110  56.504 -17.582  1.00  0.00     0.068 A 
ATOM     15  C   UNL     1      22.620  58.214 -18.429  1.00  0.00     0.200 A 
ATOM     16  C   UNL     1      21.445  57.436 -18.570  1.00  0.00     0.162 A 
BRANCH  13  17
ATOM     17  O   UNL     1      24.614  58.761 -17.133  1.00  0.00    -0.504 OA
ATOM     18  H   UNL     1      25.467  58.344 -16.779  1.00  0.00     0.293 HD
ENDBRANCH  13  17
BRANCH  15  19
ATOM     19  O   UNL     1      23.002  59.166 -19.377  1.00  0.00    -0.502 OA
ATOM     20  H   UNL     1      23.141  58.968 -20.357  1.00  0.00     0.293 HD
ENDBRANCH  15  19
BRANCH  16  21
ATOM     21  O   UNL     1      20.588  57.557 -19.666  1.00  0.00    -0.504 OA
ATOM     22  H   UNL     1      19.861  58.252 -19.744  1.00  0.00     0.293 HD
ENDBRANCH  16  21
ENDBRANCH   1  11
BRANCH  10  23
ATOM     23  O   UNL     1      19.734  56.699 -14.547  1.00  0.00    -0.500 OA
ATOM     24  H   UNL     1      19.378  57.129 -13.700  1.00  0.00     0.294 HD
ENDBRANCH  10  23
BRANCH   5  25
ATOM     25  O   UNL     1      23.251  49.823 -13.784  1.00  0.00    -0.507 OA
ATOM     26  H   UNL     1      23.746  49.461 -12.977  1.00  0.00     0.293 HD
ENDBRANCH   5  25
BRANCH   7  27
ATOM     27  O   UNL     1      19.736  52.337 -11.656  1.00  0.00    -0.507 OA
ATOM     28  H   UNL     1      19.337  51.527 -11.203  1.00  0.00     0.293 HD
ENDBRANCH   7  27
TORSDOF 7
ENDMDL
MODEL 6
REMARK VINA RESULT:    -7.109      3.280      4.605
REMARK INTER + INTRA:          -9.126
REMARK INTER:                  -8.873
REMARK INTRA:                  -0.254
REMARK UNBOUND:                -0.355
REMARK SMILES Oc1cc(O)c2cc(O)c(-c3cc(O)c(O)c(O)c3)[o+]c2c1
REMARK SMILES IDX 10 1 20 2 21 3 22 4 2 5 3 6 4 7 6 8 7 9 8 10 11 11 12 12
REMARK SMILES IDX 13 13 19 14 15 15 17 16 14 17 16 19 18 21 9 23 1 25 5 27
REMARK H PARENT 14 18 16 20 18 22 9 24 1 26 5 28
REMARK Flexibility Score: inf
ROOT
ATOM      1  C   UNL     1      22.550  51.304 -16.802  1.00  0.00     0.402 A 
ATOM      2  O   UNL     1      21.923  52.387 -17.252  1.00  0.00    -0.202 OA
ATOM      3  C   UNL     1      22.149  53.609 -16.781  1.00  0.00     0.368 A 
ATOM      4  C   UNL     1      21.437  54.686 -17.316  1.00  0.00     0.162 A 
ATOM      5  C   UNL     1      21.651  55.979 -16.840  1.00  0.00     0.128 A 
ATOM      6  C   UNL     1      22.584  56.201 -15.819  1.00  0.00     0.093 A 
ATOM      7  C   UNL     1      23.310  55.138 -15.267  1.00  0.00     0.136 A 
ATOM      8  C   UNL     1      23.096  53.821 -15.751  1.00  0.00     0.125 A 
ATOM      9  C   UNL     1      23.787  52.699 -15.266  1.00  0.00     0.078 A 
ATOM     10  C   UNL     1      23.526  51.432 -15.797  1.00  0.00     0.223 A 
ENDROOT
BRANCH   1  11
ATOM     11  C   UNL     1      22.204  49.994 -17.402  1.00  0.00     0.091 A 
ATOM     12  C   UNL     1      20.940  49.416 -17.212  1.00  0.00     0.068 A 
ATOM     13  C   UNL     1      20.620  48.190 -17.803  1.00  0.00     0.162 A 
ATOM     14  C   UNL     1      23.133  49.344 -18.224  1.00  0.00     0.068 A 
ATOM     15  C   UNL     1      21.563  47.525 -18.609  1.00  0.00     0.200 A 
ATOM     16  C   UNL     1      22.832  48.116 -18.824  1.00  0.00     0.162 A 
BRANCH  13  17
ATOM     17  O   UNL     1      19.354  47.648 -17.580  1.00  0.00    -0.504 OA
ATOM     18  H   UNL     1      18.982  47.506 -16.649  1.00  0.00     0.293 HD
ENDBRANCH  13  17
BRANCH  15  19
ATOM     19  O   UNL     1      21.208  46.298 -19.174  1.00  0.00    -0.502 OA
ATOM     20  H   UNL     1      21.756  45.812 -19.868  1.00  0.00     0.293 HD
ENDBRANCH  15  19
BRANCH  16  21
ATOM     21  O   UNL     1      23.815  47.524 -19.620  1.00  0.00    -0.504 OA
ATOM     22  H   UNL     1      23.680  47.254 -20.582  1.00  0.00     0.293 HD
ENDBRANCH  16  21
ENDBRANCH   1  11
BRANCH  10  23
ATOM     23  O   UNL     1      24.247  50.325 -15.351  1.00  0.00    -0.500 OA
ATOM     24  H   UNL     1      25.259  50.338 -15.285  1.00  0.00     0.294 HD
ENDBRANCH  10  23
BRANCH   5  25
ATOM     25  O   UNL     1      20.932  57.041 -17.386  1.00  0.00    -0.507 OA
ATOM     26  H   UNL     1      19.928  56.989 -17.516  1.00  0.00     0.293 HD
ENDBRANCH   5  25
BRANCH   7  27
ATOM     27  O   UNL     1      24.219  55.441 -14.250  1.00  0.00    -0.507 OA
ATOM     28  H   UNL     1      24.463  56.378 -13.962  1.00  0.00     0.293 HD
ENDBRANCH   7  27
TORSDOF 7
ENDMDL
MODEL 7
REMARK VINA RESULT:    -7.076      3.448      6.574
REMARK INTER + INTRA:          -9.085
REMARK INTER:                  -8.977
REMARK INTRA:                  -0.107
REMARK UNBOUND:                -0.355
REMARK SMILES Oc1cc(O)c2cc(O)c(-c3cc(O)c(O)c(O)c3)[o+]c2c1
REMARK SMILES IDX 10 1 20 2 21 3 22 4 2 5 3 6 4 7 6 8 7 9 8 10 11 11 12 12
REMARK SMILES IDX 13 13 19 14 15 15 17 16 14 17 16 19 18 21 9 23 1 25 5 27
REMARK H PARENT 14 18 16 20 18 22 9 24 1 26 5 28
REMARK Flexibility Score: inf
ROOT
ATOM      1  C   UNL     1      23.620  56.483 -14.857  1.00  0.00     0.402 A 
ATOM      2  O   UNL     1      22.783  56.123 -13.889  1.00  0.00    -0.202 OA
ATOM      3  C   UNL     1      23.145  56.009 -12.615  1.00  0.00     0.368 A 
ATOM      4  C   UNL     1      22.193  55.621 -11.668  1.00  0.00     0.162 A 
ATOM      5  C   UNL     1      22.545  55.490 -10.326  1.00  0.00     0.128 A 
ATOM      6  C   UNL     1      23.861  55.748  -9.922  1.00  0.00     0.093 A 
ATOM      7  C   UNL     1      24.834  56.138 -10.851  1.00  0.00     0.136 A 
ATOM      8  C   UNL     1      24.478  56.274 -12.218  1.00  0.00     0.125 A 
ATOM      9  C   UNL     1      25.383  56.672 -13.216  1.00  0.00     0.078 A 
ATOM     10  C   UNL     1      24.957  56.789 -14.542  1.00  0.00     0.223 A 
ENDROOT
BRANCH   1  11
ATOM     11  C   UNL     1      23.097  56.565 -16.241  1.00  0.00     0.091 A 
ATOM     12  C   UNL     1      23.219  57.739 -16.998  1.00  0.00     0.068 A 
ATOM     13  C   UNL     1      22.740  57.795 -18.311  1.00  0.00     0.162 A 
ATOM     14  C   UNL     1      22.520  55.432 -16.829  1.00  0.00     0.068 A 
ATOM     15  C   UNL     1      22.139  56.663 -18.893  1.00  0.00     0.200 A 
ATOM     16  C   UNL     1      22.036  55.467 -18.141  1.00  0.00     0.162 A 
BRANCH  13  17
ATOM     17  O   UNL     1      22.875  58.986 -19.024  1.00  0.00    -0.504 OA
ATOM     18  H   UNL     1      23.571  59.682 -18.786  1.00  0.00     0.293 HD
ENDBRANCH  13  17
BRANCH  15  19
ATOM     19  O   UNL     1      21.666  56.762 -20.204  1.00  0.00    -0.502 OA
ATOM     20  H   UNL     1      21.914  56.125 -20.947  1.00  0.00     0.293 HD
ENDBRANCH  15  19
BRANCH  16  21
ATOM     21  O   UNL     1      21.463  54.301 -18.653  1.00  0.00    -0.504 OA
ATOM     22  H   UNL     1      21.779  53.369 -18.431  1.00  0.00     0.293 HD
ENDBRANCH  16  21
ENDBRANCH   1  11
BRANCH  10  23
ATOM     23  O   UNL     1      25.842  57.233 -15.525  1.00  0.00    -0.500 OA
ATOM     24  H   UNL     1      25.704  58.113 -16.009  1.00  0.00     0.294 HD
ENDBRANCH  10  23
BRANCH   5  25
ATOM     25  O   UNL     1      21.582  55.103  -9.397  1.00  0.00    -0.507 OA
ATOM     26  H   UNL     1      21.505  54.143  -9.081  1.00  0.00     0.293 HD
ENDBRANCH   5  25
BRANCH   7  27
ATOM     27  O   UNL     1      26.125  56.373 -10.370  1.00  0.00    -0.507 OA
ATOM     28  H   UNL     1      26.534  57.290 -10.259  1.00  0.00     0.293 HD
ENDBRANCH   7  27
TORSDOF 7
ENDMDL
MODEL 8
REMARK VINA RESULT:    -7.049      3.268      4.932
REMARK INTER + INTRA:          -9.052
REMARK INTER:                  -8.835
REMARK INTRA:                  -0.217
REMARK UNBOUND:                -0.355
REMARK SMILES Oc1cc(O)c2cc(O)c(-c3cc(O)c(O)c(O)c3)[o+]c2c1
REMARK SMILES IDX 10 1 20 2 21 3 22 4 2 5 3 6 4 7 6 8 7 9 8 10 11 11 12 12
REMARK SMILES IDX 13 13 19 14 15 15 17 16 14 17 16 19 18 21 9 23 1 25 5 27
REMARK H PARENT 14 18 16 20 18 22 9 24 1 26 5 28
REMARK Flexibility Score: inf
ROOT
ATOM      1  C   UNL     1      22.560  51.324 -16.772  1.00  0.00     0.402 A 
ATOM      2  O   UNL     1      21.930  52.415 -17.200  1.00  0.00    -0.202 OA
ATOM      3  C   UNL     1      22.144  53.626 -16.694  1.00  0.00     0.368 A 
ATOM      4  C   UNL     1      21.430  54.713 -17.207  1.00  0.00     0.162 A 
ATOM      5  C   UNL     1      21.631  55.994 -16.694  1.00  0.00     0.128 A 
ATOM      6  C   UNL     1      22.552  56.194 -15.659  1.00  0.00     0.093 A 
ATOM      7  C   UNL     1      23.279  55.121 -15.127  1.00  0.00     0.136 A 
ATOM      8  C   UNL     1      23.079  53.816 -15.649  1.00  0.00     0.125 A 
ATOM      9  C   UNL     1      23.772  52.686 -15.186  1.00  0.00     0.078 A 
ATOM     10  C   UNL     1      23.524  51.432 -15.754  1.00  0.00     0.223 A 
ENDROOT
BRANCH   1  11
ATOM     11  C   UNL     1      22.228  50.029 -17.410  1.00  0.00     0.091 A 
ATOM     12  C   UNL     1      23.181  49.315 -18.151  1.00  0.00     0.068 A 
ATOM     13  C   UNL     1      22.859  48.083 -18.728  1.00  0.00     0.162 A 
ATOM     14  C   UNL     1      20.955  49.475 -17.225  1.00  0.00     0.068 A 
ATOM     15  C   UNL     1      21.573  47.538 -18.562  1.00  0.00     0.200 A 
ATOM     16  C   UNL     1      20.614  48.243 -17.795  1.00  0.00     0.162 A 
BRANCH  13  17
ATOM     17  O   UNL     1      23.837  47.411 -19.463  1.00  0.00    -0.504 OA
ATOM     18  H   UNL     1      24.163  47.744 -20.361  1.00  0.00     0.293 HD
ENDBRANCH  13  17
BRANCH  15  19
ATOM     19  O   UNL     1      21.288  46.309 -19.162  1.00  0.00    -0.502 OA
ATOM     20  H   UNL     1      21.823  45.909 -19.919  1.00  0.00     0.293 HD
ENDBRANCH  15  19
BRANCH  16  21
ATOM     21  O   UNL     1      19.321  47.762 -17.576  1.00  0.00    -0.504 OA
ATOM     22  H   UNL     1      18.677  47.512 -18.311  1.00  0.00     0.293 HD
ENDBRANCH  16  21
ENDBRANCH   1  11
BRANCH  10  23
ATOM     23  O   UNL     1      24.248  50.317 -15.330  1.00  0.00    -0.500 OA
ATOM     24  H   UNL     1      24.328  50.075 -14.349  1.00  0.00     0.294 HD
ENDBRANCH  10  23
BRANCH   5  25
ATOM     25  O   UNL     1      20.911  57.065 -17.219  1.00  0.00    -0.507 OA
ATOM     26  H   UNL     1      20.867  57.958 -16.743  1.00  0.00     0.293 HD
ENDBRANCH   5  25
BRANCH   7  27
ATOM     27  O   UNL     1      24.176  55.402 -14.093  1.00  0.00    -0.507 OA
ATOM     28  H   UNL     1      24.624  56.296 -13.954  1.00  0.00     0.293 HD
ENDBRANCH   7  27
TORSDOF 7
ENDMDL
MODEL 9
REMARK VINA RESULT:    -6.989      2.566      3.505
REMARK INTER + INTRA:          -8.978
REMARK INTER:                  -8.594
REMARK INTRA:                  -0.384
REMARK UNBOUND:                -0.355
REMARK SMILES Oc1cc(O)c2cc(O)c(-c3cc(O)c(O)c(O)c3)[o+]c2c1
REMARK SMILES IDX 10 1 20 2 21 3 22 4 2 5 3 6 4 7 6 8 7 9 8 10 11 11 12 12
REMARK SMILES IDX 13 13 19 14 15 15 17 16 14 17 16 19 18 21 9 23 1 25 5 27
REMARK H PARENT 14 18 16 20 18 22 9 24 1 26 5 28
REMARK Flexibility Score: inf
ROOT
ATOM      1  C   UNL     1      22.058  52.848 -16.693  1.00  0.00     0.402 A 
ATOM      2  O   UNL     1      21.586  53.759 -17.540  1.00  0.00    -0.202 OA
ATOM      3  C   UNL     1      21.995  55.024 -17.555  1.00  0.00     0.368 A 
ATOM      4  C   UNL     1      21.437  55.908 -18.482  1.00  0.00     0.162 A 
ATOM      5  C   UNL     1      21.845  57.241 -18.518  1.00  0.00     0.128 A 
ATOM      6  C   UNL     1      22.819  57.697 -17.621  1.00  0.00     0.093 A 
ATOM      7  C   UNL     1      23.393  56.831 -16.684  1.00  0.00     0.136 A 
ATOM      8  C   UNL     1      22.982  55.473 -16.645  1.00  0.00     0.125 A 
ATOM      9  C   UNL     1      23.512  54.530 -15.748  1.00  0.00     0.078 A 
ATOM     10  C   UNL     1      23.060  53.207 -15.774  1.00  0.00     0.223 A 
ENDROOT
BRANCH   1  11
ATOM     11  C   UNL     1      21.514  51.472 -16.770  1.00  0.00     0.091 A 
ATOM     12  C   UNL     1      20.467  51.054 -15.935  1.00  0.00     0.068 A 
ATOM     13  C   UNL     1      19.949  49.759 -16.035  1.00  0.00     0.162 A 
ATOM     14  C   UNL     1      22.013  50.585 -17.732  1.00  0.00     0.068 A 
ATOM     15  C   UNL     1      20.468  48.861 -16.986  1.00  0.00     0.200 A 
ATOM     16  C   UNL     1      21.509  49.286 -17.847  1.00  0.00     0.162 A 
BRANCH  13  17
ATOM     17  O   UNL     1      18.913  49.383 -15.179  1.00  0.00    -0.504 OA
ATOM     18  H   UNL     1      18.829  48.444 -14.812  1.00  0.00     0.293 HD
ENDBRANCH  13  17
BRANCH  15  19
ATOM     19  O   UNL     1      19.929  47.573 -17.048  1.00  0.00    -0.502 OA
ATOM     20  H   UNL     1      20.380  46.750 -16.675  1.00  0.00     0.293 HD
ENDBRANCH  15  19
BRANCH  16  21
ATOM     21  O   UNL     1      22.066  48.457 -18.823  1.00  0.00    -0.504 OA
ATOM     22  H   UNL     1      21.653  47.591 -19.136  1.00  0.00     0.293 HD
ENDBRANCH  16  21
ENDBRANCH   1  11
BRANCH  10  23
ATOM     23  O   UNL     1      23.622  52.260 -14.918  1.00  0.00    -0.500 OA
ATOM     24  H   UNL     1      23.698  51.284 -15.179  1.00  0.00     0.294 HD
ENDBRANCH  10  23
BRANCH   5  25
ATOM     25  O   UNL     1      21.277  58.108 -19.450  1.00  0.00    -0.507 OA
ATOM     26  H   UNL     1      21.010  57.792 -20.375  1.00  0.00     0.293 HD
ENDBRANCH   5  25
BRANCH   7  27
ATOM     27  O   UNL     1      24.355  57.363 -15.821  1.00  0.00    -0.507 OA
ATOM     28  H   UNL     1      24.590  56.974 -14.919  1.00  0.00     0.293 HD
ENDBRANCH   7  27
TORSDOF 7
ENDMDL
