MODEL 1
REMARK VINA RESULT:    -2.831      0.000      0.000
REMARK INTER + INTRA:          -6.319
REMARK INTER:                  -4.816
REMARK INTRA:                  -1.503
REMARK UNBOUND:                -1.503
REMARK SMILES CCCCCCCCCCCCCC(=O)[O-]
REMARK SMILES IDX 8 1 9 2 10 3 11 4 12 5 13 6 14 7 15 8 16 9 7 10 6 11 5 12
REMARK SMILES IDX 4 13 3 14 2 15 1 16
REMARK H PARENT
REMARK Flexibility Score: inf
ROOT
ATOM      1  C   UNL     1       6.944 -35.479  14.386  1.00  0.00     0.000 C 
ENDROOT
BRANCH   1   2
ATOM      2  C   UNL     1       6.119 -34.527  13.507  1.00  0.00     0.000 C 
BRANCH   2   3
ATOM      3  C   UNL     1       6.540 -33.069  13.733  1.00  0.00     0.000 C 
BRANCH   3   4
ATOM      4  C   UNL     1       6.494 -32.707  15.225  1.00  0.00     0.000 C 
BRANCH   4   5
ATOM      5  C   UNL     1       7.813 -32.097  15.732  1.00  0.00     0.006 C 
BRANCH   5   6
ATOM      6  C   UNL     1       8.467 -32.874  16.886  1.00  0.00     0.053 C 
BRANCH   6   7
ATOM      7  C   UNL     1       8.899 -31.969  17.999  1.00  0.00     0.041 C 
ATOM      8  O   UNL     1       9.731 -31.050  17.780  1.00  0.00    -0.550 OA
ATOM      9  O   UNL     1       8.359 -32.121  19.269  1.00  0.00    -0.550 OA
ENDBRANCH   6   7
ENDBRANCH   5   6
ENDBRANCH   4   5
ENDBRANCH   3   4
ENDBRANCH   2   3
ENDBRANCH   1   2
BRANCH   1  10
ATOM     10  C   UNL     1       7.707 -36.532  13.567  1.00  0.00     0.000 C 
BRANCH  10  11
ATOM     11  C   UNL     1       8.961 -35.955  12.887  1.00  0.00    -0.000 C 
BRANCH  11  12
ATOM     12  C   UNL     1       9.677 -34.897  13.747  1.00  0.00    -0.000 C 
BRANCH  12  13
ATOM     13  C   UNL     1      10.703 -34.025  12.998  1.00  0.00    -0.000 C 
BRANCH  13  14
ATOM     14  C   UNL     1      10.295 -32.545  12.930  1.00  0.00    -0.000 C 
BRANCH  14  15
ATOM     15  C   UNL     1      10.793 -31.741  14.142  1.00  0.00    -0.003 C 
ATOM     16  C   UNL     1      12.299 -31.483  14.104  1.00  0.00     0.004 C 
ENDBRANCH  14  15
ENDBRANCH  13  14
ENDBRANCH  12  13
ENDBRANCH  11  12
ENDBRANCH  10  11
ENDBRANCH   1  10
TORSDOF 12
ENDMDL
MODEL 2
REMARK VINA RESULT:    -2.818      1.073      2.117
REMARK INTER + INTRA:          -6.297
REMARK INTER:                  -5.144
REMARK INTRA:                  -1.154
REMARK UNBOUND:                -1.503
REMARK SMILES CCCCCCCCCCCCCC(=O)[O-]
REMARK SMILES IDX 8 1 9 2 10 3 11 4 12 5 13 6 14 7 15 8 16 9 7 10 6 11 5 12
REMARK SMILES IDX 4 13 3 14 2 15 1 16
REMARK H PARENT
REMARK Flexibility Score: inf
ROOT
ATOM      1  C   UNL     1       8.010 -34.815  13.515  1.00  0.00     0.000 C 
ENDROOT
BRANCH   1   2
ATOM      2  C   UNL     1       7.245 -33.647  12.875  1.00  0.00     0.000 C 
BRANCH   2   3
ATOM      3  C   UNL     1       6.510 -32.823  13.940  1.00  0.00     0.000 C 
BRANCH   3   4
ATOM      4  C   UNL     1       6.851 -33.319  15.353  1.00  0.00     0.000 C 
BRANCH   4   5
ATOM      5  C   UNL     1       7.512 -32.235  16.222  1.00  0.00     0.006 C 
BRANCH   5   6
ATOM      6  C   UNL     1       8.518 -32.775  17.253  1.00  0.00     0.053 C 
BRANCH   6   7
ATOM      7  C   UNL     1       9.214 -31.673  17.990  1.00  0.00     0.041 C 
ATOM      8  O   UNL     1       9.018 -31.514  19.223  1.00  0.00    -0.550 OA
ATOM      9  O   UNL     1      10.104 -30.842  17.322  1.00  0.00    -0.550 OA
ENDBRANCH   6   7
ENDBRANCH   5   6
ENDBRANCH   4   5
ENDBRANCH   3   4
ENDBRANCH   2   3
ENDBRANCH   1   2
BRANCH   1  10
ATOM     10  C   UNL     1       9.532 -34.604  13.505  1.00  0.00     0.000 C 
BRANCH  10  11
ATOM     11  C   UNL     1       9.932 -33.210  12.994  1.00  0.00    -0.000 C 
BRANCH  11  12
ATOM     12  C   UNL     1      10.321 -32.243  14.129  1.00  0.00    -0.000 C 
BRANCH  12  13
ATOM     13  C   UNL     1      11.687 -31.552  13.964  1.00  0.00    -0.000 C 
BRANCH  13  14
ATOM     14  C   UNL     1      12.797 -32.517  13.515  1.00  0.00    -0.000 C 
BRANCH  14  15
ATOM     15  C   UNL     1      14.192 -31.872  13.561  1.00  0.00    -0.003 C 
ATOM     16  C   UNL     1      14.141 -30.370  13.842  1.00  0.00     0.004 C 
ENDBRANCH  14  15
ENDBRANCH  13  14
ENDBRANCH  12  13
ENDBRANCH  11  12
ENDBRANCH  10  11
ENDBRANCH   1  10
TORSDOF 12
ENDMDL
MODEL 3
REMARK VINA RESULT:    -2.745      0.964      2.102
REMARK INTER + INTRA:          -6.174
REMARK INTER:                  -5.168
REMARK INTRA:                  -1.006
REMARK UNBOUND:                -1.503
REMARK SMILES CCCCCCCCCCCCCC(=O)[O-]
REMARK SMILES IDX 8 1 9 2 10 3 11 4 12 5 13 6 14 7 15 8 16 9 7 10 6 11 5 12
REMARK SMILES IDX 4 13 3 14 2 15 1 16
REMARK H PARENT
REMARK Flexibility Score: inf
ROOT
ATOM      1  C   UNL     1       8.906 -34.368  12.876  1.00  0.00     0.000 C 
ENDROOT
BRANCH   1   2
ATOM      2  C   UNL     1       7.520 -34.882  13.295  1.00  0.00     0.000 C 
BRANCH   2   3
ATOM      3  C   UNL     1       7.207 -34.497  14.746  1.00  0.00     0.000 C 
BRANCH   3   4
ATOM      4  C   UNL     1       6.797 -33.020  14.847  1.00  0.00     0.000 C 
BRANCH   4   5
ATOM      5  C   UNL     1       7.805 -32.174  15.646  1.00  0.00     0.006 C 
BRANCH   5   6
ATOM      6  C   UNL     1       8.445 -32.909  16.836  1.00  0.00     0.053 C 
BRANCH   6   7
ATOM      7  C   UNL     1       8.892 -31.963  17.907  1.00  0.00     0.041 C 
ATOM      8  O   UNL     1       8.526 -32.137  19.099  1.00  0.00    -0.550 OA
ATOM      9  O   UNL     1       9.739 -30.908  17.594  1.00  0.00    -0.550 OA
ENDBRANCH   6   7
ENDBRANCH   5   6
ENDBRANCH   4   5
ENDBRANCH   3   4
ENDBRANCH   2   3
ENDBRANCH   1   2
BRANCH   1  10
ATOM     10  C   UNL     1      10.048 -35.267  13.375  1.00  0.00     0.000 C 
BRANCH  10  11
ATOM     11  C   UNL     1      11.386 -34.515  13.486  1.00  0.00    -0.000 C 
BRANCH  11  12
ATOM     12  C   UNL     1      11.287 -33.045  13.037  1.00  0.00    -0.000 C 
BRANCH  12  13
ATOM     13  C   UNL     1      10.869 -32.049  14.134  1.00  0.00    -0.000 C 
BRANCH  13  14
ATOM     14  C   UNL     1      11.966 -31.023  14.462  1.00  0.00    -0.000 C 
BRANCH  14  15
ATOM     15  C   UNL     1      13.367 -31.511  14.061  1.00  0.00    -0.003 C 
ATOM     16  C   UNL     1      14.292 -30.370  13.636  1.00  0.00     0.004 C 
ENDBRANCH  14  15
ENDBRANCH  13  14
ENDBRANCH  12  13
ENDBRANCH  11  12
ENDBRANCH  10  11
ENDBRANCH   1  10
TORSDOF 12
ENDMDL
MODEL 4
REMARK VINA RESULT:    -2.334      1.869      3.486
REMARK INTER + INTRA:          -5.475
REMARK INTER:                  -4.627
REMARK INTRA:                  -0.847
REMARK UNBOUND:                -1.503
REMARK SMILES CCCCCCCCCCCCCC(=O)[O-]
REMARK SMILES IDX 8 1 9 2 10 3 11 4 12 5 13 6 14 7 15 8 16 9 7 10 6 11 5 12
REMARK SMILES IDX 4 13 3 14 2 15 1 16
REMARK H PARENT
REMARK Flexibility Score: inf
ROOT
ATOM      1  C   UNL     1      10.485 -34.229  12.980  1.00  0.00     0.000 C 
ENDROOT
BRANCH   1   2
ATOM      2  C   UNL     1       9.131 -33.530  13.177  1.00  0.00     0.000 C 
BRANCH   2   3
ATOM      3  C   UNL     1       8.388 -34.104  14.390  1.00  0.00     0.000 C 
BRANCH   3   4
ATOM      4  C   UNL     1       7.211 -33.203  14.793  1.00  0.00     0.000 C 
BRANCH   4   5
ATOM      5  C   UNL     1       7.570 -32.222  15.923  1.00  0.00     0.006 C 
BRANCH   5   6
ATOM      6  C   UNL     1       8.423 -32.835  17.047  1.00  0.00     0.053 C 
BRANCH   6   7
ATOM      7  C   UNL     1       9.150 -31.790  17.835  1.00  0.00     0.041 C 
ATOM      8  O   UNL     1       9.895 -30.961  17.251  1.00  0.00    -0.550 OA
ATOM      9  O   UNL     1       8.979 -31.711  19.211  1.00  0.00    -0.550 OA
ENDBRANCH   6   7
ENDBRANCH   5   6
ENDBRANCH   4   5
ENDBRANCH   3   4
ENDBRANCH   2   3
ENDBRANCH   1   2
BRANCH   1  10
ATOM     10  C   UNL     1      11.675 -33.334  13.359  1.00  0.00     0.000 C 
BRANCH  10  11
ATOM     11  C   UNL     1      11.242 -31.915  13.764  1.00  0.00    -0.000 C 
BRANCH  11  12
ATOM     12  C   UNL     1      12.339 -31.145  14.522  1.00  0.00    -0.000 C 
BRANCH  12  13
ATOM     13  C   UNL     1      13.734 -31.176  13.870  1.00  0.00    -0.000 C 
BRANCH  13  14
ATOM     14  C   UNL     1      14.384 -29.786  13.778  1.00  0.00    -0.000 C 
BRANCH  14  15
ATOM     15  C   UNL     1      14.886 -29.279  15.140  1.00  0.00    -0.003 C 
ATOM     16  C   UNL     1      15.539 -27.900  15.054  1.00  0.00     0.004 C 
ENDBRANCH  14  15
ENDBRANCH  13  14
ENDBRANCH  12  13
ENDBRANCH  11  12
ENDBRANCH  10  11
ENDBRANCH   1  10
TORSDOF 12
ENDMDL
MODEL 5
REMARK VINA RESULT:    -2.223      2.578      4.814
REMARK INTER + INTRA:          -5.286
REMARK INTER:                  -4.234
REMARK INTRA:                  -1.052
REMARK UNBOUND:                -1.503
REMARK SMILES CCCCCCCCCCCCCC(=O)[O-]
REMARK SMILES IDX 8 1 9 2 10 3 11 4 12 5 13 6 14 7 15 8 16 9 7 10 6 11 5 12
REMARK SMILES IDX 4 13 3 14 2 15 1 16
REMARK H PARENT
REMARK Flexibility Score: inf
ROOT
ATOM      1  C   UNL     1      10.785 -33.109  13.212  1.00  0.00     0.000 C 
ENDROOT
BRANCH   1   2
ATOM      2  C   UNL     1       9.335 -33.615  13.162  1.00  0.00     0.000 C 
BRANCH   2   3
ATOM      3  C   UNL     1       8.390 -32.645  13.884  1.00  0.00     0.000 C 
BRANCH   3   4
ATOM      4  C   UNL     1       7.106 -32.421  13.072  1.00  0.00     0.000 C 
BRANCH   4   5
ATOM      5  C   UNL     1       5.940 -33.310  13.542  1.00  0.00     0.006 C 
BRANCH   5   6
ATOM      6  C   UNL     1       6.150 -33.950  14.925  1.00  0.00     0.053 C 
BRANCH   6   7
ATOM      7  C   UNL     1       6.357 -35.430  14.833  1.00  0.00     0.041 C 
ATOM      8  O   UNL     1       6.512 -36.113  15.880  1.00  0.00    -0.550 OA
ATOM      9  O   UNL     1       6.346 -36.060  13.596  1.00  0.00    -0.550 OA
ENDBRANCH   6   7
ENDBRANCH   5   6
ENDBRANCH   4   5
ENDBRANCH   3   4
ENDBRANCH   2   3
ENDBRANCH   1   2
BRANCH   1  10
ATOM     10  C   UNL     1      10.879 -31.601  13.490  1.00  0.00     0.000 C 
BRANCH  10  11
ATOM     11  C   UNL     1      12.144 -31.224  14.280  1.00  0.00    -0.000 C 
BRANCH  11  12
ATOM     12  C   UNL     1      11.844 -30.822  15.736  1.00  0.00    -0.000 C 
BRANCH  12  13
ATOM     13  C   UNL     1      10.479 -31.285  16.279  1.00  0.00    -0.000 C 
BRANCH  13  14
ATOM     14  C   UNL     1      10.087 -30.586  17.591  1.00  0.00    -0.000 C 
BRANCH  14  15
ATOM     15  C   UNL     1       9.207 -31.470  18.490  1.00  0.00    -0.003 C 
ATOM     16  C   UNL     1       8.328 -32.434  17.693  1.00  0.00     0.004 C 
ENDBRANCH  14  15
ENDBRANCH  13  14
ENDBRANCH  12  13
ENDBRANCH  11  12
ENDBRANCH  10  11
ENDBRANCH   1  10
TORSDOF 12
ENDMDL
MODEL 6
REMARK VINA RESULT:    -2.201      2.347      4.630
REMARK INTER + INTRA:          -5.248
REMARK INTER:                  -4.175
REMARK INTRA:                  -1.073
REMARK UNBOUND:                -1.503
REMARK SMILES CCCCCCCCCCCCCC(=O)[O-]
REMARK SMILES IDX 8 1 9 2 10 3 11 4 12 5 13 6 14 7 15 8 16 9 7 10 6 11 5 12
REMARK SMILES IDX 4 13 3 14 2 15 1 16
REMARK H PARENT
REMARK Flexibility Score: inf
ROOT
ATOM      1  C   UNL     1       8.013 -34.826  12.879  1.00  0.00     0.000 C 
ENDROOT
BRANCH   1   2
ATOM      2  C   UNL     1       9.363 -35.152  13.538  1.00  0.00     0.000 C 
BRANCH   2   3
ATOM      3  C   UNL     1      10.501 -34.363  12.878  1.00  0.00     0.000 C 
BRANCH   3   4
ATOM      4  C   UNL     1      10.627 -32.961  13.491  1.00  0.00     0.000 C 
BRANCH   4   5
ATOM      5  C   UNL     1      12.090 -32.530  13.700  1.00  0.00     0.006 C 
BRANCH   5   6
ATOM      6  C   UNL     1      12.266 -31.050  14.078  1.00  0.00     0.053 C 
BRANCH   6   7
ATOM      7  C   UNL     1      13.703 -30.697  14.311  1.00  0.00     0.041 C 
ATOM      8  O   UNL     1      14.187 -30.746  15.472  1.00  0.00    -0.550 OA
ATOM      9  O   UNL     1      14.516 -30.346  13.241  1.00  0.00    -0.550 OA
ENDBRANCH   6   7
ENDBRANCH   5   6
ENDBRANCH   4   5
ENDBRANCH   3   4
ENDBRANCH   2   3
ENDBRANCH   1   2
BRANCH   1  10
ATOM     10  C   UNL     1       6.820 -35.090  13.810  1.00  0.00     0.000 C 
BRANCH  10  11
ATOM     11  C   UNL     1       7.015 -34.479  15.208  1.00  0.00    -0.000 C 
BRANCH  11  12
ATOM     12  C   UNL     1       6.971 -32.940  15.203  1.00  0.00    -0.000 C 
BRANCH  12  13
ATOM     13  C   UNL     1       8.175 -32.245  15.867  1.00  0.00    -0.000 C 
BRANCH  13  14
ATOM     14  C   UNL     1       8.120 -32.290  17.403  1.00  0.00    -0.000 C 
BRANCH  14  15
ATOM     15  C   UNL     1       9.252 -31.480  18.056  1.00  0.00    -0.003 C 
ATOM     16  C   UNL     1      10.292 -30.995  17.046  1.00  0.00     0.004 C 
ENDBRANCH  14  15
ENDBRANCH  13  14
ENDBRANCH  12  13
ENDBRANCH  11  12
ENDBRANCH  10  11
ENDBRANCH   1  10
TORSDOF 12
ENDMDL
MODEL 7
REMARK VINA RESULT:    -1.753      1.778      4.396
REMARK INTER + INTRA:          -4.486
REMARK INTER:                  -3.535
REMARK INTRA:                  -0.951
REMARK UNBOUND:                -1.503
REMARK SMILES CCCCCCCCCCCCCC(=O)[O-]
REMARK SMILES IDX 8 1 9 2 10 3 11 4 12 5 13 6 14 7 15 8 16 9 7 10 6 11 5 12
REMARK SMILES IDX 4 13 3 14 2 15 1 16
REMARK H PARENT
REMARK Flexibility Score: inf
ROOT
ATOM      1  C   UNL     1       9.180 -35.419  12.882  1.00  0.00     0.000 C 
ENDROOT
BRANCH   1   2
ATOM      2  C   UNL     1      10.409 -35.237  13.787  1.00  0.00     0.000 C 
BRANCH   2   3
ATOM      3  C   UNL     1      11.669 -34.971  12.954  1.00  0.00     0.000 C 
BRANCH   3   4
ATOM      4  C   UNL     1      12.096 -33.499  13.057  1.00  0.00     0.000 C 
BRANCH   4   5
ATOM      5  C   UNL     1      10.937 -32.568  13.458  1.00  0.00     0.006 C 
BRANCH   5   6
ATOM      6  C   UNL     1      11.338 -31.093  13.624  1.00  0.00     0.053 C 
BRANCH   6   7
ATOM      7  C   UNL     1      12.325 -30.901  14.734  1.00  0.00     0.041 C 
ATOM      8  O   UNL     1      13.560 -30.885  14.488  1.00  0.00    -0.550 OA
ATOM      9  O   UNL     1      11.880 -30.706  16.035  1.00  0.00    -0.550 OA
ENDBRANCH   6   7
ENDBRANCH   5   6
ENDBRANCH   4   5
ENDBRANCH   3   4
ENDBRANCH   2   3
ENDBRANCH   1   2
BRANCH   1  10
ATOM     10  C   UNL     1       8.635 -36.856  12.903  1.00  0.00     0.000 C 
BRANCH  10  11
ATOM     11  C   UNL     1       7.098 -36.904  12.925  1.00  0.00    -0.000 C 
BRANCH  11  12
ATOM     12  C   UNL     1       6.456 -35.511  13.061  1.00  0.00    -0.000 C 
BRANCH  12  13
ATOM     13  C   UNL     1       6.036 -35.117  14.490  1.00  0.00    -0.000 C 
BRANCH  13  14
ATOM     14  C   UNL     1       5.875 -33.599  14.670  1.00  0.00    -0.000 C 
BRANCH  14  15
ATOM     15  C   UNL     1       7.214 -32.850  14.578  1.00  0.00    -0.003 C 
ATOM     16  C   UNL     1       7.847 -32.598  15.947  1.00  0.00     0.004 C 
ENDBRANCH  14  15
ENDBRANCH  13  14
ENDBRANCH  12  13
ENDBRANCH  11  12
ENDBRANCH  10  11
ENDBRANCH   1  10
TORSDOF 12
ENDMDL
MODEL 8
REMARK VINA RESULT:    -0.511      2.590      4.161
REMARK INTER + INTRA:          -2.372
REMARK INTER:                  -1.333
REMARK INTRA:                  -1.039
REMARK UNBOUND:                -1.503
REMARK SMILES CCCCCCCCCCCCCC(=O)[O-]
REMARK SMILES IDX 8 1 9 2 10 3 11 4 12 5 13 6 14 7 15 8 16 9 7 10 6 11 5 12
REMARK SMILES IDX 4 13 3 14 2 15 1 16
REMARK H PARENT
REMARK Flexibility Score: inf
ROOT
ATOM      1  C   UNL     1       7.964 -33.154  16.355  1.00  0.00     0.000 C 
ENDROOT
BRANCH   1   2
ATOM      2  C   UNL     1       6.824 -32.253  15.855  1.00  0.00     0.000 C 
BRANCH   2   3
ATOM      3  C   UNL     1       5.936 -32.997  14.851  1.00  0.00     0.000 C 
BRANCH   3   4
ATOM      4  C   UNL     1       6.563 -32.989  13.449  1.00  0.00     0.000 C 
BRANCH   4   5
ATOM      5  C   UNL     1       6.759 -34.404  12.875  1.00  0.00     0.006 C 
BRANCH   5   6
ATOM      6  C   UNL     1       6.094 -35.519  13.699  1.00  0.00     0.053 C 
BRANCH   6   7
ATOM      7  C   UNL     1       7.101 -36.364  14.417  1.00  0.00     0.041 C 
ATOM      8  O   UNL     1       8.175 -36.690  13.847  1.00  0.00    -0.550 OA
ATOM      9  O   UNL     1       6.868 -36.764  15.726  1.00  0.00    -0.550 OA
ENDBRANCH   6   7
ENDBRANCH   5   6
ENDBRANCH   4   5
ENDBRANCH   3   4
ENDBRANCH   2   3
ENDBRANCH   1   2
BRANCH   1  10
ATOM     10  C   UNL     1       9.191 -32.356  16.822  1.00  0.00     0.000 C 
BRANCH  10  11
ATOM     11  C   UNL     1       9.885 -31.612  15.668  1.00  0.00    -0.000 C 
BRANCH  11  12
ATOM     12  C   UNL     1      10.090 -32.495  14.422  1.00  0.00    -0.000 C 
BRANCH  12  13
ATOM     13  C   UNL     1      11.394 -32.240  13.643  1.00  0.00    -0.000 C 
BRANCH  13  14
ATOM     14  C   UNL     1      12.261 -31.135  14.269  1.00  0.00    -0.000 C 
BRANCH  14  15
ATOM     15  C   UNL     1      13.755 -31.312  13.957  1.00  0.00    -0.003 C 
ATOM     16  C   UNL     1      14.467 -29.983  13.699  1.00  0.00     0.004 C 
ENDBRANCH  14  15
ENDBRANCH  13  14
ENDBRANCH  12  13
ENDBRANCH  11  12
ENDBRANCH  10  11
ENDBRANCH   1  10
TORSDOF 12
ENDMDL
