MODEL 1
REMARK VINA RESULT:    -5.312      0.000      0.000
REMARK INTER + INTRA:          -6.705
REMARK INTER:                  -6.399
REMARK INTRA:                  -0.307
REMARK UNBOUND:                -0.307
REMARK SMILES O=c1c(O)c(-c2ccc(O)c(O)c2)oc2cc(O)cc(O)c12
REMARK SMILES IDX 5 1 3 2 2 3 1 4 22 5 20 6 19 7 17 8 16 9 15 10 14 11 6 12
REMARK SMILES IDX 7 13 8 14 9 15 13 16 11 17 10 18 12 20 4 22 21 24 18 26
REMARK H PARENT 10 19 12 21 4 23 21 25 18 27
REMARK Flexibility Score: inf
ROOT
ATOM      1  C   UNL     1     120.871 127.766 129.762  1.00  0.00     0.180 A 
ATOM      2  C   UNL     1     119.853 128.122 128.861  1.00  0.00     0.208 A 
ATOM      3  C   UNL     1     118.612 127.470 128.946  1.00  0.00     0.238 A 
ATOM      4  O   UNL     1     117.722 127.755 128.102  1.00  0.00    -0.285 OA
ATOM      5  C   UNL     1     118.399 126.485 129.939  1.00  0.00     0.111 A 
ATOM      6  C   UNL     1     117.169 125.790 130.141  1.00  0.00     0.134 A 
ATOM      7  C   UNL     1     117.112 124.742 131.069  1.00  0.00     0.093 A 
ATOM      8  C   UNL     1     118.224 124.407 131.846  1.00  0.00     0.123 A 
ATOM      9  C   UNL     1     119.411 125.119 131.698  1.00  0.00     0.094 A 
ATOM     10  C   UNL     1     119.510 126.146 130.756  1.00  0.00     0.146 A 
ATOM     11  O   UNL     1     120.663 126.791 130.640  1.00  0.00    -0.452 OA
ENDROOT
BRANCH   1  12
ATOM     12  C   UNL     1     122.198 128.426 129.752  1.00  0.00     0.025 A 
ATOM     13  C   UNL     1     122.356 129.667 130.387  1.00  0.00     0.016 A 
ATOM     14  C   UNL     1     123.593 130.318 130.372  1.00  0.00     0.051 A 
ATOM     15  C   UNL     1     124.684 129.743 129.708  1.00  0.00     0.157 A 
ATOM     16  C   UNL     1     123.291 127.863 129.068  1.00  0.00     0.062 A 
ATOM     17  C   UNL     1     124.532 128.516 129.052  1.00  0.00     0.158 A 
BRANCH  15  18
ATOM     18  O   UNL     1     125.920 130.387 129.692  1.00  0.00    -0.504 OA
ATOM     19  H   UNL     1     126.687 130.049 129.121  1.00  0.00     0.293 HD
ENDBRANCH  15  18
BRANCH  17  20
ATOM     20  O   UNL     1     125.615 127.953 128.379  1.00  0.00    -0.504 OA
ATOM     21  H   UNL     1     126.441 128.495 128.155  1.00  0.00     0.293 HD
ENDBRANCH  17  20
ENDBRANCH   1  12
BRANCH   2  22
ATOM     22  O   UNL     1     120.091 129.083 127.875  1.00  0.00    -0.502 OA
ATOM     23  H   UNL     1     120.897 129.046 127.263  1.00  0.00     0.293 HD
ENDBRANCH   2  22
BRANCH   6  24
ATOM     24  O   UNL     1     115.977 126.106 129.483  1.00  0.00    -0.507 OA
ATOM     25  H   UNL     1     115.366 125.432 129.047  1.00  0.00     0.293 HD
ENDBRANCH   6  24
BRANCH   8  26
ATOM     26  O   UNL     1     118.153 123.373 132.777  1.00  0.00    -0.508 OA
ATOM     27  H   UNL     1     118.666 123.409 133.650  1.00  0.00     0.293 HD
ENDBRANCH   8  26
TORSDOF 6
ENDMDL
MODEL 2
REMARK VINA RESULT:    -5.286      1.765      6.820
REMARK INTER + INTRA:          -6.674
REMARK INTER:                  -6.409
REMARK INTRA:                  -0.265
REMARK UNBOUND:                -0.307
REMARK SMILES O=c1c(O)c(-c2ccc(O)c(O)c2)oc2cc(O)cc(O)c12
REMARK SMILES IDX 5 1 3 2 2 3 1 4 22 5 20 6 19 7 17 8 16 9 15 10 14 11 6 12
REMARK SMILES IDX 7 13 8 14 9 15 13 16 11 17 10 18 12 20 4 22 21 24 18 26
REMARK H PARENT 10 19 12 21 4 23 21 25 18 27
REMARK Flexibility Score: inf
ROOT
ATOM      1  C   UNL     1     121.156 127.567 130.549  1.00  0.00     0.180 A 
ATOM      2  C   UNL     1     120.717 128.903 130.579  1.00  0.00     0.208 A 
ATOM      3  C   UNL     1     121.520 129.895 129.993  1.00  0.00     0.238 A 
ATOM      4  O   UNL     1     121.147 131.096 130.070  1.00  0.00    -0.285 OA
ATOM      5  C   UNL     1     122.740 129.539 129.370  1.00  0.00     0.111 A 
ATOM      6  C   UNL     1     123.611 130.457 128.710  1.00  0.00     0.134 A 
ATOM      7  C   UNL     1     124.855 130.014 128.243  1.00  0.00     0.093 A 
ATOM      8  C   UNL     1     125.231 128.673 128.356  1.00  0.00     0.123 A 
ATOM      9  C   UNL     1     124.361 127.758 128.945  1.00  0.00     0.094 A 
ATOM     10  C   UNL     1     123.129 128.176 129.453  1.00  0.00     0.146 A 
ATOM     11  O   UNL     1     122.336 127.274 130.016  1.00  0.00    -0.452 OA
ENDROOT
BRANCH   1  12
ATOM     12  C   UNL     1     120.354 126.462 131.124  1.00  0.00     0.025 A 
ATOM     13  C   UNL     1     120.799 125.820 132.290  1.00  0.00     0.016 A 
ATOM     14  C   UNL     1     120.070 124.762 132.838  1.00  0.00     0.051 A 
ATOM     15  C   UNL     1     118.894 124.321 132.219  1.00  0.00     0.157 A 
ATOM     16  C   UNL     1     119.184 126.001 130.494  1.00  0.00     0.062 A 
ATOM     17  C   UNL     1     118.452 124.938 131.043  1.00  0.00     0.158 A 
BRANCH  15  18
ATOM     18  O   UNL     1     118.162 123.266 132.763  1.00  0.00    -0.504 OA
ATOM     19  H   UNL     1     118.441 122.818 133.628  1.00  0.00     0.293 HD
ENDBRANCH  15  18
BRANCH  17  20
ATOM     20  O   UNL     1     117.289 124.488 130.420  1.00  0.00    -0.504 OA
ATOM     21  H   UNL     1     117.311 123.751 129.724  1.00  0.00     0.293 HD
ENDBRANCH  17  20
ENDBRANCH   1  12
BRANCH   2  22
ATOM     22  O   UNL     1     119.520 129.235 131.218  1.00  0.00    -0.502 OA
ATOM     23  H   UNL     1     119.493 129.752 132.088  1.00  0.00     0.293 HD
ENDBRANCH   2  22
BRANCH   6  24
ATOM     24  O   UNL     1     123.293 131.795 128.464  1.00  0.00    -0.507 OA
ATOM     25  H   UNL     1     122.943 132.439 129.157  1.00  0.00     0.293 HD
ENDBRANCH   6  24
BRANCH   8  26
ATOM     26  O   UNL     1     126.464 128.238 127.875  1.00  0.00    -0.508 OA
ATOM     27  H   UNL     1     127.321 128.734 128.088  1.00  0.00     0.293 HD
ENDBRANCH   8  26
TORSDOF 6
ENDMDL
MODEL 3
REMARK VINA RESULT:    -5.264     13.668     18.666
REMARK INTER + INTRA:          -6.647
REMARK INTER:                  -6.317
REMARK INTRA:                  -0.331
REMARK UNBOUND:                -0.307
REMARK SMILES O=c1c(O)c(-c2ccc(O)c(O)c2)oc2cc(O)cc(O)c12
REMARK SMILES IDX 5 1 3 2 2 3 1 4 22 5 20 6 19 7 17 8 16 9 15 10 14 11 6 12
REMARK SMILES IDX 7 13 8 14 9 15 13 16 11 17 10 18 12 20 4 22 21 24 18 26
REMARK H PARENT 10 19 12 21 4 23 21 25 18 27
REMARK Flexibility Score: inf
ROOT
ATOM      1  C   UNL     1     130.726 138.608 137.592  1.00  0.00     0.180 A 
ATOM      2  C   UNL     1     131.202 138.654 138.914  1.00  0.00     0.208 A 
ATOM      3  C   UNL     1     132.542 139.009 139.142  1.00  0.00     0.238 A 
ATOM      4  O   UNL     1     132.977 138.996 140.324  1.00  0.00    -0.285 OA
ATOM      5  C   UNL     1     133.382 139.329 138.049  1.00  0.00     0.111 A 
ATOM      6  C   UNL     1     134.744 139.740 138.167  1.00  0.00     0.134 A 
ATOM      7  C   UNL     1     135.518 139.905 137.011  1.00  0.00     0.093 A 
ATOM      8  C   UNL     1     134.961 139.735 135.741  1.00  0.00     0.123 A 
ATOM      9  C   UNL     1     133.617 139.393 135.616  1.00  0.00     0.094 A 
ATOM     10  C   UNL     1     132.829 139.186 136.750  1.00  0.00     0.146 A 
ATOM     11  O   UNL     1     131.556 138.849 136.584  1.00  0.00    -0.452 OA
ENDROOT
BRANCH   1  12
ATOM     12  C   UNL     1     129.320 138.268 137.274  1.00  0.00     0.025 A 
ATOM     13  C   UNL     1     128.993 136.950 136.917  1.00  0.00     0.016 A 
ATOM     14  C   UNL     1     127.677 136.610 136.592  1.00  0.00     0.051 A 
ATOM     15  C   UNL     1     126.673 137.587 136.605  1.00  0.00     0.157 A 
ATOM     16  C   UNL     1     128.312 139.249 137.264  1.00  0.00     0.062 A 
ATOM     17  C   UNL     1     126.991 138.909 136.937  1.00  0.00     0.158 A 
BRANCH  15  18
ATOM     18  O   UNL     1     125.358 137.252 136.283  1.00  0.00    -0.504 OA
ATOM     19  H   UNL     1     125.111 136.894 135.367  1.00  0.00     0.293 HD
ENDBRANCH  15  18
BRANCH  17  20
ATOM     20  O   UNL     1     125.993 139.882 136.935  1.00  0.00    -0.504 OA
ATOM     21  H   UNL     1     125.149 139.777 137.485  1.00  0.00     0.293 HD
ENDBRANCH  17  20
ENDBRANCH   1  12
BRANCH   2  22
ATOM     22  O   UNL     1     130.361 138.314 139.977  1.00  0.00    -0.502 OA
ATOM     23  H   UNL     1     130.222 138.920 140.776  1.00  0.00     0.293 HD
ENDBRANCH   2  22
BRANCH   6  24
ATOM     24  O   UNL     1     135.371 140.025 139.384  1.00  0.00    -0.507 OA
ATOM     25  H   UNL     1     136.097 139.464 139.801  1.00  0.00     0.293 HD
ENDBRANCH   6  24
BRANCH   8  26
ATOM     26  O   UNL     1     135.735 139.916 134.597  1.00  0.00    -0.508 OA
ATOM     27  H   UNL     1     136.512 139.304 134.380  1.00  0.00     0.293 HD
ENDBRANCH   8  26
TORSDOF 6
ENDMDL
MODEL 4
REMARK VINA RESULT:    -5.228      1.412      3.225
REMARK INTER + INTRA:          -6.605
REMARK INTER:                  -6.283
REMARK INTRA:                  -0.321
REMARK UNBOUND:                -0.307
REMARK SMILES O=c1c(O)c(-c2ccc(O)c(O)c2)oc2cc(O)cc(O)c12
REMARK SMILES IDX 5 1 3 2 2 3 1 4 22 5 20 6 19 7 17 8 16 9 15 10 14 11 6 12
REMARK SMILES IDX 7 13 8 14 9 15 13 16 11 17 10 18 12 20 4 22 21 24 18 26
REMARK H PARENT 10 19 12 21 4 23 21 25 18 27
REMARK Flexibility Score: inf
ROOT
ATOM      1  C   UNL     1     121.593 127.475 130.275  1.00  0.00     0.180 A 
ATOM      2  C   UNL     1     121.890 126.728 131.428  1.00  0.00     0.208 A 
ATOM      3  C   UNL     1     120.908 125.875 131.957  1.00  0.00     0.238 A 
ATOM      4  O   UNL     1     121.161 125.249 133.020  1.00  0.00    -0.285 OA
ATOM      5  C   UNL     1     119.649 125.766 131.318  1.00  0.00     0.111 A 
ATOM      6  C   UNL     1     118.596 124.903 131.745  1.00  0.00     0.134 A 
ATOM      7  C   UNL     1     117.347 124.975 131.114  1.00  0.00     0.093 A 
ATOM      8  C   UNL     1     117.134 125.833 130.033  1.00  0.00     0.123 A 
ATOM      9  C   UNL     1     118.175 126.635 129.572  1.00  0.00     0.094 A 
ATOM     10  C   UNL     1     119.421 126.614 130.202  1.00  0.00     0.146 A 
ATOM     11  O   UNL     1     120.381 127.403 129.737  1.00  0.00    -0.452 OA
ENDROOT
BRANCH   1  12
ATOM     12  C   UNL     1     122.585 128.377 129.644  1.00  0.00     0.025 A 
ATOM     13  C   UNL     1     123.498 127.856 128.714  1.00  0.00     0.016 A 
ATOM     14  C   UNL     1     124.456 128.684 128.123  1.00  0.00     0.051 A 
ATOM     15  C   UNL     1     124.523 130.041 128.464  1.00  0.00     0.157 A 
ATOM     16  C   UNL     1     122.670 129.736 130.000  1.00  0.00     0.062 A 
ATOM     17  C   UNL     1     123.632 130.567 129.407  1.00  0.00     0.158 A 
BRANCH  15  18
ATOM     18  O   UNL     1     125.475 130.870 127.875  1.00  0.00    -0.504 OA
ATOM     19  H   UNL     1     126.197 131.323 128.424  1.00  0.00     0.293 HD
ENDBRANCH  15  18
BRANCH  17  20
ATOM     20  O   UNL     1     123.711 131.913 129.756  1.00  0.00    -0.504 OA
ATOM     21  H   UNL     1     123.061 132.330 130.412  1.00  0.00     0.293 HD
ENDBRANCH  17  20
ENDBRANCH   1  12
BRANCH   2  22
ATOM     22  O   UNL     1     123.131 126.866 132.055  1.00  0.00    -0.502 OA
ATOM     23  H   UNL     1     123.667 127.724 132.019  1.00  0.00     0.293 HD
ENDBRANCH   2  22
BRANCH   6  24
ATOM     24  O   UNL     1     118.731 123.946 132.754  1.00  0.00    -0.507 OA
ATOM     25  H   UNL     1     118.921 122.968 132.596  1.00  0.00     0.293 HD
ENDBRANCH   6  24
BRANCH   8  26
ATOM     26  O   UNL     1     115.893 125.886 129.402  1.00  0.00    -0.508 OA
ATOM     27  H   UNL     1     115.362 125.046 129.205  1.00  0.00     0.293 HD
ENDBRANCH   8  26
TORSDOF 6
ENDMDL
MODEL 5
REMARK VINA RESULT:    -5.090      1.633      6.934
REMARK INTER + INTRA:          -6.439
REMARK INTER:                  -6.122
REMARK INTRA:                  -0.316
REMARK UNBOUND:                -0.307
REMARK SMILES O=c1c(O)c(-c2ccc(O)c(O)c2)oc2cc(O)cc(O)c12
REMARK SMILES IDX 5 1 3 2 2 3 1 4 22 5 20 6 19 7 17 8 16 9 15 10 14 11 6 12
REMARK SMILES IDX 7 13 8 14 9 15 13 16 11 17 10 18 12 20 4 22 21 24 18 26
REMARK H PARENT 10 19 12 21 4 23 21 25 18 27
REMARK Flexibility Score: inf
ROOT
ATOM      1  C   UNL     1     120.761 128.129 129.867  1.00  0.00     0.180 A 
ATOM      2  C   UNL     1     120.604 129.498 130.145  1.00  0.00     0.208 A 
ATOM      3  C   UNL     1     121.664 130.375 129.862  1.00  0.00     0.238 A 
ATOM      4  O   UNL     1     121.538 131.592 130.163  1.00  0.00    -0.285 OA
ATOM      5  C   UNL     1     122.859 129.877 129.289  1.00  0.00     0.111 A 
ATOM      6  C   UNL     1     123.980 130.681 128.925  1.00  0.00     0.134 A 
ATOM      7  C   UNL     1     125.159 130.064 128.487  1.00  0.00     0.093 A 
ATOM      8  C   UNL     1     125.234 128.676 128.341  1.00  0.00     0.123 A 
ATOM      9  C   UNL     1     124.125 127.888 128.638  1.00  0.00     0.094 A 
ATOM     10  C   UNL     1     122.947 128.471 129.111  1.00  0.00     0.146 A 
ATOM     11  O   UNL     1     121.918 127.682 129.392  1.00  0.00    -0.452 OA
ENDROOT
BRANCH   1  12
ATOM     12  C   UNL     1     119.680 127.147 130.114  1.00  0.00     0.025 A 
ATOM     13  C   UNL     1     118.678 126.966 129.149  1.00  0.00     0.016 A 
ATOM     14  C   UNL     1     117.637 126.060 129.370  1.00  0.00     0.051 A 
ATOM     15  C   UNL     1     117.576 125.334 130.566  1.00  0.00     0.157 A 
ATOM     16  C   UNL     1     119.603 126.432 131.323  1.00  0.00     0.062 A 
ATOM     17  C   UNL     1     118.558 125.523 131.546  1.00  0.00     0.158 A 
BRANCH  15  18
ATOM     18  O   UNL     1     116.541 124.428 130.791  1.00  0.00    -0.504 OA
ATOM     19  H   UNL     1     116.118 124.322 131.706  1.00  0.00     0.293 HD
ENDBRANCH  15  18
BRANCH  17  20
ATOM     20  O   UNL     1     118.487 124.811 132.742  1.00  0.00    -0.504 OA
ATOM     21  H   UNL     1     118.805 125.210 133.617  1.00  0.00     0.293 HD
ENDBRANCH  17  20
ENDBRANCH   1  12
BRANCH   2  22
ATOM     22  O   UNL     1     119.425 129.967 130.729  1.00  0.00    -0.502 OA
ATOM     23  H   UNL     1     118.523 129.541 130.551  1.00  0.00     0.293 HD
ENDBRANCH   2  22
BRANCH   6  24
ATOM     24  O   UNL     1     123.978 132.078 128.946  1.00  0.00    -0.507 OA
ATOM     25  H   UNL     1     124.752 132.649 129.251  1.00  0.00     0.293 HD
ENDBRANCH   6  24
BRANCH   8  26
ATOM     26  O   UNL     1     126.406 128.073 127.891  1.00  0.00    -0.508 OA
ATOM     27  H   UNL     1     126.536 127.826 126.917  1.00  0.00     0.293 HD
ENDBRANCH   8  26
TORSDOF 6
ENDMDL
MODEL 6
REMARK VINA RESULT:    -5.001     11.037     15.492
REMARK INTER + INTRA:          -6.331
REMARK INTER:                  -6.034
REMARK INTRA:                  -0.297
REMARK UNBOUND:                -0.307
REMARK SMILES O=c1c(O)c(-c2ccc(O)c(O)c2)oc2cc(O)cc(O)c12
REMARK SMILES IDX 5 1 3 2 2 3 1 4 22 5 20 6 19 7 17 8 16 9 15 10 14 11 6 12
REMARK SMILES IDX 7 13 8 14 9 15 13 16 11 17 10 18 12 20 4 22 21 24 18 26
REMARK H PARENT 10 19 12 21 4 23 21 25 18 27
REMARK Flexibility Score: inf
ROOT
ATOM      1  C   UNL     1     132.504 134.387 129.612  1.00  0.00     0.180 A 
ATOM      2  C   UNL     1     133.798 134.573 130.127  1.00  0.00     0.208 A 
ATOM      3  C   UNL     1     134.271 135.881 130.323  1.00  0.00     0.238 A 
ATOM      4  O   UNL     1     135.450 136.042 130.734  1.00  0.00    -0.285 OA
ATOM      5  C   UNL     1     133.439 136.985 130.017  1.00  0.00     0.111 A 
ATOM      6  C   UNL     1     133.801 138.351 130.213  1.00  0.00     0.134 A 
ATOM      7  C   UNL     1     132.949 139.364 129.752  1.00  0.00     0.093 A 
ATOM      8  C   UNL     1     131.721 139.058 129.160  1.00  0.00     0.123 A 
ATOM      9  C   UNL     1     131.333 137.728 129.019  1.00  0.00     0.094 A 
ATOM     10  C   UNL     1     132.176 136.695 129.435  1.00  0.00     0.146 A 
ATOM     11  O   UNL     1     131.773 135.442 129.271  1.00  0.00    -0.452 OA
ENDROOT
BRANCH   1  12
ATOM     12  C   UNL     1     131.927 133.039 129.402  1.00  0.00     0.025 A 
ATOM     13  C   UNL     1     131.830 132.525 128.099  1.00  0.00     0.016 A 
ATOM     14  C   UNL     1     131.269 131.264 127.875  1.00  0.00     0.051 A 
ATOM     15  C   UNL     1     130.784 130.508 128.949  1.00  0.00     0.157 A 
ATOM     16  C   UNL     1     131.418 132.284 130.474  1.00  0.00     0.062 A 
ATOM     17  C   UNL     1     130.855 131.019 130.250  1.00  0.00     0.158 A 
BRANCH  15  18
ATOM     18  O   UNL     1     130.226 129.249 128.730  1.00  0.00    -0.504 OA
ATOM     19  H   UNL     1     130.247 128.529 129.443  1.00  0.00     0.293 HD
ENDBRANCH  15  18
BRANCH  17  20
ATOM     20  O   UNL     1     130.358 130.271 131.315  1.00  0.00    -0.504 OA
ATOM     21  H   UNL     1     130.877 129.492 131.704  1.00  0.00     0.293 HD
ENDBRANCH  17  20
ENDBRANCH   1  12
BRANCH   2  22
ATOM     22  O   UNL     1     134.611 133.470 130.403  1.00  0.00    -0.502 OA
ATOM     23  H   UNL     1     135.578 133.565 130.688  1.00  0.00     0.293 HD
ENDBRANCH   2  22
BRANCH   6  24
ATOM     24  O   UNL     1     134.960 138.764 130.874  1.00  0.00    -0.507 OA
ATOM     25  H   UNL     1     135.780 139.136 130.418  1.00  0.00     0.293 HD
ENDBRANCH   6  24
BRANCH   8  26
ATOM     26  O   UNL     1     130.874 140.072 128.719  1.00  0.00    -0.508 OA
ATOM     27  H   UNL     1     130.446 140.725 129.365  1.00  0.00     0.293 HD
ENDBRANCH   8  26
TORSDOF 6
ENDMDL
MODEL 7
REMARK VINA RESULT:    -4.931     14.944     19.220
REMARK INTER + INTRA:          -6.247
REMARK INTER:                  -5.997
REMARK INTRA:                  -0.250
REMARK UNBOUND:                -0.307
REMARK SMILES O=c1c(O)c(-c2ccc(O)c(O)c2)oc2cc(O)cc(O)c12
REMARK SMILES IDX 5 1 3 2 2 3 1 4 22 5 20 6 19 7 17 8 16 9 15 10 14 11 6 12
REMARK SMILES IDX 7 13 8 14 9 15 13 16 11 17 10 18 12 20 4 22 21 24 18 26
REMARK H PARENT 10 19 12 21 4 23 21 25 18 27
REMARK Flexibility Score: inf
ROOT
ATOM      1  C   UNL     1     131.160 139.053 138.808  1.00  0.00     0.180 A 
ATOM      2  C   UNL     1     132.322 139.461 138.131  1.00  0.00     0.208 A 
ATOM      3  C   UNL     1     133.564 139.333 138.775  1.00  0.00     0.238 A 
ATOM      4  O   UNL     1     134.596 139.750 138.185  1.00  0.00    -0.285 OA
ATOM      5  C   UNL     1     133.630 138.785 140.078  1.00  0.00     0.111 A 
ATOM      6  C   UNL     1     134.838 138.572 140.808  1.00  0.00     0.134 A 
ATOM      7  C   UNL     1     134.773 138.145 142.141  1.00  0.00     0.093 A 
ATOM      8  C   UNL     1     133.547 137.862 142.747  1.00  0.00     0.123 A 
ATOM      9  C   UNL     1     132.367 138.009 142.023  1.00  0.00     0.094 A 
ATOM     10  C   UNL     1     132.396 138.468 140.704  1.00  0.00     0.146 A 
ATOM     11  O   UNL     1     131.247 138.605 140.055  1.00  0.00    -0.452 OA
ENDROOT
BRANCH   1  12
ATOM     12  C   UNL     1     129.818 139.134 138.186  1.00  0.00     0.025 A 
ATOM     13  C   UNL     1     128.878 140.047 138.689  1.00  0.00     0.016 A 
ATOM     14  C   UNL     1     127.599 140.125 138.131  1.00  0.00     0.051 A 
ATOM     15  C   UNL     1     127.237 139.281 137.074  1.00  0.00     0.157 A 
ATOM     16  C   UNL     1     129.443 138.273 137.138  1.00  0.00     0.062 A 
ATOM     17  C   UNL     1     128.159 138.351 136.579  1.00  0.00     0.158 A 
BRANCH  15  18
ATOM     18  O   UNL     1     125.963 139.357 136.514  1.00  0.00    -0.504 OA
ATOM     19  H   UNL     1     125.494 138.535 136.150  1.00  0.00     0.293 HD
ENDBRANCH  15  18
BRANCH  17  20
ATOM     20  O   UNL     1     127.792 137.502 135.537  1.00  0.00    -0.504 OA
ATOM     21  H   UNL     1     127.376 136.595 135.712  1.00  0.00     0.293 HD
ENDBRANCH  17  20
ENDBRANCH   1  12
BRANCH   2  22
ATOM     22  O   UNL     1     132.233 140.019 136.853  1.00  0.00    -0.502 OA
ATOM     23  H   UNL     1     131.646 140.818 136.648  1.00  0.00     0.293 HD
ENDBRANCH   2  22
BRANCH   6  24
ATOM     24  O   UNL     1     136.116 138.737 140.267  1.00  0.00    -0.507 OA
ATOM     25  H   UNL     1     136.533 138.124 139.583  1.00  0.00     0.293 HD
ENDBRANCH   6  24
BRANCH   8  26
ATOM     26  O   UNL     1     133.494 137.423 144.068  1.00  0.00    -0.508 OA
ATOM     27  H   UNL     1     133.181 136.488 144.305  1.00  0.00     0.293 HD
ENDBRANCH   8  26
TORSDOF 6
ENDMDL
MODEL 8
REMARK VINA RESULT:    -4.902     14.512     17.556
REMARK INTER + INTRA:          -6.212
REMARK INTER:                  -5.916
REMARK INTRA:                  -0.296
REMARK UNBOUND:                -0.307
REMARK SMILES O=c1c(O)c(-c2ccc(O)c(O)c2)oc2cc(O)cc(O)c12
REMARK SMILES IDX 5 1 3 2 2 3 1 4 22 5 20 6 19 7 17 8 16 9 15 10 14 11 6 12
REMARK SMILES IDX 7 13 8 14 9 15 13 16 11 17 10 18 12 20 4 22 21 24 18 26
REMARK H PARENT 10 19 12 21 4 23 21 25 18 27
REMARK Flexibility Score: inf
ROOT
ATOM      1  C   UNL     1     134.989 133.616 134.686  1.00  0.00     0.180 A 
ATOM      2  C   UNL     1     134.804 134.708 135.551  1.00  0.00     0.208 A 
ATOM      3  C   UNL     1     134.870 136.010 135.027  1.00  0.00     0.238 A 
ATOM      4  O   UNL     1     134.757 136.985 135.816  1.00  0.00    -0.285 OA
ATOM      5  C   UNL     1     135.102 136.202 133.644  1.00  0.00     0.111 A 
ATOM      6  C   UNL     1     135.149 137.475 132.999  1.00  0.00     0.134 A 
ATOM      7  C   UNL     1     135.516 137.552 131.649  1.00  0.00     0.093 A 
ATOM      8  C   UNL     1     135.775 136.397 130.906  1.00  0.00     0.123 A 
ATOM      9  C   UNL     1     135.674 135.148 131.512  1.00  0.00     0.094 A 
ATOM     10  C   UNL     1     135.346 135.040 132.866  1.00  0.00     0.146 A 
ATOM     11  O   UNL     1     135.272 133.830 133.406  1.00  0.00    -0.452 OA
ENDROOT
BRANCH   1  12
ATOM     12  C   UNL     1     134.909 132.215 135.159  1.00  0.00     0.025 A 
ATOM     13  C   UNL     1     136.028 131.628 135.771  1.00  0.00     0.016 A 
ATOM     14  C   UNL     1     135.982 130.301 136.207  1.00  0.00     0.051 A 
ATOM     15  C   UNL     1     134.822 129.538 136.022  1.00  0.00     0.157 A 
ATOM     16  C   UNL     1     133.754 131.437 134.956  1.00  0.00     0.062 A 
ATOM     17  C   UNL     1     133.708 130.105 135.392  1.00  0.00     0.158 A 
BRANCH  15  18
ATOM     18  O   UNL     1     134.772 128.214 136.456  1.00  0.00    -0.504 OA
ATOM     19  H   UNL     1     133.952 127.637 136.304  1.00  0.00     0.293 HD
ENDBRANCH  15  18
BRANCH  17  20
ATOM     20  O   UNL     1     132.561 129.339 135.195  1.00  0.00    -0.504 OA
ATOM     21  H   UNL     1     131.972 129.464 134.380  1.00  0.00     0.293 HD
ENDBRANCH  17  20
ENDBRANCH   1  12
BRANCH   2  22
ATOM     22  O   UNL     1     134.597 134.497 136.916  1.00  0.00    -0.502 OA
ATOM     23  H   UNL     1     134.212 135.209 137.525  1.00  0.00     0.293 HD
ENDBRANCH   2  22
BRANCH   6  24
ATOM     24  O   UNL     1     134.818 138.680 133.625  1.00  0.00    -0.507 OA
ATOM     25  H   UNL     1     135.445 139.463 133.730  1.00  0.00     0.293 HD
ENDBRANCH   6  24
BRANCH   8  26
ATOM     26  O   UNL     1     136.125 136.483 129.561  1.00  0.00    -0.508 OA
ATOM     27  H   UNL     1     135.912 137.305 129.008  1.00  0.00     0.293 HD
ENDBRANCH   8  26
TORSDOF 6
ENDMDL
MODEL 9
REMARK VINA RESULT:    -4.882      2.037      6.732
REMARK INTER + INTRA:          -6.187
REMARK INTER:                  -5.953
REMARK INTRA:                  -0.234
REMARK UNBOUND:                -0.307
REMARK SMILES O=c1c(O)c(-c2ccc(O)c(O)c2)oc2cc(O)cc(O)c12
REMARK SMILES IDX 5 1 3 2 2 3 1 4 22 5 20 6 19 7 17 8 16 9 15 10 14 11 6 12
REMARK SMILES IDX 7 13 8 14 9 15 13 16 11 17 10 18 12 20 4 22 21 24 18 26
REMARK H PARENT 10 19 12 21 4 23 21 25 18 27
REMARK Flexibility Score: inf
ROOT
ATOM      1  C   UNL     1     120.232 128.515 130.242  1.00  0.00     0.180 A 
ATOM      2  C   UNL     1     120.445 129.181 129.022  1.00  0.00     0.208 A 
ATOM      3  C   UNL     1     121.430 130.180 128.956  1.00  0.00     0.238 A 
ATOM      4  O   UNL     1     121.580 130.809 127.876  1.00  0.00    -0.285 OA
ATOM      5  C   UNL     1     122.200 130.489 130.103  1.00  0.00     0.111 A 
ATOM      6  C   UNL     1     123.250 131.454 130.139  1.00  0.00     0.134 A 
ATOM      7  C   UNL     1     123.856 131.771 131.362  1.00  0.00     0.093 A 
ATOM      8  C   UNL     1     123.492 131.111 132.538  1.00  0.00     0.123 A 
ATOM      9  C   UNL     1     122.510 130.125 132.502  1.00  0.00     0.094 A 
ATOM     10  C   UNL     1     121.861 129.812 131.305  1.00  0.00     0.146 A 
ATOM     11  O   UNL     1     120.923 128.874 131.318  1.00  0.00    -0.452 OA
ENDROOT
BRANCH   1  12
ATOM     12  C   UNL     1     119.229 127.434 130.384  1.00  0.00     0.025 A 
ATOM     13  C   UNL     1     117.864 127.759 130.417  1.00  0.00     0.016 A 
ATOM     14  C   UNL     1     116.902 126.757 130.571  1.00  0.00     0.051 A 
ATOM     15  C   UNL     1     117.292 125.420 130.709  1.00  0.00     0.157 A 
ATOM     16  C   UNL     1     119.617 126.091 130.544  1.00  0.00     0.062 A 
ATOM     17  C   UNL     1     118.652 125.086 130.700  1.00  0.00     0.158 A 
BRANCH  15  18
ATOM     18  O   UNL     1     116.336 124.417 130.862  1.00  0.00    -0.504 OA
ATOM     19  H   UNL     1     116.599 123.456 131.044  1.00  0.00     0.293 HD
ENDBRANCH  15  18
BRANCH  17  20
ATOM     20  O   UNL     1     119.038 123.756 130.853  1.00  0.00    -0.504 OA
ATOM     21  H   UNL     1     118.985 123.287 131.750  1.00  0.00     0.293 HD
ENDBRANCH  17  20
ENDBRANCH   1  12
BRANCH   2  22
ATOM     22  O   UNL     1     119.661 128.875 127.907  1.00  0.00    -0.502 OA
ATOM     23  H   UNL     1     120.052 128.493 127.055  1.00  0.00     0.293 HD
ENDBRANCH   2  22
BRANCH   6  24
ATOM     24  O   UNL     1     123.752 132.104 129.008  1.00  0.00    -0.507 OA
ATOM     25  H   UNL     1     124.527 132.749 129.012  1.00  0.00     0.293 HD
ENDBRANCH   6  24
BRANCH   8  26
ATOM     26  O   UNL     1     124.110 131.422 133.747  1.00  0.00    -0.508 OA
ATOM     27  H   UNL     1     123.928 130.889 134.589  1.00  0.00     0.293 HD
ENDBRANCH   8  26
TORSDOF 6
ENDMDL
