MODEL 1
REMARK VINA RESULT:    -5.271      0.000      0.000
REMARK INTER + INTRA:          -6.808
REMARK INTER:                  -6.504
REMARK INTRA:                  -0.304
REMARK UNBOUND:                -0.304
REMARK SMILES Oc1cc(O)c2cc(O)c(-c3cc(O)c(O)c(O)c3)[o+]c2c1
REMARK SMILES IDX 10 1 20 2 21 3 22 4 2 5 3 6 4 7 6 8 7 9 8 10 11 11 12 12
REMARK SMILES IDX 13 13 19 14 15 15 17 16 14 17 16 19 18 21 9 23 1 25 5 27
REMARK H PARENT 14 18 16 20 18 22 9 24 1 26 5 28
REMARK Flexibility Score: inf
ROOT
ATOM      1  C   UNL     1     -14.489 -33.136 -13.113  1.00  0.00     0.402 A 
ATOM      2  O   UNL     1     -15.619 -33.827 -13.238  1.00  0.00    -0.202 OA
ATOM      3  C   UNL     1     -15.800 -34.771 -14.157  1.00  0.00     0.368 A 
ATOM      4  C   UNL     1     -17.023 -35.445 -14.208  1.00  0.00     0.162 A 
ATOM      5  C   UNL     1     -17.237 -36.445 -15.161  1.00  0.00     0.128 A 
ATOM      6  C   UNL     1     -16.225 -36.771 -16.066  1.00  0.00     0.093 A 
ATOM      7  C   UNL     1     -14.991 -36.111 -16.035  1.00  0.00     0.136 A 
ATOM      8  C   UNL     1     -14.768 -35.094 -15.071  1.00  0.00     0.125 A 
ATOM      9  C   UNL     1     -13.568 -34.371 -14.975  1.00  0.00     0.078 A 
ATOM     10  C   UNL     1     -13.424 -33.378 -14.000  1.00  0.00     0.223 A 
ENDROOT
BRANCH   1  11
ATOM     11  C   UNL     1     -14.408 -32.116 -12.043  1.00  0.00     0.091 A 
ATOM     12  C   UNL     1     -15.215 -30.970 -12.118  1.00  0.00     0.068 A 
ATOM     13  C   UNL     1     -15.173 -30.000 -11.113  1.00  0.00     0.162 A 
ATOM     14  C   UNL     1     -13.579 -32.296 -10.922  1.00  0.00     0.068 A 
ATOM     15  C   UNL     1     -14.327 -30.174 -10.004  1.00  0.00     0.200 A 
ATOM     16  C   UNL     1     -13.532 -31.329  -9.909  1.00  0.00     0.162 A 
BRANCH  13  17
ATOM     17  O   UNL     1     -15.980 -28.869 -11.232  1.00  0.00    -0.504 OA
ATOM     18  H   UNL     1     -16.386 -28.408 -10.427  1.00  0.00     0.293 HD
ENDBRANCH  13  17
BRANCH  15  19
ATOM     19  O   UNL     1     -14.289 -29.198  -9.006  1.00  0.00    -0.502 OA
ATOM     20  H   UNL     1     -15.038 -29.086  -8.332  1.00  0.00     0.293 HD
ENDBRANCH  15  19
BRANCH  16  21
ATOM     21  O   UNL     1     -12.702 -31.515  -8.804  1.00  0.00    -0.504 OA
ATOM     22  H   UNL     1     -12.607 -30.809  -8.085  1.00  0.00     0.293 HD
ENDBRANCH  16  21
ENDBRANCH   1  11
BRANCH  10  23
ATOM     23  O   UNL     1     -12.251 -32.625 -13.936  1.00  0.00    -0.500 OA
ATOM     24  H   UNL     1     -12.253 -31.623 -14.086  1.00  0.00     0.294 HD
ENDBRANCH  10  23
BRANCH   5  25
ATOM     25  O   UNL     1     -18.455 -37.120 -15.219  1.00  0.00    -0.507 OA
ATOM     26  H   UNL     1     -18.625 -37.954 -14.669  1.00  0.00     0.293 HD
ENDBRANCH   5  25
BRANCH   7  27
ATOM     27  O   UNL     1     -14.030 -36.499 -16.973  1.00  0.00    -0.507 OA
ATOM     28  H   UNL     1     -14.170 -36.490 -17.972  1.00  0.00     0.293 HD
ENDBRANCH   7  27
TORSDOF 7
ENDMDL
