MODEL 1
REMARK VINA RESULT:    14.749      0.000      0.000
REMARK INTER + INTRA:          36.669
REMARK INTER:                  37.167
REMARK INTRA:                  -0.498
REMARK UNBOUND:                -0.498
REMARK SMILES CCCCCCCCCCCCCCCCCCCCCCCCCCCC(=O)[O-]
REMARK SMILES IDX 15 1 16 2 17 3 18 4 19 5 20 6 21 7 22 8 23 9 24 10 25 11
REMARK SMILES IDX 26 12 27 13 28 14 29 15 30 16 14 17 13 18 12 19 11 20 10 21
REMARK SMILES IDX 9 22 8 23 7 24 6 25 5 26 4 27 3 28 2 29 1 30
REMARK H PARENT
REMARK Flexibility Score: inf
ROOT
ATOM      1  C   UNL     1      -3.118  -4.662  -4.176  1.00  0.00     0.000 C 
ENDROOT
BRANCH   1   2
ATOM      2  C   UNL     1      -3.571  -4.002  -2.858  1.00  0.00     0.000 C 
BRANCH   2   3
ATOM      3  C   UNL     1      -3.556  -4.927  -1.625  1.00  0.00     0.000 C 
BRANCH   3   4
ATOM      4  C   UNL     1      -3.382  -4.209  -0.275  1.00  0.00     0.000 C 
BRANCH   4   5
ATOM      5  C   UNL     1      -3.780  -5.082   0.923  1.00  0.00     0.000 C 
BRANCH   5   6
ATOM      6  C   UNL     1      -3.696  -6.573   0.562  1.00  0.00     0.000 C 
BRANCH   6   7
ATOM      7  C   UNL     1      -4.881  -7.043  -0.297  1.00  0.00     0.000 C 
BRANCH   7   8
ATOM      8  C   UNL     1      -4.680  -8.459  -0.856  1.00  0.00     0.000 C 
BRANCH   8   9
ATOM      9  C   UNL     1      -5.950  -9.302  -0.688  1.00  0.00     0.000 C 
BRANCH   9  10
ATOM     10  C   UNL     1      -7.207  -8.443  -0.873  1.00  0.00     0.000 C 
BRANCH  10  11
ATOM     11  C   UNL     1      -7.766  -8.583  -2.295  1.00  0.00     0.000 C 
BRANCH  11  12
ATOM     12  C   UNL     1      -8.804  -7.489  -2.586  1.00  0.00     0.006 C 
BRANCH  12  13
ATOM     13  C   UNL     1      -9.996  -7.546  -1.621  1.00  0.00     0.053 C 
BRANCH  13  14
ATOM     14  C   UNL     1     -10.552  -8.932  -1.506  1.00  0.00     0.041 C 
ATOM     15  O   UNL     1     -11.021  -9.513  -2.520  1.00  0.00    -0.550 OA
ATOM     16  O   UNL     1     -10.524  -9.595  -0.285  1.00  0.00    -0.550 OA
ENDBRANCH  13  14
ENDBRANCH  12  13
ENDBRANCH  11  12
ENDBRANCH  10  11
ENDBRANCH   9  10
ENDBRANCH   8   9
ENDBRANCH   7   8
ENDBRANCH   6   7
ENDBRANCH   5   6
ENDBRANCH   4   5
ENDBRANCH   3   4
ENDBRANCH   2   3
ENDBRANCH   1   2
BRANCH   1  17
ATOM     17  C   UNL     1      -2.435  -3.712  -5.180  1.00  0.00     0.000 C 
BRANCH  17  18
ATOM     18  C   UNL     1      -3.313  -3.278  -6.369  1.00  0.00     0.000 C 
BRANCH  18  19
ATOM     19  C   UNL     1      -2.509  -2.578  -7.478  1.00  0.00     0.000 C 
BRANCH  19  20
ATOM     20  C   UNL     1      -2.647  -3.278  -8.840  1.00  0.00     0.000 C 
BRANCH  20  21
ATOM     21  C   UNL     1      -1.299  -3.420  -9.571  1.00  0.00     0.000 C 
BRANCH  21  22
ATOM     22  C   UNL     1      -1.410  -3.111 -11.072  1.00  0.00    -0.000 C 
BRANCH  22  23
ATOM     23  C   UNL     1      -0.734  -4.180 -11.949  1.00  0.00    -0.000 C 
BRANCH  23  24
ATOM     24  C   UNL     1      -0.841  -3.868 -13.452  1.00  0.00    -0.000 C 
BRANCH  24  25
ATOM     25  C   UNL     1      -2.165  -4.300 -14.114  1.00  0.00    -0.000 C 
BRANCH  25  26
ATOM     26  C   UNL     1      -2.433  -5.815 -14.113  1.00  0.00    -0.000 C 
BRANCH  26  27
ATOM     27  C   UNL     1      -3.705  -6.197 -13.340  1.00  0.00    -0.000 C 
BRANCH  27  28
ATOM     28  C   UNL     1      -3.790  -7.718 -13.142  1.00  0.00    -0.000 C 
BRANCH  28  29
ATOM     29  C   UNL     1      -4.947  -8.351 -13.930  1.00  0.00    -0.003 C 
ATOM     30  C   UNL     1      -5.160  -9.826 -13.587  1.00  0.00     0.004 C 
ENDBRANCH  28  29
ENDBRANCH  27  28
ENDBRANCH  26  27
ENDBRANCH  25  26
ENDBRANCH  24  25
ENDBRANCH  23  24
ENDBRANCH  22  23
ENDBRANCH  21  22
ENDBRANCH  20  21
ENDBRANCH  19  20
ENDBRANCH  18  19
ENDBRANCH  17  18
ENDBRANCH   1  17
TORSDOF 26
ENDMDL
MODEL 2
REMARK VINA RESULT:    15.429      3.451      5.571
REMARK INTER + INTRA:          38.381
REMARK INTER:                  39.187
REMARK INTRA:                  -0.806
REMARK UNBOUND:                -0.498
REMARK SMILES CCCCCCCCCCCCCCCCCCCCCCCCCCCC(=O)[O-]
REMARK SMILES IDX 15 1 16 2 17 3 18 4 19 5 20 6 21 7 22 8 23 9 24 10 25 11
REMARK SMILES IDX 26 12 27 13 28 14 29 15 30 16 14 17 13 18 12 19 11 20 10 21
REMARK SMILES IDX 9 22 8 23 7 24 6 25 5 26 4 27 3 28 2 29 1 30
REMARK H PARENT
REMARK Flexibility Score: inf
ROOT
ATOM      1  C   UNL     1      -2.654  -3.907  -6.208  1.00  0.00     0.000 C 
ENDROOT
BRANCH   1   2
ATOM      2  C   UNL     1      -2.644  -4.054  -4.673  1.00  0.00     0.000 C 
BRANCH   2   3
ATOM      3  C   UNL     1      -4.025  -4.288  -4.031  1.00  0.00     0.000 C 
BRANCH   3   4
ATOM      4  C   UNL     1      -4.747  -5.568  -4.490  1.00  0.00     0.000 C 
BRANCH   4   5
ATOM      5  C   UNL     1      -6.018  -5.862  -3.681  1.00  0.00     0.000 C 
BRANCH   5   6
ATOM      6  C   UNL     1      -6.619  -7.218  -4.081  1.00  0.00     0.000 C 
BRANCH   6   7
ATOM      7  C   UNL     1      -8.105  -7.340  -3.708  1.00  0.00     0.000 C 
BRANCH   7   8
ATOM      8  C   UNL     1      -8.417  -8.636  -2.943  1.00  0.00     0.000 C 
BRANCH   8   9
ATOM      9  C   UNL     1      -9.759  -8.532  -2.209  1.00  0.00     0.000 C 
BRANCH   9  10
ATOM     10  C   UNL     1      -9.577  -8.745  -0.701  1.00  0.00     0.000 C 
BRANCH  10  11
ATOM     11  C   UNL     1      -8.940  -7.516  -0.043  1.00  0.00     0.000 C 
BRANCH  11  12
ATOM     12  C   UNL     1      -7.427  -7.711   0.137  1.00  0.00     0.006 C 
BRANCH  12  13
ATOM     13  C   UNL     1      -6.935  -9.030  -0.474  1.00  0.00     0.053 C 
BRANCH  13  14
ATOM     14  C   UNL     1      -5.561  -8.895  -1.055  1.00  0.00     0.041 C 
ATOM     15  O   UNL     1      -4.776  -8.009  -0.627  1.00  0.00    -0.550 OA
ATOM     16  O   UNL     1      -5.136  -9.770  -2.048  1.00  0.00    -0.550 OA
ENDBRANCH  13  14
ENDBRANCH  12  13
ENDBRANCH  11  12
ENDBRANCH  10  11
ENDBRANCH   9  10
ENDBRANCH   8   9
ENDBRANCH   7   8
ENDBRANCH   6   7
ENDBRANCH   5   6
ENDBRANCH   4   5
ENDBRANCH   3   4
ENDBRANCH   2   3
ENDBRANCH   1   2
BRANCH   1  17
ATOM     17  C   UNL     1      -1.697  -2.836  -6.768  1.00  0.00     0.000 C 
BRANCH  17  18
ATOM     18  C   UNL     1      -2.139  -2.194  -8.096  1.00  0.00     0.000 C 
BRANCH  18  19
ATOM     19  C   UNL     1      -2.706  -3.219  -9.093  1.00  0.00     0.000 C 
BRANCH  19  20
ATOM     20  C   UNL     1      -2.066  -3.103 -10.487  1.00  0.00     0.000 C 
BRANCH  20  21
ATOM     21  C   UNL     1      -0.555  -2.815 -10.422  1.00  0.00     0.000 C 
BRANCH  21  22
ATOM     22  C   UNL     1       0.152  -3.087 -11.759  1.00  0.00    -0.000 C 
BRANCH  22  23
ATOM     23  C   UNL     1       1.514  -2.378 -11.864  1.00  0.00    -0.000 C 
BRANCH  23  24
ATOM     24  C   UNL     1       2.085  -2.400 -13.293  1.00  0.00    -0.000 C 
BRANCH  24  25
ATOM     25  C   UNL     1       3.329  -1.515 -13.511  1.00  0.00    -0.000 C 
BRANCH  25  26
ATOM     26  C   UNL     1       4.577  -2.257 -14.021  1.00  0.00    -0.000 C 
BRANCH  26  27
ATOM     27  C   UNL     1       4.451  -3.784 -13.908  1.00  0.00    -0.000 C 
BRANCH  27  28
ATOM     28  C   UNL     1       5.727  -4.397 -13.312  1.00  0.00    -0.000 C 
BRANCH  28  29
ATOM     29  C   UNL     1       5.758  -4.319 -11.778  1.00  0.00    -0.003 C 
ATOM     30  C   UNL     1       7.049  -3.699 -11.241  1.00  0.00     0.004 C 
ENDBRANCH  28  29
ENDBRANCH  27  28
ENDBRANCH  26  27
ENDBRANCH  25  26
ENDBRANCH  24  25
ENDBRANCH  23  24
ENDBRANCH  22  23
ENDBRANCH  21  22
ENDBRANCH  20  21
ENDBRANCH  19  20
ENDBRANCH  18  19
ENDBRANCH  17  18
ENDBRANCH   1  17
TORSDOF 26
ENDMDL
MODEL 3
REMARK VINA RESULT:    16.122      5.850     13.041
REMARK INTER + INTRA:          40.128
REMARK INTER:                  40.623
REMARK INTRA:                  -0.496
REMARK UNBOUND:                -0.498
REMARK SMILES CCCCCCCCCCCCCCCCCCCCCCCCCCCC(=O)[O-]
REMARK SMILES IDX 15 1 16 2 17 3 18 4 19 5 20 6 21 7 22 8 23 9 24 10 25 11
REMARK SMILES IDX 26 12 27 13 28 14 29 15 30 16 14 17 13 18 12 19 11 20 10 21
REMARK SMILES IDX 9 22 8 23 7 24 6 25 5 26 4 27 3 28 2 29 1 30
REMARK H PARENT
REMARK Flexibility Score: inf
ROOT
ATOM      1  C   UNL     1      -4.679  -4.348  -3.847  1.00  0.00     0.000 C 
ENDROOT
BRANCH   1   2
ATOM      2  C   UNL     1      -3.268  -4.195  -4.449  1.00  0.00     0.000 C 
BRANCH   2   3
ATOM      3  C   UNL     1      -3.201  -4.282  -5.987  1.00  0.00     0.000 C 
BRANCH   3   4
ATOM      4  C   UNL     1      -2.346  -3.194  -6.662  1.00  0.00     0.000 C 
BRANCH   4   5
ATOM      5  C   UNL     1      -3.033  -2.567  -7.884  1.00  0.00     0.000 C 
BRANCH   5   6
ATOM      6  C   UNL     1      -2.076  -2.519  -9.084  1.00  0.00     0.000 C 
BRANCH   6   7
ATOM      7  C   UNL     1      -1.902  -3.890  -9.758  1.00  0.00     0.000 C 
BRANCH   7   8
ATOM      8  C   UNL     1      -0.482  -4.103 -10.305  1.00  0.00     0.000 C 
BRANCH   8   9
ATOM      9  C   UNL     1      -0.157  -3.082 -11.401  1.00  0.00     0.000 C 
BRANCH   9  10
ATOM     10  C   UNL     1      -0.754  -3.512 -12.747  1.00  0.00     0.000 C 
BRANCH  10  11
ATOM     11  C   UNL     1       0.318  -3.539 -13.843  1.00  0.00     0.000 C 
BRANCH  11  12
ATOM     12  C   UNL     1       1.726  -3.444 -13.236  1.00  0.00     0.006 C 
BRANCH  12  13
ATOM     13  C   UNL     1       2.684  -2.628 -14.115  1.00  0.00     0.053 C 
BRANCH  13  14
ATOM     14  C   UNL     1       4.080  -2.635 -13.571  1.00  0.00     0.041 C 
ATOM     15  O   UNL     1       4.891  -1.730 -13.898  1.00  0.00    -0.550 OA
ATOM     16  O   UNL     1       4.473  -3.623 -12.678  1.00  0.00    -0.550 OA
ENDBRANCH  13  14
ENDBRANCH  12  13
ENDBRANCH  11  12
ENDBRANCH  10  11
ENDBRANCH   9  10
ENDBRANCH   8   9
ENDBRANCH   7   8
ENDBRANCH   6   7
ENDBRANCH   5   6
ENDBRANCH   4   5
ENDBRANCH   3   4
ENDBRANCH   2   3
ENDBRANCH   1   2
BRANCH   1  17
ATOM     17  C   UNL     1      -5.180  -5.800  -3.716  1.00  0.00     0.000 C 
BRANCH  17  18
ATOM     18  C   UNL     1      -6.572  -6.068  -4.317  1.00  0.00     0.000 C 
BRANCH  18  19
ATOM     19  C   UNL     1      -7.095  -7.480  -4.002  1.00  0.00     0.000 C 
BRANCH  19  20
ATOM     20  C   UNL     1      -8.304  -7.464  -3.053  1.00  0.00     0.000 C 
BRANCH  20  21
ATOM     21  C   UNL     1      -9.059  -6.122  -3.078  1.00  0.00     0.000 C 
BRANCH  21  22
ATOM     22  C   UNL     1     -10.571  -6.295  -2.869  1.00  0.00    -0.000 C 
BRANCH  22  23
ATOM     23  C   UNL     1     -10.996  -7.772  -2.803  1.00  0.00    -0.000 C 
BRANCH  23  24
ATOM     24  C   UNL     1     -11.070  -8.304  -1.361  1.00  0.00    -0.000 C 
BRANCH  24  25
ATOM     25  C   UNL     1      -9.824  -9.080  -0.887  1.00  0.00    -0.000 C 
BRANCH  25  26
ATOM     26  C   UNL     1      -9.226  -8.603   0.448  1.00  0.00    -0.000 C 
BRANCH  26  27
ATOM     27  C   UNL     1      -7.958  -7.754   0.266  1.00  0.00    -0.000 C 
BRANCH  27  28
ATOM     28  C   UNL     1      -7.076  -8.321  -0.856  1.00  0.00    -0.000 C 
BRANCH  28  29
ATOM     29  C   UNL     1      -5.779  -8.952  -0.325  1.00  0.00    -0.003 C 
ATOM     30  C   UNL     1      -5.159  -9.946  -1.306  1.00  0.00     0.004 C 
ENDBRANCH  28  29
ENDBRANCH  27  28
ENDBRANCH  26  27
ENDBRANCH  25  26
ENDBRANCH  24  25
ENDBRANCH  23  24
ENDBRANCH  22  23
ENDBRANCH  21  22
ENDBRANCH  20  21
ENDBRANCH  19  20
ENDBRANCH  18  19
ENDBRANCH  17  18
ENDBRANCH   1  17
TORSDOF 26
ENDMDL
MODEL 4
REMARK VINA RESULT:    16.135      3.662     11.630
REMARK INTER + INTRA:          40.162
REMARK INTER:                  40.584
REMARK INTRA:                  -0.422
REMARK UNBOUND:                -0.498
REMARK SMILES CCCCCCCCCCCCCCCCCCCCCCCCCCCC(=O)[O-]
REMARK SMILES IDX 15 1 16 2 17 3 18 4 19 5 20 6 21 7 22 8 23 9 24 10 25 11
REMARK SMILES IDX 26 12 27 13 28 14 29 15 30 16 14 17 13 18 12 19 11 20 10 21
REMARK SMILES IDX 9 22 8 23 7 24 6 25 5 26 4 27 3 28 2 29 1 30
REMARK H PARENT
REMARK Flexibility Score: inf
ROOT
ATOM      1  C   UNL     1      -4.542  -4.320  -3.971  1.00  0.00     0.000 C 
ENDROOT
BRANCH   1   2
ATOM      2  C   UNL     1      -3.108  -4.216  -4.528  1.00  0.00     0.000 C 
BRANCH   2   3
ATOM      3  C   UNL     1      -2.975  -4.468  -6.042  1.00  0.00     0.000 C 
BRANCH   3   4
ATOM      4  C   UNL     1      -2.386  -3.294  -6.847  1.00  0.00     0.000 C 
BRANCH   4   5
ATOM      5  C   UNL     1      -2.958  -3.198  -8.269  1.00  0.00     0.000 C 
BRANCH   5   6
ATOM      6  C   UNL     1      -1.853  -2.854  -9.279  1.00  0.00     0.000 C 
BRANCH   6   7
ATOM      7  C   UNL     1      -0.940  -4.052  -9.589  1.00  0.00     0.000 C 
BRANCH   7   8
ATOM      8  C   UNL     1      -0.682  -4.223 -11.094  1.00  0.00     0.000 C 
BRANCH   8   9
ATOM      9  C   UNL     1      -1.867  -4.912 -11.780  1.00  0.00     0.000 C 
BRANCH   9  10
ATOM     10  C   UNL     1      -2.008  -4.444 -13.234  1.00  0.00     0.000 C 
BRANCH  10  11
ATOM     11  C   UNL     1      -2.561  -5.564 -14.123  1.00  0.00     0.000 C 
BRANCH  11  12
ATOM     12  C   UNL     1      -3.201  -6.673 -13.275  1.00  0.00     0.006 C 
BRANCH  12  13
ATOM     13  C   UNL     1      -3.325  -7.996 -14.044  1.00  0.00     0.053 C 
BRANCH  13  14
ATOM     14  C   UNL     1      -4.447  -8.840 -13.521  1.00  0.00     0.041 C 
ATOM     15  O   UNL     1      -4.559 -10.040 -13.886  1.00  0.00    -0.550 OA
ATOM     16  O   UNL     1      -5.349  -8.310 -12.607  1.00  0.00    -0.550 OA
ENDBRANCH  13  14
ENDBRANCH  12  13
ENDBRANCH  11  12
ENDBRANCH  10  11
ENDBRANCH   9  10
ENDBRANCH   8   9
ENDBRANCH   7   8
ENDBRANCH   6   7
ENDBRANCH   5   6
ENDBRANCH   4   5
ENDBRANCH   3   4
ENDBRANCH   2   3
ENDBRANCH   1   2
BRANCH   1  17
ATOM     17  C   UNL     1      -5.072  -5.757  -3.796  1.00  0.00     0.000 C 
BRANCH  17  18
ATOM     18  C   UNL     1      -6.518  -5.983  -4.275  1.00  0.00     0.000 C 
BRANCH  18  19
ATOM     19  C   UNL     1      -7.019  -7.412  -4.004  1.00  0.00     0.000 C 
BRANCH  19  20
ATOM     20  C   UNL     1      -8.280  -7.439  -3.124  1.00  0.00     0.000 C 
BRANCH  20  21
ATOM     21  C   UNL     1      -9.000  -6.079  -3.079  1.00  0.00     0.000 C 
BRANCH  21  22
ATOM     22  C   UNL     1     -10.507  -6.220  -2.816  1.00  0.00    -0.000 C 
BRANCH  22  23
ATOM     23  C   UNL     1     -10.979  -7.685  -2.845  1.00  0.00    -0.000 C 
BRANCH  23  24
ATOM     24  C   UNL     1     -11.058  -8.310  -1.441  1.00  0.00    -0.000 C 
BRANCH  24  25
ATOM     25  C   UNL     1      -9.794  -9.074  -0.996  1.00  0.00    -0.000 C 
BRANCH  25  26
ATOM     26  C   UNL     1      -9.223  -8.652   0.369  1.00  0.00    -0.000 C 
BRANCH  26  27
ATOM     27  C   UNL     1      -8.054  -7.661   0.248  1.00  0.00    -0.000 C 
BRANCH  27  28
ATOM     28  C   UNL     1      -7.084  -8.091  -0.863  1.00  0.00    -0.000 C 
BRANCH  28  29
ATOM     29  C   UNL     1      -6.039  -9.106  -0.373  1.00  0.00    -0.003 C 
ATOM     30  C   UNL     1      -5.250  -9.743  -1.517  1.00  0.00     0.004 C 
ENDBRANCH  28  29
ENDBRANCH  27  28
ENDBRANCH  26  27
ENDBRANCH  25  26
ENDBRANCH  24  25
ENDBRANCH  23  24
ENDBRANCH  22  23
ENDBRANCH  21  22
ENDBRANCH  20  21
ENDBRANCH  19  20
ENDBRANCH  18  19
ENDBRANCH  17  18
ENDBRANCH   1  17
TORSDOF 26
ENDMDL
MODEL 5
REMARK VINA RESULT:    16.187      3.501     11.364
REMARK INTER + INTRA:          40.293
REMARK INTER:                  41.859
REMARK INTRA:                  -1.566
REMARK UNBOUND:                -0.498
REMARK SMILES CCCCCCCCCCCCCCCCCCCCCCCCCCCC(=O)[O-]
REMARK SMILES IDX 15 1 16 2 17 3 18 4 19 5 20 6 21 7 22 8 23 9 24 10 25 11
REMARK SMILES IDX 26 12 27 13 28 14 29 15 30 16 14 17 13 18 12 19 11 20 10 21
REMARK SMILES IDX 9 22 8 23 7 24 6 25 5 26 4 27 3 28 2 29 1 30
REMARK H PARENT
REMARK Flexibility Score: inf
ROOT
ATOM      1  C   UNL     1      -2.415  -4.009  -6.161  1.00  0.00     0.000 C 
ENDROOT
BRANCH   1   2
ATOM      2  C   UNL     1      -2.904  -2.660  -6.726  1.00  0.00     0.000 C 
BRANCH   2   3
ATOM      3  C   UNL     1      -2.696  -2.473  -8.241  1.00  0.00     0.000 C 
BRANCH   3   4
ATOM      4  C   UNL     1      -1.757  -3.500  -8.900  1.00  0.00     0.000 C 
BRANCH   4   5
ATOM      5  C   UNL     1      -1.403  -3.142 -10.351  1.00  0.00     0.000 C 
BRANCH   5   6
ATOM      6  C   UNL     1      -1.437  -4.391 -11.245  1.00  0.00     0.000 C 
BRANCH   6   7
ATOM      7  C   UNL     1      -0.590  -4.231 -12.518  1.00  0.00     0.000 C 
BRANCH   7   8
ATOM      8  C   UNL     1      -1.234  -4.899 -13.743  1.00  0.00     0.000 C 
BRANCH   8   9
ATOM      9  C   UNL     1      -2.744  -5.076 -13.542  1.00  0.00     0.000 C 
BRANCH   9  10
ATOM     10  C   UNL     1      -3.222  -6.412 -14.124  1.00  0.00     0.000 C 
BRANCH  10  11
ATOM     11  C   UNL     1      -3.968  -7.238 -13.069  1.00  0.00     0.000 C 
BRANCH  11  12
ATOM     12  C   UNL     1      -4.642  -8.462 -13.706  1.00  0.00     0.006 C 
BRANCH  12  13
ATOM     13  C   UNL     1      -5.396  -9.313 -12.675  1.00  0.00     0.053 C 
BRANCH  13  14
ATOM     14  C   UNL     1      -6.216 -10.382 -13.329  1.00  0.00     0.041 C 
ATOM     15  O   UNL     1      -5.653 -11.324 -13.947  1.00  0.00    -0.550 OA
ATOM     16  O   UNL     1      -7.602 -10.356 -13.229  1.00  0.00    -0.550 OA
ENDBRANCH  13  14
ENDBRANCH  12  13
ENDBRANCH  11  12
ENDBRANCH  10  11
ENDBRANCH   9  10
ENDBRANCH   8   9
ENDBRANCH   7   8
ENDBRANCH   6   7
ENDBRANCH   5   6
ENDBRANCH   4   5
ENDBRANCH   3   4
ENDBRANCH   2   3
ENDBRANCH   1   2
BRANCH   1  17
ATOM     17  C   UNL     1      -3.274  -4.587  -5.018  1.00  0.00     0.000 C 
BRANCH  17  18
ATOM     18  C   UNL     1      -3.720  -3.567  -3.955  1.00  0.00     0.000 C 
BRANCH  18  19
ATOM     19  C   UNL     1      -5.250  -3.464  -3.832  1.00  0.00     0.000 C 
BRANCH  19  20
ATOM     20  C   UNL     1      -5.941  -4.837  -3.893  1.00  0.00     0.000 C 
BRANCH  20  21
ATOM     21  C   UNL     1      -7.362  -4.810  -3.304  1.00  0.00     0.000 C 
BRANCH  21  22
ATOM     22  C   UNL     1      -8.149  -6.094  -3.608  1.00  0.00    -0.000 C 
BRANCH  22  23
ATOM     23  C   UNL     1      -9.623  -6.004  -3.173  1.00  0.00    -0.000 C 
BRANCH  23  24
ATOM     24  C   UNL     1     -10.162  -7.337  -2.625  1.00  0.00    -0.000 C 
BRANCH  24  25
ATOM     25  C   UNL     1     -10.095  -7.486  -1.092  1.00  0.00    -0.000 C 
BRANCH  25  26
ATOM     26  C   UNL     1      -9.261  -8.677  -0.587  1.00  0.00    -0.000 C 
BRANCH  26  27
ATOM     27  C   UNL     1      -7.753  -8.383  -0.563  1.00  0.00    -0.000 C 
BRANCH  27  28
ATOM     28  C   UNL     1      -7.071  -8.916  -1.832  1.00  0.00    -0.000 C 
BRANCH  28  29
ATOM     29  C   UNL     1      -5.591  -9.263  -1.605  1.00  0.00    -0.003 C 
ATOM     30  C   UNL     1      -4.961  -8.456  -0.469  1.00  0.00     0.004 C 
ENDBRANCH  28  29
ENDBRANCH  27  28
ENDBRANCH  26  27
ENDBRANCH  25  26
ENDBRANCH  24  25
ENDBRANCH  23  24
ENDBRANCH  22  23
ENDBRANCH  21  22
ENDBRANCH  20  21
ENDBRANCH  19  20
ENDBRANCH  18  19
ENDBRANCH  17  18
ENDBRANCH   1  17
TORSDOF 26
ENDMDL
MODEL 6
REMARK VINA RESULT:    16.288      2.211      3.334
REMARK INTER + INTRA:          40.545
REMARK INTER:                  41.413
REMARK INTRA:                  -0.867
REMARK UNBOUND:                -0.498
REMARK SMILES CCCCCCCCCCCCCCCCCCCCCCCCCCCC(=O)[O-]
REMARK SMILES IDX 15 1 16 2 17 3 18 4 19 5 20 6 21 7 22 8 23 9 24 10 25 11
REMARK SMILES IDX 26 12 27 13 28 14 29 15 30 16 14 17 13 18 12 19 11 20 10 21
REMARK SMILES IDX 9 22 8 23 7 24 6 25 5 26 4 27 3 28 2 29 1 30
REMARK H PARENT
REMARK Flexibility Score: inf
ROOT
ATOM      1  C   UNL     1      -3.279  -3.606  -4.354  1.00  0.00     0.000 C 
ENDROOT
BRANCH   1   2
ATOM      2  C   UNL     1      -4.699  -4.060  -3.959  1.00  0.00     0.000 C 
BRANCH   2   3
ATOM      3  C   UNL     1      -4.966  -5.570  -4.106  1.00  0.00     0.000 C 
BRANCH   3   4
ATOM      4  C   UNL     1      -6.443  -5.952  -4.316  1.00  0.00     0.000 C 
BRANCH   4   5
ATOM      5  C   UNL     1      -6.958  -6.946  -3.266  1.00  0.00     0.000 C 
BRANCH   5   6
ATOM      6  C   UNL     1      -7.671  -8.130  -3.939  1.00  0.00     0.000 C 
BRANCH   6   7
ATOM      7  C   UNL     1      -8.665  -8.834  -3.001  1.00  0.00     0.000 C 
BRANCH   7   8
ATOM      8  C   UNL     1      -9.812  -7.913  -2.559  1.00  0.00     0.000 C 
BRANCH   8   9
ATOM      9  C   UNL     1     -10.582  -8.520  -1.381  1.00  0.00     0.000 C 
BRANCH   9  10
ATOM     10  C   UNL     1      -9.651  -8.772  -0.188  1.00  0.00     0.000 C 
BRANCH  10  11
ATOM     11  C   UNL     1      -8.828  -7.521   0.143  1.00  0.00     0.000 C 
BRANCH  11  12
ATOM     12  C   UNL     1      -7.333  -7.857   0.242  1.00  0.00     0.006 C 
BRANCH  12  13
ATOM     13  C   UNL     1      -6.943  -9.042  -0.653  1.00  0.00     0.053 C 
BRANCH  13  14
ATOM     14  C   UNL     1      -5.505  -8.977  -1.067  1.00  0.00     0.041 C 
ATOM     15  O   UNL     1      -5.010  -9.886  -1.783  1.00  0.00    -0.550 OA
ATOM     16  O   UNL     1      -4.721  -7.894  -0.690  1.00  0.00    -0.550 OA
ENDBRANCH  13  14
ENDBRANCH  12  13
ENDBRANCH  11  12
ENDBRANCH  10  11
ENDBRANCH   9  10
ENDBRANCH   8   9
ENDBRANCH   7   8
ENDBRANCH   6   7
ENDBRANCH   5   6
ENDBRANCH   4   5
ENDBRANCH   3   4
ENDBRANCH   2   3
ENDBRANCH   1   2
BRANCH   1  17
ATOM     17  C   UNL     1      -2.775  -4.143  -5.708  1.00  0.00     0.000 C 
BRANCH  17  18
ATOM     18  C   UNL     1      -3.486  -3.567  -6.946  1.00  0.00     0.000 C 
BRANCH  18  19
ATOM     19  C   UNL     1      -2.549  -2.735  -7.838  1.00  0.00     0.000 C 
BRANCH  19  20
ATOM     20  C   UNL     1      -1.184  -3.411  -8.054  1.00  0.00     0.000 C 
BRANCH  20  21
ATOM     21  C   UNL     1      -0.536  -3.019  -9.395  1.00  0.00     0.000 C 
BRANCH  21  22
ATOM     22  C   UNL     1      -1.455  -3.296 -10.595  1.00  0.00    -0.000 C 
BRANCH  22  23
ATOM     23  C   UNL     1      -0.677  -3.728 -11.850  1.00  0.00    -0.000 C 
BRANCH  23  24
ATOM     24  C   UNL     1      -1.446  -3.441 -13.152  1.00  0.00    -0.000 C 
BRANCH  24  25
ATOM     25  C   UNL     1      -1.553  -4.635 -14.122  1.00  0.00    -0.000 C 
BRANCH  25  26
ATOM     26  C   UNL     1      -2.217  -5.894 -13.538  1.00  0.00    -0.000 C 
BRANCH  26  27
ATOM     27  C   UNL     1      -3.680  -6.058 -13.980  1.00  0.00    -0.000 C 
BRANCH  27  28
ATOM     28  C   UNL     1      -4.315  -7.294 -13.325  1.00  0.00    -0.000 C 
BRANCH  28  29
ATOM     29  C   UNL     1      -4.061  -8.581 -14.125  1.00  0.00    -0.003 C 
ATOM     30  C   UNL     1      -4.372  -9.846 -13.325  1.00  0.00     0.004 C 
ENDBRANCH  28  29
ENDBRANCH  27  28
ENDBRANCH  26  27
ENDBRANCH  25  26
ENDBRANCH  24  25
ENDBRANCH  23  24
ENDBRANCH  22  23
ENDBRANCH  21  22
ENDBRANCH  20  21
ENDBRANCH  19  20
ENDBRANCH  18  19
ENDBRANCH  17  18
ENDBRANCH   1  17
TORSDOF 26
ENDMDL
MODEL 7
REMARK VINA RESULT:    17.004      6.066     13.335
REMARK INTER + INTRA:          42.350
REMARK INTER:                  38.525
REMARK INTRA:                   3.825
REMARK UNBOUND:                -0.498
REMARK SMILES CCCCCCCCCCCCCCCCCCCCCCCCCCCC(=O)[O-]
REMARK SMILES IDX 15 1 16 2 17 3 18 4 19 5 20 6 21 7 22 8 23 9 24 10 25 11
REMARK SMILES IDX 26 12 27 13 28 14 29 15 30 16 14 17 13 18 12 19 11 20 10 21
REMARK SMILES IDX 9 22 8 23 7 24 6 25 5 26 4 27 3 28 2 29 1 30
REMARK H PARENT
REMARK Flexibility Score: inf
ROOT
ATOM      1  C   UNL     1      -2.470  -4.055  -6.011  1.00  0.00     0.000 C 
ENDROOT
BRANCH   1   2
ATOM      2  C   UNL     1      -2.125  -2.786  -6.818  1.00  0.00     0.000 C 
BRANCH   2   3
ATOM      3  C   UNL     1      -2.806  -2.683  -8.196  1.00  0.00     0.000 C 
BRANCH   3   4
ATOM      4  C   UNL     1      -1.846  -2.710  -9.400  1.00  0.00     0.000 C 
BRANCH   4   5
ATOM      5  C   UNL     1      -1.752  -4.094 -10.058  1.00  0.00     0.000 C 
BRANCH   5   6
ATOM      6  C   UNL     1      -0.862  -4.043 -11.310  1.00  0.00     0.000 C 
BRANCH   6   7
ATOM      7  C   UNL     1      -1.067  -2.759 -12.131  1.00  0.00     0.000 C 
BRANCH   7   8
ATOM      8  C   UNL     1      -1.479  -3.047 -13.583  1.00  0.00     0.000 C 
BRANCH   8   9
ATOM      9  C   UNL     1      -1.133  -4.488 -13.977  1.00  0.00     0.000 C 
BRANCH   9  10
ATOM     10  C   UNL     1       0.348  -4.788 -13.714  1.00  0.00     0.000 C 
BRANCH  10  11
ATOM     11  C   UNL     1       1.224  -3.573 -14.044  1.00  0.00     0.000 C 
BRANCH  11  12
ATOM     12  C   UNL     1       2.706  -3.970 -14.125  1.00  0.00     0.006 C 
BRANCH  12  13
ATOM     13  C   UNL     1       3.639  -2.756 -14.025  1.00  0.00     0.053 C 
BRANCH  13  14
ATOM     14  C   UNL     1       5.036  -3.157 -13.662  1.00  0.00     0.041 C 
ATOM     15  O   UNL     1       5.507  -4.252 -14.069  1.00  0.00    -0.550 OA
ATOM     16  O   UNL     1       5.829  -2.307 -12.901  1.00  0.00    -0.550 OA
ENDBRANCH  13  14
ENDBRANCH  12  13
ENDBRANCH  11  12
ENDBRANCH  10  11
ENDBRANCH   9  10
ENDBRANCH   8   9
ENDBRANCH   7   8
ENDBRANCH   6   7
ENDBRANCH   5   6
ENDBRANCH   4   5
ENDBRANCH   3   4
ENDBRANCH   2   3
ENDBRANCH   1   2
BRANCH   1  17
ATOM     17  C   UNL     1      -3.402  -3.827  -4.805  1.00  0.00     0.000 C 
BRANCH  17  18
ATOM     18  C   UNL     1      -4.120  -5.087  -4.287  1.00  0.00     0.000 C 
BRANCH  18  19
ATOM     19  C   UNL     1      -5.643  -4.904  -4.179  1.00  0.00     0.000 C 
BRANCH  19  20
ATOM     20  C   UNL     1      -6.304  -5.959  -3.276  1.00  0.00     0.000 C 
BRANCH  20  21
ATOM     21  C   UNL     1      -7.535  -6.611  -3.931  1.00  0.00     0.000 C 
BRANCH  21  22
ATOM     22  C   UNL     1      -7.550  -8.138  -3.764  1.00  0.00    -0.000 C 
BRANCH  22  23
ATOM     23  C   UNL     1      -8.008  -8.577  -2.362  1.00  0.00    -0.000 C 
BRANCH  23  24
ATOM     24  C   UNL     1      -6.828  -8.851  -1.412  1.00  0.00    -0.000 C 
BRANCH  24  25
ATOM     25  C   UNL     1      -6.955  -8.211  -0.014  1.00  0.00    -0.000 C 
BRANCH  25  26
ATOM     26  C   UNL     1      -8.298  -7.514   0.266  1.00  0.00    -0.000 C 
BRANCH  26  27
ATOM     27  C   UNL     1      -9.490  -8.232  -0.384  1.00  0.00    -0.000 C 
BRANCH  27  28
ATOM     28  C   UNL     1      -9.919  -7.521  -1.677  1.00  0.00    -0.000 C 
BRANCH  28  29
ATOM     29  C   UNL     1     -11.125  -8.197  -2.349  1.00  0.00    -0.003 C 
ATOM     30  C   UNL     1     -10.950  -9.709  -2.497  1.00  0.00     0.004 C 
ENDBRANCH  28  29
ENDBRANCH  27  28
ENDBRANCH  26  27
ENDBRANCH  25  26
ENDBRANCH  24  25
ENDBRANCH  23  24
ENDBRANCH  22  23
ENDBRANCH  21  22
ENDBRANCH  20  21
ENDBRANCH  19  20
ENDBRANCH  18  19
ENDBRANCH  17  18
ENDBRANCH   1  17
TORSDOF 26
ENDMDL
MODEL 8
REMARK VINA RESULT:    17.027      3.519     10.812
REMARK INTER + INTRA:          42.409
REMARK INTER:                  42.819
REMARK INTRA:                  -0.410
REMARK UNBOUND:                -0.498
REMARK SMILES CCCCCCCCCCCCCCCCCCCCCCCCCCCC(=O)[O-]
REMARK SMILES IDX 15 1 16 2 17 3 18 4 19 5 20 6 21 7 22 8 23 9 24 10 25 11
REMARK SMILES IDX 26 12 27 13 28 14 29 15 30 16 14 17 13 18 12 19 11 20 10 21
REMARK SMILES IDX 9 22 8 23 7 24 6 25 5 26 4 27 3 28 2 29 1 30
REMARK H PARENT
REMARK Flexibility Score: inf
ROOT
ATOM      1  C   UNL     1      -2.633  -3.339  -9.769  1.00  0.00     0.000 C 
ENDROOT
BRANCH   1   2
ATOM      2  C   UNL     1      -1.511  -3.925 -10.651  1.00  0.00     0.000 C 
BRANCH   2   3
ATOM      3  C   UNL     1      -1.908  -5.167 -11.472  1.00  0.00     0.000 C 
BRANCH   3   4
ATOM      4  C   UNL     1      -1.232  -5.277 -12.851  1.00  0.00     0.000 C 
BRANCH   4   5
ATOM      5  C   UNL     1      -2.239  -5.413 -14.002  1.00  0.00     0.000 C 
BRANCH   5   6
ATOM      6  C   UNL     1      -3.608  -5.873 -13.476  1.00  0.00     0.000 C 
BRANCH   6   7
ATOM      7  C   UNL     1      -3.618  -7.354 -13.066  1.00  0.00     0.000 C 
BRANCH   7   8
ATOM      8  C   UNL     1      -4.271  -8.255 -14.125  1.00  0.00     0.000 C 
BRANCH   8   9
ATOM      9  C   UNL     1      -5.770  -8.427 -13.851  1.00  0.00     0.000 C 
BRANCH   9  10
ATOM     10  C   UNL     1      -6.187  -9.897 -13.983  1.00  0.00     0.000 C 
BRANCH  10  11
ATOM     11  C   UNL     1      -6.130 -10.610 -12.627  1.00  0.00     0.000 C 
BRANCH  11  12
ATOM     12  C   UNL     1      -7.480 -11.259 -12.289  1.00  0.00     0.006 C 
BRANCH  12  13
ATOM     13  C   UNL     1      -8.652 -10.564 -12.997  1.00  0.00     0.053 C 
BRANCH  13  14
ATOM     14  C   UNL     1      -9.935 -10.729 -12.241  1.00  0.00     0.041 C 
ATOM     15  O   UNL     1     -10.773  -9.791 -12.204  1.00  0.00    -0.550 OA
ATOM     16  O   UNL     1     -10.218 -11.931 -11.605  1.00  0.00    -0.550 OA
ENDBRANCH  13  14
ENDBRANCH  12  13
ENDBRANCH  11  12
ENDBRANCH  10  11
ENDBRANCH   9  10
ENDBRANCH   8   9
ENDBRANCH   7   8
ENDBRANCH   6   7
ENDBRANCH   5   6
ENDBRANCH   4   5
ENDBRANCH   3   4
ENDBRANCH   2   3
ENDBRANCH   1   2
BRANCH   1  17
ATOM     17  C   UNL     1      -2.836  -4.047  -8.415  1.00  0.00     0.000 C 
BRANCH  17  18
ATOM     18  C   UNL     1      -3.619  -3.236  -7.365  1.00  0.00     0.000 C 
BRANCH  18  19
ATOM     19  C   UNL     1      -2.717  -2.673  -6.254  1.00  0.00     0.000 C 
BRANCH  19  20
ATOM     20  C   UNL     1      -2.495  -3.675  -5.108  1.00  0.00     0.000 C 
BRANCH  20  21
ATOM     21  C   UNL     1      -3.180  -5.029  -5.365  1.00  0.00     0.000 C 
BRANCH  21  22
ATOM     22  C   UNL     1      -4.586  -5.102  -4.748  1.00  0.00    -0.000 C 
BRANCH  22  23
ATOM     23  C   UNL     1      -4.927  -6.505  -4.216  1.00  0.00    -0.000 C 
BRANCH  23  24
ATOM     24  C   UNL     1      -6.412  -6.865  -4.403  1.00  0.00    -0.000 C 
BRANCH  24  25
ATOM     25  C   UNL     1      -7.222  -6.986  -3.096  1.00  0.00    -0.000 C 
BRANCH  25  26
ATOM     26  C   UNL     1      -8.156  -8.206  -3.017  1.00  0.00    -0.000 C 
BRANCH  26  27
ATOM     27  C   UNL     1      -8.541  -8.571  -1.575  1.00  0.00    -0.000 C 
BRANCH  27  28
ATOM     28  C   UNL     1      -9.786  -7.791  -1.126  1.00  0.00    -0.000 C 
BRANCH  28  29
ATOM     29  C   UNL     1     -11.049  -8.199  -1.901  1.00  0.00    -0.003 C 
ATOM     30  C   UNL     1     -11.121  -9.702  -2.168  1.00  0.00     0.004 C 
ENDBRANCH  28  29
ENDBRANCH  27  28
ENDBRANCH  26  27
ENDBRANCH  25  26
ENDBRANCH  24  25
ENDBRANCH  23  24
ENDBRANCH  22  23
ENDBRANCH  21  22
ENDBRANCH  20  21
ENDBRANCH  19  20
ENDBRANCH  18  19
ENDBRANCH  17  18
ENDBRANCH   1  17
TORSDOF 26
ENDMDL
