MODEL 1
REMARK VINA RESULT:    -4.138      0.000      0.000
REMARK INTER + INTRA:         -15.621
REMARK INTER:                 -10.427
REMARK INTRA:                  -5.195
REMARK UNBOUND:                -5.195
REMARK SMILES CCCCCCCCCCCCCCCCCCCCCCCCCCCC(=O)[O-]
REMARK SMILES IDX 15 1 16 2 17 3 18 4 19 5 20 6 21 7 22 8 23 9 24 10 25 11
REMARK SMILES IDX 26 12 27 13 28 14 29 15 30 16 14 17 13 18 12 19 11 20 10 21
REMARK SMILES IDX 9 22 8 23 7 24 6 25 5 26 4 27 3 28 2 29 1 30
REMARK H PARENT
REMARK Flexibility Score: inf
ROOT
ATOM      1  C   UNL     1      -8.625  -4.607   6.394  1.00  0.00     0.000 C 
ENDROOT
BRANCH   1   2
ATOM      2  C   UNL     1      -9.497  -3.648   5.564  1.00  0.00     0.000 C 
BRANCH   2   3
ATOM      3  C   UNL     1      -9.005  -3.395   4.127  1.00  0.00     0.000 C 
BRANCH   3   4
ATOM      4  C   UNL     1     -10.154  -3.212   3.122  1.00  0.00     0.000 C 
BRANCH   4   5
ATOM      5  C   UNL     1      -9.921  -2.030   2.169  1.00  0.00     0.000 C 
BRANCH   5   6
ATOM      6  C   UNL     1      -8.635  -1.252   2.499  1.00  0.00     0.000 C 
BRANCH   6   7
ATOM      7  C   UNL     1      -8.880   0.253   2.705  1.00  0.00     0.000 C 
BRANCH   7   8
ATOM      8  C   UNL     1     -10.272   0.752   2.275  1.00  0.00     0.000 C 
BRANCH   8   9
ATOM      9  C   UNL     1     -11.009   1.511   3.391  1.00  0.00     0.000 C 
BRANCH   9  10
ATOM     10  C   UNL     1     -12.131   0.681   4.041  1.00  0.00     0.000 C 
BRANCH  10  11
ATOM     11  C   UNL     1     -11.658  -0.459   4.961  1.00  0.00     0.000 C 
BRANCH  11  12
ATOM     12  C   UNL     1     -12.795  -1.403   5.387  1.00  0.00     0.006 C 
BRANCH  12  13
ATOM     13  C   UNL     1     -13.645  -1.863   4.196  1.00  0.00     0.053 C 
BRANCH  13  14
ATOM     14  C   UNL     1     -15.101  -1.930   4.543  1.00  0.00     0.041 C 
ATOM     15  O   UNL     1     -15.686  -3.043   4.613  1.00  0.00    -0.550 OA
ATOM     16  O   UNL     1     -15.807  -0.764   4.811  1.00  0.00    -0.550 OA
ENDBRANCH  13  14
ENDBRANCH  12  13
ENDBRANCH  11  12
ENDBRANCH  10  11
ENDBRANCH   9  10
ENDBRANCH   8   9
ENDBRANCH   7   8
ENDBRANCH   6   7
ENDBRANCH   5   6
ENDBRANCH   4   5
ENDBRANCH   3   4
ENDBRANCH   2   3
ENDBRANCH   1   2
BRANCH   1  17
ATOM     17  C   UNL     1      -9.296  -5.971   6.638  1.00  0.00     0.000 C 
BRANCH  17  18
ATOM     18  C   UNL     1      -8.652  -7.098   5.817  1.00  0.00     0.000 C 
BRANCH  18  19
ATOM     19  C   UNL     1      -9.679  -7.890   4.987  1.00  0.00     0.000 C 
BRANCH  19  20
ATOM     20  C   UNL     1     -10.302  -9.053   5.774  1.00  0.00     0.000 C 
BRANCH  20  21
ATOM     21  C   UNL     1     -11.836  -9.097   5.648  1.00  0.00     0.000 C 
BRANCH  21  22
ATOM     22  C   UNL     1     -12.549  -8.680   6.952  1.00  0.00    -0.000 C 
BRANCH  22  23
ATOM     23  C   UNL     1     -13.480  -7.462   6.794  1.00  0.00    -0.000 C 
BRANCH  23  24
ATOM     24  C   UNL     1     -12.809  -6.093   7.019  1.00  0.00    -0.000 C 
BRANCH  24  25
ATOM     25  C   UNL     1     -12.879  -5.123   5.821  1.00  0.00    -0.000 C 
BRANCH  25  26
ATOM     26  C   UNL     1     -12.494  -5.735   4.463  1.00  0.00    -0.000 C 
BRANCH  26  27
ATOM     27  C   UNL     1     -13.502  -5.400   3.352  1.00  0.00    -0.000 C 
BRANCH  27  28
ATOM     28  C   UNL     1     -14.395  -6.596   2.976  1.00  0.00    -0.000 C 
BRANCH  28  29
ATOM     29  C   UNL     1     -15.609  -6.809   3.898  1.00  0.00    -0.003 C 
ATOM     30  C   UNL     1     -15.929  -8.284   4.136  1.00  0.00     0.004 C 
ENDBRANCH  28  29
ENDBRANCH  27  28
ENDBRANCH  26  27
ENDBRANCH  25  26
ENDBRANCH  24  25
ENDBRANCH  23  24
ENDBRANCH  22  23
ENDBRANCH  21  22
ENDBRANCH  20  21
ENDBRANCH  19  20
ENDBRANCH  18  19
ENDBRANCH  17  18
ENDBRANCH   1  17
TORSDOF 26
ENDMDL
MODEL 2
REMARK VINA RESULT:    -4.050      2.118      4.054
REMARK INTER + INTRA:         -15.401
REMARK INTER:                 -10.332
REMARK INTRA:                  -5.068
REMARK UNBOUND:                -5.195
REMARK SMILES CCCCCCCCCCCCCCCCCCCCCCCCCCCC(=O)[O-]
REMARK SMILES IDX 15 1 16 2 17 3 18 4 19 5 20 6 21 7 22 8 23 9 24 10 25 11
REMARK SMILES IDX 26 12 27 13 28 14 29 15 30 16 14 17 13 18 12 19 11 20 10 21
REMARK SMILES IDX 9 22 8 23 7 24 6 25 5 26 4 27 3 28 2 29 1 30
REMARK H PARENT
REMARK Flexibility Score: inf
ROOT
ATOM      1  C   UNL     1      -9.140  -5.666   6.888  1.00  0.00     0.000 C 
ENDROOT
BRANCH   1   2
ATOM      2  C   UNL     1      -8.436  -4.398   6.374  1.00  0.00     0.000 C 
BRANCH   2   3
ATOM      3  C   UNL     1      -9.327  -3.440   5.561  1.00  0.00     0.000 C 
BRANCH   3   4
ATOM      4  C   UNL     1      -8.774  -3.154   4.155  1.00  0.00     0.000 C 
BRANCH   4   5
ATOM      5  C   UNL     1      -9.777  -3.504   3.045  1.00  0.00     0.000 C 
BRANCH   5   6
ATOM      6  C   UNL     1     -10.257  -2.263   2.272  1.00  0.00     0.000 C 
BRANCH   6   7
ATOM      7  C   UNL     1      -9.109  -1.308   1.899  1.00  0.00     0.000 C 
BRANCH   7   8
ATOM      8  C   UNL     1      -9.357   0.174   2.240  1.00  0.00     0.000 C 
BRANCH   8   9
ATOM      9  C   UNL     1      -9.751   0.393   3.709  1.00  0.00     0.000 C 
BRANCH   9  10
ATOM     10  C   UNL     1     -10.710   1.582   3.902  1.00  0.00     0.000 C 
BRANCH  10  11
ATOM     11  C   UNL     1     -11.641   1.875   2.711  1.00  0.00     0.000 C 
BRANCH  11  12
ATOM     12  C   UNL     1     -12.895   0.984   2.691  1.00  0.00     0.006 C 
BRANCH  12  13
ATOM     13  C   UNL     1     -14.178   1.779   2.962  1.00  0.00     0.053 C 
BRANCH  13  14
ATOM     14  C   UNL     1     -13.927   2.951   3.862  1.00  0.00     0.041 C 
ATOM     15  O   UNL     1     -13.854   2.789   5.109  1.00  0.00    -0.550 OA
ATOM     16  O   UNL     1     -13.753   4.218   3.322  1.00  0.00    -0.550 OA
ENDBRANCH  13  14
ENDBRANCH  12  13
ENDBRANCH  11  12
ENDBRANCH  10  11
ENDBRANCH   9  10
ENDBRANCH   8   9
ENDBRANCH   7   8
ENDBRANCH   6   7
ENDBRANCH   5   6
ENDBRANCH   4   5
ENDBRANCH   3   4
ENDBRANCH   2   3
ENDBRANCH   1   2
BRANCH   1  17
ATOM     17  C   UNL     1      -8.938  -6.881   5.964  1.00  0.00     0.000 C 
BRANCH  17  18
ATOM     18  C   UNL     1     -10.046  -7.008   4.907  1.00  0.00     0.000 C 
BRANCH  18  19
ATOM     19  C   UNL     1     -11.454  -6.813   5.498  1.00  0.00     0.000 C 
BRANCH  19  20
ATOM     20  C   UNL     1     -12.403  -6.086   4.532  1.00  0.00     0.000 C 
BRANCH  20  21
ATOM     21  C   UNL     1     -12.728  -4.653   4.989  1.00  0.00     0.000 C 
BRANCH  21  22
ATOM     22  C   UNL     1     -13.329  -3.793   3.858  1.00  0.00    -0.000 C 
BRANCH  22  23
ATOM     23  C   UNL     1     -13.450  -2.297   4.207  1.00  0.00    -0.000 C 
BRANCH  23  24
ATOM     24  C   UNL     1     -12.539  -1.817   5.353  1.00  0.00    -0.000 C 
BRANCH  24  25
ATOM     25  C   UNL     1     -12.946  -0.475   5.997  1.00  0.00    -0.000 C 
BRANCH  25  26
ATOM     26  C   UNL     1     -14.134  -0.553   6.972  1.00  0.00    -0.000 C 
BRANCH  26  27
ATOM     27  C   UNL     1     -13.786  -1.288   8.277  1.00  0.00    -0.000 C 
BRANCH  27  28
ATOM     28  C   UNL     1     -14.427  -2.684   8.364  1.00  0.00    -0.000 C 
BRANCH  28  29
ATOM     29  C   UNL     1     -15.848  -2.779   7.778  1.00  0.00    -0.003 C 
ATOM     30  C   UNL     1     -15.944  -3.737   6.592  1.00  0.00     0.004 C 
ENDBRANCH  28  29
ENDBRANCH  27  28
ENDBRANCH  26  27
ENDBRANCH  25  26
ENDBRANCH  24  25
ENDBRANCH  23  24
ENDBRANCH  22  23
ENDBRANCH  21  22
ENDBRANCH  20  21
ENDBRANCH  19  20
ENDBRANCH  18  19
ENDBRANCH  17  18
ENDBRANCH   1  17
TORSDOF 26
ENDMDL
MODEL 3
REMARK VINA RESULT:    -4.033      2.132      4.483
REMARK INTER + INTRA:         -15.358
REMARK INTER:                  -9.611
REMARK INTRA:                  -5.747
REMARK UNBOUND:                -5.195
REMARK SMILES CCCCCCCCCCCCCCCCCCCCCCCCCCCC(=O)[O-]
REMARK SMILES IDX 15 1 16 2 17 3 18 4 19 5 20 6 21 7 22 8 23 9 24 10 25 11
REMARK SMILES IDX 26 12 27 13 28 14 29 15 30 16 14 17 13 18 12 19 11 20 10 21
REMARK SMILES IDX 9 22 8 23 7 24 6 25 5 26 4 27 3 28 2 29 1 30
REMARK H PARENT
REMARK Flexibility Score: inf
ROOT
ATOM      1  C   UNL     1     -11.278  -5.175   5.978  1.00  0.00     0.000 C 
ENDROOT
BRANCH   1   2
ATOM      2  C   UNL     1      -9.879  -5.805   6.097  1.00  0.00     0.000 C 
BRANCH   2   3
ATOM      3  C   UNL     1      -8.733  -4.808   6.350  1.00  0.00     0.000 C 
BRANCH   3   4
ATOM      4  C   UNL     1      -8.966  -3.443   5.679  1.00  0.00     0.000 C 
BRANCH   4   5
ATOM      5  C   UNL     1      -8.643  -3.461   4.178  1.00  0.00     0.000 C 
BRANCH   5   6
ATOM      6  C   UNL     1      -8.604  -2.049   3.567  1.00  0.00     0.000 C 
BRANCH   6   7
ATOM      7  C   UNL     1      -9.503  -1.908   2.326  1.00  0.00     0.000 C 
BRANCH   7   8
ATOM      8  C   UNL     1     -10.102  -0.505   2.111  1.00  0.00     0.000 C 
BRANCH   8   9
ATOM      9  C   UNL     1      -9.918   0.418   3.326  1.00  0.00     0.000 C 
BRANCH   9  10
ATOM     10  C   UNL     1     -10.702   1.738   3.201  1.00  0.00     0.000 C 
BRANCH  10  11
ATOM     11  C   UNL     1     -11.738   1.782   2.063  1.00  0.00     0.000 C 
BRANCH  11  12
ATOM     12  C   UNL     1     -12.960   2.657   2.393  1.00  0.00     0.006 C 
BRANCH  12  13
ATOM     13  C   UNL     1     -13.179   2.803   3.903  1.00  0.00     0.053 C 
BRANCH  13  14
ATOM     14  C   UNL     1     -14.618   2.615   4.278  1.00  0.00     0.041 C 
ATOM     15  O   UNL     1     -15.390   1.963   3.526  1.00  0.00    -0.550 OA
ATOM     16  O   UNL     1     -15.102   3.141   5.469  1.00  0.00    -0.550 OA
ENDBRANCH  13  14
ENDBRANCH  12  13
ENDBRANCH  11  12
ENDBRANCH  10  11
ENDBRANCH   9  10
ENDBRANCH   8   9
ENDBRANCH   7   8
ENDBRANCH   6   7
ENDBRANCH   5   6
ENDBRANCH   4   5
ENDBRANCH   3   4
ENDBRANCH   2   3
ENDBRANCH   1   2
BRANCH   1  17
ATOM     17  C   UNL     1     -12.073  -5.700   4.768  1.00  0.00     0.000 C 
BRANCH  17  18
ATOM     18  C   UNL     1     -12.373  -4.599   3.740  1.00  0.00     0.000 C 
BRANCH  18  19
ATOM     19  C   UNL     1     -12.325  -3.186   4.351  1.00  0.00     0.000 C 
BRANCH  19  20
ATOM     20  C   UNL     1     -13.036  -2.142   3.477  1.00  0.00     0.000 C 
BRANCH  20  21
ATOM     21  C   UNL     1     -13.356  -0.847   4.245  1.00  0.00     0.000 C 
BRANCH  21  22
ATOM     22  C   UNL     1     -12.646  -0.780   5.615  1.00  0.00    -0.000 C 
BRANCH  22  23
ATOM     23  C   UNL     1     -13.474  -0.089   6.715  1.00  0.00    -0.000 C 
BRANCH  23  24
ATOM     24  C   UNL     1     -14.267  -1.041   7.631  1.00  0.00    -0.000 C 
BRANCH  24  25
ATOM     25  C   UNL     1     -13.833  -2.521   7.574  1.00  0.00    -0.000 C 
BRANCH  25  26
ATOM     26  C   UNL     1     -14.987  -3.539   7.587  1.00  0.00    -0.000 C 
BRANCH  26  27
ATOM     27  C   UNL     1     -15.245  -4.164   6.206  1.00  0.00    -0.000 C 
BRANCH  27  28
ATOM     28  C   UNL     1     -16.046  -3.238   5.274  1.00  0.00    -0.000 C 
BRANCH  28  29
ATOM     29  C   UNL     1     -16.743  -3.951   4.100  1.00  0.00    -0.003 C 
ATOM     30  C   UNL     1     -15.914  -5.093   3.516  1.00  0.00     0.004 C 
ENDBRANCH  28  29
ENDBRANCH  27  28
ENDBRANCH  26  27
ENDBRANCH  25  26
ENDBRANCH  24  25
ENDBRANCH  23  24
ENDBRANCH  22  23
ENDBRANCH  21  22
ENDBRANCH  20  21
ENDBRANCH  19  20
ENDBRANCH  18  19
ENDBRANCH  17  18
ENDBRANCH   1  17
TORSDOF 26
ENDMDL
MODEL 4
REMARK VINA RESULT:    -3.939      2.669      5.360
REMARK INTER + INTRA:         -15.120
REMARK INTER:                 -10.517
REMARK INTRA:                  -4.603
REMARK UNBOUND:                -5.195
REMARK SMILES CCCCCCCCCCCCCCCCCCCCCCCCCCCC(=O)[O-]
REMARK SMILES IDX 15 1 16 2 17 3 18 4 19 5 20 6 21 7 22 8 23 9 24 10 25 11
REMARK SMILES IDX 26 12 27 13 28 14 29 15 30 16 14 17 13 18 12 19 11 20 10 21
REMARK SMILES IDX 9 22 8 23 7 24 6 25 5 26 4 27 3 28 2 29 1 30
REMARK H PARENT
REMARK Flexibility Score: inf
ROOT
ATOM      1  C   UNL     1      -9.624   0.164   2.786  1.00  0.00     0.000 C 
ENDROOT
BRANCH   1   2
ATOM      2  C   UNL     1     -10.517   1.390   3.045  1.00  0.00     0.000 C 
BRANCH   2   3
ATOM      3  C   UNL     1     -11.694   1.558   2.067  1.00  0.00     0.000 C 
BRANCH   3   4
ATOM      4  C   UNL     1     -12.883   2.315   2.683  1.00  0.00     0.000 C 
BRANCH   4   5
ATOM      5  C   UNL     1     -12.628   2.725   4.141  1.00  0.00     0.000 C 
BRANCH   5   6
ATOM      6  C   UNL     1     -13.069   4.171   4.431  1.00  0.00     0.000 C 
BRANCH   6   7
ATOM      7  C   UNL     1     -14.584   4.300   4.671  1.00  0.00     0.000 C 
BRANCH   7   8
ATOM      8  C   UNL     1     -15.345   5.119   3.612  1.00  0.00     0.000 C 
BRANCH   8   9
ATOM      9  C   UNL     1     -16.484   4.329   2.948  1.00  0.00     0.000 C 
BRANCH   9  10
ATOM     10  C   UNL     1     -17.197   3.372   3.921  1.00  0.00     0.000 C 
BRANCH  10  11
ATOM     11  C   UNL     1     -17.364   1.926   3.419  1.00  0.00     0.000 C 
BRANCH  11  12
ATOM     12  C   UNL     1     -16.178   1.019   3.787  1.00  0.00     0.006 C 
BRANCH  12  13
ATOM     13  C   UNL     1     -16.562  -0.049   4.818  1.00  0.00     0.053 C 
BRANCH  13  14
ATOM     14  C   UNL     1     -15.907   0.195   6.144  1.00  0.00     0.041 C 
ATOM     15  O   UNL     1     -15.545  -0.775   6.861  1.00  0.00    -0.550 OA
ATOM     16  O   UNL     1     -15.676   1.494   6.577  1.00  0.00    -0.550 OA
ENDBRANCH  13  14
ENDBRANCH  12  13
ENDBRANCH  11  12
ENDBRANCH  10  11
ENDBRANCH   9  10
ENDBRANCH   8   9
ENDBRANCH   7   8
ENDBRANCH   6   7
ENDBRANCH   5   6
ENDBRANCH   4   5
ENDBRANCH   3   4
ENDBRANCH   2   3
ENDBRANCH   1   2
BRANCH   1  17
ATOM     17  C   UNL     1     -10.291  -0.884   1.877  1.00  0.00     0.000 C 
BRANCH  17  18
ATOM     18  C   UNL     1     -10.155  -2.312   2.427  1.00  0.00     0.000 C 
BRANCH  18  19
ATOM     19  C   UNL     1      -9.121  -2.415   3.563  1.00  0.00     0.000 C 
BRANCH  19  20
ATOM     20  C   UNL     1      -9.063  -3.820   4.182  1.00  0.00     0.000 C 
BRANCH  20  21
ATOM     21  C   UNL     1      -8.637  -3.797   5.661  1.00  0.00     0.000 C 
BRANCH  21  22
ATOM     22  C   UNL     1      -9.174  -5.011   6.450  1.00  0.00    -0.000 C 
BRANCH  22  23
ATOM     23  C   UNL     1      -9.426  -6.259   5.583  1.00  0.00    -0.000 C 
BRANCH  23  24
ATOM     24  C   UNL     1     -10.874  -6.787   5.604  1.00  0.00    -0.000 C 
BRANCH  24  25
ATOM     25  C   UNL     1     -11.967  -5.713   5.419  1.00  0.00    -0.000 C 
BRANCH  25  26
ATOM     26  C   UNL     1     -12.481  -5.547   3.979  1.00  0.00    -0.000 C 
BRANCH  26  27
ATOM     27  C   UNL     1     -13.261  -4.238   3.773  1.00  0.00    -0.000 C 
BRANCH  27  28
ATOM     28  C   UNL     1     -12.989  -3.202   4.877  1.00  0.00    -0.000 C 
BRANCH  28  29
ATOM     29  C   UNL     1     -13.146  -1.734   4.438  1.00  0.00    -0.003 C 
ATOM     30  C   UNL     1     -12.301  -0.768   5.265  1.00  0.00     0.004 C 
ENDBRANCH  28  29
ENDBRANCH  27  28
ENDBRANCH  26  27
ENDBRANCH  25  26
ENDBRANCH  24  25
ENDBRANCH  23  24
ENDBRANCH  22  23
ENDBRANCH  21  22
ENDBRANCH  20  21
ENDBRANCH  19  20
ENDBRANCH  18  19
ENDBRANCH  17  18
ENDBRANCH   1  17
TORSDOF 26
ENDMDL
MODEL 5
REMARK VINA RESULT:    -3.936      1.705      2.644
REMARK INTER + INTRA:         -15.113
REMARK INTER:                 -10.322
REMARK INTRA:                  -4.791
REMARK UNBOUND:                -5.195
REMARK SMILES CCCCCCCCCCCCCCCCCCCCCCCCCCCC(=O)[O-]
REMARK SMILES IDX 15 1 16 2 17 3 18 4 19 5 20 6 21 7 22 8 23 9 24 10 25 11
REMARK SMILES IDX 26 12 27 13 28 14 29 15 30 16 14 17 13 18 12 19 11 20 10 21
REMARK SMILES IDX 9 22 8 23 7 24 6 25 5 26 4 27 3 28 2 29 1 30
REMARK H PARENT
REMARK Flexibility Score: inf
ROOT
ATOM      1  C   UNL     1      -9.338  -5.582   6.765  1.00  0.00     0.000 C 
ENDROOT
BRANCH   1   2
ATOM      2  C   UNL     1      -8.418  -4.416   6.362  1.00  0.00     0.000 C 
BRANCH   2   3
ATOM      3  C   UNL     1      -9.036  -3.408   5.376  1.00  0.00     0.000 C 
BRANCH   3   4
ATOM      4  C   UNL     1      -8.987  -3.890   3.916  1.00  0.00     0.000 C 
BRANCH   4   5
ATOM      5  C   UNL     1      -9.535  -2.845   2.932  1.00  0.00     0.000 C 
BRANCH   5   6
ATOM      6  C   UNL     1      -9.021  -1.426   3.233  1.00  0.00     0.000 C 
BRANCH   6   7
ATOM      7  C   UNL     1      -9.294  -0.434   2.089  1.00  0.00     0.000 C 
BRANCH   7   8
ATOM      8  C   UNL     1     -10.440   0.562   2.348  1.00  0.00     0.000 C 
BRANCH   8   9
ATOM      9  C   UNL     1     -11.821  -0.002   1.976  1.00  0.00     0.000 C 
BRANCH   9  10
ATOM     10  C   UNL     1     -12.498  -0.748   3.140  1.00  0.00     0.000 C 
BRANCH  10  11
ATOM     11  C   UNL     1     -12.383  -0.065   4.515  1.00  0.00     0.000 C 
BRANCH  11  12
ATOM     12  C   UNL     1     -13.659   0.692   4.921  1.00  0.00     0.006 C 
BRANCH  12  13
ATOM     13  C   UNL     1     -14.930   0.005   4.407  1.00  0.00     0.053 C 
BRANCH  13  14
ATOM     14  C   UNL     1     -15.951   0.998   3.941  1.00  0.00     0.041 C 
ATOM     15  O   UNL     1     -17.152   0.649   3.787  1.00  0.00    -0.550 OA
ATOM     16  O   UNL     1     -15.582   2.315   3.699  1.00  0.00    -0.550 OA
ENDBRANCH  13  14
ENDBRANCH  12  13
ENDBRANCH  11  12
ENDBRANCH  10  11
ENDBRANCH   9  10
ENDBRANCH   8   9
ENDBRANCH   7   8
ENDBRANCH   6   7
ENDBRANCH   5   6
ENDBRANCH   4   5
ENDBRANCH   3   4
ENDBRANCH   2   3
ENDBRANCH   1   2
BRANCH   1  17
ATOM     17  C   UNL     1      -9.021  -6.886   6.011  1.00  0.00     0.000 C 
BRANCH  17  18
ATOM     18  C   UNL     1     -10.072  -7.216   4.940  1.00  0.00     0.000 C 
BRANCH  18  19
ATOM     19  C   UNL     1     -11.432  -7.609   5.545  1.00  0.00     0.000 C 
BRANCH  19  20
ATOM     20  C   UNL     1     -12.534  -6.584   5.235  1.00  0.00     0.000 C 
BRANCH  20  21
ATOM     21  C   UNL     1     -12.104  -5.560   4.169  1.00  0.00     0.000 C 
BRANCH  21  22
ATOM     22  C   UNL     1     -12.599  -4.132   4.486  1.00  0.00    -0.000 C 
BRANCH  22  23
ATOM     23  C   UNL     1     -12.631  -3.800   5.989  1.00  0.00    -0.000 C 
BRANCH  23  24
ATOM     24  C   UNL     1     -13.803  -2.904   6.436  1.00  0.00    -0.000 C 
BRANCH  24  25
ATOM     25  C   UNL     1     -15.013  -3.654   7.031  1.00  0.00    -0.000 C 
BRANCH  25  26
ATOM     26  C   UNL     1     -16.223  -3.789   6.090  1.00  0.00    -0.000 C 
BRANCH  26  27
ATOM     27  C   UNL     1     -16.141  -5.033   5.191  1.00  0.00    -0.000 C 
BRANCH  27  28
ATOM     28  C   UNL     1     -16.010  -4.682   3.698  1.00  0.00    -0.000 C 
BRANCH  28  29
ATOM     29  C   UNL     1     -15.496  -5.829   2.809  1.00  0.00    -0.003 C 
ATOM     30  C   UNL     1     -16.616  -6.573   2.083  1.00  0.00     0.004 C 
ENDBRANCH  28  29
ENDBRANCH  27  28
ENDBRANCH  26  27
ENDBRANCH  25  26
ENDBRANCH  24  25
ENDBRANCH  23  24
ENDBRANCH  22  23
ENDBRANCH  21  22
ENDBRANCH  20  21
ENDBRANCH  19  20
ENDBRANCH  18  19
ENDBRANCH  17  18
ENDBRANCH   1  17
TORSDOF 26
ENDMDL
MODEL 6
REMARK VINA RESULT:    -3.924      2.900      4.866
REMARK INTER + INTRA:         -15.084
REMARK INTER:                 -10.534
REMARK INTRA:                  -4.550
REMARK UNBOUND:                -5.195
REMARK SMILES CCCCCCCCCCCCCCCCCCCCCCCCCCCC(=O)[O-]
REMARK SMILES IDX 15 1 16 2 17 3 18 4 19 5 20 6 21 7 22 8 23 9 24 10 25 11
REMARK SMILES IDX 26 12 27 13 28 14 29 15 30 16 14 17 13 18 12 19 11 20 10 21
REMARK SMILES IDX 9 22 8 23 7 24 6 25 5 26 4 27 3 28 2 29 1 30
REMARK H PARENT
REMARK Flexibility Score: inf
ROOT
ATOM      1  C   UNL     1      -9.116  -3.427   5.666  1.00  0.00     0.000 C 
ENDROOT
BRANCH   1   2
ATOM      2  C   UNL     1      -8.635  -3.304   4.209  1.00  0.00     0.000 C 
BRANCH   2   3
ATOM      3  C   UNL     1      -9.739  -3.438   3.144  1.00  0.00     0.000 C 
BRANCH   3   4
ATOM      4  C   UNL     1      -9.910  -2.168   2.294  1.00  0.00     0.000 C 
BRANCH   4   5
ATOM      5  C   UNL     1      -8.688  -1.240   2.368  1.00  0.00     0.000 C 
BRANCH   5   6
ATOM      6  C   UNL     1      -9.074   0.249   2.303  1.00  0.00     0.000 C 
BRANCH   6   7
ATOM      7  C   UNL     1     -10.514   0.516   2.776  1.00  0.00     0.000 C 
BRANCH   7   8
ATOM      8  C   UNL     1     -10.637   1.104   4.194  1.00  0.00     0.000 C 
BRANCH   8   9
ATOM      9  C   UNL     1     -11.167   2.547   4.201  1.00  0.00     0.000 C 
BRANCH   9  10
ATOM     10  C   UNL     1     -12.167   2.824   3.063  1.00  0.00     0.000 C 
BRANCH  10  11
ATOM     11  C   UNL     1     -13.638   2.955   3.496  1.00  0.00     0.000 C 
BRANCH  11  12
ATOM     12  C   UNL     1     -14.441   3.932   2.620  1.00  0.00     0.006 C 
BRANCH  12  13
ATOM     13  C   UNL     1     -13.546   4.981   1.950  1.00  0.00     0.053 C 
BRANCH  13  14
ATOM     14  C   UNL     1     -13.558   6.282   2.694  1.00  0.00     0.041 C 
ATOM     15  O   UNL     1     -14.343   7.204   2.346  1.00  0.00    -0.550 OA
ATOM     16  O   UNL     1     -12.720   6.468   3.785  1.00  0.00    -0.550 OA
ENDBRANCH  13  14
ENDBRANCH  12  13
ENDBRANCH  11  12
ENDBRANCH  10  11
ENDBRANCH   9  10
ENDBRANCH   8   9
ENDBRANCH   7   8
ENDBRANCH   6   7
ENDBRANCH   5   6
ENDBRANCH   4   5
ENDBRANCH   3   4
ENDBRANCH   2   3
ENDBRANCH   1   2
BRANCH   1  17
ATOM     17  C   UNL     1      -8.328  -4.476   6.472  1.00  0.00     0.000 C 
BRANCH  17  18
ATOM     18  C   UNL     1      -9.196  -5.675   6.884  1.00  0.00     0.000 C 
BRANCH  18  19
ATOM     19  C   UNL     1      -9.038  -6.876   5.934  1.00  0.00     0.000 C 
BRANCH  19  20
ATOM     20  C   UNL     1     -10.290  -7.115   5.075  1.00  0.00     0.000 C 
BRANCH  20  21
ATOM     21  C   UNL     1     -11.489  -6.264   5.528  1.00  0.00     0.000 C 
BRANCH  21  22
ATOM     22  C   UNL     1     -12.561  -6.117   4.427  1.00  0.00    -0.000 C 
BRANCH  22  23
ATOM     23  C   UNL     1     -12.998  -4.662   4.170  1.00  0.00    -0.000 C 
BRANCH  23  24
ATOM     24  C   UNL     1     -13.012  -3.754   5.414  1.00  0.00    -0.000 C 
BRANCH  24  25
ATOM     25  C   UNL     1     -12.565  -2.297   5.171  1.00  0.00    -0.000 C 
BRANCH  25  26
ATOM     26  C   UNL     1     -13.207  -1.614   3.951  1.00  0.00    -0.000 C 
BRANCH  26  27
ATOM     27  C   UNL     1     -14.187  -0.496   4.343  1.00  0.00    -0.000 C 
BRANCH  27  28
ATOM     28  C   UNL     1     -14.396  -0.393   5.864  1.00  0.00    -0.000 C 
BRANCH  28  29
ATOM     29  C   UNL     1     -13.793   0.867   6.513  1.00  0.00    -0.003 C 
ATOM     30  C   UNL     1     -13.681   0.761   8.034  1.00  0.00     0.004 C 
ENDBRANCH  28  29
ENDBRANCH  27  28
ENDBRANCH  26  27
ENDBRANCH  25  26
ENDBRANCH  24  25
ENDBRANCH  23  24
ENDBRANCH  22  23
ENDBRANCH  21  22
ENDBRANCH  20  21
ENDBRANCH  19  20
ENDBRANCH  18  19
ENDBRANCH  17  18
ENDBRANCH   1  17
TORSDOF 26
ENDMDL
MODEL 7
REMARK VINA RESULT:    -3.922      1.810      4.739
REMARK INTER + INTRA:         -15.079
REMARK INTER:                 -10.179
REMARK INTRA:                  -4.900
REMARK UNBOUND:                -5.195
REMARK SMILES CCCCCCCCCCCCCCCCCCCCCCCCCCCC(=O)[O-]
REMARK SMILES IDX 15 1 16 2 17 3 18 4 19 5 20 6 21 7 22 8 23 9 24 10 25 11
REMARK SMILES IDX 26 12 27 13 28 14 29 15 30 16 14 17 13 18 12 19 11 20 10 21
REMARK SMILES IDX 9 22 8 23 7 24 6 25 5 26 4 27 3 28 2 29 1 30
REMARK H PARENT
REMARK Flexibility Score: inf
ROOT
ATOM      1  C   UNL     1      -9.351   0.212   3.278  1.00  0.00     0.000 C 
ENDROOT
BRANCH   1   2
ATOM      2  C   UNL     1     -10.164   1.032   2.261  1.00  0.00     0.000 C 
BRANCH   2   3
ATOM      3  C   UNL     1     -11.395   1.754   2.839  1.00  0.00     0.000 C 
BRANCH   3   4
ATOM      4  C   UNL     1     -11.663   1.397   4.311  1.00  0.00     0.000 C 
BRANCH   4   5
ATOM      5  C   UNL     1     -13.000   0.666   4.506  1.00  0.00     0.000 C 
BRANCH   5   6
ATOM      6  C   UNL     1     -13.171  -0.517   3.537  1.00  0.00     0.000 C 
BRANCH   6   7
ATOM      7  C   UNL     1     -13.295  -1.870   4.258  1.00  0.00     0.000 C 
BRANCH   7   8
ATOM      8  C   UNL     1     -12.682  -1.915   5.671  1.00  0.00     0.000 C 
BRANCH   8   9
ATOM      9  C   UNL     1     -13.595  -2.602   6.699  1.00  0.00     0.000 C 
BRANCH   9  10
ATOM     10  C   UNL     1     -14.074  -1.647   7.809  1.00  0.00     0.000 C 
BRANCH  10  11
ATOM     11  C   UNL     1     -14.977  -0.492   7.339  1.00  0.00     0.000 C 
BRANCH  11  12
ATOM     12  C   UNL     1     -16.186  -0.968   6.515  1.00  0.00     0.006 C 
BRANCH  12  13
ATOM     13  C   UNL     1     -16.654   0.089   5.508  1.00  0.00     0.053 C 
BRANCH  13  14
ATOM     14  C   UNL     1     -17.574   1.091   6.138  1.00  0.00     0.041 C 
ATOM     15  O   UNL     1     -17.591   2.282   5.729  1.00  0.00    -0.550 OA
ATOM     16  O   UNL     1     -18.428   0.703   7.162  1.00  0.00    -0.550 OA
ENDBRANCH  13  14
ENDBRANCH  12  13
ENDBRANCH  11  12
ENDBRANCH  10  11
ENDBRANCH   9  10
ENDBRANCH   8   9
ENDBRANCH   7   8
ENDBRANCH   6   7
ENDBRANCH   5   6
ENDBRANCH   4   5
ENDBRANCH   3   4
ENDBRANCH   2   3
ENDBRANCH   1   2
BRANCH   1  17
ATOM     17  C   UNL     1      -8.814  -1.107   2.693  1.00  0.00     0.000 C 
BRANCH  17  18
ATOM     18  C   UNL     1      -9.935  -2.013   2.159  1.00  0.00     0.000 C 
BRANCH  18  19
ATOM     19  C   UNL     1     -10.142  -3.272   3.021  1.00  0.00     0.000 C 
BRANCH  19  20
ATOM     20  C   UNL     1      -8.976  -3.520   3.991  1.00  0.00     0.000 C 
BRANCH  20  21
ATOM     21  C   UNL     1      -9.433  -3.585   5.459  1.00  0.00     0.000 C 
BRANCH  21  22
ATOM     22  C   UNL     1      -8.410  -4.300   6.366  1.00  0.00    -0.000 C 
BRANCH  22  23
ATOM     23  C   UNL     1      -8.925  -5.620   6.971  1.00  0.00    -0.000 C 
BRANCH  23  24
ATOM     24  C   UNL     1      -9.420  -6.659   5.947  1.00  0.00    -0.000 C 
BRANCH  24  25
ATOM     25  C   UNL     1     -10.776  -7.317   6.282  1.00  0.00    -0.000 C 
BRANCH  25  26
ATOM     26  C   UNL     1     -11.850  -7.187   5.188  1.00  0.00    -0.000 C 
BRANCH  26  27
ATOM     27  C   UNL     1     -12.446  -5.772   5.104  1.00  0.00    -0.000 C 
BRANCH  27  28
ATOM     28  C   UNL     1     -12.921  -5.409   3.686  1.00  0.00    -0.000 C 
BRANCH  28  29
ATOM     29  C   UNL     1     -14.450  -5.370   3.508  1.00  0.00    -0.003 C 
ATOM     30  C   UNL     1     -15.208  -5.373   4.835  1.00  0.00     0.004 C 
ENDBRANCH  28  29
ENDBRANCH  27  28
ENDBRANCH  26  27
ENDBRANCH  25  26
ENDBRANCH  24  25
ENDBRANCH  23  24
ENDBRANCH  22  23
ENDBRANCH  21  22
ENDBRANCH  20  21
ENDBRANCH  19  20
ENDBRANCH  18  19
ENDBRANCH  17  18
ENDBRANCH   1  17
TORSDOF 26
ENDMDL
MODEL 8
REMARK VINA RESULT:    -3.888      2.222      3.716
REMARK INTER + INTRA:         -14.993
REMARK INTER:                  -9.874
REMARK INTRA:                  -5.119
REMARK UNBOUND:                -5.195
REMARK SMILES CCCCCCCCCCCCCCCCCCCCCCCCCCCC(=O)[O-]
REMARK SMILES IDX 15 1 16 2 17 3 18 4 19 5 20 6 21 7 22 8 23 9 24 10 25 11
REMARK SMILES IDX 26 12 27 13 28 14 29 15 30 16 14 17 13 18 12 19 11 20 10 21
REMARK SMILES IDX 9 22 8 23 7 24 6 25 5 26 4 27 3 28 2 29 1 30
REMARK H PARENT
REMARK Flexibility Score: inf
ROOT
ATOM      1  C   UNL     1     -10.378  -3.321   5.211  1.00  0.00     0.000 C 
ENDROOT
BRANCH   1   2
ATOM      2  C   UNL     1     -10.631  -3.251   3.695  1.00  0.00     0.000 C 
BRANCH   2   3
ATOM      3  C   UNL     1      -9.382  -2.983   2.836  1.00  0.00     0.000 C 
BRANCH   3   4
ATOM      4  C   UNL     1      -9.435  -1.632   2.103  1.00  0.00     0.000 C 
BRANCH   4   5
ATOM      5  C   UNL     1      -9.019  -0.458   3.001  1.00  0.00     0.000 C 
BRANCH   5   6
ATOM      6  C   UNL     1     -10.156   0.560   3.206  1.00  0.00     0.000 C 
BRANCH   6   7
ATOM      7  C   UNL     1     -11.410   0.233   2.376  1.00  0.00     0.000 C 
BRANCH   7   8
ATOM      8  C   UNL     1     -12.608  -0.298   3.185  1.00  0.00     0.000 C 
BRANCH   8   9
ATOM      9  C   UNL     1     -12.448  -0.089   4.700  1.00  0.00     0.000 C 
BRANCH   9  10
ATOM     10  C   UNL     1     -13.698   0.525   5.356  1.00  0.00     0.000 C 
BRANCH  10  11
ATOM     11  C   UNL     1     -14.998   0.399   4.541  1.00  0.00     0.000 C 
BRANCH  11  12
ATOM     12  C   UNL     1     -15.402   1.710   3.844  1.00  0.00     0.006 C 
BRANCH  12  13
ATOM     13  C   UNL     1     -14.607   2.914   4.365  1.00  0.00     0.053 C 
BRANCH  13  14
ATOM     14  C   UNL     1     -13.700   3.480   3.315  1.00  0.00     0.041 C 
ATOM     15  O   UNL     1     -14.182   3.996   2.272  1.00  0.00    -0.550 OA
ATOM     16  O   UNL     1     -12.324   3.458   3.499  1.00  0.00    -0.550 OA
ENDBRANCH  13  14
ENDBRANCH  12  13
ENDBRANCH  11  12
ENDBRANCH  10  11
ENDBRANCH   9  10
ENDBRANCH   8   9
ENDBRANCH   7   8
ENDBRANCH   6   7
ENDBRANCH   5   6
ENDBRANCH   4   5
ENDBRANCH   3   4
ENDBRANCH   2   3
ENDBRANCH   1   2
BRANCH   1  17
ATOM     17  C   UNL     1      -8.890  -3.494   5.565  1.00  0.00     0.000 C 
BRANCH  17  18
ATOM     18  C   UNL     1      -8.624  -4.768   6.382  1.00  0.00     0.000 C 
BRANCH  18  19
ATOM     19  C   UNL     1      -9.523  -5.944   5.958  1.00  0.00     0.000 C 
BRANCH  19  20
ATOM     20  C   UNL     1     -10.424  -6.438   7.101  1.00  0.00     0.000 C 
BRANCH  20  21
ATOM     21  C   UNL     1     -11.921  -6.344   6.756  1.00  0.00     0.000 C 
BRANCH  21  22
ATOM     22  C   UNL     1     -12.197  -6.553   5.252  1.00  0.00    -0.000 C 
BRANCH  22  23
ATOM     23  C   UNL     1     -13.352  -7.529   4.958  1.00  0.00    -0.000 C 
BRANCH  23  24
ATOM     24  C   UNL     1     -14.236  -7.152   3.754  1.00  0.00    -0.000 C 
BRANCH  24  25
ATOM     25  C   UNL     1     -14.021  -5.727   3.202  1.00  0.00    -0.000 C 
BRANCH  25  26
ATOM     26  C   UNL     1     -14.987  -4.662   3.750  1.00  0.00    -0.000 C 
BRANCH  26  27
ATOM     27  C   UNL     1     -14.257  -3.456   4.363  1.00  0.00    -0.000 C 
BRANCH  27  28
ATOM     28  C   UNL     1     -14.734  -3.132   5.790  1.00  0.00    -0.000 C 
BRANCH  28  29
ATOM     29  C   UNL     1     -13.607  -2.971   6.826  1.00  0.00    -0.003 C 
ATOM     30  C   UNL     1     -14.003  -2.088   8.009  1.00  0.00     0.004 C 
ENDBRANCH  28  29
ENDBRANCH  27  28
ENDBRANCH  26  27
ENDBRANCH  25  26
ENDBRANCH  24  25
ENDBRANCH  23  24
ENDBRANCH  22  23
ENDBRANCH  21  22
ENDBRANCH  20  21
ENDBRANCH  19  20
ENDBRANCH  18  19
ENDBRANCH  17  18
ENDBRANCH   1  17
TORSDOF 26
ENDMDL
MODEL 9
REMARK VINA RESULT:    -3.882      1.413      2.132
REMARK INTER + INTRA:         -14.977
REMARK INTER:                 -10.125
REMARK INTRA:                  -4.852
REMARK UNBOUND:                -5.195
REMARK SMILES CCCCCCCCCCCCCCCCCCCCCCCCCCCC(=O)[O-]
REMARK SMILES IDX 15 1 16 2 17 3 18 4 19 5 20 6 21 7 22 8 23 9 24 10 25 11
REMARK SMILES IDX 26 12 27 13 28 14 29 15 30 16 14 17 13 18 12 19 11 20 10 21
REMARK SMILES IDX 9 22 8 23 7 24 6 25 5 26 4 27 3 28 2 29 1 30
REMARK H PARENT
REMARK Flexibility Score: inf
ROOT
ATOM      1  C   UNL     1      -9.141  -4.717   6.242  1.00  0.00     0.000 C 
ENDROOT
BRANCH   1   2
ATOM      2  C   UNL     1      -8.959  -3.500   5.318  1.00  0.00     0.000 C 
BRANCH   2   3
ATOM      3  C   UNL     1      -9.086  -3.797   3.813  1.00  0.00     0.000 C 
BRANCH   3   4
ATOM      4  C   UNL     1      -9.624  -2.602   3.008  1.00  0.00     0.000 C 
BRANCH   4   5
ATOM      5  C   UNL     1      -8.612  -1.451   2.913  1.00  0.00     0.000 C 
BRANCH   5   6
ATOM      6  C   UNL     1      -9.041  -0.370   1.905  1.00  0.00     0.000 C 
BRANCH   6   7
ATOM      7  C   UNL     1     -10.463   0.159   2.162  1.00  0.00     0.000 C 
BRANCH   7   8
ATOM      8  C   UNL     1     -10.534   1.498   2.921  1.00  0.00     0.000 C 
BRANCH   8   9
ATOM      9  C   UNL     1     -10.630   1.319   4.445  1.00  0.00     0.000 C 
BRANCH   9  10
ATOM     10  C   UNL     1     -11.409   0.054   4.852  1.00  0.00     0.000 C 
BRANCH  10  11
ATOM     11  C   UNL     1     -12.792   0.307   5.479  1.00  0.00     0.000 C 
BRANCH  11  12
ATOM     12  C   UNL     1     -13.912   0.451   4.434  1.00  0.00     0.006 C 
BRANCH  12  13
ATOM     13  C   UNL     1     -14.904  -0.718   4.481  1.00  0.00     0.053 C 
BRANCH  13  14
ATOM     14  C   UNL     1     -16.310  -0.247   4.700  1.00  0.00     0.041 C 
ATOM     15  O   UNL     1     -16.905  -0.506   5.780  1.00  0.00    -0.550 OA
ATOM     16  O   UNL     1     -16.955   0.497   3.721  1.00  0.00    -0.550 OA
ENDBRANCH  13  14
ENDBRANCH  12  13
ENDBRANCH  11  12
ENDBRANCH  10  11
ENDBRANCH   9  10
ENDBRANCH   8   9
ENDBRANCH   7   8
ENDBRANCH   6   7
ENDBRANCH   5   6
ENDBRANCH   4   5
ENDBRANCH   3   4
ENDBRANCH   2   3
ENDBRANCH   1   2
BRANCH   1  17
ATOM     17  C   UNL     1      -9.373  -6.028   5.469  1.00  0.00     0.000 C 
BRANCH  17  18
ATOM     18  C   UNL     1     -10.800  -6.569   5.645  1.00  0.00     0.000 C 
BRANCH  18  19
ATOM     19  C   UNL     1     -11.284  -6.504   7.105  1.00  0.00     0.000 C 
BRANCH  19  20
ATOM     20  C   UNL     1     -12.620  -7.233   7.316  1.00  0.00     0.000 C 
BRANCH  20  21
ATOM     21  C   UNL     1     -13.833  -6.370   6.926  1.00  0.00     0.000 C 
BRANCH  21  22
ATOM     22  C   UNL     1     -13.838  -5.000   7.638  1.00  0.00    -0.000 C 
BRANCH  22  23
ATOM     23  C   UNL     1     -14.011  -3.801   6.686  1.00  0.00    -0.000 C 
BRANCH  23  24
ATOM     24  C   UNL     1     -12.716  -3.314   6.008  1.00  0.00    -0.000 C 
BRANCH  24  25
ATOM     25  C   UNL     1     -12.637  -3.563   4.487  1.00  0.00    -0.000 C 
BRANCH  25  26
ATOM     26  C   UNL     1     -13.843  -4.304   3.885  1.00  0.00    -0.000 C 
BRANCH  26  27
ATOM     27  C   UNL     1     -13.478  -5.699   3.350  1.00  0.00    -0.000 C 
BRANCH  27  28
ATOM     28  C   UNL     1     -14.704  -6.492   2.867  1.00  0.00    -0.000 C 
BRANCH  28  29
ATOM     29  C   UNL     1     -15.950  -6.364   3.762  1.00  0.00    -0.003 C 
ATOM     30  C   UNL     1     -17.138  -5.722   3.047  1.00  0.00     0.004 C 
ENDBRANCH  28  29
ENDBRANCH  27  28
ENDBRANCH  26  27
ENDBRANCH  25  26
ENDBRANCH  24  25
ENDBRANCH  23  24
ENDBRANCH  22  23
ENDBRANCH  21  22
ENDBRANCH  20  21
ENDBRANCH  19  20
ENDBRANCH  18  19
ENDBRANCH  17  18
ENDBRANCH   1  17
TORSDOF 26
ENDMDL
