MODEL 1
REMARK VINA RESULT:    -3.971      0.000      0.000
REMARK INTER + INTRA:          -4.593
REMARK INTER:                  -4.900
REMARK INTRA:                   0.306
REMARK UNBOUND:                 0.306
REMARK SMILES Oc1cc(O)c2cc(O)c(-c3cc(O)c(O)c(O)c3)[o+]c2c1
REMARK SMILES IDX 10 1 20 2 21 3 22 4 2 5 3 6 4 7 6 8 7 9 8 10 11 11 12 12
REMARK SMILES IDX 13 13 19 14 15 15 17 16 14 17 16 19 18 21 9 23 1 25 5 27
REMARK H PARENT 14 18 16 20 18 22 9 24 1 26 5 28
REMARK Flexibility Score: inf
ROOT
ATOM      1  C   UNL     1      47.798  47.054  41.738  1.00  0.00     0.402 A 
ATOM      2  O   UNL     1      48.729  47.947  41.409  1.00  0.00    -0.202 OA
ATOM      3  C   UNL     1      50.033  47.717  41.522  1.00  0.00     0.368 A 
ATOM      4  C   UNL     1      50.934  48.716  41.148  1.00  0.00     0.162 A 
ATOM      5  C   UNL     1      52.309  48.502  41.253  1.00  0.00     0.128 A 
ATOM      6  C   UNL     1      52.789  47.279  41.735  1.00  0.00     0.093 A 
ATOM      7  C   UNL     1      51.905  46.260  42.116  1.00  0.00     0.136 A 
ATOM      8  C   UNL     1      50.507  46.477  42.013  1.00  0.00     0.125 A 
ATOM      9  C   UNL     1      49.547  45.519  42.385  1.00  0.00     0.078 A 
ATOM     10  C   UNL     1      48.185  45.807  42.259  1.00  0.00     0.223 A 
ENDROOT
BRANCH   1  11
ATOM     11  C   UNL     1      46.376  47.427  41.556  1.00  0.00     0.091 A 
ATOM     12  C   UNL     1      46.039  48.768  41.320  1.00  0.00     0.068 A 
ATOM     13  C   UNL     1      44.703  49.144  41.125  1.00  0.00     0.162 A 
ATOM     14  C   UNL     1      45.359  46.456  41.561  1.00  0.00     0.068 A 
ATOM     15  C   UNL     1      43.690  48.170  41.151  1.00  0.00     0.200 A 
ATOM     16  C   UNL     1      44.022  46.826  41.365  1.00  0.00     0.162 A 
BRANCH  13  17
ATOM     17  O   UNL     1      44.377  50.483  40.904  1.00  0.00    -0.504 OA
ATOM     18  H   UNL     1      45.018  51.115  40.439  1.00  0.00     0.293 HD
ENDBRANCH  13  17
BRANCH  15  19
ATOM     19  O   UNL     1      42.353  48.520  40.962  1.00  0.00    -0.502 OA
ATOM     20  H   UNL     1      42.080  49.409  40.560  1.00  0.00     0.293 HD
ENDBRANCH  15  19
BRANCH  16  21
ATOM     21  O   UNL     1      43.016  45.862  41.376  1.00  0.00    -0.504 OA
ATOM     22  H   UNL     1      43.094  45.008  40.835  1.00  0.00     0.293 HD
ENDBRANCH  16  21
ENDBRANCH   1  11
BRANCH  10  23
ATOM     23  O   UNL     1      47.233  44.875  42.674  1.00  0.00    -0.500 OA
ATOM     24  H   UNL     1      46.925  44.123  42.070  1.00  0.00     0.294 HD
ENDBRANCH  10  23
BRANCH   5  25
ATOM     25  O   UNL     1      53.193  49.511  40.875  1.00  0.00    -0.507 OA
ATOM     26  H   UNL     1      53.861  49.377  40.125  1.00  0.00     0.293 HD
ENDBRANCH   5  25
BRANCH   7  27
ATOM     27  O   UNL     1      52.462  45.067  42.585  1.00  0.00    -0.507 OA
ATOM     28  H   UNL     1      52.340  44.168  42.142  1.00  0.00     0.293 HD
ENDBRANCH   7  27
TORSDOF 7
ENDMDL
MODEL 2
REMARK VINA RESULT:    -2.731      1.297      6.830
REMARK INTER + INTRA:          -3.063
REMARK INTER:                  -3.412
REMARK INTRA:                   0.349
REMARK UNBOUND:                 0.306
REMARK SMILES Oc1cc(O)c2cc(O)c(-c3cc(O)c(O)c(O)c3)[o+]c2c1
REMARK SMILES IDX 10 1 20 2 21 3 22 4 2 5 3 6 4 7 6 8 7 9 8 10 11 11 12 12
REMARK SMILES IDX 13 13 19 14 15 15 17 16 14 17 16 19 18 21 9 23 1 25 5 27
REMARK H PARENT 14 18 16 20 18 22 9 24 1 26 5 28
REMARK Flexibility Score: inf
ROOT
ATOM      1  C   UNL     1      47.871  47.208  41.235  1.00  0.00     0.402 A 
ATOM      2  O   UNL     1      46.918  48.118  41.417  1.00  0.00    -0.202 OA
ATOM      3  C   UNL     1      45.629  47.813  41.534  1.00  0.00     0.368 A 
ATOM      4  C   UNL     1      44.702  48.840  41.726  1.00  0.00     0.162 A 
ATOM      5  C   UNL     1      43.344  48.549  41.856  1.00  0.00     0.128 A 
ATOM      6  C   UNL     1      42.906  47.221  41.793  1.00  0.00     0.093 A 
ATOM      7  C   UNL     1      43.816  46.173  41.602  1.00  0.00     0.136 A 
ATOM      8  C   UNL     1      45.198  46.467  41.467  1.00  0.00     0.125 A 
ATOM      9  C   UNL     1      46.180  45.483  41.259  1.00  0.00     0.078 A 
ATOM     10  C   UNL     1      47.523  45.849  41.131  1.00  0.00     0.223 A 
ENDROOT
BRANCH   1  11
ATOM     11  C   UNL     1      49.273  47.673  41.129  1.00  0.00     0.091 A 
ATOM     12  C   UNL     1      49.539  49.049  41.049  1.00  0.00     0.068 A 
ATOM     13  C   UNL     1      50.857  49.517  40.969  1.00  0.00     0.162 A 
ATOM     14  C   UNL     1      50.348  46.769  41.163  1.00  0.00     0.068 A 
ATOM     15  C   UNL     1      51.926  48.604  40.983  1.00  0.00     0.200 A 
ATOM     16  C   UNL     1      51.669  47.231  41.085  1.00  0.00     0.162 A 
BRANCH  13  17
ATOM     17  O   UNL     1      51.110  50.885  40.876  1.00  0.00    -0.504 OA
ATOM     18  H   UNL     1      51.049  51.377  39.992  1.00  0.00     0.293 HD
ENDBRANCH  13  17
BRANCH  15  19
ATOM     19  O   UNL     1      53.247  49.046  40.901  1.00  0.00    -0.502 OA
ATOM     20  H   UNL     1      53.482  49.999  40.651  1.00  0.00     0.293 HD
ENDBRANCH  15  19
BRANCH  16  21
ATOM     21  O   UNL     1      52.732  46.332  41.112  1.00  0.00    -0.504 OA
ATOM     22  H   UNL     1      53.179  46.012  40.260  1.00  0.00     0.293 HD
ENDBRANCH  16  21
ENDBRANCH   1  11
BRANCH  10  23
ATOM     23  O   UNL     1      48.490  44.877  40.875  1.00  0.00    -0.500 OA
ATOM     24  H   UNL     1      48.320  43.895  41.054  1.00  0.00     0.294 HD
ENDBRANCH  10  23
BRANCH   5  25
ATOM     25  O   UNL     1      42.434  49.587  42.046  1.00  0.00    -0.507 OA
ATOM     26  H   UNL     1      42.716  50.474  42.447  1.00  0.00     0.293 HD
ENDBRANCH   5  25
BRANCH   7  27
ATOM     27  O   UNL     1      43.301  44.875  41.554  1.00  0.00    -0.507 OA
ATOM     28  H   UNL     1      43.159  44.349  40.704  1.00  0.00     0.293 HD
ENDBRANCH   7  27
TORSDOF 7
ENDMDL
MODEL 3
REMARK VINA RESULT:    -1.893     23.040     25.600
REMARK INTER + INTRA:          -2.029
REMARK INTER:                  -2.404
REMARK INTRA:                   0.375
REMARK UNBOUND:                 0.306
REMARK SMILES Oc1cc(O)c2cc(O)c(-c3cc(O)c(O)c(O)c3)[o+]c2c1
REMARK SMILES IDX 10 1 20 2 21 3 22 4 2 5 3 6 4 7 6 8 7 9 8 10 11 11 12 12
REMARK SMILES IDX 13 13 19 14 15 15 17 16 14 17 16 19 18 21 9 23 1 25 5 27
REMARK H PARENT 14 18 16 20 18 22 9 24 1 26 5 28
REMARK Flexibility Score: inf
ROOT
ATOM      1  C   UNL     1      41.224  64.963  57.617  1.00  0.00     0.402 A 
ATOM      2  O   UNL     1      40.043  64.988  57.004  1.00  0.00    -0.202 OA
ATOM      3  C   UNL     1      38.884  65.028  57.655  1.00  0.00     0.368 A 
ATOM      4  C   UNL     1      37.695  65.054  56.922  1.00  0.00     0.162 A 
ATOM      5  C   UNL     1      36.464  65.100  57.577  1.00  0.00     0.128 A 
ATOM      6  C   UNL     1      36.419  65.120  58.976  1.00  0.00     0.093 A 
ATOM      7  C   UNL     1      37.598  65.095  59.733  1.00  0.00     0.136 A 
ATOM      8  C   UNL     1      38.851  65.046  59.069  1.00  0.00     0.125 A 
ATOM      9  C   UNL     1      40.082  65.004  59.746  1.00  0.00     0.078 A 
ATOM     10  C   UNL     1      41.277  64.952  59.023  1.00  0.00     0.223 A 
ENDROOT
BRANCH   1  11
ATOM     11  C   UNL     1      42.446  64.929  56.781  1.00  0.00     0.091 A 
ATOM     12  C   UNL     1      42.325  64.878  55.384  1.00  0.00     0.068 A 
ATOM     13  C   UNL     1      43.465  64.865  54.569  1.00  0.00     0.162 A 
ATOM     14  C   UNL     1      43.727  65.001  57.355  1.00  0.00     0.068 A 
ATOM     15  C   UNL     1      44.743  64.918  55.152  1.00  0.00     0.200 A 
ATOM     16  C   UNL     1      44.871  64.990  56.545  1.00  0.00     0.162 A 
BRANCH  13  17
ATOM     17  O   UNL     1      43.333  64.801  53.182  1.00  0.00    -0.504 OA
ATOM     18  H   UNL     1      43.200  65.635  52.622  1.00  0.00     0.293 HD
ENDBRANCH  13  17
BRANCH  15  19
ATOM     19  O   UNL     1      45.893  64.903  54.362  1.00  0.00    -0.502 OA
ATOM     20  H   UNL     1      46.068  64.174  53.680  1.00  0.00     0.293 HD
ENDBRANCH  15  19
BRANCH  16  21
ATOM     21  O   UNL     1      46.139  65.056  57.117  1.00  0.00    -0.504 OA
ATOM     22  H   UNL     1      46.901  64.474  56.787  1.00  0.00     0.293 HD
ENDBRANCH  16  21
ENDBRANCH   1  11
BRANCH  10  23
ATOM     23  O   UNL     1      42.497  64.861  59.695  1.00  0.00    -0.500 OA
ATOM     24  H   UNL     1      43.379  64.845  59.198  1.00  0.00     0.294 HD
ENDBRANCH  10  23
BRANCH   5  25
ATOM     25  O   UNL     1      35.288  65.125  56.830  1.00  0.00    -0.507 OA
ATOM     26  H   UNL     1      35.262  65.515  55.895  1.00  0.00     0.293 HD
ENDBRANCH   5  25
BRANCH   7  27
ATOM     27  O   UNL     1      37.469  65.121  61.124  1.00  0.00    -0.507 OA
ATOM     28  H   UNL     1      37.524  64.306  61.717  1.00  0.00     0.293 HD
ENDBRANCH   7  27
TORSDOF 7
ENDMDL
MODEL 4
REMARK VINA RESULT:    -1.534      1.510      7.473
REMARK INTER + INTRA:          -1.587
REMARK INTER:                  -1.338
REMARK INTRA:                  -0.249
REMARK UNBOUND:                 0.306
REMARK SMILES Oc1cc(O)c2cc(O)c(-c3cc(O)c(O)c(O)c3)[o+]c2c1
REMARK SMILES IDX 10 1 20 2 21 3 22 4 2 5 3 6 4 7 6 8 7 9 8 10 11 11 12 12
REMARK SMILES IDX 13 13 19 14 15 15 17 16 14 17 16 19 18 21 9 23 1 25 5 27
REMARK H PARENT 14 18 16 20 18 22 9 24 1 26 5 28
REMARK Flexibility Score: inf
ROOT
ATOM      1  C   UNL     1      48.680  47.021  42.163  1.00  0.00     0.402 A 
ATOM      2  O   UNL     1      47.663  46.163  42.191  1.00  0.00    -0.202 OA
ATOM      3  C   UNL     1      46.411  46.505  41.905  1.00  0.00     0.368 A 
ATOM      4  C   UNL     1      45.411  45.531  41.958  1.00  0.00     0.162 A 
ATOM      5  C   UNL     1      44.089  45.860  41.660  1.00  0.00     0.128 A 
ATOM      6  C   UNL     1      43.761  47.173  41.304  1.00  0.00     0.093 A 
ATOM      7  C   UNL     1      44.746  48.168  41.242  1.00  0.00     0.136 A 
ATOM      8  C   UNL     1      46.091  47.837  41.548  1.00  0.00     0.125 A 
ATOM      9  C   UNL     1      47.141  48.771  41.526  1.00  0.00     0.078 A 
ATOM     10  C   UNL     1      48.442  48.370  41.844  1.00  0.00     0.223 A 
ENDROOT
BRANCH   1  11
ATOM     11  C   UNL     1      50.032  46.516  42.493  1.00  0.00     0.091 A 
ATOM     12  C   UNL     1      50.272  45.963  43.761  1.00  0.00     0.068 A 
ATOM     13  C   UNL     1      51.537  45.459  44.092  1.00  0.00     0.162 A 
ATOM     14  C   UNL     1      51.069  46.527  41.544  1.00  0.00     0.068 A 
ATOM     15  C   UNL     1      52.574  45.492  43.143  1.00  0.00     0.200 A 
ATOM     16  C   UNL     1      52.336  46.022  41.869  1.00  0.00     0.162 A 
BRANCH  13  17
ATOM     17  O   UNL     1      51.768  44.924  45.359  1.00  0.00    -0.504 OA
ATOM     18  H   UNL     1      52.672  44.549  45.620  1.00  0.00     0.293 HD
ENDBRANCH  13  17
BRANCH  15  19
ATOM     19  O   UNL     1      53.843  44.999  43.450  1.00  0.00    -0.502 OA
ATOM     20  H   UNL     1      54.215  45.020  44.392  1.00  0.00     0.293 HD
ENDBRANCH  15  19
BRANCH  16  21
ATOM     21  O   UNL     1      53.363  46.040  40.928  1.00  0.00    -0.504 OA
ATOM     22  H   UNL     1      53.174  45.954  39.935  1.00  0.00     0.293 HD
ENDBRANCH  16  21
ENDBRANCH   1  11
BRANCH  10  23
ATOM     23  O   UNL     1      49.474  49.308  41.870  1.00  0.00    -0.500 OA
ATOM     24  H   UNL     1      49.438  50.157  41.320  1.00  0.00     0.294 HD
ENDBRANCH  10  23
BRANCH   5  25
ATOM     25  O   UNL     1      43.105  44.875  41.719  1.00  0.00    -0.507 OA
ATOM     26  H   UNL     1      42.664  44.515  40.881  1.00  0.00     0.293 HD
ENDBRANCH   5  25
BRANCH   7  27
ATOM     27  O   UNL     1      44.338  49.454  40.876  1.00  0.00    -0.507 OA
ATOM     28  H   UNL     1      44.844  50.298  41.101  1.00  0.00     0.293 HD
ENDBRANCH   7  27
TORSDOF 7
ENDMDL
MODEL 5
REMARK VINA RESULT:    -1.178     23.002     24.644
REMARK INTER + INTRA:          -1.147
REMARK INTER:                  -1.589
REMARK INTRA:                   0.442
REMARK UNBOUND:                 0.306
REMARK SMILES Oc1cc(O)c2cc(O)c(-c3cc(O)c(O)c(O)c3)[o+]c2c1
REMARK SMILES IDX 10 1 20 2 21 3 22 4 2 5 3 6 4 7 6 8 7 9 8 10 11 11 12 12
REMARK SMILES IDX 13 13 19 14 15 15 17 16 14 17 16 19 18 21 9 23 1 25 5 27
REMARK H PARENT 14 18 16 20 18 22 9 24 1 26 5 28
REMARK Flexibility Score: inf
ROOT
ATOM      1  C   UNL     1      41.469  64.940  57.201  1.00  0.00     0.402 A 
ATOM      2  O   UNL     1      42.531  64.953  58.004  1.00  0.00    -0.202 OA
ATOM      3  C   UNL     1      43.782  64.997  57.559  1.00  0.00     0.368 A 
ATOM      4  C   UNL     1      44.831  65.010  58.481  1.00  0.00     0.162 A 
ATOM      5  C   UNL     1      46.155  65.059  58.044  1.00  0.00     0.128 A 
ATOM      6  C   UNL     1      46.435  65.095  56.673  1.00  0.00     0.093 A 
ATOM      7  C   UNL     1      45.400  65.083  55.728  1.00  0.00     0.136 A 
ATOM      8  C   UNL     1      44.054  65.031  56.170  1.00  0.00     0.125 A 
ATOM      9  C   UNL     1      42.954  65.001  55.296  1.00  0.00     0.078 A 
ATOM     10  C   UNL     1      41.654  64.945  55.806  1.00  0.00     0.223 A 
ENDROOT
BRANCH   1  11
ATOM     11  C   UNL     1      40.124  64.901  57.818  1.00  0.00     0.091 A 
ATOM     12  C   UNL     1      38.988  65.033  57.006  1.00  0.00     0.068 A 
ATOM     13  C   UNL     1      37.702  64.978  57.562  1.00  0.00     0.162 A 
ATOM     14  C   UNL     1      39.958  64.678  59.196  1.00  0.00     0.068 A 
ATOM     15  C   UNL     1      37.546  64.776  58.944  1.00  0.00     0.200 A 
ATOM     16  C   UNL     1      38.675  64.621  59.758  1.00  0.00     0.162 A 
BRANCH  13  17
ATOM     17  O   UNL     1      36.580  65.125  56.747  1.00  0.00    -0.504 OA
ATOM     18  H   UNL     1      36.335  66.018  56.336  1.00  0.00     0.293 HD
ENDBRANCH  13  17
BRANCH  15  19
ATOM     19  O   UNL     1      36.277  64.721  59.522  1.00  0.00    -0.502 OA
ATOM     20  H   UNL     1      35.817  65.545  59.890  1.00  0.00     0.293 HD
ENDBRANCH  15  19
BRANCH  16  21
ATOM     21  O   UNL     1      38.515  64.406  61.125  1.00  0.00    -0.504 OA
ATOM     22  H   UNL     1      39.312  64.308  61.744  1.00  0.00     0.293 HD
ENDBRANCH  16  21
ENDBRANCH   1  11
BRANCH  10  23
ATOM     23  O   UNL     1      40.565  64.866  54.938  1.00  0.00    -0.500 OA
ATOM     24  H   UNL     1      40.065  65.692  54.633  1.00  0.00     0.294 HD
ENDBRANCH  10  23
BRANCH   5  25
ATOM     25  O   UNL     1      47.188  65.071  58.979  1.00  0.00    -0.507 OA
ATOM     26  H   UNL     1      47.044  64.765  59.933  1.00  0.00     0.293 HD
ENDBRANCH   5  25
BRANCH   7  27
ATOM     27  O   UNL     1      45.762  65.125  54.378  1.00  0.00    -0.507 OA
ATOM     28  H   UNL     1      45.377  64.522  53.666  1.00  0.00     0.293 HD
ENDBRANCH   7  27
TORSDOF 7
ENDMDL
