MODEL 1
REMARK VINA RESULT:    -3.702      0.000      0.000
REMARK INTER + INTRA:          -8.635
REMARK INTER:                  -6.732
REMARK INTRA:                  -1.903
REMARK UNBOUND:                -1.903
REMARK SMILES CCCCCCCCCCCCCCCC(=O)[O-]
REMARK SMILES IDX 9 1 10 2 11 3 12 4 13 5 14 6 15 7 16 8 17 9 18 10 8 11 7 12
REMARK SMILES IDX 6 13 5 14 4 15 3 16 2 17 1 18
REMARK H PARENT
REMARK Flexibility Score: inf
ROOT
ATOM      1  C   UNL     1      33.226   8.740  46.500  1.00  0.00     0.000 C 
ENDROOT
BRANCH   1   2
ATOM      2  C   UNL     1      31.935   9.252  45.844  1.00  0.00     0.000 C 
BRANCH   2   3
ATOM      3  C   UNL     1      30.842   8.172  45.754  1.00  0.00     0.000 C 
BRANCH   3   4
ATOM      4  C   UNL     1      30.452   7.522  47.097  1.00  0.00     0.000 C 
BRANCH   4   5
ATOM      5  C   UNL     1      30.438   5.982  47.096  1.00  0.00     0.000 C 
BRANCH   5   6
ATOM      6  C   UNL     1      31.744   5.373  47.626  1.00  0.00     0.006 C 
BRANCH   6   7
ATOM      7  C   UNL     1      31.795   5.432  49.155  1.00  0.00     0.053 C 
BRANCH   7   8
ATOM      8  C   UNL     1      32.157   4.096  49.720  1.00  0.00     0.041 C 
ATOM      9  O   UNL     1      32.455   3.983  50.938  1.00  0.00    -0.550 OA
ATOM     10  O   UNL     1      32.120   2.966  48.914  1.00  0.00    -0.550 OA
ENDBRANCH   7   8
ENDBRANCH   6   7
ENDBRANCH   5   6
ENDBRANCH   4   5
ENDBRANCH   3   4
ENDBRANCH   2   3
ENDBRANCH   1   2
BRANCH   1  11
ATOM     11  C   UNL     1      33.950   7.744  45.579  1.00  0.00     0.000 C 
BRANCH  11  12
ATOM     12  C   UNL     1      34.008   8.219  44.119  1.00  0.00    -0.000 C 
BRANCH  12  13
ATOM     13  C   UNL     1      33.353   7.223  43.146  1.00  0.00    -0.000 C 
BRANCH  13  14
ATOM     14  C   UNL     1      32.903   5.923  43.837  1.00  0.00    -0.000 C 
BRANCH  14  15
ATOM     15  C   UNL     1      31.526   5.388  43.392  1.00  0.00    -0.000 C 
BRANCH  15  16
ATOM     16  C   UNL     1      31.361   5.188  41.872  1.00  0.00    -0.000 C 
BRANCH  16  17
ATOM     17  C   UNL     1      30.311   6.100  41.211  1.00  0.00    -0.003 C 
ATOM     18  C   UNL     1      30.913   7.043  40.172  1.00  0.00     0.004 C 
ENDBRANCH  16  17
ENDBRANCH  15  16
ENDBRANCH  14  15
ENDBRANCH  13  14
ENDBRANCH  12  13
ENDBRANCH  11  12
ENDBRANCH   1  11
TORSDOF 14
ENDMDL
MODEL 2
REMARK VINA RESULT:    -3.691      3.398      6.663
REMARK INTER + INTRA:          -8.616
REMARK INTER:                  -7.295
REMARK INTRA:                  -1.320
REMARK UNBOUND:                -1.903
REMARK SMILES CCCCCCCCCCCCCCCC(=O)[O-]
REMARK SMILES IDX 9 1 10 2 11 3 12 4 13 5 14 6 15 7 16 8 17 9 18 10 8 11 7 12
REMARK SMILES IDX 6 13 5 14 4 15 3 16 2 17 1 18
REMARK H PARENT
REMARK Flexibility Score: inf
ROOT
ATOM      1  C   UNL     1      33.732   8.442  46.150  1.00  0.00     0.000 C 
ENDROOT
BRANCH   1   2
ATOM      2  C   UNL     1      33.317   9.771  45.499  1.00  0.00     0.000 C 
BRANCH   2   3
ATOM      3  C   UNL     1      33.674   9.841  44.004  1.00  0.00     0.000 C 
BRANCH   3   4
ATOM      4  C   UNL     1      34.702   8.795  43.526  1.00  0.00     0.000 C 
BRANCH   4   5
ATOM      5  C   UNL     1      34.336   8.070  42.219  1.00  0.00     0.000 C 
BRANCH   5   6
ATOM      6  C   UNL     1      33.434   6.848  42.445  1.00  0.00     0.006 C 
BRANCH   6   7
ATOM      7  C   UNL     1      33.622   5.814  41.333  1.00  0.00     0.053 C 
BRANCH   7   8
ATOM      8  C   UNL     1      32.388   5.714  40.495  1.00  0.00     0.041 C 
ATOM      9  O   UNL     1      31.409   5.027  40.889  1.00  0.00    -0.550 OA
ATOM     10  O   UNL     1      32.300   6.416  39.300  1.00  0.00    -0.550 OA
ENDBRANCH   7   8
ENDBRANCH   6   7
ENDBRANCH   5   6
ENDBRANCH   4   5
ENDBRANCH   3   4
ENDBRANCH   2   3
ENDBRANCH   1   2
BRANCH   1  11
ATOM     11  C   UNL     1      32.497   7.602  46.513  1.00  0.00     0.000 C 
BRANCH  11  12
ATOM     12  C   UNL     1      32.474   6.241  45.800  1.00  0.00    -0.000 C 
BRANCH  12  13
ATOM     13  C   UNL     1      31.471   5.259  46.431  1.00  0.00    -0.000 C 
BRANCH  13  14
ATOM     14  C   UNL     1      30.320   5.971  47.165  1.00  0.00    -0.000 C 
BRANCH  14  15
ATOM     15  C   UNL     1      30.261   5.725  48.686  1.00  0.00    -0.000 C 
BRANCH  15  16
ATOM     16  C   UNL     1      31.598   5.317  49.336  1.00  0.00    -0.000 C 
BRANCH  16  17
ATOM     17  C   UNL     1      31.624   3.894  49.922  1.00  0.00    -0.003 C 
ATOM     18  C   UNL     1      32.448   2.920  49.083  1.00  0.00     0.004 C 
ENDBRANCH  16  17
ENDBRANCH  15  16
ENDBRANCH  14  15
ENDBRANCH  13  14
ENDBRANCH  12  13
ENDBRANCH  11  12
ENDBRANCH   1  11
TORSDOF 14
ENDMDL
MODEL 3
REMARK VINA RESULT:    -3.651      3.936      6.832
REMARK INTER + INTRA:          -8.542
REMARK INTER:                  -7.165
REMARK INTRA:                  -1.377
REMARK UNBOUND:                -1.903
REMARK SMILES CCCCCCCCCCCCCCCC(=O)[O-]
REMARK SMILES IDX 9 1 10 2 11 3 12 4 13 5 14 6 15 7 16 8 17 9 18 10 8 11 7 12
REMARK SMILES IDX 6 13 5 14 4 15 3 16 2 17 1 18
REMARK H PARENT
REMARK Flexibility Score: inf
ROOT
ATOM      1  C   UNL     1      34.252   8.300  44.207  1.00  0.00     0.000 C 
ENDROOT
BRANCH   1   2
ATOM      2  C   UNL     1      33.069   8.810  43.370  1.00  0.00     0.000 C 
BRANCH   2   3
ATOM      3  C   UNL     1      32.859   8.002  42.077  1.00  0.00     0.000 C 
BRANCH   3   4
ATOM      4  C   UNL     1      33.401   6.559  42.112  1.00  0.00     0.000 C 
BRANCH   4   5
ATOM      5  C   UNL     1      32.330   5.457  42.018  1.00  0.00     0.000 C 
BRANCH   5   6
ATOM      6  C   UNL     1      30.899   6.013  42.030  1.00  0.00     0.006 C 
BRANCH   6   7
ATOM      7  C   UNL     1      29.932   5.051  41.334  1.00  0.00     0.053 C 
BRANCH   7   8
ATOM      8  C   UNL     1      30.005   5.216  39.850  1.00  0.00     0.041 C 
ATOM      9  O   UNL     1      29.554   4.320  39.090  1.00  0.00    -0.550 OA
ATOM     10  O   UNL     1      30.527   6.382  39.304  1.00  0.00    -0.550 OA
ENDBRANCH   7   8
ENDBRANCH   6   7
ENDBRANCH   5   6
ENDBRANCH   4   5
ENDBRANCH   3   4
ENDBRANCH   2   3
ENDBRANCH   1   2
BRANCH   1  11
ATOM     11  C   UNL     1      33.809   7.987  45.646  1.00  0.00     0.000 C 
BRANCH  11  12
ATOM     12  C   UNL     1      32.354   7.500  45.727  1.00  0.00    -0.000 C 
BRANCH  12  13
ATOM     13  C   UNL     1      32.237   5.969  45.634  1.00  0.00    -0.000 C 
BRANCH  13  14
ATOM     14  C   UNL     1      31.407   5.363  46.780  1.00  0.00    -0.000 C 
BRANCH  14  15
ATOM     15  C   UNL     1      31.607   6.027  48.157  1.00  0.00    -0.000 C 
BRANCH  15  16
ATOM     16  C   UNL     1      31.116   5.200  49.362  1.00  0.00    -0.000 C 
BRANCH  16  17
ATOM     17  C   UNL     1      32.169   4.254  49.967  1.00  0.00    -0.003 C 
ATOM     18  C   UNL     1      32.347   2.969  49.161  1.00  0.00     0.004 C 
ENDBRANCH  16  17
ENDBRANCH  15  16
ENDBRANCH  14  15
ENDBRANCH  13  14
ENDBRANCH  12  13
ENDBRANCH  11  12
ENDBRANCH   1  11
TORSDOF 14
ENDMDL
MODEL 4
REMARK VINA RESULT:    -3.646      6.571      8.706
REMARK INTER + INTRA:          -8.534
REMARK INTER:                  -7.449
REMARK INTRA:                  -1.084
REMARK UNBOUND:                -1.903
REMARK SMILES CCCCCCCCCCCCCCCC(=O)[O-]
REMARK SMILES IDX 9 1 10 2 11 3 12 4 13 5 14 6 15 7 16 8 17 9 18 10 8 11 7 12
REMARK SMILES IDX 6 13 5 14 4 15 3 16 2 17 1 18
REMARK H PARENT
REMARK Flexibility Score: inf
ROOT
ATOM      1  C   UNL     1      30.480   4.684  39.297  1.00  0.00     0.000 C 
ENDROOT
BRANCH   1   2
ATOM      2  C   UNL     1      29.030   4.221  39.503  1.00  0.00     0.000 C 
BRANCH   2   3
ATOM      3  C   UNL     1      28.436   4.692  40.842  1.00  0.00     0.000 C 
BRANCH   3   4
ATOM      4  C   UNL     1      27.248   3.858  41.362  1.00  0.00     0.000 C 
BRANCH   4   5
ATOM      5  C   UNL     1      25.886   4.197  40.729  1.00  0.00     0.000 C 
BRANCH   5   6
ATOM      6  C   UNL     1      25.393   3.114  39.758  1.00  0.00     0.006 C 
BRANCH   6   7
ATOM      7  C   UNL     1      24.084   2.491  40.250  1.00  0.00     0.053 C 
BRANCH   7   8
ATOM      8  C   UNL     1      23.655   1.385  39.341  1.00  0.00     0.041 C 
ATOM      9  O   UNL     1      24.068   0.211  39.533  1.00  0.00    -0.550 OA
ATOM     10  O   UNL     1      22.759   1.639  38.310  1.00  0.00    -0.550 OA
ENDBRANCH   7   8
ENDBRANCH   6   7
ENDBRANCH   5   6
ENDBRANCH   4   5
ENDBRANCH   3   4
ENDBRANCH   2   3
ENDBRANCH   1   2
BRANCH   1  11
ATOM     11  C   UNL     1      30.522   6.073  38.638  1.00  0.00     0.000 C 
BRANCH  11  12
ATOM     12  C   UNL     1      31.115   7.150  39.560  1.00  0.00    -0.000 C 
BRANCH  12  13
ATOM     13  C   UNL     1      32.466   7.683  39.054  1.00  0.00    -0.000 C 
BRANCH  13  14
ATOM     14  C   UNL     1      33.628   7.371  40.013  1.00  0.00    -0.000 C 
BRANCH  14  15
ATOM     15  C   UNL     1      33.219   6.709  41.345  1.00  0.00    -0.000 C 
BRANCH  15  16
ATOM     16  C   UNL     1      33.527   5.202  41.449  1.00  0.00    -0.000 C 
BRANCH  16  17
ATOM     17  C   UNL     1      34.317   4.621  40.263  1.00  0.00    -0.003 C 
ATOM     18  C   UNL     1      35.630   3.965  40.688  1.00  0.00     0.004 C 
ENDBRANCH  16  17
ENDBRANCH  15  16
ENDBRANCH  14  15
ENDBRANCH  13  14
ENDBRANCH  12  13
ENDBRANCH  11  12
ENDBRANCH   1  11
TORSDOF 14
ENDMDL
MODEL 5
REMARK VINA RESULT:    -3.575     15.464     17.470
REMARK INTER + INTRA:          -8.404
REMARK INTER:                  -5.808
REMARK INTRA:                  -2.595
REMARK UNBOUND:                -1.903
REMARK SMILES CCCCCCCCCCCCCCCC(=O)[O-]
REMARK SMILES IDX 9 1 10 2 11 3 12 4 13 5 14 6 15 7 16 8 17 9 18 10 8 11 7 12
REMARK SMILES IDX 6 13 5 14 4 15 3 16 2 17 1 18
REMARK H PARENT
REMARK Flexibility Score: inf
ROOT
ATOM      1  C   UNL     1      23.024  -3.129  58.078  1.00  0.00     0.000 C 
ENDROOT
BRANCH   1   2
ATOM      2  C   UNL     1      24.356  -2.872  57.358  1.00  0.00     0.000 C 
BRANCH   2   3
ATOM      3  C   UNL     1      24.316  -3.263  55.870  1.00  0.00     0.000 C 
BRANCH   3   4
ATOM      4  C   UNL     1      24.010  -2.106  54.897  1.00  0.00     0.000 C 
BRANCH   4   5
ATOM      5  C   UNL     1      22.516  -1.873  54.610  1.00  0.00     0.000 C 
BRANCH   5   6
ATOM      6  C   UNL     1      21.927  -0.709  55.419  1.00  0.00     0.006 C 
BRANCH   6   7
ATOM      7  C   UNL     1      20.567  -1.086  56.012  1.00  0.00     0.053 C 
BRANCH   7   8
ATOM      8  C   UNL     1      19.572  -1.338  54.926  1.00  0.00     0.041 C 
ATOM      9  O   UNL     1      18.938  -2.425  54.887  1.00  0.00    -0.550 OA
ATOM     10  O   UNL     1      19.307  -0.354  53.982  1.00  0.00    -0.550 OA
ENDBRANCH   7   8
ENDBRANCH   6   7
ENDBRANCH   5   6
ENDBRANCH   4   5
ENDBRANCH   3   4
ENDBRANCH   2   3
ENDBRANCH   1   2
BRANCH   1  11
ATOM     11  C   UNL     1      22.464  -4.514  57.715  1.00  0.00     0.000 C 
BRANCH  11  12
ATOM     12  C   UNL     1      21.096  -4.437  57.019  1.00  0.00    -0.000 C 
BRANCH  12  13
ATOM     13  C   UNL     1      20.851  -5.620  56.066  1.00  0.00    -0.000 C 
BRANCH  13  14
ATOM     14  C   UNL     1      21.083  -5.255  54.589  1.00  0.00    -0.000 C 
BRANCH  14  15
ATOM     15  C   UNL     1      22.414  -5.754  53.992  1.00  0.00    -0.000 C 
BRANCH  15  16
ATOM     16  C   UNL     1      22.810  -5.114  52.646  1.00  0.00    -0.000 C 
BRANCH  16  17
ATOM     17  C   UNL     1      24.323  -4.906  52.450  1.00  0.00    -0.003 C 
ATOM     18  C   UNL     1      25.167  -5.776  53.378  1.00  0.00     0.004 C 
ENDBRANCH  16  17
ENDBRANCH  15  16
ENDBRANCH  14  15
ENDBRANCH  13  14
ENDBRANCH  12  13
ENDBRANCH  11  12
ENDBRANCH   1  11
TORSDOF 14
ENDMDL
MODEL 6
REMARK VINA RESULT:    -3.550     15.520     17.496
REMARK INTER + INTRA:          -8.359
REMARK INTER:                  -5.941
REMARK INTRA:                  -2.418
REMARK UNBOUND:                -1.903
REMARK SMILES CCCCCCCCCCCCCCCC(=O)[O-]
REMARK SMILES IDX 9 1 10 2 11 3 12 4 13 5 14 6 15 7 16 8 17 9 18 10 8 11 7 12
REMARK SMILES IDX 6 13 5 14 4 15 3 16 2 17 1 18
REMARK H PARENT
REMARK Flexibility Score: inf
ROOT
ATOM      1  C   UNL     1      22.207  -3.161  57.929  1.00  0.00     0.000 C 
ENDROOT
BRANCH   1   2
ATOM      2  C   UNL     1      21.519  -4.482  57.551  1.00  0.00     0.000 C 
BRANCH   2   3
ATOM      3  C   UNL     1      20.282  -4.276  56.658  1.00  0.00     0.000 C 
BRANCH   3   4
ATOM      4  C   UNL     1      20.220  -5.177  55.408  1.00  0.00     0.000 C 
BRANCH   4   5
ATOM      5  C   UNL     1      21.576  -5.450  54.733  1.00  0.00     0.000 C 
BRANCH   5   6
ATOM      6  C   UNL     1      21.464  -5.603  53.209  1.00  0.00     0.006 C 
BRANCH   6   7
ATOM      7  C   UNL     1      22.827  -5.411  52.537  1.00  0.00     0.053 C 
BRANCH   7   8
ATOM      8  C   UNL     1      23.874  -6.218  53.234  1.00  0.00     0.041 C 
ATOM      9  O   UNL     1      24.965  -5.686  53.568  1.00  0.00    -0.550 OA
ATOM     10  O   UNL     1      23.628  -7.546  53.558  1.00  0.00    -0.550 OA
ENDBRANCH   7   8
ENDBRANCH   6   7
ENDBRANCH   5   6
ENDBRANCH   4   5
ENDBRANCH   3   4
ENDBRANCH   2   3
ENDBRANCH   1   2
BRANCH   1  11
ATOM     11  C   UNL     1      23.728  -3.351  58.049  1.00  0.00     0.000 C 
BRANCH  11  12
ATOM     12  C   UNL     1      24.463  -3.103  56.722  1.00  0.00    -0.000 C 
BRANCH  12  13
ATOM     13  C   UNL     1      23.824  -1.974  55.894  1.00  0.00    -0.000 C 
BRANCH  13  14
ATOM     14  C   UNL     1      23.486  -2.406  54.456  1.00  0.00    -0.000 C 
BRANCH  14  15
ATOM     15  C   UNL     1      22.111  -1.940  53.938  1.00  0.00    -0.000 C 
BRANCH  15  16
ATOM     16  C   UNL     1      21.336  -1.002  54.886  1.00  0.00    -0.000 C 
BRANCH  16  17
ATOM     17  C   UNL     1      19.809  -1.194  54.879  1.00  0.00    -0.003 C 
ATOM     18  C   UNL     1      19.311  -1.953  53.650  1.00  0.00     0.004 C 
ENDBRANCH  16  17
ENDBRANCH  15  16
ENDBRANCH  14  15
ENDBRANCH  13  14
ENDBRANCH  12  13
ENDBRANCH  11  12
ENDBRANCH   1  11
TORSDOF 14
ENDMDL
MODEL 7
REMARK VINA RESULT:    -3.542     15.187     17.706
REMARK INTER + INTRA:          -8.345
REMARK INTER:                  -6.038
REMARK INTRA:                  -2.307
REMARK UNBOUND:                -1.903
REMARK SMILES CCCCCCCCCCCCCCCC(=O)[O-]
REMARK SMILES IDX 9 1 10 2 11 3 12 4 13 5 14 6 15 7 16 8 17 9 18 10 8 11 7 12
REMARK SMILES IDX 6 13 5 14 4 15 3 16 2 17 1 18
REMARK H PARENT
REMARK Flexibility Score: inf
ROOT
ATOM      1  C   UNL     1      20.267  -4.388  56.503  1.00  0.00     0.000 C 
ENDROOT
BRANCH   1   2
ATOM      2  C   UNL     1      20.416  -5.199  55.207  1.00  0.00     0.000 C 
BRANCH   2   3
ATOM      3  C   UNL     1      21.790  -5.881  55.083  1.00  0.00     0.000 C 
BRANCH   3   4
ATOM      4  C   UNL     1      21.808  -7.169  54.235  1.00  0.00     0.000 C 
BRANCH   4   5
ATOM      5  C   UNL     1      23.015  -7.312  53.291  1.00  0.00     0.000 C 
BRANCH   5   6
ATOM      6  C   UNL     1      23.876  -6.042  53.226  1.00  0.00     0.006 C 
BRANCH   6   7
ATOM      7  C   UNL     1      24.033  -5.560  51.782  1.00  0.00     0.053 C 
BRANCH   7   8
ATOM      8  C   UNL     1      23.363  -4.237  51.594  1.00  0.00     0.041 C 
ATOM      9  O   UNL     1      24.032  -3.233  51.232  1.00  0.00    -0.550 OA
ATOM     10  O   UNL     1      21.990  -4.121  51.771  1.00  0.00    -0.550 OA
ENDBRANCH   7   8
ENDBRANCH   6   7
ENDBRANCH   5   6
ENDBRANCH   4   5
ENDBRANCH   3   4
ENDBRANCH   2   3
ENDBRANCH   1   2
BRANCH   1  11
ATOM     11  C   UNL     1      21.458  -4.636  57.443  1.00  0.00     0.000 C 
BRANCH  11  12
ATOM     12  C   UNL     1      21.959  -3.350  58.118  1.00  0.00    -0.000 C 
BRANCH  12  13
ATOM     13  C   UNL     1      23.494  -3.245  58.125  1.00  0.00    -0.000 C 
BRANCH  13  14
ATOM     14  C   UNL     1      24.108  -3.383  56.720  1.00  0.00    -0.000 C 
BRANCH  14  15
ATOM     15  C   UNL     1      23.885  -2.176  55.787  1.00  0.00    -0.000 C 
BRANCH  15  16
ATOM     16  C   UNL     1      22.811  -2.378  54.699  1.00  0.00    -0.000 C 
BRANCH  16  17
ATOM     17  C   UNL     1      21.736  -1.278  54.642  1.00  0.00    -0.003 C 
ATOM     18  C   UNL     1      21.638  -0.473  55.936  1.00  0.00     0.004 C 
ENDBRANCH  16  17
ENDBRANCH  15  16
ENDBRANCH  14  15
ENDBRANCH  13  14
ENDBRANCH  12  13
ENDBRANCH  11  12
ENDBRANCH   1  11
TORSDOF 14
ENDMDL
MODEL 8
REMARK VINA RESULT:    -3.521     14.746     17.370
REMARK INTER + INTRA:          -8.306
REMARK INTER:                  -5.949
REMARK INTRA:                  -2.357
REMARK UNBOUND:                -1.903
REMARK SMILES CCCCCCCCCCCCCCCC(=O)[O-]
REMARK SMILES IDX 9 1 10 2 11 3 12 4 13 5 14 6 15 7 16 8 17 9 18 10 8 11 7 12
REMARK SMILES IDX 6 13 5 14 4 15 3 16 2 17 1 18
REMARK H PARENT
REMARK Flexibility Score: inf
ROOT
ATOM      1  C   UNL     1      21.412  -4.923  55.181  1.00  0.00     0.000 C 
ENDROOT
BRANCH   1   2
ATOM      2  C   UNL     1      21.522  -6.378  54.701  1.00  0.00     0.000 C 
BRANCH   2   3
ATOM      3  C   UNL     1      22.297  -6.515  53.379  1.00  0.00     0.000 C 
BRANCH   3   4
ATOM      4  C   UNL     1      23.830  -6.595  53.523  1.00  0.00     0.000 C 
BRANCH   4   5
ATOM      5  C   UNL     1      24.611  -5.470  52.821  1.00  0.00     0.000 C 
BRANCH   5   6
ATOM      6  C   UNL     1      23.803  -4.787  51.708  1.00  0.00     0.006 C 
BRANCH   6   7
ATOM      7  C   UNL     1      23.632  -3.293  51.993  1.00  0.00     0.053 C 
BRANCH   7   8
ATOM      8  C   UNL     1      22.279  -2.827  51.559  1.00  0.00     0.041 C 
ATOM      9  O   UNL     1      22.044  -2.610  50.342  1.00  0.00    -0.550 OA
ATOM     10  O   UNL     1      21.262  -2.678  52.493  1.00  0.00    -0.550 OA
ENDBRANCH   7   8
ENDBRANCH   6   7
ENDBRANCH   5   6
ENDBRANCH   4   5
ENDBRANCH   3   4
ENDBRANCH   2   3
ENDBRANCH   1   2
BRANCH   1  11
ATOM     11  C   UNL     1      21.663  -4.825  56.694  1.00  0.00     0.000 C 
BRANCH  11  12
ATOM     12  C   UNL     1      22.762  -3.811  57.049  1.00  0.00    -0.000 C 
BRANCH  12  13
ATOM     13  C   UNL     1      23.691  -3.505  55.861  1.00  0.00    -0.000 C 
BRANCH  13  14
ATOM     14  C   UNL     1      23.643  -2.027  55.432  1.00  0.00    -0.000 C 
BRANCH  14  15
ATOM     15  C   UNL     1      22.695  -1.135  56.258  1.00  0.00    -0.000 C 
BRANCH  15  16
ATOM     16  C   UNL     1      21.499  -0.553  55.479  1.00  0.00    -0.000 C 
BRANCH  16  17
ATOM     17  C   UNL     1      20.215  -1.400  55.538  1.00  0.00    -0.003 C 
ATOM     18  C   UNL     1      19.663  -1.544  56.955  1.00  0.00     0.004 C 
ENDBRANCH  16  17
ENDBRANCH  15  16
ENDBRANCH  14  15
ENDBRANCH  13  14
ENDBRANCH  12  13
ENDBRANCH  11  12
ENDBRANCH   1  11
TORSDOF 14
ENDMDL
MODEL 9
REMARK VINA RESULT:    -3.470     14.654     16.620
REMARK INTER + INTRA:          -8.214
REMARK INTER:                  -5.868
REMARK INTRA:                  -2.345
REMARK UNBOUND:                -1.903
REMARK SMILES CCCCCCCCCCCCCCCC(=O)[O-]
REMARK SMILES IDX 9 1 10 2 11 3 12 4 13 5 14 6 15 7 16 8 17 9 18 10 8 11 7 12
REMARK SMILES IDX 6 13 5 14 4 15 3 16 2 17 1 18
REMARK H PARENT
REMARK Flexibility Score: inf
ROOT
ATOM      1  C   UNL     1      21.264  -3.728  54.089  1.00  0.00     0.000 C 
ENDROOT
BRANCH   1   2
ATOM      2  C   UNL     1      22.068  -2.426  54.228  1.00  0.00     0.000 C 
BRANCH   2   3
ATOM      3  C   UNL     1      23.547  -2.672  54.574  1.00  0.00     0.000 C 
BRANCH   3   4
ATOM      4  C   UNL     1      23.999  -2.125  55.943  1.00  0.00     0.000 C 
BRANCH   4   5
ATOM      5  C   UNL     1      24.416  -3.196  56.968  1.00  0.00     0.000 C 
BRANCH   5   6
ATOM      6  C   UNL     1      23.336  -3.460  58.028  1.00  0.00     0.006 C 
BRANCH   6   7
ATOM      7  C   UNL     1      22.364  -2.282  58.125  1.00  0.00     0.053 C 
BRANCH   7   8
ATOM      8  C   UNL     1      20.978  -2.714  57.765  1.00  0.00     0.041 C 
ATOM      9  O   UNL     1      20.192  -1.910  57.199  1.00  0.00    -0.550 OA
ATOM     10  O   UNL     1      20.570  -4.018  58.012  1.00  0.00    -0.550 OA
ENDBRANCH   7   8
ENDBRANCH   6   7
ENDBRANCH   5   6
ENDBRANCH   4   5
ENDBRANCH   3   4
ENDBRANCH   2   3
ENDBRANCH   1   2
BRANCH   1  11
ATOM     11  C   UNL     1      22.091  -4.935  54.560  1.00  0.00     0.000 C 
BRANCH  11  12
ATOM     12  C   UNL     1      22.316  -5.971  53.448  1.00  0.00    -0.000 C 
BRANCH  12  13
ATOM     13  C   UNL     1      23.783  -6.038  52.989  1.00  0.00    -0.000 C 
BRANCH  13  14
ATOM     14  C   UNL     1      23.987  -5.502  51.561  1.00  0.00    -0.000 C 
BRANCH  14  15
ATOM     15  C   UNL     1      23.972  -3.965  51.429  1.00  0.00    -0.000 C 
BRANCH  15  16
ATOM     16  C   UNL     1      23.308  -3.424  50.147  1.00  0.00    -0.000 C 
BRANCH  16  17
ATOM     17  C   UNL     1      21.889  -2.859  50.345  1.00  0.00    -0.003 C 
ATOM     18  C   UNL     1      20.829  -3.949  50.483  1.00  0.00     0.004 C 
ENDBRANCH  16  17
ENDBRANCH  15  16
ENDBRANCH  14  15
ENDBRANCH  13  14
ENDBRANCH  12  13
ENDBRANCH  11  12
ENDBRANCH   1  11
TORSDOF 14
ENDMDL
