MODEL 1
REMARK VINA RESULT:    -3.700      0.000      0.000
REMARK INTER + INTRA:          -4.654
REMARK INTER:                  -4.349
REMARK INTRA:                  -0.304
REMARK UNBOUND:                -0.304
REMARK SMILES O=c1cc(-c2ccc(O)c(O)c2)oc2cc(O)cc(O)c12
REMARK SMILES IDX 4 1 3 2 2 3 1 4 21 5 19 6 18 7 16 8 15 9 14 10 13 11 5 12
REMARK SMILES IDX 6 13 7 14 8 15 12 16 10 17 9 18 11 20 20 22 17 24
REMARK H PARENT 9 19 11 21 20 23 17 25
REMARK Flexibility Score: inf
ROOT
ATOM      1  C   UNL     1      -2.870  -5.268  27.489  1.00  0.00     0.138 A 
ATOM      2  C   UNL     1      -2.844  -4.034  26.826  1.00  0.00     0.100 A 
ATOM      3  C   UNL     1      -2.710  -3.998  25.437  1.00  0.00     0.197 A 
ATOM      4  O   UNL     1      -2.626  -2.875  24.878  1.00  0.00    -0.289 OA
ATOM      5  C   UNL     1      -2.635  -5.208  24.707  1.00  0.00     0.107 A 
ATOM      6  C   UNL     1      -2.537  -5.294  23.286  1.00  0.00     0.134 A 
ATOM      7  C   UNL     1      -2.351  -6.544  22.681  1.00  0.00     0.093 A 
ATOM      8  C   UNL     1      -2.319  -7.714  23.439  1.00  0.00     0.123 A 
ATOM      9  C   UNL     1      -2.467  -7.646  24.825  1.00  0.00     0.094 A 
ATOM     10  C   UNL     1      -2.619  -6.411  25.461  1.00  0.00     0.146 A 
ATOM     11  O   UNL     1      -2.742  -6.388  26.784  1.00  0.00    -0.456 OA
ENDROOT
BRANCH   1  12
ATOM     12  C   UNL     1      -3.012  -5.364  28.963  1.00  0.00     0.021 A 
ATOM     13  C   UNL     1      -3.759  -4.396  29.651  1.00  0.00     0.016 A 
ATOM     14  C   UNL     1      -3.901  -4.462  31.038  1.00  0.00     0.051 A 
ATOM     15  C   UNL     1      -3.294  -5.487  31.770  1.00  0.00     0.157 A 
ATOM     16  C   UNL     1      -2.388  -6.389  29.701  1.00  0.00     0.062 A 
ATOM     17  C   UNL     1      -2.523  -6.460  31.094  1.00  0.00     0.158 A 
BRANCH  15  18
ATOM     18  O   UNL     1      -3.480  -5.499  33.154  1.00  0.00    -0.504 OA
ATOM     19  H   UNL     1      -4.140  -4.910  33.641  1.00  0.00     0.293 HD
ENDBRANCH  15  18
BRANCH  17  20
ATOM     20  O   UNL     1      -1.875  -7.503  31.758  1.00  0.00    -0.504 OA
ATOM     21  H   UNL     1      -1.553  -7.450  32.714  1.00  0.00     0.293 HD
ENDBRANCH  17  20
ENDBRANCH   1  12
BRANCH   6  22
ATOM     22  O   UNL     1      -2.643  -4.196  22.427  1.00  0.00    -0.507 OA
ATOM     23  H   UNL     1      -2.845  -3.253  22.721  1.00  0.00     0.293 HD
ENDBRANCH   6  22
BRANCH   8  24
ATOM     24  O   UNL     1      -2.147  -8.941  22.803  1.00  0.00    -0.508 OA
ATOM     25  H   UNL     1      -2.006  -9.796  23.328  1.00  0.00     0.293 HD
ENDBRANCH   8  24
TORSDOF 5
ENDMDL
MODEL 2
REMARK VINA RESULT:    -3.583      1.471      3.350
REMARK INTER + INTRA:          -4.516
REMARK INTER:                  -4.199
REMARK INTRA:                  -0.317
REMARK UNBOUND:                -0.304
REMARK SMILES O=c1cc(-c2ccc(O)c(O)c2)oc2cc(O)cc(O)c12
REMARK SMILES IDX 4 1 3 2 2 3 1 4 21 5 19 6 18 7 16 8 15 9 14 10 13 11 5 12
REMARK SMILES IDX 6 13 7 14 8 15 12 16 10 17 9 18 11 20 20 22 17 24
REMARK H PARENT 9 19 11 21 20 23 17 25
REMARK Flexibility Score: inf
ROOT
ATOM      1  C   UNL     1      -2.271  -7.358  27.298  1.00  0.00     0.138 A 
ATOM      2  C   UNL     1      -2.459  -8.443  26.431  1.00  0.00     0.100 A 
ATOM      3  C   UNL     1      -2.551  -8.220  25.056  1.00  0.00     0.197 A 
ATOM      4  O   UNL     1      -2.782  -9.206  24.310  1.00  0.00    -0.289 OA
ATOM      5  C   UNL     1      -2.420  -6.907  24.546  1.00  0.00     0.107 A 
ATOM      6  C   UNL     1      -2.457  -6.567  23.160  1.00  0.00     0.134 A 
ATOM      7  C   UNL     1      -2.434  -5.219  22.780  1.00  0.00     0.093 A 
ATOM      8  C   UNL     1      -2.316  -4.204  23.729  1.00  0.00     0.123 A 
ATOM      9  C   UNL     1      -2.226  -4.528  25.084  1.00  0.00     0.094 A 
ATOM     10  C   UNL     1      -2.281  -5.862  25.497  1.00  0.00     0.146 A 
ATOM     11  O   UNL     1      -2.207  -6.128  26.797  1.00  0.00    -0.456 OA
ENDROOT
BRANCH   1  12
ATOM     12  C   UNL     1      -2.166  -7.536  28.768  1.00  0.00     0.021 A 
ATOM     13  C   UNL     1      -2.008  -8.826  29.298  1.00  0.00     0.016 A 
ATOM     14  C   UNL     1      -1.913  -9.019  30.677  1.00  0.00     0.051 A 
ATOM     15  C   UNL     1      -1.983  -7.935  31.557  1.00  0.00     0.157 A 
ATOM     16  C   UNL     1      -2.251  -6.445  29.654  1.00  0.00     0.062 A 
ATOM     17  C   UNL     1      -2.159  -6.631  31.039  1.00  0.00     0.158 A 
BRANCH  15  18
ATOM     18  O   UNL     1      -1.876  -8.197  32.924  1.00  0.00    -0.504 OA
ATOM     19  H   UNL     1      -2.664  -8.255  33.552  1.00  0.00     0.293 HD
ENDBRANCH  15  18
BRANCH  17  20
ATOM     20  O   UNL     1      -2.254  -5.503  31.856  1.00  0.00    -0.504 OA
ATOM     21  H   UNL     1      -2.802  -5.463  32.703  1.00  0.00     0.293 HD
ENDBRANCH  17  20
ENDBRANCH   1  12
BRANCH   6  22
ATOM     22  O   UNL     1      -2.488  -7.506  22.125  1.00  0.00    -0.507 OA
ATOM     23  H   UNL     1      -1.917  -8.336  22.084  1.00  0.00     0.293 HD
ENDBRANCH   6  22
BRANCH   8  24
ATOM     24  O   UNL     1      -2.283  -2.875  23.314  1.00  0.00    -0.508 OA
ATOM     25  H   UNL     1      -1.429  -2.330  23.349  1.00  0.00     0.293 HD
ENDBRANCH   8  24
TORSDOF 5
ENDMDL
MODEL 3
REMARK VINA RESULT:    -3.447      4.738      6.699
REMARK INTER + INTRA:          -4.356
REMARK INTER:                  -4.059
REMARK INTRA:                  -0.297
REMARK UNBOUND:                -0.304
REMARK SMILES O=c1cc(-c2ccc(O)c(O)c2)oc2cc(O)cc(O)c12
REMARK SMILES IDX 4 1 3 2 2 3 1 4 21 5 19 6 18 7 16 8 15 9 14 10 13 11 5 12
REMARK SMILES IDX 6 13 7 14 8 15 12 16 10 17 9 18 11 20 20 22 17 24
REMARK H PARENT 9 19 11 21 20 23 17 25
REMARK Flexibility Score: inf
ROOT
ATOM      1  C   UNL     1      -7.556  -5.040  29.657  1.00  0.00     0.138 A 
ATOM      2  C   UNL     1      -7.403  -5.277  28.284  1.00  0.00     0.100 A 
ATOM      3  C   UNL     1      -6.151  -5.630  27.779  1.00  0.00     0.197 A 
ATOM      4  O   UNL     1      -6.032  -5.775  26.535  1.00  0.00    -0.289 OA
ATOM      5  C   UNL     1      -5.054  -5.779  28.660  1.00  0.00     0.107 A 
ATOM      6  C   UNL     1      -3.741  -6.174  28.264  1.00  0.00     0.134 A 
ATOM      7  C   UNL     1      -2.706  -6.174  29.207  1.00  0.00     0.093 A 
ATOM      8  C   UNL     1      -2.947  -5.852  30.542  1.00  0.00     0.123 A 
ATOM      9  C   UNL     1      -4.238  -5.515  30.952  1.00  0.00     0.094 A 
ATOM     10  C   UNL     1      -5.285  -5.472  30.028  1.00  0.00     0.146 A 
ATOM     11  O   UNL     1      -6.497  -5.132  30.455  1.00  0.00    -0.456 OA
ENDROOT
BRANCH   1  12
ATOM     12  C   UNL     1      -8.864  -4.662  30.247  1.00  0.00     0.021 A 
ATOM     13  C   UNL     1      -9.693  -3.755  29.569  1.00  0.00     0.016 A 
ATOM     14  C   UNL     1     -10.924  -3.380  30.108  1.00  0.00     0.051 A 
ATOM     15  C   UNL     1     -11.353  -3.893  31.336  1.00  0.00     0.157 A 
ATOM     16  C   UNL     1      -9.288  -5.168  31.491  1.00  0.00     0.062 A 
ATOM     17  C   UNL     1     -10.522  -4.794  32.040  1.00  0.00     0.158 A 
BRANCH  15  18
ATOM     18  O   UNL     1     -12.598  -3.481  31.817  1.00  0.00    -0.504 OA
ATOM     19  H   UNL     1     -13.115  -3.966  32.536  1.00  0.00     0.293 HD
ENDBRANCH  15  18
BRANCH  17  20
ATOM     20  O   UNL     1     -10.875  -5.335  33.278  1.00  0.00    -0.504 OA
ATOM     21  H   UNL     1     -11.822  -5.378  33.626  1.00  0.00     0.293 HD
ENDBRANCH  17  20
ENDBRANCH   1  12
BRANCH   6  22
ATOM     22  O   UNL     1      -3.409  -6.599  26.974  1.00  0.00    -0.507 OA
ATOM     23  H   UNL     1      -2.471  -6.652  26.609  1.00  0.00     0.293 HD
ENDBRANCH   6  22
BRANCH   8  24
ATOM     24  O   UNL     1      -1.896  -5.876  31.456  1.00  0.00    -0.508 OA
ATOM     25  H   UNL     1      -1.085  -5.278  31.348  1.00  0.00     0.293 HD
ENDBRANCH   8  24
TORSDOF 5
ENDMDL
MODEL 4
REMARK VINA RESULT:    -3.366      5.537      8.729
REMARK INTER + INTRA:          -4.261
REMARK INTER:                  -3.947
REMARK INTRA:                  -0.315
REMARK UNBOUND:                -0.304
REMARK SMILES O=c1cc(-c2ccc(O)c(O)c2)oc2cc(O)cc(O)c12
REMARK SMILES IDX 4 1 3 2 2 3 1 4 21 5 19 6 18 7 16 8 15 9 14 10 13 11 5 12
REMARK SMILES IDX 6 13 7 14 8 15 12 16 10 17 9 18 11 20 20 22 17 24
REMARK H PARENT 9 19 11 21 20 23 17 25
REMARK Flexibility Score: inf
ROOT
ATOM      1  C   UNL     1      -7.837  -4.188  30.003  1.00  0.00     0.138 A 
ATOM      2  C   UNL     1      -8.940  -3.351  29.788  1.00  0.00     0.100 A 
ATOM      3  C   UNL     1     -10.141  -3.607  30.452  1.00  0.00     0.197 A 
ATOM      4  O   UNL     1     -11.130  -2.875  30.192  1.00  0.00    -0.289 OA
ATOM      5  C   UNL     1     -10.225  -4.689  31.361  1.00  0.00     0.107 A 
ATOM      6  C   UNL     1     -11.385  -5.020  32.124  1.00  0.00     0.134 A 
ATOM      7  C   UNL     1     -11.389  -6.183  32.903  1.00  0.00     0.093 A 
ATOM      8  C   UNL     1     -10.258  -6.994  32.994  1.00  0.00     0.123 A 
ATOM      9  C   UNL     1      -9.100  -6.651  32.294  1.00  0.00     0.094 A 
ATOM     10  C   UNL     1      -9.076  -5.515  31.480  1.00  0.00     0.146 A 
ATOM     11  O   UNL     1      -7.960  -5.231  30.819  1.00  0.00    -0.456 OA
ENDROOT
BRANCH   1  12
ATOM     12  C   UNL     1      -6.536  -3.962  29.324  1.00  0.00     0.021 A 
ATOM     13  C   UNL     1      -6.478  -3.115  28.207  1.00  0.00     0.016 A 
ATOM     14  C   UNL     1      -5.267  -2.892  27.548  1.00  0.00     0.051 A 
ATOM     15  C   UNL     1      -4.093  -3.514  27.982  1.00  0.00     0.157 A 
ATOM     16  C   UNL     1      -5.357  -4.601  29.753  1.00  0.00     0.062 A 
ATOM     17  C   UNL     1      -4.139  -4.385  29.096  1.00  0.00     0.158 A 
BRANCH  15  18
ATOM     18  O   UNL     1      -2.914  -3.245  27.283  1.00  0.00    -0.504 OA
ATOM     19  H   UNL     1      -2.801  -2.472  26.643  1.00  0.00     0.293 HD
ENDBRANCH  15  18
BRANCH  17  20
ATOM     20  O   UNL     1      -3.012  -5.054  29.577  1.00  0.00    -0.504 OA
ATOM     21  H   UNL     1      -2.206  -4.590  29.974  1.00  0.00     0.293 HD
ENDBRANCH  17  20
ENDBRANCH   1  12
BRANCH   6  22
ATOM     22  O   UNL     1     -12.540  -4.233  32.172  1.00  0.00    -0.507 OA
ATOM     23  H   UNL     1     -12.787  -3.620  32.933  1.00  0.00     0.293 HD
ENDBRANCH   6  22
BRANCH   8  24
ATOM     24  O   UNL     1     -10.293  -8.136  33.790  1.00  0.00    -0.508 OA
ATOM     25  H   UNL     1     -10.686  -9.007  33.452  1.00  0.00     0.293 HD
ENDBRANCH   8  24
TORSDOF 5
ENDMDL
MODEL 5
REMARK VINA RESULT:    -3.362      4.957      7.075
REMARK INTER + INTRA:          -4.256
REMARK INTER:                  -3.963
REMARK INTRA:                  -0.294
REMARK UNBOUND:                -0.304
REMARK SMILES O=c1cc(-c2ccc(O)c(O)c2)oc2cc(O)cc(O)c12
REMARK SMILES IDX 4 1 3 2 2 3 1 4 21 5 19 6 18 7 16 8 15 9 14 10 13 11 5 12
REMARK SMILES IDX 6 13 7 14 8 15 12 16 10 17 9 18 11 20 20 22 17 24
REMARK H PARENT 9 19 11 21 20 23 17 25
REMARK Flexibility Score: inf
ROOT
ATOM      1  C   UNL     1      -7.589  -5.436  30.475  1.00  0.00     0.138 A 
ATOM      2  C   UNL     1      -7.162  -6.726  30.821  1.00  0.00     0.100 A 
ATOM      3  C   UNL     1      -5.889  -7.157  30.443  1.00  0.00     0.197 A 
ATOM      4  O   UNL     1      -5.559  -8.340  30.714  1.00  0.00    -0.289 OA
ATOM      5  C   UNL     1      -5.029  -6.278  29.743  1.00  0.00     0.107 A 
ATOM      6  C   UNL     1      -3.696  -6.595  29.342  1.00  0.00     0.134 A 
ATOM      7  C   UNL     1      -2.980  -5.688  28.551  1.00  0.00     0.093 A 
ATOM      8  C   UNL     1      -3.523  -4.453  28.198  1.00  0.00     0.123 A 
ATOM      9  C   UNL     1      -4.805  -4.111  28.630  1.00  0.00     0.094 A 
ATOM     10  C   UNL     1      -5.559  -5.009  29.390  1.00  0.00     0.146 A 
ATOM     11  O   UNL     1      -6.782  -4.651  29.769  1.00  0.00    -0.456 OA
ENDROOT
BRANCH   1  12
ATOM     12  C   UNL     1      -8.931  -4.926  30.852  1.00  0.00     0.021 A 
ATOM     13  C   UNL     1      -9.458  -3.810  30.186  1.00  0.00     0.016 A 
ATOM     14  C   UNL     1     -10.715  -3.308  30.528  1.00  0.00     0.051 A 
ATOM     15  C   UNL     1     -11.469  -3.902  31.545  1.00  0.00     0.157 A 
ATOM     16  C   UNL     1      -9.682  -5.516  31.887  1.00  0.00     0.062 A 
ATOM     17  C   UNL     1     -10.944  -5.017  32.238  1.00  0.00     0.158 A 
BRANCH  15  18
ATOM     18  O   UNL     1     -12.721  -3.355  31.833  1.00  0.00    -0.504 OA
ATOM     19  H   UNL     1     -13.558  -3.902  31.974  1.00  0.00     0.293 HD
ENDBRANCH  15  18
BRANCH  17  20
ATOM     20  O   UNL     1     -11.630  -5.652  33.275  1.00  0.00    -0.504 OA
ATOM     21  H   UNL     1     -11.884  -6.629  33.268  1.00  0.00     0.293 HD
ENDBRANCH  17  20
ENDBRANCH   1  12
BRANCH   6  22
ATOM     22  O   UNL     1      -3.026  -7.765  29.712  1.00  0.00    -0.507 OA
ATOM     23  H   UNL     1      -2.620  -7.933  30.620  1.00  0.00     0.293 HD
ENDBRANCH   6  22
BRANCH   8  24
ATOM     24  O   UNL     1      -2.776  -3.570  27.422  1.00  0.00    -0.508 OA
ATOM     25  H   UNL     1      -1.973  -3.082  27.800  1.00  0.00     0.293 HD
ENDBRANCH   8  24
TORSDOF 5
ENDMDL
MODEL 6
REMARK VINA RESULT:    -3.347     16.049     17.598
REMARK INTER + INTRA:          -4.238
REMARK INTER:                  -3.951
REMARK INTRA:                  -0.287
REMARK UNBOUND:                -0.304
REMARK SMILES O=c1cc(-c2ccc(O)c(O)c2)oc2cc(O)cc(O)c12
REMARK SMILES IDX 4 1 3 2 2 3 1 4 21 5 19 6 18 7 16 8 15 9 14 10 13 11 5 12
REMARK SMILES IDX 6 13 7 14 8 15 12 16 10 17 9 18 11 20 20 22 17 24
REMARK H PARENT 9 19 11 21 20 23 17 25
REMARK Flexibility Score: inf
ROOT
ATOM      1  C   UNL     1     -15.719  -8.279  15.891  1.00  0.00     0.138 A 
ATOM      2  C   UNL     1     -15.569  -6.894  15.737  1.00  0.00     0.100 A 
ATOM      3  C   UNL     1     -14.378  -6.381  15.221  1.00  0.00     0.197 A 
ATOM      4  O   UNL     1     -14.250  -5.131  15.153  1.00  0.00    -0.289 OA
ATOM      5  C   UNL     1     -13.345  -7.264  14.825  1.00  0.00     0.107 A 
ATOM      6  C   UNL     1     -12.105  -6.856  14.249  1.00  0.00     0.134 A 
ATOM      7  C   UNL     1     -11.111  -7.812  14.006  1.00  0.00     0.093 A 
ATOM      8  C   UNL     1     -11.332  -9.165  14.261  1.00  0.00     0.123 A 
ATOM      9  C   UNL     1     -12.561  -9.581  14.775  1.00  0.00     0.094 A 
ATOM     10  C   UNL     1     -13.561  -8.647  15.061  1.00  0.00     0.146 A 
ATOM     11  O   UNL     1     -14.712  -9.083  15.564  1.00  0.00    -0.456 OA
ENDROOT
BRANCH   1  12
ATOM     12  C   UNL     1     -16.964  -8.878  16.434  1.00  0.00     0.021 A 
ATOM     13  C   UNL     1     -16.891 -10.063  17.182  1.00  0.00     0.016 A 
ATOM     14  C   UNL     1     -18.048 -10.648  17.697  1.00  0.00     0.051 A 
ATOM     15  C   UNL     1     -19.302 -10.073  17.472  1.00  0.00     0.157 A 
ATOM     16  C   UNL     1     -18.227  -8.305  16.193  1.00  0.00     0.062 A 
ATOM     17  C   UNL     1     -19.394  -8.888  16.704  1.00  0.00     0.158 A 
BRANCH  15  18
ATOM     18  O   UNL     1     -20.420 -10.705  18.020  1.00  0.00    -0.504 OA
ATOM     19  H   UNL     1     -20.388 -11.593  18.500  1.00  0.00     0.293 HD
ENDBRANCH  15  18
BRANCH  17  20
ATOM     20  O   UNL     1     -20.611  -8.265  16.423  1.00  0.00    -0.504 OA
ATOM     21  H   UNL     1     -20.692  -7.349  16.004  1.00  0.00     0.293 HD
ENDBRANCH  17  20
ENDBRANCH   1  12
BRANCH   6  22
ATOM     22  O   UNL     1     -11.811  -5.542  13.875  1.00  0.00    -0.507 OA
ATOM     23  H   UNL     1     -12.453  -4.919  13.409  1.00  0.00     0.293 HD
ENDBRANCH   6  22
BRANCH   8  24
ATOM     24  O   UNL     1     -10.326 -10.089  13.993  1.00  0.00    -0.508 OA
ATOM     25  H   UNL     1      -9.495 -10.151  14.570  1.00  0.00     0.293 HD
ENDBRANCH   8  24
TORSDOF 5
ENDMDL
MODEL 7
REMARK VINA RESULT:    -3.301      1.558      7.149
REMARK INTER + INTRA:          -4.185
REMARK INTER:                  -3.894
REMARK INTRA:                  -0.290
REMARK UNBOUND:                -0.304
REMARK SMILES O=c1cc(-c2ccc(O)c(O)c2)oc2cc(O)cc(O)c12
REMARK SMILES IDX 4 1 3 2 2 3 1 4 21 5 19 6 18 7 16 8 15 9 14 10 13 11 5 12
REMARK SMILES IDX 6 13 7 14 8 15 12 16 10 17 9 18 11 20 20 22 17 24
REMARK H PARENT 9 19 11 21 20 23 17 25
REMARK Flexibility Score: inf
ROOT
ATOM      1  C   UNL     1      -2.478  -6.166  27.125  1.00  0.00     0.138 A 
ATOM      2  C   UNL     1      -2.180  -7.535  27.121  1.00  0.00     0.100 A 
ATOM      3  C   UNL     1      -2.208  -8.252  28.319  1.00  0.00     0.197 A 
ATOM      4  O   UNL     1      -1.876  -9.464  28.293  1.00  0.00    -0.289 OA
ATOM      5  C   UNL     1      -2.570  -7.598  29.521  1.00  0.00     0.107 A 
ATOM      6  C   UNL     1      -2.672  -8.236  30.794  1.00  0.00     0.134 A 
ATOM      7  C   UNL     1      -2.924  -7.463  31.934  1.00  0.00     0.093 A 
ATOM      8  C   UNL     1      -3.136  -6.088  31.841  1.00  0.00     0.123 A 
ATOM      9  C   UNL     1      -3.092  -5.462  30.595  1.00  0.00     0.094 A 
ATOM     10  C   UNL     1      -2.808  -6.200  29.442  1.00  0.00     0.146 A 
ATOM     11  O   UNL     1      -2.760  -5.564  28.276  1.00  0.00    -0.456 OA
ENDROOT
BRANCH   1  12
ATOM     12  C   UNL     1      -2.463  -5.356  25.881  1.00  0.00     0.021 A 
ATOM     13  C   UNL     1      -2.219  -3.977  25.957  1.00  0.00     0.016 A 
ATOM     14  C   UNL     1      -2.207  -3.194  24.802  1.00  0.00     0.051 A 
ATOM     15  C   UNL     1      -2.446  -3.765  23.548  1.00  0.00     0.157 A 
ATOM     16  C   UNL     1      -2.719  -5.931  24.621  1.00  0.00     0.062 A 
ATOM     17  C   UNL     1      -2.711  -5.151  23.457  1.00  0.00     0.158 A 
BRANCH  15  18
ATOM     18  O   UNL     1      -2.414  -2.928  22.432  1.00  0.00    -0.504 OA
ATOM     19  H   UNL     1      -1.569  -2.668  21.944  1.00  0.00     0.293 HD
ENDBRANCH  15  18
BRANCH  17  20
ATOM     20  O   UNL     1      -2.975  -5.790  22.244  1.00  0.00    -0.504 OA
ATOM     21  H   UNL     1      -2.271  -6.247  21.682  1.00  0.00     0.293 HD
ENDBRANCH  17  20
ENDBRANCH   1  12
BRANCH   6  22
ATOM     22  O   UNL     1      -2.562  -9.616  30.987  1.00  0.00    -0.507 OA
ATOM     23  H   UNL     1      -1.781 -10.075  31.428  1.00  0.00     0.293 HD
ENDBRANCH   6  22
BRANCH   8  24
ATOM     24  O   UNL     1      -3.399  -5.354  32.995  1.00  0.00    -0.508 OA
ATOM     25  H   UNL     1      -4.210  -5.544  33.573  1.00  0.00     0.293 HD
ENDBRANCH   8  24
TORSDOF 5
ENDMDL
MODEL 8
REMARK VINA RESULT:    -3.292      5.140      8.450
REMARK INTER + INTRA:          -4.174
REMARK INTER:                  -3.880
REMARK INTRA:                  -0.294
REMARK UNBOUND:                -0.304
REMARK SMILES O=c1cc(-c2ccc(O)c(O)c2)oc2cc(O)cc(O)c12
REMARK SMILES IDX 4 1 3 2 2 3 1 4 21 5 19 6 18 7 16 8 15 9 14 10 13 11 5 12
REMARK SMILES IDX 6 13 7 14 8 15 12 16 10 17 9 18 11 20 20 22 17 24
REMARK H PARENT 9 19 11 21 20 23 17 25
REMARK Flexibility Score: inf
ROOT
ATOM      1  C   UNL     1      -7.092  -5.160  30.129  1.00  0.00     0.138 A 
ATOM      2  C   UNL     1      -7.848  -4.066  29.686  1.00  0.00     0.100 A 
ATOM      3  C   UNL     1      -9.109  -3.829  30.237  1.00  0.00     0.197 A 
ATOM      4  O   UNL     1      -9.789  -2.878  29.775  1.00  0.00    -0.289 OA
ATOM      5  C   UNL     1      -9.599  -4.674  31.261  1.00  0.00     0.107 A 
ATOM      6  C   UNL     1     -10.851  -4.505  31.924  1.00  0.00     0.134 A 
ATOM      7  C   UNL     1     -11.283  -5.472  32.840  1.00  0.00     0.093 A 
ATOM      8  C   UNL     1     -10.483  -6.568  33.162  1.00  0.00     0.123 A 
ATOM      9  C   UNL     1      -9.233  -6.715  32.560  1.00  0.00     0.094 A 
ATOM     10  C   UNL     1      -8.789  -5.786  31.615  1.00  0.00     0.146 A 
ATOM     11  O   UNL     1      -7.599  -5.970  31.053  1.00  0.00    -0.456 OA
ENDROOT
BRANCH   1  12
ATOM     12  C   UNL     1      -5.746  -5.458  29.579  1.00  0.00     0.021 A 
ATOM     13  C   UNL     1      -5.202  -6.741  29.741  1.00  0.00     0.016 A 
ATOM     14  C   UNL     1      -3.935  -7.043  29.238  1.00  0.00     0.051 A 
ATOM     15  C   UNL     1      -3.182  -6.073  28.571  1.00  0.00     0.157 A 
ATOM     16  C   UNL     1      -4.982  -4.476  28.920  1.00  0.00     0.062 A 
ATOM     17  C   UNL     1      -3.709  -4.771  28.414  1.00  0.00     0.158 A 
BRANCH  15  18
ATOM     18  O   UNL     1      -1.925  -6.442  28.086  1.00  0.00    -0.504 OA
ATOM     19  H   UNL     1      -1.578  -7.390  28.077  1.00  0.00     0.293 HD
ENDBRANCH  15  18
BRANCH  17  20
ATOM     20  O   UNL     1      -3.010  -3.746  27.774  1.00  0.00    -0.504 OA
ATOM     21  H   UNL     1      -2.298  -3.900  27.074  1.00  0.00     0.293 HD
ENDBRANCH  17  20
ENDBRANCH   1  12
BRANCH   6  22
ATOM     22  O   UNL     1     -11.690  -3.401  31.740  1.00  0.00    -0.507 OA
ATOM     23  H   UNL     1     -11.826  -2.921  30.864  1.00  0.00     0.293 HD
ENDBRANCH   6  22
BRANCH   8  24
ATOM     24  O   UNL     1     -10.939  -7.502  34.089  1.00  0.00    -0.508 OA
ATOM     25  H   UNL     1     -10.302  -8.129  34.567  1.00  0.00     0.293 HD
ENDBRANCH   8  24
TORSDOF 5
ENDMDL
MODEL 9
REMARK VINA RESULT:    -3.257      5.126      7.428
REMARK INTER + INTRA:          -4.133
REMARK INTER:                  -3.851
REMARK INTRA:                  -0.282
REMARK UNBOUND:                -0.304
REMARK SMILES O=c1cc(-c2ccc(O)c(O)c2)oc2cc(O)cc(O)c12
REMARK SMILES IDX 4 1 3 2 2 3 1 4 21 5 19 6 18 7 16 8 15 9 14 10 13 11 5 12
REMARK SMILES IDX 6 13 7 14 8 15 12 16 10 17 9 18 11 20 20 22 17 24
REMARK H PARENT 9 19 11 21 20 23 17 25
REMARK Flexibility Score: inf
ROOT
ATOM      1  C   UNL     1      -7.764  -5.439  30.839  1.00  0.00     0.138 A 
ATOM      2  C   UNL     1      -7.456  -4.547  29.803  1.00  0.00     0.100 A 
ATOM      3  C   UNL     1      -6.130  -4.398  29.391  1.00  0.00     0.197 A 
ATOM      4  O   UNL     1      -5.877  -3.545  28.503  1.00  0.00    -0.289 OA
ATOM      5  C   UNL     1      -5.114  -5.173  29.999  1.00  0.00     0.107 A 
ATOM      6  C   UNL     1      -3.735  -5.135  29.634  1.00  0.00     0.134 A 
ATOM      7  C   UNL     1      -2.802  -5.860  30.385  1.00  0.00     0.093 A 
ATOM      8  C   UNL     1      -3.203  -6.667  31.449  1.00  0.00     0.123 A 
ATOM      9  C   UNL     1      -4.555  -6.753  31.782  1.00  0.00     0.094 A 
ATOM     10  C   UNL     1      -5.507  -6.015  31.074  1.00  0.00     0.146 A 
ATOM     11  O   UNL     1      -6.783  -6.113  31.431  1.00  0.00    -0.456 OA
ENDROOT
BRANCH   1  12
ATOM     12  C   UNL     1      -9.156  -5.637  31.317  1.00  0.00     0.021 A 
ATOM     13  C   UNL     1      -9.594  -6.927  31.652  1.00  0.00     0.016 A 
ATOM     14  C   UNL     1     -10.900  -7.138  32.097  1.00  0.00     0.051 A 
ATOM     15  C   UNL     1     -11.799  -6.073  32.208  1.00  0.00     0.157 A 
ATOM     16  C   UNL     1     -10.064  -4.565  31.414  1.00  0.00     0.062 A 
ATOM     17  C   UNL     1     -11.377  -4.770  31.857  1.00  0.00     0.158 A 
BRANCH  15  18
ATOM     18  O   UNL     1     -13.089  -6.351  32.665  1.00  0.00    -0.504 OA
ATOM     19  H   UNL     1     -13.811  -5.655  32.779  1.00  0.00     0.293 HD
ENDBRANCH  15  18
BRANCH  17  20
ATOM     20  O   UNL     1     -12.221  -3.660  31.927  1.00  0.00    -0.504 OA
ATOM     21  H   UNL     1     -12.417  -3.152  32.778  1.00  0.00     0.293 HD
ENDBRANCH  17  20
ENDBRANCH   1  12
BRANCH   6  22
ATOM     22  O   UNL     1      -3.237  -4.428  28.534  1.00  0.00    -0.507 OA
ATOM     23  H   UNL     1      -2.718  -4.838  27.774  1.00  0.00     0.293 HD
ENDBRANCH   6  22
BRANCH   8  24
ATOM     24  O   UNL     1      -2.248  -7.385  32.165  1.00  0.00    -0.508 OA
ATOM     25  H   UNL     1      -1.298  -7.486  31.828  1.00  0.00     0.293 HD
ENDBRANCH   8  24
TORSDOF 5
ENDMDL
