MODEL 1
REMARK VINA RESULT:    -4.391      0.000      0.000
REMARK INTER + INTRA:         -16.259
REMARK INTER:                 -11.066
REMARK INTRA:                  -5.193
REMARK UNBOUND:                -5.193
REMARK SMILES CCCCCCCCCCCCCCCCCCCCCCCCCCCC(=O)[O-]
REMARK SMILES IDX 15 1 16 2 17 3 18 4 19 5 20 6 21 7 22 8 23 9 24 10 25 11
REMARK SMILES IDX 26 12 27 13 28 14 29 15 30 16 14 17 13 18 12 19 11 20 10 21
REMARK SMILES IDX 9 22 8 23 7 24 6 25 5 26 4 27 3 28 2 29 1 30
REMARK H PARENT
REMARK Flexibility Score: inf
ROOT
ATOM      1  C   UNL     1      55.809  25.672  33.253  1.00  0.00     0.000 C 
ENDROOT
BRANCH   1   2
ATOM      2  C   UNL     1      56.055  26.731  34.340  1.00  0.00     0.000 C 
BRANCH   2   3
ATOM      3  C   UNL     1      55.491  28.109  33.958  1.00  0.00     0.000 C 
BRANCH   3   4
ATOM      4  C   UNL     1      53.955  28.125  33.881  1.00  0.00     0.000 C 
BRANCH   4   5
ATOM      5  C   UNL     1      53.295  28.115  35.277  1.00  0.00     0.000 C 
BRANCH   5   6
ATOM      6  C   UNL     1      52.444  29.365  35.571  1.00  0.00     0.000 C 
BRANCH   6   7
ATOM      7  C   UNL     1      53.180  30.488  36.325  1.00  0.00     0.000 C 
BRANCH   7   8
ATOM      8  C   UNL     1      53.252  30.314  37.857  1.00  0.00     0.000 C 
BRANCH   8   9
ATOM      9  C   UNL     1      54.647  30.508  38.476  1.00  0.00     0.000 C 
BRANCH   9  10
ATOM     10  C   UNL     1      55.171  29.245  39.180  1.00  0.00     0.000 C 
BRANCH  10  11
ATOM     11  C   UNL     1      55.944  28.318  38.227  1.00  0.00     0.000 C 
BRANCH  11  12
ATOM     12  C   UNL     1      56.590  29.079  37.059  1.00  0.00     0.006 C 
BRANCH  12  13
ATOM     13  C   UNL     1      58.089  29.287  37.304  1.00  0.00     0.053 C 
BRANCH  13  14
ATOM     14  C   UNL     1      58.343  30.650  37.866  1.00  0.00     0.041 C 
ATOM     15  O   UNL     1      58.470  30.809  39.109  1.00  0.00    -0.550 OA
ATOM     16  O   UNL     1      58.389  31.752  37.023  1.00  0.00    -0.550 OA
ENDBRANCH  13  14
ENDBRANCH  12  13
ENDBRANCH  11  12
ENDBRANCH  10  11
ENDBRANCH   9  10
ENDBRANCH   8   9
ENDBRANCH   7   8
ENDBRANCH   6   7
ENDBRANCH   5   6
ENDBRANCH   4   5
ENDBRANCH   3   4
ENDBRANCH   2   3
ENDBRANCH   1   2
BRANCH   1  17
ATOM     17  C   UNL     1      55.075  24.433  33.788  1.00  0.00     0.000 C 
BRANCH  17  18
ATOM     18  C   UNL     1      55.454  24.103  35.244  1.00  0.00     0.000 C 
BRANCH  18  19
ATOM     19  C   UNL     1      54.253  23.609  36.070  1.00  0.00     0.000 C 
BRANCH  19  20
ATOM     20  C   UNL     1      53.160  24.685  36.275  1.00  0.00     0.000 C 
BRANCH  20  21
ATOM     21  C   UNL     1      51.774  24.111  36.631  1.00  0.00     0.000 C 
BRANCH  21  22
ATOM     22  C   UNL     1      51.449  22.751  35.990  1.00  0.00    -0.000 C 
BRANCH  22  23
ATOM     23  C   UNL     1      50.075  22.729  35.300  1.00  0.00    -0.000 C 
BRANCH  23  24
ATOM     24  C   UNL     1      50.214  22.375  33.812  1.00  0.00    -0.000 C 
BRANCH  24  25
ATOM     25  C   UNL     1      51.575  22.789  33.224  1.00  0.00    -0.000 C 
BRANCH  25  26
ATOM     26  C   UNL     1      51.528  23.985  32.252  1.00  0.00    -0.000 C 
BRANCH  26  27
ATOM     27  C   UNL     1      51.665  25.368  32.914  1.00  0.00    -0.000 C 
BRANCH  27  28
ATOM     28  C   UNL     1      50.324  26.105  33.039  1.00  0.00    -0.000 C 
BRANCH  28  29
ATOM     29  C   UNL     1      50.046  26.492  34.496  1.00  0.00    -0.003 C 
ATOM     30  C   UNL     1      48.655  26.039  34.932  1.00  0.00     0.004 C 
ENDBRANCH  28  29
ENDBRANCH  27  28
ENDBRANCH  26  27
ENDBRANCH  25  26
ENDBRANCH  24  25
ENDBRANCH  23  24
ENDBRANCH  22  23
ENDBRANCH  21  22
ENDBRANCH  20  21
ENDBRANCH  19  20
ENDBRANCH  18  19
ENDBRANCH  17  18
ENDBRANCH   1  17
TORSDOF 26
ENDMDL
MODEL 2
REMARK VINA RESULT:    -4.333      2.114      4.613
REMARK INTER + INTRA:         -16.111
REMARK INTER:                 -10.913
REMARK INTRA:                  -5.198
REMARK UNBOUND:                -5.193
REMARK SMILES CCCCCCCCCCCCCCCCCCCCCCCCCCCC(=O)[O-]
REMARK SMILES IDX 15 1 16 2 17 3 18 4 19 5 20 6 21 7 22 8 23 9 24 10 25 11
REMARK SMILES IDX 26 12 27 13 28 14 29 15 30 16 14 17 13 18 12 19 11 20 10 21
REMARK SMILES IDX 9 22 8 23 7 24 6 25 5 26 4 27 3 28 2 29 1 30
REMARK H PARENT
REMARK Flexibility Score: inf
ROOT
ATOM      1  C   UNL     1      56.207  26.376  38.721  1.00  0.00     0.000 C 
ENDROOT
BRANCH   1   2
ATOM      2  C   UNL     1      57.628  26.964  38.736  1.00  0.00     0.000 C 
BRANCH   2   3
ATOM      3  C   UNL     1      57.986  27.606  40.086  1.00  0.00     0.000 C 
BRANCH   3   4
ATOM      4  C   UNL     1      58.656  28.983  39.933  1.00  0.00     0.000 C 
BRANCH   4   5
ATOM      5  C   UNL     1      58.766  29.423  38.457  1.00  0.00     0.000 C 
BRANCH   5   6
ATOM      6  C   UNL     1      57.880  30.632  38.102  1.00  0.00     0.000 C 
BRANCH   6   7
ATOM      7  C   UNL     1      56.859  30.380  36.977  1.00  0.00     0.000 C 
BRANCH   7   8
ATOM      8  C   UNL     1      55.415  30.110  37.449  1.00  0.00     0.000 C 
BRANCH   8   9
ATOM      9  C   UNL     1      55.061  30.671  38.838  1.00  0.00     0.000 C 
BRANCH   9  10
ATOM     10  C   UNL     1      54.758  29.570  39.868  1.00  0.00     0.000 C 
BRANCH  10  11
ATOM     11  C   UNL     1      55.273  29.924  41.274  1.00  0.00     0.000 C 
BRANCH  11  12
ATOM     12  C   UNL     1      55.606  31.416  41.423  1.00  0.00     0.006 C 
BRANCH  12  13
ATOM     13  C   UNL     1      57.046  31.609  41.908  1.00  0.00     0.053 C 
BRANCH  13  14
ATOM     14  C   UNL     1      57.592  32.915  41.422  1.00  0.00     0.041 C 
ATOM     15  O   UNL     1      57.182  33.409  40.339  1.00  0.00    -0.550 OA
ATOM     16  O   UNL     1      58.589  33.561  42.140  1.00  0.00    -0.550 OA
ENDBRANCH  13  14
ENDBRANCH  12  13
ENDBRANCH  11  12
ENDBRANCH  10  11
ENDBRANCH   9  10
ENDBRANCH   8   9
ENDBRANCH   7   8
ENDBRANCH   6   7
ENDBRANCH   5   6
ENDBRANCH   4   5
ENDBRANCH   3   4
ENDBRANCH   2   3
ENDBRANCH   1   2
BRANCH   1  17
ATOM     17  C   UNL     1      55.502  26.563  37.369  1.00  0.00     0.000 C 
BRANCH  17  18
ATOM     18  C   UNL     1      56.495  26.731  36.203  1.00  0.00     0.000 C 
BRANCH  18  19
ATOM     19  C   UNL     1      55.801  26.707  34.829  1.00  0.00     0.000 C 
BRANCH  19  20
ATOM     20  C   UNL     1      55.501  28.115  34.264  1.00  0.00     0.000 C 
BRANCH  20  21
ATOM     21  C   UNL     1      54.052  28.296  33.769  1.00  0.00     0.000 C 
BRANCH  21  22
ATOM     22  C   UNL     1      53.134  29.084  34.719  1.00  0.00    -0.000 C 
BRANCH  22  23
ATOM     23  C   UNL     1      52.509  28.203  35.813  1.00  0.00    -0.000 C 
BRANCH  23  24
ATOM     24  C   UNL     1      51.789  26.994  35.198  1.00  0.00    -0.000 C 
BRANCH  24  25
ATOM     25  C   UNL     1      52.395  25.649  35.640  1.00  0.00    -0.000 C 
BRANCH  25  26
ATOM     26  C   UNL     1      51.404  24.676  36.308  1.00  0.00    -0.000 C 
BRANCH  26  27
ATOM     27  C   UNL     1      49.917  24.991  36.066  1.00  0.00    -0.000 C 
BRANCH  27  28
ATOM     28  C   UNL     1      49.343  24.261  34.843  1.00  0.00    -0.000 C 
BRANCH  28  29
ATOM     29  C   UNL     1      48.372  25.162  34.073  1.00  0.00    -0.003 C 
ATOM     30  C   UNL     1      49.067  25.850  32.902  1.00  0.00     0.004 C 
ENDBRANCH  28  29
ENDBRANCH  27  28
ENDBRANCH  26  27
ENDBRANCH  25  26
ENDBRANCH  24  25
ENDBRANCH  23  24
ENDBRANCH  22  23
ENDBRANCH  21  22
ENDBRANCH  20  21
ENDBRANCH  19  20
ENDBRANCH  18  19
ENDBRANCH  17  18
ENDBRANCH   1  17
TORSDOF 26
ENDMDL
MODEL 3
REMARK VINA RESULT:    -4.290      1.505      4.269
REMARK INTER + INTRA:         -16.004
REMARK INTER:                 -10.392
REMARK INTRA:                  -5.613
REMARK UNBOUND:                -5.193
REMARK SMILES CCCCCCCCCCCCCCCCCCCCCCCCCCCC(=O)[O-]
REMARK SMILES IDX 15 1 16 2 17 3 18 4 19 5 20 6 21 7 22 8 23 9 24 10 25 11
REMARK SMILES IDX 26 12 27 13 28 14 29 15 30 16 14 17 13 18 12 19 11 20 10 21
REMARK SMILES IDX 9 22 8 23 7 24 6 25 5 26 4 27 3 28 2 29 1 30
REMARK H PARENT
REMARK Flexibility Score: inf
ROOT
ATOM      1  C   UNL     1      52.813  29.081  36.212  1.00  0.00     0.000 C 
ENDROOT
BRANCH   1   2
ATOM      2  C   UNL     1      52.818  30.324  37.116  1.00  0.00     0.000 C 
BRANCH   2   3
ATOM      3  C   UNL     1      54.218  30.943  37.258  1.00  0.00     0.000 C 
BRANCH   3   4
ATOM      4  C   UNL     1      55.291  29.911  37.646  1.00  0.00     0.000 C 
BRANCH   4   5
ATOM      5  C   UNL     1      55.057  29.318  39.052  1.00  0.00     0.000 C 
BRANCH   5   6
ATOM      6  C   UNL     1      55.355  27.809  39.147  1.00  0.00     0.000 C 
BRANCH   6   7
ATOM      7  C   UNL     1      55.774  27.146  37.822  1.00  0.00     0.000 C 
BRANCH   7   8
ATOM      8  C   UNL     1      57.261  26.746  37.729  1.00  0.00     0.000 C 
BRANCH   8   9
ATOM      9  C   UNL     1      58.041  27.380  36.563  1.00  0.00     0.000 C 
BRANCH   9  10
ATOM     10  C   UNL     1      58.706  28.714  36.943  1.00  0.00     0.000 C 
BRANCH  10  11
ATOM     11  C   UNL     1      59.068  28.785  38.437  1.00  0.00     0.000 C 
BRANCH  11  12
ATOM     12  C   UNL     1      58.730  30.147  39.062  1.00  0.00     0.006 C 
BRANCH  12  13
ATOM     13  C   UNL     1      58.310  29.988  40.527  1.00  0.00     0.053 C 
BRANCH  13  14
ATOM     14  C   UNL     1      58.332  31.311  41.225  1.00  0.00     0.041 C 
ATOM     15  O   UNL     1      57.319  32.059  41.198  1.00  0.00    -0.550 OA
ATOM     16  O   UNL     1      59.488  31.740  41.863  1.00  0.00    -0.550 OA
ENDBRANCH  13  14
ENDBRANCH  12  13
ENDBRANCH  11  12
ENDBRANCH  10  11
ENDBRANCH   9  10
ENDBRANCH   8   9
ENDBRANCH   7   8
ENDBRANCH   6   7
ENDBRANCH   5   6
ENDBRANCH   4   5
ENDBRANCH   3   4
ENDBRANCH   2   3
ENDBRANCH   1   2
BRANCH   1  17
ATOM     17  C   UNL     1      53.120  29.415  34.743  1.00  0.00     0.000 C 
BRANCH  17  18
ATOM     18  C   UNL     1      53.744  28.228  33.985  1.00  0.00     0.000 C 
BRANCH  18  19
ATOM     19  C   UNL     1      55.267  28.134  34.187  1.00  0.00     0.000 C 
BRANCH  19  20
ATOM     20  C   UNL     1      55.884  26.829  33.632  1.00  0.00     0.000 C 
BRANCH  20  21
ATOM     21  C   UNL     1      54.979  25.590  33.788  1.00  0.00     0.000 C 
BRANCH  21  22
ATOM     22  C   UNL     1      55.250  24.741  35.041  1.00  0.00    -0.000 C 
BRANCH  22  23
ATOM     23  C   UNL     1      53.966  24.181  35.674  1.00  0.00    -0.000 C 
BRANCH  23  24
ATOM     24  C   UNL     1      53.016  25.317  36.083  1.00  0.00    -0.000 C 
BRANCH  24  25
ATOM     25  C   UNL     1      51.608  24.815  36.453  1.00  0.00    -0.000 C 
BRANCH  25  26
ATOM     26  C   UNL     1      50.546  24.982  35.348  1.00  0.00    -0.000 C 
BRANCH  26  27
ATOM     27  C   UNL     1      50.724  26.224  34.455  1.00  0.00    -0.000 C 
BRANCH  27  28
ATOM     28  C   UNL     1      51.187  25.875  33.033  1.00  0.00    -0.000 C 
BRANCH  28  29
ATOM     29  C   UNL     1      50.899  24.405  32.709  1.00  0.00    -0.003 C 
ATOM     30  C   UNL     1      52.170  23.675  32.282  1.00  0.00     0.004 C 
ENDBRANCH  28  29
ENDBRANCH  27  28
ENDBRANCH  26  27
ENDBRANCH  25  26
ENDBRANCH  24  25
ENDBRANCH  23  24
ENDBRANCH  22  23
ENDBRANCH  21  22
ENDBRANCH  20  21
ENDBRANCH  19  20
ENDBRANCH  18  19
ENDBRANCH  17  18
ENDBRANCH   1  17
TORSDOF 26
ENDMDL
MODEL 4
REMARK VINA RESULT:    -4.288      3.487      7.954
REMARK INTER + INTRA:         -15.997
REMARK INTER:                 -10.370
REMARK INTRA:                  -5.628
REMARK UNBOUND:                -5.193
REMARK SMILES CCCCCCCCCCCCCCCCCCCCCCCCCCCC(=O)[O-]
REMARK SMILES IDX 15 1 16 2 17 3 18 4 19 5 20 6 21 7 22 8 23 9 24 10 25 11
REMARK SMILES IDX 26 12 27 13 28 14 29 15 30 16 14 17 13 18 12 19 11 20 10 21
REMARK SMILES IDX 9 22 8 23 7 24 6 25 5 26 4 27 3 28 2 29 1 30
REMARK H PARENT
REMARK Flexibility Score: inf
ROOT
ATOM      1  C   UNL     1      55.774  25.047  36.007  1.00  0.00     0.000 C 
ENDROOT
BRANCH   1   2
ATOM      2  C   UNL     1      54.557  24.911  35.077  1.00  0.00     0.000 C 
BRANCH   2   3
ATOM      3  C   UNL     1      54.776  25.593  33.716  1.00  0.00     0.000 C 
BRANCH   3   4
ATOM      4  C   UNL     1      55.909  26.633  33.745  1.00  0.00     0.000 C 
BRANCH   4   5
ATOM      5  C   UNL     1      55.378  28.081  33.807  1.00  0.00     0.000 C 
BRANCH   5   6
ATOM      6  C   UNL     1      53.844  28.185  33.705  1.00  0.00     0.000 C 
BRANCH   6   7
ATOM      7  C   UNL     1      53.183  29.086  34.764  1.00  0.00     0.000 C 
BRANCH   7   8
ATOM      8  C   UNL     1      51.996  28.452  35.520  1.00  0.00     0.000 C 
BRANCH   8   9
ATOM      9  C   UNL     1      51.566  27.062  35.018  1.00  0.00     0.000 C 
BRANCH   9  10
ATOM     10  C   UNL     1      50.123  27.038  34.487  1.00  0.00     0.000 C 
BRANCH  10  11
ATOM     11  C   UNL     1      50.006  26.307  33.138  1.00  0.00     0.000 C 
BRANCH  11  12
ATOM     12  C   UNL     1      51.210  25.396  32.853  1.00  0.00     0.006 C 
BRANCH  12  13
ATOM     13  C   UNL     1      50.775  23.930  32.748  1.00  0.00     0.053 C 
BRANCH  13  14
ATOM     14  C   UNL     1      50.352  23.413  34.087  1.00  0.00     0.041 C 
ATOM     15  O   UNL     1      49.197  22.939  34.248  1.00  0.00    -0.550 OA
ATOM     16  O   UNL     1      51.218  23.500  35.170  1.00  0.00    -0.550 OA
ENDBRANCH  13  14
ENDBRANCH  12  13
ENDBRANCH  11  12
ENDBRANCH  10  11
ENDBRANCH   9  10
ENDBRANCH   8   9
ENDBRANCH   7   8
ENDBRANCH   6   7
ENDBRANCH   5   6
ENDBRANCH   4   5
ENDBRANCH   3   4
ENDBRANCH   2   3
ENDBRANCH   1   2
BRANCH   1  17
ATOM     17  C   UNL     1      55.406  25.621  37.385  1.00  0.00     0.000 C 
BRANCH  17  18
ATOM     18  C   UNL     1      54.655  26.962  37.285  1.00  0.00     0.000 C 
BRANCH  18  19
ATOM     19  C   UNL     1      55.066  27.952  38.389  1.00  0.00     0.000 C 
BRANCH  19  20
ATOM     20  C   UNL     1      54.586  29.399  38.132  1.00  0.00     0.000 C 
BRANCH  20  21
ATOM     21  C   UNL     1      55.606  30.274  37.375  1.00  0.00     0.000 C 
BRANCH  21  22
ATOM     22  C   UNL     1      56.743  29.500  36.687  1.00  0.00    -0.000 C 
BRANCH  22  23
ATOM     23  C   UNL     1      58.125  30.127  36.929  1.00  0.00    -0.000 C 
BRANCH  23  24
ATOM     24  C   UNL     1      59.165  29.047  37.264  1.00  0.00    -0.000 C 
BRANCH  24  25
ATOM     25  C   UNL     1      58.548  27.644  37.401  1.00  0.00    -0.000 C 
BRANCH  25  26
ATOM     26  C   UNL     1      58.508  27.086  38.837  1.00  0.00    -0.000 C 
BRANCH  26  27
ATOM     27  C   UNL     1      58.873  28.097  39.939  1.00  0.00    -0.000 C 
BRANCH  27  28
ATOM     28  C   UNL     1      57.663  28.520  40.785  1.00  0.00    -0.000 C 
BRANCH  28  29
ATOM     29  C   UNL     1      57.366  30.013  40.607  1.00  0.00    -0.003 C 
ATOM     30  C   UNL     1      56.066  30.404  41.305  1.00  0.00     0.004 C 
ENDBRANCH  28  29
ENDBRANCH  27  28
ENDBRANCH  26  27
ENDBRANCH  25  26
ENDBRANCH  24  25
ENDBRANCH  23  24
ENDBRANCH  22  23
ENDBRANCH  21  22
ENDBRANCH  20  21
ENDBRANCH  19  20
ENDBRANCH  18  19
ENDBRANCH  17  18
ENDBRANCH   1  17
TORSDOF 26
ENDMDL
MODEL 5
REMARK VINA RESULT:    -4.272      3.888      8.478
REMARK INTER + INTRA:         -15.957
REMARK INTER:                 -11.205
REMARK INTRA:                  -4.751
REMARK UNBOUND:                -5.193
REMARK SMILES CCCCCCCCCCCCCCCCCCCCCCCCCCCC(=O)[O-]
REMARK SMILES IDX 15 1 16 2 17 3 18 4 19 5 20 6 21 7 22 8 23 9 24 10 25 11
REMARK SMILES IDX 26 12 27 13 28 14 29 15 30 16 14 17 13 18 12 19 11 20 10 21
REMARK SMILES IDX 9 22 8 23 7 24 6 25 5 26 4 27 3 28 2 29 1 30
REMARK H PARENT
REMARK Flexibility Score: inf
ROOT
ATOM      1  C   UNL     1      55.306  26.133  36.688  1.00  0.00     0.000 C 
ENDROOT
BRANCH   1   2
ATOM      2  C   UNL     1      56.289  25.866  35.535  1.00  0.00     0.000 C 
BRANCH   2   3
ATOM      3  C   UNL     1      56.015  26.753  34.310  1.00  0.00     0.000 C 
BRANCH   3   4
ATOM      4  C   UNL     1      55.472  28.142  34.687  1.00  0.00     0.000 C 
BRANCH   4   5
ATOM      5  C   UNL     1      54.147  28.471  33.966  1.00  0.00     0.000 C 
BRANCH   5   6
ATOM      6  C   UNL     1      52.977  28.770  34.922  1.00  0.00     0.000 C 
BRANCH   6   7
ATOM      7  C   UNL     1      52.086  27.559  35.254  1.00  0.00     0.000 C 
BRANCH   7   8
ATOM      8  C   UNL     1      52.212  26.364  34.286  1.00  0.00     0.000 C 
BRANCH   8   9
ATOM      9  C   UNL     1      50.965  26.076  33.431  1.00  0.00     0.000 C 
BRANCH   9  10
ATOM     10  C   UNL     1      49.682  26.688  34.019  1.00  0.00     0.000 C 
BRANCH  10  11
ATOM     11  C   UNL     1      48.793  25.639  34.709  1.00  0.00     0.000 C 
BRANCH  11  12
ATOM     12  C   UNL     1      49.608  24.515  35.368  1.00  0.00     0.006 C 
BRANCH  12  13
ATOM     13  C   UNL     1      48.934  23.155  35.158  1.00  0.00     0.053 C 
BRANCH  13  14
ATOM     14  C   UNL     1      48.764  22.874  33.699  1.00  0.00     0.041 C 
ATOM     15  O   UNL     1      49.770  22.813  32.944  1.00  0.00    -0.550 OA
ATOM     16  O   UNL     1      47.491  22.730  33.163  1.00  0.00    -0.550 OA
ENDBRANCH  13  14
ENDBRANCH  12  13
ENDBRANCH  11  12
ENDBRANCH  10  11
ENDBRANCH   9  10
ENDBRANCH   8   9
ENDBRANCH   7   8
ENDBRANCH   6   7
ENDBRANCH   5   6
ENDBRANCH   4   5
ENDBRANCH   3   4
ENDBRANCH   2   3
ENDBRANCH   1   2
BRANCH   1  17
ATOM     17  C   UNL     1      56.018  26.502  37.999  1.00  0.00     0.000 C 
BRANCH  17  18
ATOM     18  C   UNL     1      57.474  26.953  37.775  1.00  0.00     0.000 C 
BRANCH  18  19
ATOM     19  C   UNL     1      58.052  27.704  38.988  1.00  0.00     0.000 C 
BRANCH  19  20
ATOM     20  C   UNL     1      58.762  29.026  38.615  1.00  0.00     0.000 C 
BRANCH  20  21
ATOM     21  C   UNL     1      58.556  29.456  37.148  1.00  0.00     0.000 C 
BRANCH  21  22
ATOM     22  C   UNL     1      57.973  30.867  36.960  1.00  0.00    -0.000 C 
BRANCH  22  23
ATOM     23  C   UNL     1      57.383  31.448  38.255  1.00  0.00    -0.000 C 
BRANCH  23  24
ATOM     24  C   UNL     1      55.911  31.841  38.058  1.00  0.00    -0.000 C 
BRANCH  24  25
ATOM     25  C   UNL     1      55.103  30.773  37.299  1.00  0.00    -0.000 C 
BRANCH  25  26
ATOM     26  C   UNL     1      54.618  29.589  38.159  1.00  0.00    -0.000 C 
BRANCH  26  27
ATOM     27  C   UNL     1      54.358  29.922  39.639  1.00  0.00    -0.000 C 
BRANCH  27  28
ATOM     28  C   UNL     1      54.903  28.852  40.596  1.00  0.00    -0.000 C 
BRANCH  28  29
ATOM     29  C   UNL     1      55.814  29.480  41.657  1.00  0.00    -0.003 C 
ATOM     30  C   UNL     1      55.603  30.989  41.742  1.00  0.00     0.004 C 
ENDBRANCH  28  29
ENDBRANCH  27  28
ENDBRANCH  26  27
ENDBRANCH  25  26
ENDBRANCH  24  25
ENDBRANCH  23  24
ENDBRANCH  22  23
ENDBRANCH  21  22
ENDBRANCH  20  21
ENDBRANCH  19  20
ENDBRANCH  18  19
ENDBRANCH  17  18
ENDBRANCH   1  17
TORSDOF 26
ENDMDL
MODEL 6
REMARK VINA RESULT:    -4.263      2.041      4.771
REMARK INTER + INTRA:         -15.936
REMARK INTER:                 -11.314
REMARK INTRA:                  -4.622
REMARK UNBOUND:                -5.193
REMARK SMILES CCCCCCCCCCCCCCCCCCCCCCCCCCCC(=O)[O-]
REMARK SMILES IDX 15 1 16 2 17 3 18 4 19 5 20 6 21 7 22 8 23 9 24 10 25 11
REMARK SMILES IDX 26 12 27 13 28 14 29 15 30 16 14 17 13 18 12 19 11 20 10 21
REMARK SMILES IDX 9 22 8 23 7 24 6 25 5 26 4 27 3 28 2 29 1 30
REMARK H PARENT
REMARK Flexibility Score: inf
ROOT
ATOM      1  C   UNL     1      55.448  28.427  38.894  1.00  0.00     0.000 C 
ENDROOT
BRANCH   1   2
ATOM      2  C   UNL     1      54.989  27.090  38.287  1.00  0.00     0.000 C 
BRANCH   2   3
ATOM      3  C   UNL     1      56.146  26.306  37.646  1.00  0.00     0.000 C 
BRANCH   3   4
ATOM      4  C   UNL     1      56.867  27.099  36.543  1.00  0.00     0.000 C 
BRANCH   4   5
ATOM      5  C   UNL     1      58.403  26.963  36.627  1.00  0.00     0.000 C 
BRANCH   5   6
ATOM      6  C   UNL     1      59.149  28.310  36.592  1.00  0.00     0.000 C 
BRANCH   6   7
ATOM      7  C   UNL     1      58.524  29.420  37.456  1.00  0.00     0.000 C 
BRANCH   7   8
ATOM      8  C   UNL     1      57.921  30.604  36.670  1.00  0.00     0.000 C 
BRANCH   8   9
ATOM      9  C   UNL     1      58.049  31.978  37.351  1.00  0.00     0.000 C 
BRANCH   9  10
ATOM     10  C   UNL     1      56.687  32.599  37.707  1.00  0.00     0.000 C 
BRANCH  10  11
ATOM     11  C   UNL     1      56.563  32.920  39.207  1.00  0.00     0.000 C 
BRANCH  11  12
ATOM     12  C   UNL     1      57.139  31.811  40.099  1.00  0.00     0.006 C 
BRANCH  12  13
ATOM     13  C   UNL     1      56.379  31.726  41.427  1.00  0.00     0.053 C 
BRANCH  13  14
ATOM     14  C   UNL     1      56.413  30.329  41.962  1.00  0.00     0.041 C 
ATOM     15  O   UNL     1      57.515  29.748  42.145  1.00  0.00    -0.550 OA
ATOM     16  O   UNL     1      55.227  29.651  42.211  1.00  0.00    -0.550 OA
ENDBRANCH  13  14
ENDBRANCH  12  13
ENDBRANCH  11  12
ENDBRANCH  10  11
ENDBRANCH   9  10
ENDBRANCH   8   9
ENDBRANCH   7   8
ENDBRANCH   6   7
ENDBRANCH   5   6
ENDBRANCH   4   5
ENDBRANCH   3   4
ENDBRANCH   2   3
ENDBRANCH   1   2
BRANCH   1  17
ATOM     17  C   UNL     1      54.523  29.595  38.521  1.00  0.00     0.000 C 
BRANCH  17  18
ATOM     18  C   UNL     1      54.494  29.867  37.005  1.00  0.00     0.000 C 
BRANCH  18  19
ATOM     19  C   UNL     1      53.095  30.270  36.504  1.00  0.00     0.000 C 
BRANCH  19  20
ATOM     20  C   UNL     1      52.517  29.304  35.444  1.00  0.00     0.000 C 
BRANCH  20  21
ATOM     21  C   UNL     1      53.587  28.507  34.671  1.00  0.00     0.000 C 
BRANCH  21  22
ATOM     22  C   UNL     1      53.113  27.153  34.114  1.00  0.00    -0.000 C 
BRANCH  22  23
ATOM     23  C   UNL     1      53.748  25.954  34.837  1.00  0.00    -0.000 C 
BRANCH  23  24
ATOM     24  C   UNL     1      53.052  24.644  34.440  1.00  0.00    -0.000 C 
BRANCH  24  25
ATOM     25  C   UNL     1      52.335  23.966  35.621  1.00  0.00    -0.000 C 
BRANCH  25  26
ATOM     26  C   UNL     1      51.210  24.799  36.267  1.00  0.00    -0.000 C 
BRANCH  26  27
ATOM     27  C   UNL     1      49.849  24.720  35.553  1.00  0.00    -0.000 C 
BRANCH  27  28
ATOM     28  C   UNL     1      49.146  26.082  35.456  1.00  0.00    -0.000 C 
BRANCH  28  29
ATOM     29  C   UNL     1      49.528  26.803  34.159  1.00  0.00    -0.003 C 
ATOM     30  C   UNL     1      49.762  25.810  33.023  1.00  0.00     0.004 C 
ENDBRANCH  28  29
ENDBRANCH  27  28
ENDBRANCH  26  27
ENDBRANCH  25  26
ENDBRANCH  24  25
ENDBRANCH  23  24
ENDBRANCH  22  23
ENDBRANCH  21  22
ENDBRANCH  20  21
ENDBRANCH  19  20
ENDBRANCH  18  19
ENDBRANCH  17  18
ENDBRANCH   1  17
TORSDOF 26
ENDMDL
MODEL 7
REMARK VINA RESULT:    -4.257      4.011      9.117
REMARK INTER + INTRA:         -15.921
REMARK INTER:                 -11.350
REMARK INTRA:                  -4.570
REMARK UNBOUND:                -5.193
REMARK SMILES CCCCCCCCCCCCCCCCCCCCCCCCCCCC(=O)[O-]
REMARK SMILES IDX 15 1 16 2 17 3 18 4 19 5 20 6 21 7 22 8 23 9 24 10 25 11
REMARK SMILES IDX 26 12 27 13 28 14 29 15 30 16 14 17 13 18 12 19 11 20 10 21
REMARK SMILES IDX 9 22 8 23 7 24 6 25 5 26 4 27 3 28 2 29 1 30
REMARK H PARENT
REMARK Flexibility Score: inf
ROOT
ATOM      1  C   UNL     1      53.502  30.396  38.114  1.00  0.00     0.000 C 
ENDROOT
BRANCH   1   2
ATOM      2  C   UNL     1      53.454  30.597  36.590  1.00  0.00     0.000 C 
BRANCH   2   3
ATOM      3  C   UNL     1      52.712  29.459  35.869  1.00  0.00     0.000 C 
BRANCH   3   4
ATOM      4  C   UNL     1      53.443  28.978  34.604  1.00  0.00     0.000 C 
BRANCH   4   5
ATOM      5  C   UNL     1      54.765  28.249  34.928  1.00  0.00     0.000 C 
BRANCH   5   6
ATOM      6  C   UNL     1      54.583  26.761  35.283  1.00  0.00     0.000 C 
BRANCH   6   7
ATOM      7  C   UNL     1      54.145  25.864  34.111  1.00  0.00     0.000 C 
BRANCH   7   8
ATOM      8  C   UNL     1      52.757  25.208  34.268  1.00  0.00     0.000 C 
BRANCH   8   9
ATOM      9  C   UNL     1      52.018  25.539  35.577  1.00  0.00     0.000 C 
BRANCH   9  10
ATOM     10  C   UNL     1      50.795  26.447  35.360  1.00  0.00     0.000 C 
BRANCH  10  11
ATOM     11  C   UNL     1      50.541  26.745  33.872  1.00  0.00     0.000 C 
BRANCH  11  12
ATOM     12  C   UNL     1      49.181  26.219  33.388  1.00  0.00     0.006 C 
BRANCH  12  13
ATOM     13  C   UNL     1      48.543  25.303  34.437  1.00  0.00     0.053 C 
BRANCH  13  14
ATOM     14  C   UNL     1      48.405  23.912  33.904  1.00  0.00     0.041 C 
ATOM     15  O   UNL     1      47.274  23.362  33.854  1.00  0.00    -0.550 OA
ATOM     16  O   UNL     1      49.533  23.205  33.510  1.00  0.00    -0.550 OA
ENDBRANCH  13  14
ENDBRANCH  12  13
ENDBRANCH  11  12
ENDBRANCH  10  11
ENDBRANCH   9  10
ENDBRANCH   8   9
ENDBRANCH   7   8
ENDBRANCH   6   7
ENDBRANCH   5   6
ENDBRANCH   4   5
ENDBRANCH   3   4
ENDBRANCH   2   3
ENDBRANCH   1   2
BRANCH   1  17
ATOM     17  C   UNL     1      54.516  29.322  38.538  1.00  0.00     0.000 C 
BRANCH  17  18
ATOM     18  C   UNL     1      54.708  29.261  40.066  1.00  0.00     0.000 C 
BRANCH  18  19
ATOM     19  C   UNL     1      56.140  28.863  40.465  1.00  0.00     0.000 C 
BRANCH  19  20
ATOM     20  C   UNL     1      56.369  28.832  41.994  1.00  0.00     0.000 C 
BRANCH  20  21
ATOM     21  C   UNL     1      57.192  30.020  42.530  1.00  0.00     0.000 C 
BRANCH  21  22
ATOM     22  C   UNL     1      58.008  30.777  41.469  1.00  0.00    -0.000 C 
BRANCH  22  23
ATOM     23  C   UNL     1      57.647  32.269  41.390  1.00  0.00    -0.000 C 
BRANCH  23  24
ATOM     24  C   UNL     1      56.433  32.492  40.476  1.00  0.00    -0.000 C 
BRANCH  24  25
ATOM     25  C   UNL     1      56.805  33.157  39.138  1.00  0.00    -0.000 C 
BRANCH  25  26
ATOM     26  C   UNL     1      56.735  32.231  37.908  1.00  0.00    -0.000 C 
BRANCH  26  27
ATOM     27  C   UNL     1      57.812  31.132  37.856  1.00  0.00    -0.000 C 
BRANCH  27  28
ATOM     28  C   UNL     1      57.643  30.187  36.659  1.00  0.00    -0.000 C 
BRANCH  28  29
ATOM     29  C   UNL     1      58.512  28.935  36.822  1.00  0.00    -0.003 C 
ATOM     30  C   UNL     1      57.699  27.766  37.372  1.00  0.00     0.004 C 
ENDBRANCH  28  29
ENDBRANCH  27  28
ENDBRANCH  26  27
ENDBRANCH  25  26
ENDBRANCH  24  25
ENDBRANCH  23  24
ENDBRANCH  22  23
ENDBRANCH  21  22
ENDBRANCH  20  21
ENDBRANCH  19  20
ENDBRANCH  18  19
ENDBRANCH  17  18
ENDBRANCH   1  17
TORSDOF 26
ENDMDL
MODEL 8
REMARK VINA RESULT:    -4.252      3.668      8.097
REMARK INTER + INTRA:         -15.907
REMARK INTER:                 -10.694
REMARK INTRA:                  -5.213
REMARK UNBOUND:                -5.193
REMARK SMILES CCCCCCCCCCCCCCCCCCCCCCCCCCCC(=O)[O-]
REMARK SMILES IDX 15 1 16 2 17 3 18 4 19 5 20 6 21 7 22 8 23 9 24 10 25 11
REMARK SMILES IDX 26 12 27 13 28 14 29 15 30 16 14 17 13 18 12 19 11 20 10 21
REMARK SMILES IDX 9 22 8 23 7 24 6 25 5 26 4 27 3 28 2 29 1 30
REMARK H PARENT
REMARK Flexibility Score: inf
ROOT
ATOM      1  C   UNL     1      58.252  29.216  36.763  1.00  0.00     0.000 C 
ENDROOT
BRANCH   1   2
ATOM      2  C   UNL     1      56.882  29.856  36.480  1.00  0.00     0.000 C 
BRANCH   2   3
ATOM      3  C   UNL     1      56.398  30.746  37.637  1.00  0.00     0.000 C 
BRANCH   3   4
ATOM      4  C   UNL     1      54.964  30.415  38.084  1.00  0.00     0.000 C 
BRANCH   4   5
ATOM      5  C   UNL     1      53.905  30.884  37.063  1.00  0.00     0.000 C 
BRANCH   5   6
ATOM      6  C   UNL     1      52.871  29.801  36.700  1.00  0.00     0.000 C 
BRANCH   6   7
ATOM      7  C   UNL     1      52.761  29.488  35.196  1.00  0.00     0.000 C 
BRANCH   7   8
ATOM      8  C   UNL     1      53.911  28.638  34.616  1.00  0.00     0.000 C 
BRANCH   8   9
ATOM      9  C   UNL     1      53.474  27.444  33.749  1.00  0.00     0.000 C 
BRANCH   9  10
ATOM     10  C   UNL     1      52.790  26.332  34.563  1.00  0.00     0.000 C 
BRANCH  10  11
ATOM     11  C   UNL     1      51.791  25.518  33.722  1.00  0.00     0.000 C 
BRANCH  11  12
ATOM     12  C   UNL     1      50.562  26.340  33.304  1.00  0.00     0.006 C 
BRANCH  12  13
ATOM     13  C   UNL     1      49.615  26.550  34.490  1.00  0.00     0.053 C 
BRANCH  13  14
ATOM     14  C   UNL     1      49.218  25.234  35.082  1.00  0.00     0.041 C 
ATOM     15  O   UNL     1      48.419  24.479  34.469  1.00  0.00    -0.550 OA
ATOM     16  O   UNL     1      49.691  24.866  36.334  1.00  0.00    -0.550 OA
ENDBRANCH  13  14
ENDBRANCH  12  13
ENDBRANCH  11  12
ENDBRANCH  10  11
ENDBRANCH   9  10
ENDBRANCH   8   9
ENDBRANCH   7   8
ENDBRANCH   6   7
ENDBRANCH   5   6
ENDBRANCH   4   5
ENDBRANCH   3   4
ENDBRANCH   2   3
ENDBRANCH   1   2
BRANCH   1  17
ATOM     17  C   UNL     1      58.296  27.724  36.395  1.00  0.00     0.000 C 
BRANCH  17  18
ATOM     18  C   UNL     1      56.973  27.227  35.782  1.00  0.00     0.000 C 
BRANCH  18  19
ATOM     19  C   UNL     1      56.275  26.173  36.660  1.00  0.00     0.000 C 
BRANCH  19  20
ATOM     20  C   UNL     1      55.137  26.753  37.533  1.00  0.00     0.000 C 
BRANCH  20  21
ATOM     21  C   UNL     1      55.546  27.030  38.994  1.00  0.00     0.000 C 
BRANCH  21  22
ATOM     22  C   UNL     1      56.720  26.183  39.513  1.00  0.00    -0.000 C 
BRANCH  22  23
ATOM     23  C   UNL     1      57.955  27.027  39.869  1.00  0.00    -0.000 C 
BRANCH  23  24
ATOM     24  C   UNL     1      57.544  28.439  40.313  1.00  0.00    -0.000 C 
BRANCH  24  25
ATOM     25  C   UNL     1      57.335  28.550  41.834  1.00  0.00    -0.000 C 
BRANCH  25  26
ATOM     26  C   UNL     1      55.865  28.675  42.283  1.00  0.00    -0.000 C 
BRANCH  26  27
ATOM     27  C   UNL     1      55.156  29.966  41.837  1.00  0.00    -0.000 C 
BRANCH  27  28
ATOM     28  C   UNL     1      55.908  31.237  42.259  1.00  0.00    -0.000 C 
BRANCH  28  29
ATOM     29  C   UNL     1      55.988  32.236  41.100  1.00  0.00    -0.003 C 
ATOM     30  C   UNL     1      57.425  32.693  40.862  1.00  0.00     0.004 C 
ENDBRANCH  28  29
ENDBRANCH  27  28
ENDBRANCH  26  27
ENDBRANCH  25  26
ENDBRANCH  24  25
ENDBRANCH  23  24
ENDBRANCH  22  23
ENDBRANCH  21  22
ENDBRANCH  20  21
ENDBRANCH  19  20
ENDBRANCH  18  19
ENDBRANCH  17  18
ENDBRANCH   1  17
TORSDOF 26
ENDMDL
MODEL 9
REMARK VINA RESULT:    -4.239      2.112      5.105
REMARK INTER + INTRA:         -15.876
REMARK INTER:                 -10.891
REMARK INTRA:                  -4.985
REMARK UNBOUND:                -5.193
REMARK SMILES CCCCCCCCCCCCCCCCCCCCCCCCCCCC(=O)[O-]
REMARK SMILES IDX 15 1 16 2 17 3 18 4 19 5 20 6 21 7 22 8 23 9 24 10 25 11
REMARK SMILES IDX 26 12 27 13 28 14 29 15 30 16 14 17 13 18 12 19 11 20 10 21
REMARK SMILES IDX 9 22 8 23 7 24 6 25 5 26 4 27 3 28 2 29 1 30
REMARK H PARENT
REMARK Flexibility Score: inf
ROOT
ATOM      1  C   UNL     1      54.492  30.773  37.364  1.00  0.00     0.000 C 
ENDROOT
BRANCH   1   2
ATOM      2  C   UNL     1      54.821  32.238  37.027  1.00  0.00     0.000 C 
BRANCH   2   3
ATOM      3  C   UNL     1      56.080  32.741  37.751  1.00  0.00     0.000 C 
BRANCH   3   4
ATOM      4  C   UNL     1      56.526  31.809  38.891  1.00  0.00     0.000 C 
BRANCH   4   5
ATOM      5  C   UNL     1      57.913  31.181  38.630  1.00  0.00     0.000 C 
BRANCH   5   6
ATOM      6  C   UNL     1      58.226  30.967  37.137  1.00  0.00     0.000 C 
BRANCH   6   7
ATOM      7  C   UNL     1      57.812  29.594  36.577  1.00  0.00     0.000 C 
BRANCH   7   8
ATOM      8  C   UNL     1      58.658  28.401  37.070  1.00  0.00     0.000 C 
BRANCH   8   9
ATOM      9  C   UNL     1      57.907  27.378  37.942  1.00  0.00     0.000 C 
BRANCH   9  10
ATOM     10  C   UNL     1      56.446  27.777  38.207  1.00  0.00     0.000 C 
BRANCH  10  11
ATOM     11  C   UNL     1      56.062  27.650  39.692  1.00  0.00     0.000 C 
BRANCH  11  12
ATOM     12  C   UNL     1      54.904  28.579  40.084  1.00  0.00     0.006 C 
BRANCH  12  13
ATOM     13  C   UNL     1      54.829  28.747  41.606  1.00  0.00     0.053 C 
BRANCH  13  14
ATOM     14  C   UNL     1      55.632  29.932  42.042  1.00  0.00     0.041 C 
ATOM     15  O   UNL     1      55.113  31.079  42.057  1.00  0.00    -0.550 OA
ATOM     16  O   UNL     1      56.969  29.777  42.383  1.00  0.00    -0.550 OA
ENDBRANCH  13  14
ENDBRANCH  12  13
ENDBRANCH  11  12
ENDBRANCH  10  11
ENDBRANCH   9  10
ENDBRANCH   8   9
ENDBRANCH   7   8
ENDBRANCH   6   7
ENDBRANCH   5   6
ENDBRANCH   4   5
ENDBRANCH   3   4
ENDBRANCH   2   3
ENDBRANCH   1   2
BRANCH   1  17
ATOM     17  C   UNL     1      53.049  30.391  37.002  1.00  0.00     0.000 C 
BRANCH  17  18
ATOM     18  C   UNL     1      52.966  29.062  36.228  1.00  0.00     0.000 C 
BRANCH  18  19
ATOM     19  C   UNL     1      52.970  29.266  34.702  1.00  0.00     0.000 C 
BRANCH  19  20
ATOM     20  C   UNL     1      53.714  28.150  33.931  1.00  0.00     0.000 C 
BRANCH  20  21
ATOM     21  C   UNL     1      55.243  28.163  34.129  1.00  0.00     0.000 C 
BRANCH  21  22
ATOM     22  C   UNL     1      55.837  26.861  34.690  1.00  0.00    -0.000 C 
BRANCH  22  23
ATOM     23  C   UNL     1      54.807  25.723  34.780  1.00  0.00    -0.000 C 
BRANCH  23  24
ATOM     24  C   UNL     1      54.716  25.177  36.212  1.00  0.00    -0.000 C 
BRANCH  24  25
ATOM     25  C   UNL     1      53.266  25.057  36.716  1.00  0.00    -0.000 C 
BRANCH  25  26
ATOM     26  C   UNL     1      52.183  25.291  35.644  1.00  0.00    -0.000 C 
BRANCH  26  27
ATOM     27  C   UNL     1      50.785  25.628  36.193  1.00  0.00    -0.000 C 
BRANCH  27  28
ATOM     28  C   UNL     1      50.071  26.717  35.379  1.00  0.00    -0.000 C 
BRANCH  28  29
ATOM     29  C   UNL     1      49.132  26.095  34.339  1.00  0.00    -0.003 C 
ATOM     30  C   UNL     1      49.685  26.262  32.926  1.00  0.00     0.004 C 
ENDBRANCH  28  29
ENDBRANCH  27  28
ENDBRANCH  26  27
ENDBRANCH  25  26
ENDBRANCH  24  25
ENDBRANCH  23  24
ENDBRANCH  22  23
ENDBRANCH  21  22
ENDBRANCH  20  21
ENDBRANCH  19  20
ENDBRANCH  18  19
ENDBRANCH  17  18
ENDBRANCH   1  17
TORSDOF 26
ENDMDL
