MODEL 1
REMARK VINA RESULT:    -3.471      0.000      0.000
REMARK INTER + INTRA:          -8.120
REMARK INTER:                  -6.312
REMARK INTRA:                  -1.808
REMARK UNBOUND:                -1.808
REMARK SMILES CCCCCCCCCCCCCCCC(=O)[O-]
REMARK SMILES IDX 9 1 10 2 11 3 12 4 13 5 14 6 15 7 16 8 17 9 18 10 8 11 7 12
REMARK SMILES IDX 6 13 5 14 4 15 3 16 2 17 1 18
REMARK H PARENT
REMARK Flexibility Score: inf
ROOT
ATOM      1  C   UNL     1      53.124  53.982  48.037  1.00  0.00     0.000 C 
ENDROOT
BRANCH   1   2
ATOM      2  C   UNL     1      54.524  54.480  48.428  1.00  0.00     0.000 C 
BRANCH   2   3
ATOM      3  C   UNL     1      55.438  54.569  47.198  1.00  0.00     0.000 C 
BRANCH   3   4
ATOM      4  C   UNL     1      54.661  54.561  45.869  1.00  0.00     0.000 C 
BRANCH   4   5
ATOM      5  C   UNL     1      55.104  55.624  44.847  1.00  0.00     0.000 C 
BRANCH   5   6
ATOM      6  C   UNL     1      54.052  56.724  44.632  1.00  0.00     0.006 C 
BRANCH   6   7
ATOM      7  C   UNL     1      52.954  56.693  45.704  1.00  0.00     0.053 C 
BRANCH   7   8
ATOM      8  C   UNL     1      51.592  56.555  45.097  1.00  0.00     0.041 C 
ATOM      9  O   UNL     1      51.468  56.280  43.875  1.00  0.00    -0.550 OA
ATOM     10  O   UNL     1      50.459  56.766  45.873  1.00  0.00    -0.550 OA
ENDBRANCH   7   8
ENDBRANCH   6   7
ENDBRANCH   5   6
ENDBRANCH   4   5
ENDBRANCH   3   4
ENDBRANCH   2   3
ENDBRANCH   1   2
BRANCH   1  11
ATOM     11  C   UNL     1      52.967  52.461  48.200  1.00  0.00     0.000 C 
BRANCH  11  12
ATOM     12  C   UNL     1      53.478  51.955  49.559  1.00  0.00    -0.000 C 
BRANCH  12  13
ATOM     13  C   UNL     1      52.337  51.701  50.559  1.00  0.00    -0.000 C 
BRANCH  13  14
ATOM     14  C   UNL     1      51.942  52.969  51.336  1.00  0.00    -0.000 C 
BRANCH  14  15
ATOM     15  C   UNL     1      53.075  53.497  52.235  1.00  0.00    -0.000 C 
BRANCH  15  16
ATOM     16  C   UNL     1      53.455  54.972  52.006  1.00  0.00    -0.000 C 
BRANCH  16  17
ATOM     17  C   UNL     1      52.322  55.791  51.371  1.00  0.00    -0.003 C 
ATOM     18  C   UNL     1      52.877  56.948  50.545  1.00  0.00     0.004 C 
ENDBRANCH  16  17
ENDBRANCH  15  16
ENDBRANCH  14  15
ENDBRANCH  13  14
ENDBRANCH  12  13
ENDBRANCH  11  12
ENDBRANCH   1  11
TORSDOF 14
ENDMDL
MODEL 2
REMARK VINA RESULT:    -3.414      2.629      5.952
REMARK INTER + INTRA:          -8.016
REMARK INTER:                  -5.970
REMARK INTRA:                  -2.046
REMARK UNBOUND:                -1.808
REMARK SMILES CCCCCCCCCCCCCCCC(=O)[O-]
REMARK SMILES IDX 9 1 10 2 11 3 12 4 13 5 14 6 15 7 16 8 17 9 18 10 8 11 7 12
REMARK SMILES IDX 6 13 5 14 4 15 3 16 2 17 1 18
REMARK H PARENT
REMARK Flexibility Score: inf
ROOT
ATOM      1  C   UNL     1      55.567  54.362  46.761  1.00  0.00     0.000 C 
ENDROOT
BRANCH   1   2
ATOM      2  C   UNL     1      54.860  53.078  47.218  1.00  0.00     0.000 C 
BRANCH   2   3
ATOM      3  C   UNL     1      53.336  53.267  47.235  1.00  0.00     0.000 C 
BRANCH   3   4
ATOM      4  C   UNL     1      52.622  52.309  48.206  1.00  0.00     0.000 C 
BRANCH   4   5
ATOM      5  C   UNL     1      53.547  51.562  49.184  1.00  0.00     0.000 C 
BRANCH   5   6
ATOM      6  C   UNL     1      52.981  51.495  50.613  1.00  0.00     0.006 C 
BRANCH   6   7
ATOM      7  C   UNL     1      51.903  52.559  50.858  1.00  0.00     0.053 C 
BRANCH   7   8
ATOM      8  C   UNL     1      52.419  53.683  51.704  1.00  0.00     0.041 C 
ATOM      9  O   UNL     1      53.043  53.439  52.770  1.00  0.00    -0.550 OA
ATOM     10  O   UNL     1      52.179  55.000  51.333  1.00  0.00    -0.550 OA
ENDBRANCH   7   8
ENDBRANCH   6   7
ENDBRANCH   5   6
ENDBRANCH   4   5
ENDBRANCH   3   4
ENDBRANCH   2   3
ENDBRANCH   1   2
BRANCH   1  11
ATOM     11  C   UNL     1      55.131  54.815  45.358  1.00  0.00     0.000 C 
BRANCH  11  12
ATOM     12  C   UNL     1      55.496  56.281  45.068  1.00  0.00    -0.000 C 
BRANCH  12  13
ATOM     13  C   UNL     1      54.257  57.161  44.835  1.00  0.00    -0.000 C 
BRANCH  13  14
ATOM     14  C   UNL     1      52.959  56.340  44.750  1.00  0.00    -0.000 C 
BRANCH  14  15
ATOM     15  C   UNL     1      52.078  56.479  46.005  1.00  0.00    -0.000 C 
BRANCH  15  16
ATOM     16  C   UNL     1      52.583  57.495  47.046  1.00  0.00    -0.000 C 
BRANCH  16  17
ATOM     17  C   UNL     1      53.081  56.831  48.338  1.00  0.00    -0.003 C 
ATOM     18  C   UNL     1      54.498  57.286  48.679  1.00  0.00     0.004 C 
ENDBRANCH  16  17
ENDBRANCH  15  16
ENDBRANCH  14  15
ENDBRANCH  13  14
ENDBRANCH  12  13
ENDBRANCH  11  12
ENDBRANCH   1  11
TORSDOF 14
ENDMDL
MODEL 3
REMARK VINA RESULT:    -3.345      3.101      6.516
REMARK INTER + INTRA:          -7.891
REMARK INTER:                  -5.711
REMARK INTRA:                  -2.179
REMARK UNBOUND:                -1.808
REMARK SMILES CCCCCCCCCCCCCCCC(=O)[O-]
REMARK SMILES IDX 9 1 10 2 11 3 12 4 13 5 14 6 15 7 16 8 17 9 18 10 8 11 7 12
REMARK SMILES IDX 6 13 5 14 4 15 3 16 2 17 1 18
REMARK H PARENT
REMARK Flexibility Score: inf
ROOT
ATOM      1  C   UNL     1      53.473  55.407  48.789  1.00  0.00     0.000 C 
ENDROOT
BRANCH   1   2
ATOM      2  C   UNL     1      53.806  54.777  50.150  1.00  0.00     0.000 C 
BRANCH   2   3
ATOM      3  C   UNL     1      52.580  54.789  51.075  1.00  0.00     0.000 C 
BRANCH   3   4
ATOM      4  C   UNL     1      52.286  53.413  51.702  1.00  0.00     0.000 C 
BRANCH   4   5
ATOM      5  C   UNL     1      51.919  52.305  50.698  1.00  0.00     0.000 C 
BRANCH   5   6
ATOM      6  C   UNL     1      52.692  50.997  50.939  1.00  0.00     0.006 C 
BRANCH   6   7
ATOM      7  C   UNL     1      53.795  50.777  49.895  1.00  0.00     0.053 C 
BRANCH   7   8
ATOM      8  C   UNL     1      55.105  51.347  50.346  1.00  0.00     0.041 C 
ATOM      9  O   UNL     1      55.329  51.527  51.572  1.00  0.00    -0.550 OA
ATOM     10  O   UNL     1      56.065  51.711  49.411  1.00  0.00    -0.550 OA
ENDBRANCH   7   8
ENDBRANCH   6   7
ENDBRANCH   5   6
ENDBRANCH   4   5
ENDBRANCH   3   4
ENDBRANCH   2   3
ENDBRANCH   1   2
BRANCH   1  11
ATOM     11  C   UNL     1      52.845  54.404  47.807  1.00  0.00     0.000 C 
BRANCH  11  12
ATOM     12  C   UNL     1      53.875  53.418  47.229  1.00  0.00    -0.000 C 
BRANCH  12  13
ATOM     13  C   UNL     1      55.152  54.122  46.739  1.00  0.00    -0.000 C 
BRANCH  13  14
ATOM     14  C   UNL     1      54.944  54.858  45.404  1.00  0.00    -0.000 C 
BRANCH  14  15
ATOM     15  C   UNL     1      55.103  56.384  45.531  1.00  0.00    -0.000 C 
BRANCH  15  16
ATOM     16  C   UNL     1      53.834  57.200  45.224  1.00  0.00    -0.000 C 
BRANCH  16  17
ATOM     17  C   UNL     1      52.797  56.411  44.411  1.00  0.00    -0.003 C 
ATOM     18  C   UNL     1      51.431  56.435  45.092  1.00  0.00     0.004 C 
ENDBRANCH  16  17
ENDBRANCH  15  16
ENDBRANCH  14  15
ENDBRANCH  13  14
ENDBRANCH  12  13
ENDBRANCH  11  12
ENDBRANCH   1  11
TORSDOF 14
ENDMDL
MODEL 4
REMARK VINA RESULT:    -3.345      1.504      2.719
REMARK INTER + INTRA:          -7.890
REMARK INTER:                  -5.354
REMARK INTRA:                  -2.537
REMARK UNBOUND:                -1.808
REMARK SMILES CCCCCCCCCCCCCCCC(=O)[O-]
REMARK SMILES IDX 9 1 10 2 11 3 12 4 13 5 14 6 15 7 16 8 17 9 18 10 8 11 7 12
REMARK SMILES IDX 6 13 5 14 4 15 3 16 2 17 1 18
REMARK H PARENT
REMARK Flexibility Score: inf
ROOT
ATOM      1  C   UNL     1      53.739  50.657  49.901  1.00  0.00     0.000 C 
ENDROOT
BRANCH   1   2
ATOM      2  C   UNL     1      54.999  51.532  49.981  1.00  0.00     0.000 C 
BRANCH   2   3
ATOM      3  C   UNL     1      55.082  52.485  48.780  1.00  0.00     0.000 C 
BRANCH   3   4
ATOM      4  C   UNL     1      53.928  52.293  47.779  1.00  0.00     0.000 C 
BRANCH   4   5
ATOM      5  C   UNL     1      52.989  53.504  47.626  1.00  0.00     0.000 C 
BRANCH   5   6
ATOM      6  C   UNL     1      53.605  54.639  46.791  1.00  0.00     0.006 C 
BRANCH   6   7
ATOM      7  C   UNL     1      52.895  55.980  47.024  1.00  0.00     0.053 C 
BRANCH   7   8
ATOM      8  C   UNL     1      52.396  56.571  45.741  1.00  0.00     0.041 C 
ATOM      9  O   UNL     1      53.188  57.179  44.973  1.00  0.00    -0.550 OA
ATOM     10  O   UNL     1      51.050  56.482  45.410  1.00  0.00    -0.550 OA
ENDBRANCH   7   8
ENDBRANCH   6   7
ENDBRANCH   5   6
ENDBRANCH   4   5
ENDBRANCH   3   4
ENDBRANCH   2   3
ENDBRANCH   1   2
BRANCH   1  11
ATOM     11  C   UNL     1      52.797  50.860  51.100  1.00  0.00     0.000 C 
BRANCH  11  12
ATOM     12  C   UNL     1      51.942  52.132  50.972  1.00  0.00    -0.000 C 
BRANCH  12  13
ATOM     13  C   UNL     1      52.494  53.298  51.810  1.00  0.00    -0.000 C 
BRANCH  13  14
ATOM     14  C   UNL     1      52.229  54.667  51.161  1.00  0.00    -0.000 C 
BRANCH  14  15
ATOM     15  C   UNL     1      53.522  55.399  50.756  1.00  0.00    -0.000 C 
BRANCH  15  16
ATOM     16  C   UNL     1      54.788  54.950  51.509  1.00  0.00    -0.000 C 
BRANCH  16  17
ATOM     17  C   UNL     1      56.081  55.489  50.882  1.00  0.00    -0.003 C 
ATOM     18  C   UNL     1      55.827  56.024  49.475  1.00  0.00     0.004 C 
ENDBRANCH  16  17
ENDBRANCH  15  16
ENDBRANCH  14  15
ENDBRANCH  13  14
ENDBRANCH  12  13
ENDBRANCH  11  12
ENDBRANCH   1  11
TORSDOF 14
ENDMDL
MODEL 5
REMARK VINA RESULT:    -3.339      1.845      3.662
REMARK INTER + INTRA:          -7.878
REMARK INTER:                  -5.476
REMARK INTRA:                  -2.402
REMARK UNBOUND:                -1.808
REMARK SMILES CCCCCCCCCCCCCCCC(=O)[O-]
REMARK SMILES IDX 9 1 10 2 11 3 12 4 13 5 14 6 15 7 16 8 17 9 18 10 8 11 7 12
REMARK SMILES IDX 6 13 5 14 4 15 3 16 2 17 1 18
REMARK H PARENT
REMARK Flexibility Score: inf
ROOT
ATOM      1  C   UNL     1      55.399  53.581  50.814  1.00  0.00     0.000 C 
ENDROOT
BRANCH   1   2
ATOM      2  C   UNL     1      56.001  53.341  49.422  1.00  0.00     0.000 C 
BRANCH   2   3
ATOM      3  C   UNL     1      55.250  52.224  48.684  1.00  0.00     0.000 C 
BRANCH   3   4
ATOM      4  C   UNL     1      54.622  52.694  47.358  1.00  0.00     0.000 C 
BRANCH   4   5
ATOM      5  C   UNL     1      53.145  53.118  47.451  1.00  0.00     0.000 C 
BRANCH   5   6
ATOM      6  C   UNL     1      52.960  54.645  47.481  1.00  0.00     0.006 C 
BRANCH   6   7
ATOM      7  C   UNL     1      53.034  55.264  46.079  1.00  0.00     0.053 C 
BRANCH   7   8
ATOM      8  C   UNL     1      52.041  56.374  45.911  1.00  0.00     0.041 C 
ATOM      9  O   UNL     1      51.246  56.370  44.935  1.00  0.00    -0.550 OA
ATOM     10  O   UNL     1      52.018  57.430  46.814  1.00  0.00    -0.550 OA
ENDBRANCH   7   8
ENDBRANCH   6   7
ENDBRANCH   5   6
ENDBRANCH   4   5
ENDBRANCH   3   4
ENDBRANCH   2   3
ENDBRANCH   1   2
BRANCH   1  11
ATOM     11  C   UNL     1      54.464  54.801  50.855  1.00  0.00     0.000 C 
BRANCH  11  12
ATOM     12  C   UNL     1      52.991  54.411  51.063  1.00  0.00    -0.000 C 
BRANCH  12  13
ATOM     13  C   UNL     1      52.835  53.026  51.713  1.00  0.00    -0.000 C 
BRANCH  13  14
ATOM     14  C   UNL     1      52.031  52.051  50.837  1.00  0.00    -0.000 C 
BRANCH  14  15
ATOM     15  C   UNL     1      52.614  50.625  50.838  1.00  0.00    -0.000 C 
BRANCH  15  16
ATOM     16  C   UNL     1      53.756  50.388  51.843  1.00  0.00    -0.000 C 
BRANCH  16  17
ATOM     17  C   UNL     1      54.996  49.751  51.201  1.00  0.00    -0.003 C 
ATOM     18  C   UNL     1      54.608  48.845  50.035  1.00  0.00     0.004 C 
ENDBRANCH  16  17
ENDBRANCH  15  16
ENDBRANCH  14  15
ENDBRANCH  13  14
ENDBRANCH  12  13
ENDBRANCH  11  12
ENDBRANCH   1  11
TORSDOF 14
ENDMDL
MODEL 6
REMARK VINA RESULT:    -3.326      1.628      3.840
REMARK INTER + INTRA:          -7.856
REMARK INTER:                  -5.325
REMARK INTRA:                  -2.531
REMARK UNBOUND:                -1.808
REMARK SMILES CCCCCCCCCCCCCCCC(=O)[O-]
REMARK SMILES IDX 9 1 10 2 11 3 12 4 13 5 14 6 15 7 16 8 17 9 18 10 8 11 7 12
REMARK SMILES IDX 6 13 5 14 4 15 3 16 2 17 1 18
REMARK H PARENT
REMARK Flexibility Score: inf
ROOT
ATOM      1  C   UNL     1      53.184  53.520  52.160  1.00  0.00     0.000 C 
ENDROOT
BRANCH   1   2
ATOM      2  C   UNL     1      53.643  54.976  51.994  1.00  0.00     0.000 C 
BRANCH   2   3
ATOM      3  C   UNL     1      52.589  55.801  51.242  1.00  0.00     0.000 C 
BRANCH   3   4
ATOM      4  C   UNL     1      53.201  56.748  50.193  1.00  0.00     0.000 C 
BRANCH   4   5
ATOM      5  C   UNL     1      54.266  56.110  49.282  1.00  0.00     0.000 C 
BRANCH   5   6
ATOM      6  C   UNL     1      54.160  56.574  47.820  1.00  0.00     0.006 C 
BRANCH   6   7
ATOM      7  C   UNL     1      52.727  56.468  47.282  1.00  0.00     0.053 C 
BRANCH   7   8
ATOM      8  C   UNL     1      52.702  55.965  45.871  1.00  0.00     0.041 C 
ATOM      9  O   UNL     1      53.719  55.410  45.378  1.00  0.00    -0.550 OA
ATOM     10  O   UNL     1      51.567  56.141  45.089  1.00  0.00    -0.550 OA
ENDBRANCH   7   8
ENDBRANCH   6   7
ENDBRANCH   5   6
ENDBRANCH   4   5
ENDBRANCH   3   4
ENDBRANCH   2   3
ENDBRANCH   1   2
BRANCH   1  11
ATOM     11  C   UNL     1      51.963  53.178  51.291  1.00  0.00     0.000 C 
BRANCH  11  12
ATOM     12  C   UNL     1      52.318  52.275  50.098  1.00  0.00    -0.000 C 
BRANCH  12  13
ATOM     13  C   UNL     1      52.303  53.035  48.760  1.00  0.00    -0.000 C 
BRANCH  13  14
ATOM     14  C   UNL     1      53.137  52.333  47.675  1.00  0.00    -0.000 C 
BRANCH  14  15
ATOM     15  C   UNL     1      54.587  52.848  47.607  1.00  0.00    -0.000 C 
BRANCH  15  16
ATOM     16  C   UNL     1      55.599  52.062  48.460  1.00  0.00    -0.000 C 
BRANCH  16  17
ATOM     17  C   UNL     1      55.963  52.776  49.768  1.00  0.00    -0.003 C 
ATOM     18  C   UNL     1      57.119  53.751  49.560  1.00  0.00     0.004 C 
ENDBRANCH  16  17
ENDBRANCH  15  16
ENDBRANCH  14  15
ENDBRANCH  13  14
ENDBRANCH  12  13
ENDBRANCH  11  12
ENDBRANCH   1  11
TORSDOF 14
ENDMDL
MODEL 7
REMARK VINA RESULT:    -3.321      2.490      5.933
REMARK INTER + INTRA:          -7.847
REMARK INTER:                  -5.839
REMARK INTRA:                  -2.009
REMARK UNBOUND:                -1.808
REMARK SMILES CCCCCCCCCCCCCCCC(=O)[O-]
REMARK SMILES IDX 9 1 10 2 11 3 12 4 13 5 14 6 15 7 16 8 17 9 18 10 8 11 7 12
REMARK SMILES IDX 6 13 5 14 4 15 3 16 2 17 1 18
REMARK H PARENT
REMARK Flexibility Score: inf
ROOT
ATOM      1  C   UNL     1      53.560  52.927  47.621  1.00  0.00     0.000 C 
ENDROOT
BRANCH   1   2
ATOM      2  C   UNL     1      52.316  52.676  48.487  1.00  0.00     0.000 C 
BRANCH   2   3
ATOM      3  C   UNL     1      52.705  52.075  49.845  1.00  0.00     0.000 C 
BRANCH   3   4
ATOM      4  C   UNL     1      51.908  52.675  51.019  1.00  0.00     0.000 C 
BRANCH   4   5
ATOM      5  C   UNL     1      52.764  53.279  52.147  1.00  0.00     0.000 C 
BRANCH   5   6
ATOM      6  C   UNL     1      53.331  54.664  51.793  1.00  0.00     0.006 C 
BRANCH   6   7
ATOM      7  C   UNL     1      52.237  55.638  51.335  1.00  0.00     0.053 C 
BRANCH   7   8
ATOM      8  C   UNL     1      52.318  56.944  52.064  1.00  0.00     0.041 C 
ATOM      9  O   UNL     1      51.739  57.963  51.604  1.00  0.00    -0.550 OA
ATOM     10  O   UNL     1      53.063  57.045  53.232  1.00  0.00    -0.550 OA
ENDBRANCH   7   8
ENDBRANCH   6   7
ENDBRANCH   5   6
ENDBRANCH   4   5
ENDBRANCH   3   4
ENDBRANCH   2   3
ENDBRANCH   1   2
BRANCH   1  11
ATOM     11  C   UNL     1      54.561  53.889  48.282  1.00  0.00     0.000 C 
BRANCH  11  12
ATOM     12  C   UNL     1      55.342  54.728  47.256  1.00  0.00    -0.000 C 
BRANCH  12  13
ATOM     13  C   UNL     1      54.893  54.455  45.811  1.00  0.00    -0.000 C 
BRANCH  13  14
ATOM     14  C   UNL     1      54.533  55.745  45.053  1.00  0.00    -0.000 C 
BRANCH  14  15
ATOM     15  C   UNL     1      53.014  55.954  44.915  1.00  0.00    -0.000 C 
BRANCH  15  16
ATOM     16  C   UNL     1      52.316  56.510  46.169  1.00  0.00    -0.000 C 
BRANCH  16  17
ATOM     17  C   UNL     1      53.086  57.666  46.822  1.00  0.00    -0.003 C 
ATOM     18  C   UNL     1      53.054  57.558  48.344  1.00  0.00     0.004 C 
ENDBRANCH  16  17
ENDBRANCH  15  16
ENDBRANCH  14  15
ENDBRANCH  13  14
ENDBRANCH  12  13
ENDBRANCH  11  12
ENDBRANCH   1  11
TORSDOF 14
ENDMDL
MODEL 8
REMARK VINA RESULT:    -3.300      2.049      2.840
REMARK INTER + INTRA:          -7.809
REMARK INTER:                  -5.358
REMARK INTRA:                  -2.451
REMARK UNBOUND:                -1.808
REMARK SMILES CCCCCCCCCCCCCCCC(=O)[O-]
REMARK SMILES IDX 9 1 10 2 11 3 12 4 13 5 14 6 15 7 16 8 17 9 18 10 8 11 7 12
REMARK SMILES IDX 6 13 5 14 4 15 3 16 2 17 1 18
REMARK H PARENT
REMARK Flexibility Score: inf
ROOT
ATOM      1  C   UNL     1      54.409  51.893  48.278  1.00  0.00     0.000 C 
ENDROOT
BRANCH   1   2
ATOM      2  C   UNL     1      53.708  52.736  47.203  1.00  0.00     0.000 C 
BRANCH   2   3
ATOM      3  C   UNL     1      54.706  53.666  46.498  1.00  0.00     0.000 C 
BRANCH   3   4
ATOM      4  C   UNL     1      54.071  54.989  46.033  1.00  0.00     0.000 C 
BRANCH   4   5
ATOM      5  C   UNL     1      52.860  55.457  46.861  1.00  0.00     0.000 C 
BRANCH   5   6
ATOM      6  C   UNL     1      52.474  56.920  46.585  1.00  0.00     0.006 C 
BRANCH   6   7
ATOM      7  C   UNL     1      53.328  57.906  47.394  1.00  0.00     0.053 C 
BRANCH   7   8
ATOM      8  C   UNL     1      52.494  58.714  48.340  1.00  0.00     0.041 C 
ATOM      9  O   UNL     1      51.622  59.506  47.897  1.00  0.00    -0.550 OA
ATOM     10  O   UNL     1      52.705  58.618  49.710  1.00  0.00    -0.550 OA
ENDBRANCH   7   8
ENDBRANCH   6   7
ENDBRANCH   5   6
ENDBRANCH   4   5
ENDBRANCH   3   4
ENDBRANCH   2   3
ENDBRANCH   1   2
BRANCH   1  11
ATOM     11  C   UNL     1      53.489  51.555  49.463  1.00  0.00     0.000 C 
BRANCH  11  12
ATOM     12  C   UNL     1      52.302  52.526  49.585  1.00  0.00    -0.000 C 
BRANCH  12  13
ATOM     13  C   UNL     1      51.898  52.780  51.048  1.00  0.00    -0.000 C 
BRANCH  13  14
ATOM     14  C   UNL     1      52.554  54.044  51.629  1.00  0.00    -0.000 C 
BRANCH  14  15
ATOM     15  C   UNL     1      52.833  55.118  50.561  1.00  0.00    -0.000 C 
BRANCH  15  16
ATOM     16  C   UNL     1      54.197  55.823  50.686  1.00  0.00    -0.000 C 
BRANCH  16  17
ATOM     17  C   UNL     1      55.266  55.227  49.759  1.00  0.00    -0.003 C 
ATOM     18  C   UNL     1      56.135  54.216  50.502  1.00  0.00     0.004 C 
ENDBRANCH  16  17
ENDBRANCH  15  16
ENDBRANCH  14  15
ENDBRANCH  13  14
ENDBRANCH  12  13
ENDBRANCH  11  12
ENDBRANCH   1  11
TORSDOF 14
ENDMDL
MODEL 9
REMARK VINA RESULT:    -3.295      1.173      3.588
REMARK INTER + INTRA:          -7.799
REMARK INTER:                  -5.798
REMARK INTRA:                  -2.001
REMARK UNBOUND:                -1.808
REMARK SMILES CCCCCCCCCCCCCCCC(=O)[O-]
REMARK SMILES IDX 9 1 10 2 11 3 12 4 13 5 14 6 15 7 16 8 17 9 18 10 8 11 7 12
REMARK SMILES IDX 6 13 5 14 4 15 3 16 2 17 1 18
REMARK H PARENT
REMARK Flexibility Score: inf
ROOT
ATOM      1  C   UNL     1      51.997  53.359  51.336  1.00  0.00     0.000 C 
ENDROOT
BRANCH   1   2
ATOM      2  C   UNL     1      52.051  52.024  50.579  1.00  0.00     0.000 C 
BRANCH   2   3
ATOM      3  C   UNL     1      53.198  52.018  49.558  1.00  0.00     0.000 C 
BRANCH   3   4
ATOM      4  C   UNL     1      52.724  52.300  48.120  1.00  0.00     0.000 C 
BRANCH   4   5
ATOM      5  C   UNL     1      53.566  53.332  47.347  1.00  0.00     0.000 C 
BRANCH   5   6
ATOM      6  C   UNL     1      52.855  54.686  47.185  1.00  0.00     0.006 C 
BRANCH   6   7
ATOM      7  C   UNL     1      53.451  55.520  46.043  1.00  0.00     0.053 C 
BRANCH   7   8
ATOM      8  C   UNL     1      52.383  56.130  45.188  1.00  0.00     0.041 C 
ATOM      9  O   UNL     1      52.624  56.425  43.987  1.00  0.00    -0.550 OA
ATOM     10  O   UNL     1      51.133  56.405  45.726  1.00  0.00    -0.550 OA
ENDBRANCH   7   8
ENDBRANCH   6   7
ENDBRANCH   5   6
ENDBRANCH   4   5
ENDBRANCH   3   4
ENDBRANCH   2   3
ENDBRANCH   1   2
BRANCH   1  11
ATOM     11  C   UNL     1      53.365  53.781  51.896  1.00  0.00     0.000 C 
BRANCH  11  12
ATOM     12  C   UNL     1      53.435  55.283  52.220  1.00  0.00    -0.000 C 
BRANCH  12  13
ATOM     13  C   UNL     1      52.263  56.071  51.611  1.00  0.00    -0.000 C 
BRANCH  13  14
ATOM     14  C   UNL     1      52.713  57.392  50.964  1.00  0.00    -0.000 C 
BRANCH  14  15
ATOM     15  C   UNL     1      53.508  57.180  49.662  1.00  0.00    -0.000 C 
BRANCH  15  16
ATOM     16  C   UNL     1      55.031  57.364  49.789  1.00  0.00    -0.000 C 
BRANCH  16  17
ATOM     17  C   UNL     1      55.828  56.397  48.903  1.00  0.00    -0.003 C 
ATOM     18  C   UNL     1      56.042  55.058  49.605  1.00  0.00     0.004 C 
ENDBRANCH  16  17
ENDBRANCH  15  16
ENDBRANCH  14  15
ENDBRANCH  13  14
ENDBRANCH  12  13
ENDBRANCH  11  12
ENDBRANCH   1  11
TORSDOF 14
ENDMDL
