MODEL 1
REMARK VINA RESULT:    33.068      0.000      0.000
REMARK INTER + INTRA:          40.317
REMARK INTER:                  39.834
REMARK INTRA:                   0.483
REMARK UNBOUND:                 0.483
REMARK SMILES O=c1c(O)c(-c2ccc(O)c(O)c2)oc2cc(O)cc(O)c12
REMARK SMILES IDX 5 1 3 2 2 3 1 4 22 5 20 6 19 7 17 8 16 9 15 10 14 11 6 12
REMARK SMILES IDX 7 13 8 14 9 15 13 16 11 17 10 18 12 20 4 22 21 24 18 26
REMARK H PARENT 10 19 12 21 4 23 21 25 18 27
REMARK Flexibility Score: inf
ROOT
ATOM      1  C   UNL     1      10.997  12.128  29.835  1.00  0.00     0.180 A 
ATOM      2  C   UNL     1      12.319  12.466  30.173  1.00  0.00     0.208 A 
ATOM      3  C   UNL     1      13.059  13.280  29.300  1.00  0.00     0.238 A 
ATOM      4  O   UNL     1      14.259  13.533  29.582  1.00  0.00    -0.285 OA
ATOM      5  C   UNL     1      12.463  13.759  28.110  1.00  0.00     0.111 A 
ATOM      6  C   UNL     1      13.106  14.623  27.173  1.00  0.00     0.134 A 
ATOM      7  C   UNL     1      12.467  14.930  25.965  1.00  0.00     0.093 A 
ATOM      8  C   UNL     1      11.182  14.456  25.689  1.00  0.00     0.123 A 
ATOM      9  C   UNL     1      10.524  13.661  26.623  1.00  0.00     0.094 A 
ATOM     10  C   UNL     1      11.149  13.308  27.822  1.00  0.00     0.146 A 
ATOM     11  O   UNL     1      10.489  12.540  28.679  1.00  0.00    -0.452 OA
ENDROOT
BRANCH   1  12
ATOM     12  C   UNL     1      10.148  11.296  30.716  1.00  0.00     0.025 A 
ATOM     13  C   UNL     1      10.538  11.078  32.047  1.00  0.00     0.016 A 
ATOM     14  C   UNL     1       9.762  10.278  32.890  1.00  0.00     0.051 A 
ATOM     15  C   UNL     1       8.594   9.672  32.410  1.00  0.00     0.157 A 
ATOM     16  C   UNL     1       8.985  10.668  30.233  1.00  0.00     0.062 A 
ATOM     17  C   UNL     1       8.207   9.863  31.079  1.00  0.00     0.158 A 
BRANCH  15  18
ATOM     18  O   UNL     1       7.816   8.875  33.249  1.00  0.00    -0.504 OA
ATOM     19  H   UNL     1       7.400   8.010  32.922  1.00  0.00     0.293 HD
ENDBRANCH  15  18
BRANCH  17  20
ATOM     20  O   UNL     1       7.052   9.247  30.600  1.00  0.00    -0.504 OA
ATOM     21  H   UNL     1       7.043   8.751  29.717  1.00  0.00     0.293 HD
ENDBRANCH  17  20
ENDBRANCH   1  12
BRANCH   2  22
ATOM     22  O   UNL     1      12.896  11.963  31.343  1.00  0.00    -0.502 OA
ATOM     23  H   UNL     1      12.638  12.299  32.264  1.00  0.00     0.293 HD
ENDBRANCH   2  22
BRANCH   6  24
ATOM     24  O   UNL     1      14.349  15.225  27.391  1.00  0.00    -0.507 OA
ATOM     25  H   UNL     1      14.953  15.028  28.174  1.00  0.00     0.293 HD
ENDBRANCH   6  24
BRANCH   8  26
ATOM     26  O   UNL     1      10.548  14.778  24.491  1.00  0.00    -0.508 OA
ATOM     27  H   UNL     1       9.787  14.218  24.126  1.00  0.00     0.293 HD
ENDBRANCH   8  26
TORSDOF 6
ENDMDL
MODEL 2
REMARK VINA RESULT:    33.373      1.439      1.744
REMARK INTER + INTRA:          40.685
REMARK INTER:                  40.862
REMARK INTRA:                  -0.177
REMARK UNBOUND:                 0.483
REMARK SMILES O=c1c(O)c(-c2ccc(O)c(O)c2)oc2cc(O)cc(O)c12
REMARK SMILES IDX 5 1 3 2 2 3 1 4 22 5 20 6 19 7 17 8 16 9 15 10 14 11 6 12
REMARK SMILES IDX 7 13 8 14 9 15 13 16 11 17 10 18 12 20 4 22 21 24 18 26
REMARK H PARENT 10 19 12 21 4 23 21 25 18 27
REMARK Flexibility Score: inf
ROOT
ATOM      1  C   UNL     1      11.577  12.665  28.796  1.00  0.00     0.180 A 
ATOM      2  C   UNL     1      12.943  12.980  28.900  1.00  0.00     0.208 A 
ATOM      3  C   UNL     1      13.510  13.867  27.972  1.00  0.00     0.238 A 
ATOM      4  O   UNL     1      14.745  14.101  28.038  1.00  0.00    -0.285 OA
ATOM      5  C   UNL     1      12.702  14.441  26.962  1.00  0.00     0.111 A 
ATOM      6  C   UNL     1      13.163  15.383  25.993  1.00  0.00     0.134 A 
ATOM      7  C   UNL     1      12.308  15.785  24.960  1.00  0.00     0.093 A 
ATOM      8  C   UNL     1      10.988  15.330  24.898  1.00  0.00     0.123 A 
ATOM      9  C   UNL     1      10.513  14.457  25.873  1.00  0.00     0.094 A 
ATOM     10  C   UNL     1      11.352  14.009  26.896  1.00  0.00     0.146 A 
ATOM     11  O   UNL     1      10.860  13.169  27.798  1.00  0.00    -0.452 OA
ENDROOT
BRANCH   1  12
ATOM     12  C   UNL     1      10.903  11.758  29.752  1.00  0.00     0.025 A 
ATOM     13  C   UNL     1       9.959  12.280  30.651  1.00  0.00     0.016 A 
ATOM     14  C   UNL     1       9.326  11.446  31.577  1.00  0.00     0.051 A 
ATOM     15  C   UNL     1       9.639  10.082  31.627  1.00  0.00     0.157 A 
ATOM     16  C   UNL     1      11.229  10.391  29.821  1.00  0.00     0.062 A 
ATOM     17  C   UNL     1      10.595   9.554  30.751  1.00  0.00     0.158 A 
BRANCH  15  18
ATOM     18  O   UNL     1       9.009   9.246  32.548  1.00  0.00    -0.504 OA
ATOM     19  H   UNL     1       8.062   8.914  32.401  1.00  0.00     0.293 HD
ENDBRANCH  15  18
BRANCH  17  20
ATOM     20  O   UNL     1      10.915   8.199  30.813  1.00  0.00    -0.504 OA
ATOM     21  H   UNL     1      10.447   7.572  31.457  1.00  0.00     0.293 HD
ENDBRANCH  17  20
ENDBRANCH   1  12
BRANCH   2  22
ATOM     22  O   UNL     1      13.727  12.384  29.892  1.00  0.00    -0.502 OA
ATOM     23  H   UNL     1      13.336  12.034  30.759  1.00  0.00     0.293 HD
ENDBRANCH   2  22
BRANCH   6  24
ATOM     24  O   UNL     1      14.431  15.970  26.017  1.00  0.00    -0.507 OA
ATOM     25  H   UNL     1      15.147  15.765  26.697  1.00  0.00     0.293 HD
ENDBRANCH   6  24
BRANCH   8  26
ATOM     26  O   UNL     1      10.140  15.747  23.875  1.00  0.00    -0.508 OA
ATOM     27  H   UNL     1       9.175  15.996  24.055  1.00  0.00     0.293 HD
ENDBRANCH   8  26
TORSDOF 6
ENDMDL
MODEL 3
REMARK VINA RESULT:    33.915      1.275      2.063
REMARK INTER + INTRA:          41.337
REMARK INTER:                  41.008
REMARK INTRA:                   0.329
REMARK UNBOUND:                 0.483
REMARK SMILES O=c1c(O)c(-c2ccc(O)c(O)c2)oc2cc(O)cc(O)c12
REMARK SMILES IDX 5 1 3 2 2 3 1 4 22 5 20 6 19 7 17 8 16 9 15 10 14 11 6 12
REMARK SMILES IDX 7 13 8 14 9 15 13 16 11 17 10 18 12 20 4 22 21 24 18 26
REMARK H PARENT 10 19 12 21 4 23 21 25 18 27
REMARK Flexibility Score: inf
ROOT
ATOM      1  C   UNL     1      10.312  11.235  30.544  1.00  0.00     0.180 A 
ATOM      2  C   UNL     1      11.429  11.581  31.324  1.00  0.00     0.208 A 
ATOM      3  C   UNL     1      12.362  12.497  30.810  1.00  0.00     0.238 A 
ATOM      4  O   UNL     1      13.387  12.760  31.491  1.00  0.00    -0.285 OA
ATOM      5  C   UNL     1      12.157  13.068  29.532  1.00  0.00     0.111 A 
ATOM      6  C   UNL     1      13.016  14.037  28.930  1.00  0.00     0.134 A 
ATOM      7  C   UNL     1      12.786  14.435  27.607  1.00  0.00     0.093 A 
ATOM      8  C   UNL     1      11.691  13.949  26.887  1.00  0.00     0.123 A 
ATOM      9  C   UNL     1      10.815  13.049  27.487  1.00  0.00     0.094 A 
ATOM     10  C   UNL     1      11.037  12.605  28.793  1.00  0.00     0.146 A 
ATOM     11  O   UNL     1      10.182  11.738  29.322  1.00  0.00    -0.452 OA
ENDROOT
BRANCH   1  12
ATOM     12  C   UNL     1       9.275  10.296  31.027  1.00  0.00     0.025 A 
ATOM     13  C   UNL     1       7.957  10.424  30.560  1.00  0.00     0.016 A 
ATOM     14  C   UNL     1       6.957   9.562  31.020  1.00  0.00     0.051 A 
ATOM     15  C   UNL     1       7.257   8.571  31.963  1.00  0.00     0.157 A 
ATOM     16  C   UNL     1       9.567   9.314  31.991  1.00  0.00     0.062 A 
ATOM     17  C   UNL     1       8.563   8.450  32.453  1.00  0.00     0.158 A 
BRANCH  15  18
ATOM     18  O   UNL     1       6.263   7.709  32.423  1.00  0.00    -0.504 OA
ATOM     19  H   UNL     1       5.282   7.886  32.241  1.00  0.00     0.293 HD
ENDBRANCH  15  18
BRANCH  17  20
ATOM     20  O   UNL     1       8.856   7.472  33.403  1.00  0.00    -0.504 OA
ATOM     21  H   UNL     1       9.076   7.714  34.362  1.00  0.00     0.293 HD
ENDBRANCH  17  20
ENDBRANCH   1  12
BRANCH   2  22
ATOM     22  O   UNL     1      11.624  10.988  32.575  1.00  0.00    -0.502 OA
ATOM     23  H   UNL     1      11.246  10.078  32.810  1.00  0.00     0.293 HD
ENDBRANCH   2  22
BRANCH   6  24
ATOM     24  O   UNL     1      14.080  14.654  29.592  1.00  0.00    -0.507 OA
ATOM     25  H   UNL     1      14.870  15.084  29.134  1.00  0.00     0.293 HD
ENDBRANCH   6  24
BRANCH   8  26
ATOM     26  O   UNL     1      11.463  14.363  25.577  1.00  0.00    -0.508 OA
ATOM     27  H   UNL     1      11.986  15.124  25.162  1.00  0.00     0.293 HD
ENDBRANCH   8  26
TORSDOF 6
ENDMDL
MODEL 4
REMARK VINA RESULT:    34.346      2.428      3.249
REMARK INTER + INTRA:          41.857
REMARK INTER:                  41.511
REMARK INTRA:                   0.346
REMARK UNBOUND:                 0.483
REMARK SMILES O=c1c(O)c(-c2ccc(O)c(O)c2)oc2cc(O)cc(O)c12
REMARK SMILES IDX 5 1 3 2 2 3 1 4 22 5 20 6 19 7 17 8 16 9 15 10 14 11 6 12
REMARK SMILES IDX 7 13 8 14 9 15 13 16 11 17 10 18 12 20 4 22 21 24 18 26
REMARK H PARENT 10 19 12 21 4 23 21 25 18 27
REMARK Flexibility Score: inf
ROOT
ATOM      1  C   UNL     1      10.692  11.383  31.101  1.00  0.00     0.180 A 
ATOM      2  C   UNL     1      11.348  10.943  29.938  1.00  0.00     0.208 A 
ATOM      3  C   UNL     1      12.359  11.744  29.382  1.00  0.00     0.238 A 
ATOM      4  O   UNL     1      12.903  11.370  28.310  1.00  0.00    -0.285 OA
ATOM      5  C   UNL     1      12.712  12.964  30.004  1.00  0.00     0.111 A 
ATOM      6  C   UNL     1      13.749  13.835  29.550  1.00  0.00     0.134 A 
ATOM      7  C   UNL     1      13.925  15.079  30.167  1.00  0.00     0.093 A 
ATOM      8  C   UNL     1      13.145  15.457  31.263  1.00  0.00     0.123 A 
ATOM      9  C   UNL     1      12.171  14.589  31.750  1.00  0.00     0.094 A 
ATOM     10  C   UNL     1      11.947  13.356  31.133  1.00  0.00     0.146 A 
ATOM     11  O   UNL     1      11.002  12.564  31.623  1.00  0.00    -0.452 OA
ENDROOT
BRANCH   1  12
ATOM     12  C   UNL     1       9.635  10.583  31.758  1.00  0.00     0.025 A 
ATOM     13  C   UNL     1       9.422  10.721  33.140  1.00  0.00     0.016 A 
ATOM     14  C   UNL     1       8.444   9.960  33.785  1.00  0.00     0.051 A 
ATOM     15  C   UNL     1       7.675   9.040  33.062  1.00  0.00     0.157 A 
ATOM     16  C   UNL     1       8.874   9.642  31.041  1.00  0.00     0.062 A 
ATOM     17  C   UNL     1       7.893   8.877  31.689  1.00  0.00     0.158 A 
BRANCH  15  18
ATOM     18  O   UNL     1       6.696   8.280  33.702  1.00  0.00    -0.504 OA
ATOM     19  H   UNL     1       6.191   7.548  33.215  1.00  0.00     0.293 HD
ENDBRANCH  15  18
BRANCH  17  20
ATOM     20  O   UNL     1       7.136   7.949  30.974  1.00  0.00    -0.504 OA
ATOM     21  H   UNL     1       6.629   8.211  30.137  1.00  0.00     0.293 HD
ENDBRANCH  17  20
ENDBRANCH   1  12
BRANCH   2  22
ATOM     22  O   UNL     1      10.967   9.745  29.327  1.00  0.00    -0.502 OA
ATOM     23  H   UNL     1      11.337   8.846  29.615  1.00  0.00     0.293 HD
ENDBRANCH   2  22
BRANCH   6  24
ATOM     24  O   UNL     1      14.643  13.515  28.525  1.00  0.00    -0.507 OA
ATOM     25  H   UNL     1      14.563  12.710  27.922  1.00  0.00     0.293 HD
ENDBRANCH   6  24
BRANCH   8  26
ATOM     26  O   UNL     1      13.337  16.691  31.880  1.00  0.00    -0.508 OA
ATOM     27  H   UNL     1      12.559  17.232  32.237  1.00  0.00     0.293 HD
ENDBRANCH   8  26
TORSDOF 6
ENDMDL
MODEL 5
REMARK VINA RESULT:    34.894      2.129      3.494
REMARK INTER + INTRA:          42.516
REMARK INTER:                  42.178
REMARK INTRA:                   0.338
REMARK UNBOUND:                 0.483
REMARK SMILES O=c1c(O)c(-c2ccc(O)c(O)c2)oc2cc(O)cc(O)c12
REMARK SMILES IDX 5 1 3 2 2 3 1 4 22 5 20 6 19 7 17 8 16 9 15 10 14 11 6 12
REMARK SMILES IDX 7 13 8 14 9 15 13 16 11 17 10 18 12 20 4 22 21 24 18 26
REMARK H PARENT 10 19 12 21 4 23 21 25 18 27
REMARK Flexibility Score: inf
ROOT
ATOM      1  C   UNL     1      10.401  10.812  30.791  1.00  0.00     0.180 A 
ATOM      2  C   UNL     1       9.937  12.066  30.357  1.00  0.00     0.208 A 
ATOM      3  C   UNL     1      10.819  12.919  29.675  1.00  0.00     0.238 A 
ATOM      4  O   UNL     1      10.413  14.062  29.338  1.00  0.00    -0.285 OA
ATOM      5  C   UNL     1      12.147  12.502  29.421  1.00  0.00     0.111 A 
ATOM      6  C   UNL     1      13.114  13.270  28.703  1.00  0.00     0.134 A 
ATOM      7  C   UNL     1      14.436  12.814  28.624  1.00  0.00     0.093 A 
ATOM      8  C   UNL     1      14.811  11.588  29.181  1.00  0.00     0.123 A 
ATOM      9  C   UNL     1      13.861  10.806  29.831  1.00  0.00     0.094 A 
ATOM     10  C   UNL     1      12.542  11.249  29.957  1.00  0.00     0.146 A 
ATOM     11  O   UNL     1      11.671  10.476  30.595  1.00  0.00    -0.452 OA
ENDROOT
BRANCH   1  12
ATOM     12  C   UNL     1       9.524   9.848  31.494  1.00  0.00     0.025 A 
ATOM     13  C   UNL     1       9.778   8.472  31.378  1.00  0.00     0.016 A 
ATOM     14  C   UNL     1       8.950   7.544  32.015  1.00  0.00     0.051 A 
ATOM     15  C   UNL     1       7.849   7.977  32.765  1.00  0.00     0.157 A 
ATOM     16  C   UNL     1       8.405  10.277  32.230  1.00  0.00     0.062 A 
ATOM     17  C   UNL     1       7.573   9.345  32.868  1.00  0.00     0.158 A 
BRANCH  15  18
ATOM     18  O   UNL     1       7.022   7.054  33.403  1.00  0.00    -0.504 OA
ATOM     19  H   UNL     1       7.305   6.593  34.261  1.00  0.00     0.293 HD
ENDBRANCH  15  18
BRANCH  17  20
ATOM     20  O   UNL     1       6.468   9.774  33.603  1.00  0.00    -0.504 OA
ATOM     21  H   UNL     1       5.844  10.491  33.253  1.00  0.00     0.293 HD
ENDBRANCH  17  20
ENDBRANCH   1  12
BRANCH   2  22
ATOM     22  O   UNL     1       8.628  12.466  30.638  1.00  0.00    -0.502 OA
ATOM     23  H   UNL     1       8.344  12.793  31.554  1.00  0.00     0.293 HD
ENDBRANCH   2  22
BRANCH   6  24
ATOM     24  O   UNL     1      12.823  14.460  28.032  1.00  0.00    -0.507 OA
ATOM     25  H   UNL     1      12.091  15.103  28.293  1.00  0.00     0.293 HD
ENDBRANCH   6  24
BRANCH   8  26
ATOM     26  O   UNL     1      16.124  11.137  29.084  1.00  0.00    -0.508 OA
ATOM     27  H   UNL     1      16.749  11.146  29.881  1.00  0.00     0.293 HD
ENDBRANCH   8  26
TORSDOF 6
ENDMDL
