MODEL 1
REMARK VINA RESULT:    -2.758      0.000      0.000
REMARK INTER + INTRA:          -3.395
REMARK INTER:                  -3.241
REMARK INTRA:                  -0.154
REMARK UNBOUND:                -0.154
REMARK SMILES O=C([O-])C=Cc1ccc(O)c(O)c1
REMARK SMILES IDX 6 1 13 2 7 3 11 4 8 5 9 6 5 7 4 8 2 9 1 10 3 11 12 12 10 14
REMARK H PARENT 12 13 10 15
REMARK Flexibility Score: inf
ROOT
ATOM      1  C   UNL     1       7.770  20.102  12.837  1.00  0.00    -0.022 A 
ATOM      2  C   UNL     1       8.089  20.359  14.186  1.00  0.00     0.058 A 
ATOM      3  C   UNL     1       6.429  19.876  12.489  1.00  0.00     0.012 A 
ATOM      4  C   UNL     1       7.087  20.363  15.168  1.00  0.00     0.157 A 
ATOM      5  C   UNL     1       5.430  19.878  13.467  1.00  0.00     0.051 A 
ATOM      6  C   UNL     1       5.752  20.118  14.805  1.00  0.00     0.157 A 
ENDROOT
BRANCH   1   7
ATOM      7  C   UNL     1       8.793  20.098  11.762  1.00  0.00     0.010 C 
ATOM      8  C   UNL     1       8.508  19.943  10.462  1.00  0.00     0.025 C 
BRANCH   8   9
ATOM      9  C   UNL     1       9.549  19.957   9.421  1.00  0.00     0.064 C 
ATOM     10  O   UNL     1      10.770  20.036   9.722  1.00  0.00    -0.545 OA
ATOM     11  O   UNL     1       9.180  19.880   8.085  1.00  0.00    -0.545 OA
ENDBRANCH   8   9
ENDBRANCH   1   7
BRANCH   4  12
ATOM     12  O   UNL     1       7.411  20.615  16.500  1.00  0.00    -0.504 OA
ATOM     13  H   UNL     1       7.698  21.536  16.812  1.00  0.00     0.293 HD
ENDBRANCH   4  12
BRANCH   6  14
ATOM     14  O   UNL     1       4.735  20.112  15.759  1.00  0.00    -0.504 OA
ATOM     15  H   UNL     1       4.316  20.967  16.104  1.00  0.00     0.293 HD
ENDBRANCH   6  14
TORSDOF 4
ENDMDL
MODEL 2
REMARK VINA RESULT:    -2.723     15.678     16.922
REMARK INTER + INTRA:          -3.354
REMARK INTER:                  -3.217
REMARK INTRA:                  -0.137
REMARK UNBOUND:                -0.154
REMARK SMILES O=C([O-])C=Cc1ccc(O)c(O)c1
REMARK SMILES IDX 6 1 13 2 7 3 11 4 8 5 9 6 5 7 4 8 2 9 1 10 3 11 12 12 10 14
REMARK H PARENT 12 13 10 15
REMARK Flexibility Score: inf
ROOT
ATOM      1  C   UNL     1      -7.883  20.593  19.383  1.00  0.00    -0.022 A 
ATOM      2  C   UNL     1      -8.654  21.309  20.323  1.00  0.00     0.058 A 
ATOM      3  C   UNL     1      -6.763  19.875  19.831  1.00  0.00     0.012 A 
ATOM      4  C   UNL     1      -8.292  21.323  21.678  1.00  0.00     0.157 A 
ATOM      5  C   UNL     1      -6.402  19.891  21.182  1.00  0.00     0.051 A 
ATOM      6  C   UNL     1      -7.159  20.614  22.108  1.00  0.00     0.157 A 
ENDROOT
BRANCH   1   7
ATOM      7  C   UNL     1      -8.231  20.539  17.942  1.00  0.00     0.010 C 
ATOM      8  C   UNL     1      -7.402  20.919  16.960  1.00  0.00     0.025 C 
BRANCH   8   9
ATOM      9  C   UNL     1      -7.778  20.839  15.539  1.00  0.00     0.064 C 
ATOM     10  O   UNL     1      -6.988  21.218  14.633  1.00  0.00    -0.545 OA
ATOM     11  O   UNL     1      -9.025  20.337  15.189  1.00  0.00    -0.545 OA
ENDBRANCH   8   9
ENDBRANCH   1   7
BRANCH   4  12
ATOM     12  O   UNL     1      -9.059  22.035  22.600  1.00  0.00    -0.504 OA
ATOM     13  H   UNL     1      -9.212  23.033  22.506  1.00  0.00     0.293 HD
ENDBRANCH   4  12
BRANCH   6  14
ATOM     14  O   UNL     1      -6.773  20.612  23.447  1.00  0.00    -0.504 OA
ATOM     15  H   UNL     1      -6.230  19.858  23.850  1.00  0.00     0.293 HD
ENDBRANCH   6  14
TORSDOF 4
ENDMDL
MODEL 3
REMARK VINA RESULT:    -2.657     14.837     16.605
REMARK INTER + INTRA:          -3.277
REMARK INTER:                  -3.153
REMARK INTRA:                  -0.124
REMARK UNBOUND:                -0.154
REMARK SMILES O=C([O-])C=Cc1ccc(O)c(O)c1
REMARK SMILES IDX 6 1 13 2 7 3 11 4 8 5 9 6 5 7 4 8 2 9 1 10 3 11 12 12 10 14
REMARK H PARENT 12 13 10 15
REMARK Flexibility Score: inf
ROOT
ATOM      1  C   UNL     1      -7.970  21.328  18.940  1.00  0.00    -0.022 A 
ATOM      2  C   UNL     1      -7.018  20.626  19.708  1.00  0.00     0.058 A 
ATOM      3  C   UNL     1      -9.014  21.995  19.600  1.00  0.00     0.012 A 
ATOM      4  C   UNL     1      -7.128  20.573  21.106  1.00  0.00     0.157 A 
ATOM      5  C   UNL     1      -9.125  21.942  20.992  1.00  0.00     0.051 A 
ATOM      6  C   UNL     1      -8.189  21.232  21.749  1.00  0.00     0.157 A 
ENDROOT
BRANCH   1   7
ATOM      7  C   UNL     1      -7.889  21.421  17.461  1.00  0.00     0.010 C 
ATOM      8  C   UNL     1      -7.071  20.671  16.711  1.00  0.00     0.025 C 
BRANCH   8   9
ATOM      9  C   UNL     1      -7.028  20.783  15.243  1.00  0.00     0.064 C 
ATOM     10  O   UNL     1      -8.086  20.853  14.563  1.00  0.00    -0.545 OA
ATOM     11  O   UNL     1      -5.799  20.814  14.597  1.00  0.00    -0.545 OA
ENDBRANCH   8   9
ENDBRANCH   1   7
BRANCH   4  12
ATOM     12  O   UNL     1      -6.184  19.875  21.857  1.00  0.00    -0.504 OA
ATOM     13  H   UNL     1      -6.449  19.104  22.460  1.00  0.00     0.293 HD
ENDBRANCH   4  12
BRANCH   6  14
ATOM     14  O   UNL     1      -8.326  21.195  23.136  1.00  0.00    -0.504 OA
ATOM     15  H   UNL     1      -8.470  20.328  23.640  1.00  0.00     0.293 HD
ENDBRANCH   6  14
TORSDOF 4
ENDMDL
MODEL 4
REMARK VINA RESULT:    -2.625     10.936     14.560
REMARK INTER + INTRA:          -3.239
REMARK INTER:                  -3.117
REMARK INTRA:                  -0.122
REMARK UNBOUND:                -0.154
REMARK SMILES O=C([O-])C=Cc1ccc(O)c(O)c1
REMARK SMILES IDX 6 1 13 2 7 3 11 4 8 5 9 6 5 7 4 8 2 9 1 10 3 11 12 12 10 14
REMARK H PARENT 12 13 10 15
REMARK Flexibility Score: inf
ROOT
ATOM      1  C   UNL     1      -4.673  19.889  17.983  1.00  0.00    -0.022 A 
ATOM      2  C   UNL     1      -3.484  19.879  18.742  1.00  0.00     0.058 A 
ATOM      3  C   UNL     1      -4.583  19.875  16.582  1.00  0.00     0.012 A 
ATOM      4  C   UNL     1      -2.233  19.882  18.108  1.00  0.00     0.157 A 
ATOM      5  C   UNL     1      -3.336  19.880  15.950  1.00  0.00     0.051 A 
ATOM      6  C   UNL     1      -2.160  19.886  16.705  1.00  0.00     0.157 A 
ENDROOT
BRANCH   1   7
ATOM      7  C   UNL     1      -6.019  19.875  18.608  1.00  0.00     0.010 C 
ATOM      8  C   UNL     1      -6.411  20.741  19.552  1.00  0.00     0.025 C 
BRANCH   8   9
ATOM      9  C   UNL     1      -7.760  20.704  20.141  1.00  0.00     0.064 C 
ATOM     10  O   UNL     1      -8.014  21.293  21.225  1.00  0.00    -0.545 OA
ATOM     11  O   UNL     1      -8.771  20.009  19.490  1.00  0.00    -0.545 OA
ENDBRANCH   8   9
ENDBRANCH   1   7
BRANCH   4  12
ATOM     12  O   UNL     1      -1.064  19.875  18.865  1.00  0.00    -0.504 OA
ATOM     13  H   UNL     1      -0.639  20.734  19.195  1.00  0.00     0.293 HD
ENDBRANCH   4  12
BRANCH   6  14
ATOM     14  O   UNL     1      -0.932  19.892  16.046  1.00  0.00    -0.504 OA
ATOM     15  H   UNL     1      -0.379  20.735  15.946  1.00  0.00     0.293 HD
ENDBRANCH   6  14
TORSDOF 4
ENDMDL
MODEL 5
REMARK VINA RESULT:    -2.579     14.583     16.744
REMARK INTER + INTRA:          -3.185
REMARK INTER:                  -3.062
REMARK INTRA:                  -0.123
REMARK UNBOUND:                -0.154
REMARK SMILES O=C([O-])C=Cc1ccc(O)c(O)c1
REMARK SMILES IDX 6 1 13 2 7 3 11 4 8 5 9 6 5 7 4 8 2 9 1 10 3 11 12 12 10 14
REMARK H PARENT 12 13 10 15
REMARK Flexibility Score: inf
ROOT
ATOM      1  C   UNL     1      -7.932  20.971  18.558  1.00  0.00    -0.022 A 
ATOM      2  C   UNL     1      -8.335  22.300  18.805  1.00  0.00     0.058 A 
ATOM      3  C   UNL     1      -7.959  20.047  19.614  1.00  0.00     0.012 A 
ATOM      4  C   UNL     1      -8.731  22.697  20.091  1.00  0.00     0.157 A 
ATOM      5  C   UNL     1      -8.352  20.442  20.896  1.00  0.00     0.051 A 
ATOM      6  C   UNL     1      -8.735  21.764  21.141  1.00  0.00     0.157 A 
ENDROOT
BRANCH   1   7
ATOM      7  C   UNL     1      -7.516  20.501  17.213  1.00  0.00     0.010 C 
ATOM      8  C   UNL     1      -7.254  21.320  16.186  1.00  0.00     0.025 C 
BRANCH   8   9
ATOM      9  C   UNL     1      -6.831  20.818  14.868  1.00  0.00     0.064 C 
ATOM     10  O   UNL     1      -7.630  20.192  14.122  1.00  0.00    -0.545 OA
ATOM     11  O   UNL     1      -5.528  21.038  14.439  1.00  0.00    -0.545 OA
ENDBRANCH   8   9
ENDBRANCH   1   7
BRANCH   4  12
ATOM     12  O   UNL     1      -9.125  24.013  20.328  1.00  0.00    -0.504 OA
ATOM     13  H   UNL     1      -8.749  24.550  21.101  1.00  0.00     0.293 HD
ENDBRANCH   4  12
BRANCH   6  14
ATOM     14  O   UNL     1      -9.121  22.129  22.430  1.00  0.00    -0.504 OA
ATOM     15  H   UNL     1      -9.646  21.506  23.032  1.00  0.00     0.293 HD
ENDBRANCH   6  14
TORSDOF 4
ENDMDL
MODEL 6
REMARK VINA RESULT:    -2.114      1.247      5.792
REMARK INTER + INTRA:          -2.639
REMARK INTER:                  -2.513
REMARK INTRA:                  -0.126
REMARK UNBOUND:                -0.154
REMARK SMILES O=C([O-])C=Cc1ccc(O)c(O)c1
REMARK SMILES IDX 6 1 13 2 7 3 11 4 8 5 9 6 5 7 4 8 2 9 1 10 3 11 12 12 10 14
REMARK H PARENT 12 13 10 15
REMARK Flexibility Score: inf
ROOT
ATOM      1  C   UNL     1       7.390  20.004  12.860  1.00  0.00    -0.022 A 
ATOM      2  C   UNL     1       8.780  20.131  13.060  1.00  0.00     0.058 A 
ATOM      3  C   UNL     1       6.903  19.877  11.550  1.00  0.00     0.012 A 
ATOM      4  C   UNL     1       9.659  20.157  11.967  1.00  0.00     0.157 A 
ATOM      5  C   UNL     1       7.778  19.904  10.460  1.00  0.00     0.051 A 
ATOM      6  C   UNL     1       9.153  20.046  10.661  1.00  0.00     0.157 A 
ENDROOT
BRANCH   1   7
ATOM      7  C   UNL     1       6.423  19.961  13.985  1.00  0.00     0.010 C 
ATOM      8  C   UNL     1       6.092  21.029  14.724  1.00  0.00     0.025 C 
BRANCH   8   9
ATOM      9  C   UNL     1       5.118  20.950  15.826  1.00  0.00     0.064 C 
ATOM     10  O   UNL     1       4.214  20.072  15.836  1.00  0.00    -0.545 OA
ATOM     11  O   UNL     1       5.196  21.860  16.872  1.00  0.00    -0.545 OA
ENDBRANCH   8   9
ENDBRANCH   1   7
BRANCH   4  12
ATOM     12  O   UNL     1      11.031  20.285  12.174  1.00  0.00    -0.504 OA
ATOM     13  H   UNL     1      11.615  19.483  12.379  1.00  0.00     0.293 HD
ENDBRANCH   4  12
BRANCH   6  14
ATOM     14  O   UNL     1      10.001  20.071   9.554  1.00  0.00    -0.504 OA
ATOM     15  H   UNL     1      10.247  20.933   9.084  1.00  0.00     0.293 HD
ENDBRANCH   6  14
TORSDOF 4
ENDMDL
MODEL 7
REMARK VINA RESULT:    -0.634      3.383      6.828
REMARK INTER + INTRA:          -0.898
REMARK INTER:                  -0.772
REMARK INTRA:                  -0.127
REMARK UNBOUND:                -0.154
REMARK SMILES O=C([O-])C=Cc1ccc(O)c(O)c1
REMARK SMILES IDX 6 1 13 2 7 3 11 4 8 5 9 6 5 7 4 8 2 9 1 10 3 11 12 12 10 14
REMARK H PARENT 12 13 10 15
REMARK Flexibility Score: inf
ROOT
ATOM      1  C   UNL     1      10.807  22.533  11.560  1.00  0.00    -0.022 A 
ATOM      2  C   UNL     1      10.911  21.866  10.322  1.00  0.00     0.058 A 
ATOM      3  C   UNL     1      10.788  23.936  11.574  1.00  0.00     0.012 A 
ATOM      4  C   UNL     1      11.019  22.593   9.127  1.00  0.00     0.157 A 
ATOM      5  C   UNL     1      10.898  24.661  10.384  1.00  0.00     0.051 A 
ATOM      6  C   UNL     1      11.016  23.997   9.160  1.00  0.00     0.157 A 
ENDROOT
BRANCH   1   7
ATOM      7  C   UNL     1      10.680  21.808  12.849  1.00  0.00     0.010 C 
ATOM      8  C   UNL     1       9.598  21.100  13.201  1.00  0.00     0.025 C 
BRANCH   8   9
ATOM      9  C   UNL     1       9.512  20.384  14.485  1.00  0.00     0.064 C 
ATOM     10  O   UNL     1      10.541  19.917  15.041  1.00  0.00    -0.545 OA
ATOM     11  O   UNL     1       8.274  20.220  15.094  1.00  0.00    -0.545 OA
ENDBRANCH   8   9
ENDBRANCH   1   7
BRANCH   4  12
ATOM     12  O   UNL     1      11.124  21.925   7.908  1.00  0.00    -0.504 OA
ATOM     13  H   UNL     1      11.870  21.264   7.726  1.00  0.00     0.293 HD
ENDBRANCH   4  12
BRANCH   6  14
ATOM     14  O   UNL     1      11.125  24.747   7.989  1.00  0.00    -0.504 OA
ATOM     15  H   UNL     1      11.055  24.324   7.072  1.00  0.00     0.293 HD
ENDBRANCH   6  14
TORSDOF 4
ENDMDL
