MODEL 1
REMARK VINA RESULT:    -5.293      0.000      0.000
REMARK INTER + INTRA:         -12.233
REMARK INTER:                 -10.243
REMARK INTRA:                  -1.990
REMARK UNBOUND:                -1.990
REMARK SMILES CCCCCCCCCCCCCCCCCC(=O)[O-]
REMARK SMILES IDX 10 1 11 2 12 3 13 4 14 5 15 6 16 7 17 8 18 9 19 10 20 11
REMARK SMILES IDX 9 12 8 13 7 14 6 15 5 16 4 17 3 18 2 19 1 20
REMARK H PARENT
REMARK Flexibility Score: inf
ROOT
ATOM      1  C   UNL     1       0.196  45.501   8.077  1.00  0.00     0.000 C 
ENDROOT
BRANCH   1   2
ATOM      2  C   UNL     1       0.195  45.494   9.615  1.00  0.00     0.000 C 
BRANCH   2   3
ATOM      3  C   UNL     1       1.081  44.385  10.204  1.00  0.00     0.000 C 
BRANCH   3   4
ATOM      4  C   UNL     1       1.932  43.675   9.137  1.00  0.00     0.000 C 
BRANCH   4   5
ATOM      5  C   UNL     1       2.990  42.742   9.761  1.00  0.00     0.000 C 
BRANCH   5   6
ATOM      6  C   UNL     1       3.647  43.316  11.029  1.00  0.00     0.000 C 
BRANCH   6   7
ATOM      7  C   UNL     1       3.959  42.274  12.118  1.00  0.00     0.006 C 
BRANCH   7   8
ATOM      8  C   UNL     1       3.023  41.060  12.062  1.00  0.00     0.053 C 
BRANCH   8   9
ATOM      9  C   UNL     1       3.646  39.889  12.756  1.00  0.00     0.041 C 
ATOM     10  O   UNL     1       3.027  38.798  12.844  1.00  0.00    -0.550 OA
ATOM     11  O   UNL     1       4.927  39.994  13.278  1.00  0.00    -0.550 OA
ENDBRANCH   8   9
ENDBRANCH   7   8
ENDBRANCH   6   7
ENDBRANCH   5   6
ENDBRANCH   4   5
ENDBRANCH   3   4
ENDBRANCH   2   3
ENDBRANCH   1   2
BRANCH   1  12
ATOM     12  C   UNL     1       0.257  46.921   7.484  1.00  0.00     0.000 C 
BRANCH  12  13
ATOM     13  C   UNL     1       0.188  48.061   8.517  1.00  0.00    -0.000 C 
BRANCH  13  14
ATOM     14  C   UNL     1       1.562  48.687   8.812  1.00  0.00    -0.000 C 
BRANCH  14  15
ATOM     15  C   UNL     1       2.478  48.700   7.578  1.00  0.00    -0.000 C 
BRANCH  15  16
ATOM     16  C   UNL     1       3.760  47.873   7.781  1.00  0.00    -0.000 C 
BRANCH  16  17
ATOM     17  C   UNL     1       3.656  46.900   8.968  1.00  0.00    -0.000 C 
BRANCH  17  18
ATOM     18  C   UNL     1       5.020  46.618   9.620  1.00  0.00    -0.000 C 
BRANCH  18  19
ATOM     19  C   UNL     1       5.934  47.853   9.627  1.00  0.00    -0.003 C 
ATOM     20  C   UNL     1       7.408  47.502   9.425  1.00  0.00     0.004 C 
ENDBRANCH  18  19
ENDBRANCH  17  18
ENDBRANCH  16  17
ENDBRANCH  15  16
ENDBRANCH  14  15
ENDBRANCH  13  14
ENDBRANCH  12  13
ENDBRANCH   1  12
TORSDOF 16
ENDMDL
MODEL 2
REMARK VINA RESULT:    -5.244      3.758      6.967
REMARK INTER + INTRA:         -12.138
REMARK INTER:                  -9.761
REMARK INTRA:                  -2.377
REMARK UNBOUND:                -1.990
REMARK SMILES CCCCCCCCCCCCCCCCCC(=O)[O-]
REMARK SMILES IDX 10 1 11 2 12 3 13 4 14 5 15 6 16 7 17 8 18 9 19 10 20 11
REMARK SMILES IDX 9 12 8 13 7 14 6 15 5 16 4 17 3 18 2 19 1 20
REMARK H PARENT
REMARK Flexibility Score: inf
ROOT
ATOM      1  C   UNL     1       3.825  43.444   8.936  1.00  0.00     0.000 C 
ENDROOT
BRANCH   1   2
ATOM      2  C   UNL     1       2.347  43.088   8.703  1.00  0.00     0.000 C 
BRANCH   2   3
ATOM      3  C   UNL     1       1.386  44.175   9.209  1.00  0.00     0.000 C 
BRANCH   3   4
ATOM      4  C   UNL     1       0.498  44.748   8.091  1.00  0.00     0.000 C 
BRANCH   4   5
ATOM      5  C   UNL     1       0.241  46.259   8.268  1.00  0.00     0.000 C 
BRANCH   5   6
ATOM      6  C   UNL     1       0.658  46.798   9.648  1.00  0.00     0.000 C 
BRANCH   6   7
ATOM      7  C   UNL     1       1.736  47.896   9.608  1.00  0.00     0.006 C 
BRANCH   7   8
ATOM      8  C   UNL     1       1.410  49.011   8.605  1.00  0.00     0.053 C 
BRANCH   8   9
ATOM      9  C   UNL     1       2.514  49.150   7.604  1.00  0.00     0.041 C 
ATOM     10  O   UNL     1       2.680  50.232   6.985  1.00  0.00    -0.550 OA
ATOM     11  O   UNL     1       3.382  48.092   7.377  1.00  0.00    -0.550 OA
ENDBRANCH   8   9
ENDBRANCH   7   8
ENDBRANCH   6   7
ENDBRANCH   5   6
ENDBRANCH   4   5
ENDBRANCH   3   4
ENDBRANCH   2   3
ENDBRANCH   1   2
BRANCH   1  12
ATOM     12  C   UNL     1       4.058  44.957   9.101  1.00  0.00     0.000 C 
BRANCH  12  13
ATOM     13  C   UNL     1       4.859  45.361  10.353  1.00  0.00    -0.000 C 
BRANCH  13  14
ATOM     14  C   UNL     1       3.980  45.505  11.607  1.00  0.00    -0.000 C 
BRANCH  14  15
ATOM     15  C   UNL     1       3.809  44.177  12.360  1.00  0.00    -0.000 C 
BRANCH  15  16
ATOM     16  C   UNL     1       2.338  43.736  12.459  1.00  0.00    -0.000 C 
BRANCH  16  17
ATOM     17  C   UNL     1       2.148  42.236  12.176  1.00  0.00    -0.000 C 
BRANCH  17  18
ATOM     18  C   UNL     1       3.485  41.494  12.011  1.00  0.00    -0.000 C 
BRANCH  18  19
ATOM     19  C   UNL     1       3.486  40.123  12.706  1.00  0.00    -0.003 C 
ATOM     20  C   UNL     1       4.845  39.762  13.305  1.00  0.00     0.004 C 
ENDBRANCH  18  19
ENDBRANCH  17  18
ENDBRANCH  16  17
ENDBRANCH  15  16
ENDBRANCH  14  15
ENDBRANCH  13  14
ENDBRANCH  12  13
ENDBRANCH   1  12
TORSDOF 16
ENDMDL
MODEL 3
REMARK VINA RESULT:    -5.234      0.935      1.408
REMARK INTER + INTRA:         -12.119
REMARK INTER:                 -10.201
REMARK INTRA:                  -1.918
REMARK UNBOUND:                -1.990
REMARK SMILES CCCCCCCCCCCCCCCCCC(=O)[O-]
REMARK SMILES IDX 10 1 11 2 12 3 13 4 14 5 15 6 16 7 17 8 18 9 19 10 20 11
REMARK SMILES IDX 9 12 8 13 7 14 6 15 5 16 4 17 3 18 2 19 1 20
REMARK H PARENT
REMARK Flexibility Score: inf
ROOT
ATOM      1  C   UNL     1       0.290  44.753   8.508  1.00  0.00     0.000 C 
ENDROOT
BRANCH   1   2
ATOM      2  C   UNL     1       1.463  43.783   8.291  1.00  0.00     0.000 C 
BRANCH   2   3
ATOM      3  C   UNL     1       2.128  43.349   9.607  1.00  0.00     0.000 C 
BRANCH   3   4
ATOM      4  C   UNL     1       1.406  43.906  10.847  1.00  0.00     0.000 C 
BRANCH   4   5
ATOM      5  C   UNL     1       2.069  43.446  12.162  1.00  0.00     0.000 C 
BRANCH   5   6
ATOM      6  C   UNL     1       3.595  43.267  12.054  1.00  0.00     0.000 C 
BRANCH   6   7
ATOM      7  C   UNL     1       4.074  41.806  12.113  1.00  0.00     0.006 C 
BRANCH   7   8
ATOM      8  C   UNL     1       2.943  40.823  12.442  1.00  0.00     0.053 C 
BRANCH   8   9
ATOM      9  C   UNL     1       3.505  39.499  12.854  1.00  0.00     0.041 C 
ATOM     10  O   UNL     1       2.905  38.433  12.563  1.00  0.00    -0.550 OA
ATOM     11  O   UNL     1       4.714  39.440  13.533  1.00  0.00    -0.550 OA
ENDBRANCH   8   9
ENDBRANCH   7   8
ENDBRANCH   6   7
ENDBRANCH   5   6
ENDBRANCH   4   5
ENDBRANCH   3   4
ENDBRANCH   2   3
ENDBRANCH   1   2
BRANCH   1  12
ATOM     12  C   UNL     1       0.013  45.643   7.283  1.00  0.00     0.000 C 
BRANCH  12  13
ATOM     13  C   UNL     1       0.350  47.134   7.471  1.00  0.00    -0.000 C 
BRANCH  13  14
ATOM     14  C   UNL     1       0.241  47.594   8.935  1.00  0.00    -0.000 C 
BRANCH  14  15
ATOM     15  C   UNL     1       1.557  48.182   9.466  1.00  0.00    -0.000 C 
BRANCH  15  16
ATOM     16  C   UNL     1       2.786  47.350   9.059  1.00  0.00    -0.000 C 
BRANCH  16  17
ATOM     17  C   UNL     1       3.436  46.630  10.253  1.00  0.00    -0.000 C 
BRANCH  17  18
ATOM     18  C   UNL     1       4.969  46.574  10.144  1.00  0.00    -0.000 C 
BRANCH  18  19
ATOM     19  C   UNL     1       5.512  47.482   9.030  1.00  0.00    -0.003 C 
ATOM     20  C   UNL     1       6.940  47.960   9.297  1.00  0.00     0.004 C 
ENDBRANCH  18  19
ENDBRANCH  17  18
ENDBRANCH  16  17
ENDBRANCH  15  16
ENDBRANCH  14  15
ENDBRANCH  13  14
ENDBRANCH  12  13
ENDBRANCH   1  12
TORSDOF 16
ENDMDL
MODEL 4
REMARK VINA RESULT:    -5.187      1.235      3.621
REMARK INTER + INTRA:         -12.028
REMARK INTER:                  -9.729
REMARK INTRA:                  -2.299
REMARK UNBOUND:                -1.990
REMARK SMILES CCCCCCCCCCCCCCCCCC(=O)[O-]
REMARK SMILES IDX 10 1 11 2 12 3 13 4 14 5 15 6 16 7 17 8 18 9 19 10 20 11
REMARK SMILES IDX 9 12 8 13 7 14 6 15 5 16 4 17 3 18 2 19 1 20
REMARK H PARENT
REMARK Flexibility Score: inf
ROOT
ATOM      1  C   UNL     1       4.107  47.664   8.490  1.00  0.00     0.000 C 
ENDROOT
BRANCH   1   2
ATOM      2  C   UNL     1       4.121  46.251   9.096  1.00  0.00     0.000 C 
BRANCH   2   3
ATOM      3  C   UNL     1       4.420  46.254  10.604  1.00  0.00     0.000 C 
BRANCH   3   4
ATOM      4  C   UNL     1       4.169  44.886  11.262  1.00  0.00     0.000 C 
BRANCH   4   5
ATOM      5  C   UNL     1       4.089  43.746  10.225  1.00  0.00     0.000 C 
BRANCH   5   6
ATOM      6  C   UNL     1       3.221  42.559  10.680  1.00  0.00     0.000 C 
BRANCH   6   7
ATOM      7  C   UNL     1       3.624  41.953  12.035  1.00  0.00     0.006 C 
BRANCH   7   8
ATOM      8  C   UNL     1       2.742  40.765  12.441  1.00  0.00     0.053 C 
BRANCH   8   9
ATOM      9  C   UNL     1       3.589  39.582  12.793  1.00  0.00     0.041 C 
ATOM     10  O   UNL     1       4.742  39.742  13.266  1.00  0.00    -0.550 OA
ATOM     11  O   UNL     1       3.088  38.298  12.628  1.00  0.00    -0.550 OA
ENDBRANCH   8   9
ENDBRANCH   7   8
ENDBRANCH   6   7
ENDBRANCH   5   6
ENDBRANCH   4   5
ENDBRANCH   3   4
ENDBRANCH   2   3
ENDBRANCH   1   2
BRANCH   1  12
ATOM     12  C   UNL     1       2.979  47.864   7.462  1.00  0.00     0.000 C 
BRANCH  12  13
ATOM     13  C   UNL     1       2.160  49.157   7.638  1.00  0.00    -0.000 C 
BRANCH  13  14
ATOM     14  C   UNL     1       1.183  49.092   8.824  1.00  0.00    -0.000 C 
BRANCH  14  15
ATOM     15  C   UNL     1      -0.093  48.304   8.492  1.00  0.00    -0.000 C 
BRANCH  15  16
ATOM     16  C   UNL     1      -0.536  47.378   9.640  1.00  0.00    -0.000 C 
BRANCH  16  17
ATOM     17  C   UNL     1       0.610  46.497  10.165  1.00  0.00    -0.000 C 
BRANCH  17  18
ATOM     18  C   UNL     1       0.382  45.002   9.881  1.00  0.00    -0.000 C 
BRANCH  18  19
ATOM     19  C   UNL     1       0.935  44.574   8.514  1.00  0.00    -0.003 C 
ATOM     20  C   UNL     1      -0.120  44.608   7.409  1.00  0.00     0.004 C 
ENDBRANCH  18  19
ENDBRANCH  17  18
ENDBRANCH  16  17
ENDBRANCH  15  16
ENDBRANCH  14  15
ENDBRANCH  13  14
ENDBRANCH  12  13
ENDBRANCH   1  12
TORSDOF 16
ENDMDL
MODEL 5
REMARK VINA RESULT:    -5.184      3.209      6.777
REMARK INTER + INTRA:         -12.023
REMARK INTER:                  -9.989
REMARK INTRA:                  -2.034
REMARK UNBOUND:                -1.990
REMARK SMILES CCCCCCCCCCCCCCCCCC(=O)[O-]
REMARK SMILES IDX 10 1 11 2 12 3 13 4 14 5 15 6 16 7 17 8 18 9 19 10 20 11
REMARK SMILES IDX 9 12 8 13 7 14 6 15 5 16 4 17 3 18 2 19 1 20
REMARK H PARENT
REMARK Flexibility Score: inf
ROOT
ATOM      1  C   UNL     1       1.064  44.406   9.229  1.00  0.00     0.000 C 
ENDROOT
BRANCH   1   2
ATOM      2  C   UNL     1       0.163  44.999   8.132  1.00  0.00     0.000 C 
BRANCH   2   3
ATOM      3  C   UNL     1       0.164  46.536   8.130  1.00  0.00     0.000 C 
BRANCH   3   4
ATOM      4  C   UNL     1       0.734  47.131   9.429  1.00  0.00     0.000 C 
BRANCH   4   5
ATOM      5  C   UNL     1       1.980  48.004   9.172  1.00  0.00     0.000 C 
BRANCH   5   6
ATOM      6  C   UNL     1       2.816  47.546   7.963  1.00  0.00     0.000 C 
BRANCH   6   7
ATOM      7  C   UNL     1       4.257  48.084   7.939  1.00  0.00     0.006 C 
BRANCH   7   8
ATOM      8  C   UNL     1       5.152  47.430   9.000  1.00  0.00     0.053 C 
BRANCH   8   9
ATOM      9  C   UNL     1       6.498  48.084   9.021  1.00  0.00     0.041 C 
ATOM     10  O   UNL     1       6.658  49.231   8.532  1.00  0.00    -0.550 OA
ATOM     11  O   UNL     1       7.574  47.437   9.614  1.00  0.00    -0.550 OA
ENDBRANCH   8   9
ENDBRANCH   7   8
ENDBRANCH   6   7
ENDBRANCH   5   6
ENDBRANCH   4   5
ENDBRANCH   3   4
ENDBRANCH   2   3
ENDBRANCH   1   2
BRANCH   1  12
ATOM     12  C   UNL     1       2.260  43.620   8.662  1.00  0.00     0.000 C 
BRANCH  12  13
ATOM     13  C   UNL     1       3.590  43.831   9.409  1.00  0.00    -0.000 C 
BRANCH  13  14
ATOM     14  C   UNL     1       3.439  44.697  10.671  1.00  0.00    -0.000 C 
BRANCH  14  15
ATOM     15  C   UNL     1       3.677  43.900  11.963  1.00  0.00    -0.000 C 
BRANCH  15  16
ATOM     16  C   UNL     1       2.560  42.880  12.245  1.00  0.00    -0.000 C 
BRANCH  16  17
ATOM     17  C   UNL     1       3.006  41.429  11.998  1.00  0.00    -0.000 C 
BRANCH  17  18
ATOM     18  C   UNL     1       4.421  41.147  12.531  1.00  0.00    -0.000 C 
BRANCH  18  19
ATOM     19  C   UNL     1       4.544  39.750  13.158  1.00  0.00    -0.003 C 
ATOM     20  C   UNL     1       3.336  38.860  12.868  1.00  0.00     0.004 C 
ENDBRANCH  18  19
ENDBRANCH  17  18
ENDBRANCH  16  17
ENDBRANCH  15  16
ENDBRANCH  14  15
ENDBRANCH  13  14
ENDBRANCH  12  13
ENDBRANCH   1  12
TORSDOF 16
ENDMDL
MODEL 6
REMARK VINA RESULT:    -5.122      3.075      6.746
REMARK INTER + INTRA:         -11.903
REMARK INTER:                  -9.903
REMARK INTRA:                  -2.000
REMARK UNBOUND:                -1.990
REMARK SMILES CCCCCCCCCCCCCCCCCC(=O)[O-]
REMARK SMILES IDX 10 1 11 2 12 3 13 4 14 5 15 6 16 7 17 8 18 9 19 10 20 11
REMARK SMILES IDX 9 12 8 13 7 14 6 15 5 16 4 17 3 18 2 19 1 20
REMARK H PARENT
REMARK Flexibility Score: inf
ROOT
ATOM      1  C   UNL     1       5.375  47.012   9.576  1.00  0.00     0.000 C 
ENDROOT
BRANCH   1   2
ATOM      2  C   UNL     1       4.943  47.876   8.380  1.00  0.00     0.000 C 
BRANCH   2   3
ATOM      3  C   UNL     1       3.493  47.609   7.947  1.00  0.00     0.000 C 
BRANCH   3   4
ATOM      4  C   UNL     1       2.791  48.870   7.413  1.00  0.00     0.000 C 
BRANCH   4   5
ATOM      5  C   UNL     1       1.353  49.010   7.955  1.00  0.00     0.000 C 
BRANCH   5   6
ATOM      6  C   UNL     1       1.142  48.337   9.324  1.00  0.00     0.000 C 
BRANCH   6   7
ATOM      7  C   UNL     1      -0.076  47.400   9.396  1.00  0.00     0.006 C 
BRANCH   7   8
ATOM      8  C   UNL     1       0.302  45.922   9.243  1.00  0.00     0.053 C 
BRANCH   8   9
ATOM      9  C   UNL     1      -0.030  45.438   7.866  1.00  0.00     0.041 C 
ATOM     10  O   UNL     1       0.219  44.253   7.529  1.00  0.00    -0.550 OA
ATOM     11  O   UNL     1      -0.648  46.291   6.962  1.00  0.00    -0.550 OA
ENDBRANCH   8   9
ENDBRANCH   7   8
ENDBRANCH   6   7
ENDBRANCH   5   6
ENDBRANCH   4   5
ENDBRANCH   3   4
ENDBRANCH   2   3
ENDBRANCH   1   2
BRANCH   1  12
ATOM     12  C   UNL     1       4.184  46.372  10.315  1.00  0.00     0.000 C 
BRANCH  12  13
ATOM     13  C   UNL     1       4.303  44.855  10.549  1.00  0.00    -0.000 C 
BRANCH  13  14
ATOM     14  C   UNL     1       3.783  44.022   9.365  1.00  0.00    -0.000 C 
BRANCH  14  15
ATOM     15  C   UNL     1       2.655  43.062   9.773  1.00  0.00    -0.000 C 
BRANCH  15  16
ATOM     16  C   UNL     1       2.079  43.380  11.164  1.00  0.00    -0.000 C 
BRANCH  16  17
ATOM     17  C   UNL     1       2.122  42.171  12.114  1.00  0.00    -0.000 C 
BRANCH  17  18
ATOM     18  C   UNL     1       3.420  41.358  11.975  1.00  0.00    -0.000 C 
BRANCH  18  19
ATOM     19  C   UNL     1       3.407  40.081  12.829  1.00  0.00    -0.003 C 
ATOM     20  C   UNL     1       4.788  39.718  13.377  1.00  0.00     0.004 C 
ENDBRANCH  18  19
ENDBRANCH  17  18
ENDBRANCH  16  17
ENDBRANCH  15  16
ENDBRANCH  14  15
ENDBRANCH  13  14
ENDBRANCH  12  13
ENDBRANCH   1  12
TORSDOF 16
ENDMDL
MODEL 7
REMARK VINA RESULT:    -5.064      1.410      3.434
REMARK INTER + INTRA:         -11.791
REMARK INTER:                  -9.326
REMARK INTRA:                  -2.464
REMARK UNBOUND:                -1.990
REMARK SMILES CCCCCCCCCCCCCCCCCC(=O)[O-]
REMARK SMILES IDX 10 1 11 2 12 3 13 4 14 5 15 6 16 7 17 8 18 9 19 10 20 11
REMARK SMILES IDX 9 12 8 13 7 14 6 15 5 16 4 17 3 18 2 19 1 20
REMARK H PARENT
REMARK Flexibility Score: inf
ROOT
ATOM      1  C   UNL     1       3.729  43.536   8.927  1.00  0.00     0.000 C 
ENDROOT
BRANCH   1   2
ATOM      2  C   UNL     1       3.975  45.032   9.187  1.00  0.00     0.000 C 
BRANCH   2   3
ATOM      3  C   UNL     1       4.858  45.284  10.419  1.00  0.00     0.000 C 
BRANCH   3   4
ATOM      4  C   UNL     1       4.039  45.464  11.709  1.00  0.00     0.000 C 
BRANCH   4   5
ATOM      5  C   UNL     1       3.932  44.155  12.519  1.00  0.00     0.000 C 
BRANCH   5   6
ATOM      6  C   UNL     1       2.526  43.528  12.491  1.00  0.00     0.000 C 
BRANCH   6   7
ATOM      7  C   UNL     1       2.506  42.010  12.236  1.00  0.00     0.006 C 
BRANCH   7   8
ATOM      8  C   UNL     1       3.913  41.414  12.096  1.00  0.00     0.053 C 
BRANCH   8   9
ATOM      9  C   UNL     1       4.012  40.127  12.853  1.00  0.00     0.041 C 
ATOM     10  O   UNL     1       5.016  39.885  13.570  1.00  0.00    -0.550 OA
ATOM     11  O   UNL     1       2.976  39.206  12.792  1.00  0.00    -0.550 OA
ENDBRANCH   8   9
ENDBRANCH   7   8
ENDBRANCH   6   7
ENDBRANCH   5   6
ENDBRANCH   4   5
ENDBRANCH   3   4
ENDBRANCH   2   3
ENDBRANCH   1   2
BRANCH   1  12
ATOM     12  C   UNL     1       2.234  43.182   8.828  1.00  0.00     0.000 C 
BRANCH  12  13
ATOM     13  C   UNL     1       1.271  44.286   9.304  1.00  0.00    -0.000 C 
BRANCH  13  14
ATOM     14  C   UNL     1       0.370  44.822   8.179  1.00  0.00    -0.000 C 
BRANCH  14  15
ATOM     15  C   UNL     1      -0.642  45.863   8.682  1.00  0.00    -0.000 C 
BRANCH  15  16
ATOM     16  C   UNL     1      -0.370  47.273   8.126  1.00  0.00    -0.000 C 
BRANCH  16  17
ATOM     17  C   UNL     1       0.315  48.192   9.151  1.00  0.00    -0.000 C 
BRANCH  17  18
ATOM     18  C   UNL     1       1.849  48.086   9.107  1.00  0.00    -0.000 C 
BRANCH  18  19
ATOM     19  C   UNL     1       2.390  48.013   7.671  1.00  0.00    -0.003 C 
ATOM     20  C   UNL     1       3.889  48.304   7.586  1.00  0.00     0.004 C 
ENDBRANCH  18  19
ENDBRANCH  17  18
ENDBRANCH  16  17
ENDBRANCH  15  16
ENDBRANCH  14  15
ENDBRANCH  13  14
ENDBRANCH  12  13
ENDBRANCH   1  12
TORSDOF 16
ENDMDL
MODEL 8
REMARK VINA RESULT:    -5.030      3.083      6.417
REMARK INTER + INTRA:         -11.725
REMARK INTER:                  -9.798
REMARK INTRA:                  -1.926
REMARK UNBOUND:                -1.990
REMARK SMILES CCCCCCCCCCCCCCCCCC(=O)[O-]
REMARK SMILES IDX 10 1 11 2 12 3 13 4 14 5 15 6 16 7 17 8 18 9 19 10 20 11
REMARK SMILES IDX 9 12 8 13 7 14 6 15 5 16 4 17 3 18 2 19 1 20
REMARK H PARENT
REMARK Flexibility Score: inf
ROOT
ATOM      1  C   UNL     1       0.047  45.457   8.087  1.00  0.00     0.000 C 
ENDROOT
BRANCH   1   2
ATOM      2  C   UNL     1       0.002  46.748   7.252  1.00  0.00     0.000 C 
BRANCH   2   3
ATOM      3  C   UNL     1      -0.114  48.012   8.118  1.00  0.00     0.000 C 
BRANCH   3   4
ATOM      4  C   UNL     1       1.071  48.974   7.924  1.00  0.00     0.000 C 
BRANCH   4   5
ATOM      5  C   UNL     1       2.398  48.224   7.685  1.00  0.00     0.000 C 
BRANCH   5   6
ATOM      6  C   UNL     1       3.030  47.662   8.972  1.00  0.00     0.000 C 
BRANCH   6   7
ATOM      7  C   UNL     1       4.290  46.808   8.747  1.00  0.00     0.006 C 
BRANCH   7   8
ATOM      8  C   UNL     1       5.342  47.001   9.847  1.00  0.00     0.053 C 
BRANCH   8   9
ATOM      9  C   UNL     1       6.513  47.769   9.320  1.00  0.00     0.041 C 
ATOM     10  O   UNL     1       7.687  47.401   9.582  1.00  0.00    -0.550 OA
ATOM     11  O   UNL     1       6.308  48.877   8.509  1.00  0.00    -0.550 OA
ENDBRANCH   8   9
ENDBRANCH   7   8
ENDBRANCH   6   7
ENDBRANCH   5   6
ENDBRANCH   4   5
ENDBRANCH   3   4
ENDBRANCH   2   3
ENDBRANCH   1   2
BRANCH   1  12
ATOM     12  C   UNL     1       0.053  45.724   9.604  1.00  0.00     0.000 C 
BRANCH  12  13
ATOM     13  C   UNL     1       1.106  44.931  10.400  1.00  0.00    -0.000 C 
BRANCH  13  14
ATOM     14  C   UNL     1       1.745  43.794   9.584  1.00  0.00    -0.000 C 
BRANCH  14  15
ATOM     15  C   UNL     1       3.194  43.510  10.008  1.00  0.00    -0.000 C 
BRANCH  15  16
ATOM     16  C   UNL     1       3.394  43.589  11.532  1.00  0.00    -0.000 C 
BRANCH  16  17
ATOM     17  C   UNL     1       3.981  42.295  12.121  1.00  0.00    -0.000 C 
BRANCH  17  18
ATOM     18  C   UNL     1       2.996  41.116  12.051  1.00  0.00    -0.000 C 
BRANCH  18  19
ATOM     19  C   UNL     1       3.456  39.917  12.895  1.00  0.00    -0.003 C 
ATOM     20  C   UNL     1       4.946  39.967  13.235  1.00  0.00     0.004 C 
ENDBRANCH  18  19
ENDBRANCH  17  18
ENDBRANCH  16  17
ENDBRANCH  15  16
ENDBRANCH  14  15
ENDBRANCH  13  14
ENDBRANCH  12  13
ENDBRANCH   1  12
TORSDOF 16
ENDMDL
MODEL 9
REMARK VINA RESULT:    -4.806      3.272      6.151
REMARK INTER + INTRA:         -11.291
REMARK INTER:                  -8.851
REMARK INTRA:                  -2.440
REMARK UNBOUND:                -1.990
REMARK SMILES CCCCCCCCCCCCCCCCCC(=O)[O-]
REMARK SMILES IDX 10 1 11 2 12 3 13 4 14 5 15 6 16 7 17 8 18 9 19 10 20 11
REMARK SMILES IDX 9 12 8 13 7 14 6 15 5 16 4 17 3 18 2 19 1 20
REMARK H PARENT
REMARK Flexibility Score: inf
ROOT
ATOM      1  C   UNL     1      -0.478  46.355   9.911  1.00  0.00     0.000 C 
ENDROOT
BRANCH   1   2
ATOM      2  C   UNL     1      -0.582  46.940   8.493  1.00  0.00     0.000 C 
BRANCH   2   3
ATOM      3  C   UNL     1      -0.465  48.472   8.472  1.00  0.00     0.000 C 
BRANCH   3   4
ATOM      4  C   UNL     1       0.838  48.958   7.815  1.00  0.00     0.000 C 
BRANCH   4   5
ATOM      5  C   UNL     1       1.859  47.816   7.628  1.00  0.00     0.000 C 
BRANCH   5   6
ATOM      6  C   UNL     1       2.911  47.739   8.750  1.00  0.00     0.000 C 
BRANCH   6   7
ATOM      7  C   UNL     1       4.369  47.712   8.259  1.00  0.00     0.006 C 
BRANCH   7   8
ATOM      8  C   UNL     1       5.361  47.338   9.368  1.00  0.00     0.053 C 
BRANCH   8   9
ATOM      9  C   UNL     1       6.678  48.010   9.138  1.00  0.00     0.041 C 
ATOM     10  O   UNL     1       6.726  49.174   8.664  1.00  0.00    -0.550 OA
ATOM     11  O   UNL     1       7.856  47.362   9.482  1.00  0.00    -0.550 OA
ENDBRANCH   8   9
ENDBRANCH   7   8
ENDBRANCH   6   7
ENDBRANCH   5   6
ENDBRANCH   4   5
ENDBRANCH   3   4
ENDBRANCH   2   3
ENDBRANCH   1   2
BRANCH   1  12
ATOM     12  C   UNL     1       0.533  45.198  10.010  1.00  0.00     0.000 C 
BRANCH  12  13
ATOM     13  C   UNL     1       0.782  44.437   8.694  1.00  0.00    -0.000 C 
BRANCH  13  14
ATOM     14  C   UNL     1       1.972  43.466   8.779  1.00  0.00    -0.000 C 
BRANCH  14  15
ATOM     15  C   UNL     1       3.316  44.195   8.923  1.00  0.00    -0.000 C 
BRANCH  15  16
ATOM     16  C   UNL     1       4.160  43.658  10.093  1.00  0.00    -0.000 C 
BRANCH  16  17
ATOM     17  C   UNL     1       4.180  44.614  11.298  1.00  0.00    -0.000 C 
BRANCH  17  18
ATOM     18  C   UNL     1       3.558  43.987  12.557  1.00  0.00    -0.000 C 
BRANCH  18  19
ATOM     19  C   UNL     1       2.839  42.662  12.260  1.00  0.00    -0.003 C 
ATOM     20  C   UNL     1       1.326  42.749  12.466  1.00  0.00     0.004 C 
ENDBRANCH  18  19
ENDBRANCH  17  18
ENDBRANCH  16  17
ENDBRANCH  15  16
ENDBRANCH  14  15
ENDBRANCH  13  14
ENDBRANCH  12  13
ENDBRANCH   1  12
TORSDOF 16
ENDMDL
