MODEL 1
REMARK VINA RESULT:    23.037      0.000      0.000
REMARK INTER + INTRA:          48.769
REMARK INTER:                  49.971
REMARK INTRA:                  -1.201
REMARK UNBOUND:                -1.201
REMARK SMILES CCCCCCCCCCCCCCCCCCCCCC(=O)[O-]
REMARK SMILES IDX 12 1 11 2 10 3 9 4 8 5 7 6 6 7 5 8 4 9 3 10 2 11 1 12 13 13
REMARK SMILES IDX 14 14 15 15 16 16 17 17 18 18 19 19 20 20 21 21 22 22 23 23
REMARK SMILES IDX 24 24
REMARK H PARENT
REMARK Flexibility Score: inf
ROOT
ATOM      1  C   UNL     1      -0.830  17.615  20.620  1.00  0.00     0.000 C 
ENDROOT
BRANCH   1   2
ATOM      2  C   UNL     1       0.081  16.606  19.899  1.00  0.00     0.000 C 
BRANCH   2   3
ATOM      3  C   UNL     1      -0.492  15.180  19.910  1.00  0.00     0.000 C 
BRANCH   3   4
ATOM      4  C   UNL     1      -0.634  14.588  18.500  1.00  0.00    -0.000 C 
BRANCH   4   5
ATOM      5  C   UNL     1      -1.839  13.642  18.420  1.00  0.00    -0.000 C 
BRANCH   5   6
ATOM      6  C   UNL     1      -2.269  13.178  19.821  1.00  0.00    -0.000 C 
BRANCH   6   7
ATOM      7  C   UNL     1      -3.790  12.993  19.946  1.00  0.00    -0.000 C 
BRANCH   7   8
ATOM      8  C   UNL     1      -4.434  14.024  20.888  1.00  0.00    -0.000 C 
BRANCH   8   9
ATOM      9  C   UNL     1      -4.065  15.470  20.520  1.00  0.00    -0.000 C 
BRANCH   9  10
ATOM     10  C   UNL     1      -4.972  16.508  21.208  1.00  0.00    -0.000 C 
BRANCH  10  11
ATOM     11  C   UNL     1      -5.923  17.202  20.223  1.00  0.00    -0.003 C 
ATOM     12  C   UNL     1      -7.199  16.397  19.967  1.00  0.00     0.004 C 
ENDBRANCH  10  11
ENDBRANCH   9  10
ENDBRANCH   8   9
ENDBRANCH   7   8
ENDBRANCH   6   7
ENDBRANCH   5   6
ENDBRANCH   4   5
ENDBRANCH   3   4
ENDBRANCH   2   3
ENDBRANCH   1   2
BRANCH   1  13
ATOM     13  C   UNL     1      -0.387  19.071  20.396  1.00  0.00     0.000 C 
BRANCH  13  14
ATOM     14  C   UNL     1      -1.326  20.086  21.071  1.00  0.00     0.000 C 
BRANCH  14  15
ATOM     15  C   UNL     1      -0.569  21.128  21.913  1.00  0.00     0.000 C 
BRANCH  15  16
ATOM     16  C   UNL     1      -1.450  21.953  22.874  1.00  0.00     0.000 C 
BRANCH  16  17
ATOM     17  C   UNL     1      -1.474  23.467  22.599  1.00  0.00     0.000 C 
BRANCH  17  18
ATOM     18  C   UNL     1      -2.898  24.028  22.468  1.00  0.00     0.000 C 
BRANCH  18  19
ATOM     19  C   UNL     1      -2.880  25.562  22.405  1.00  0.00     0.000 C 
BRANCH  19  20
ATOM     20  C   UNL     1      -3.605  26.123  21.169  1.00  0.00     0.006 C 
BRANCH  20  21
ATOM     21  C   UNL     1      -3.669  27.661  21.126  1.00  0.00     0.053 C 
BRANCH  21  22
ATOM     22  C   UNL     1      -3.208  28.223  19.815  1.00  0.00     0.041 C 
ATOM     23  O   UNL     1      -3.564  27.687  18.733  1.00  0.00    -0.550 OA
ATOM     24  O   UNL     1      -2.412  29.360  19.788  1.00  0.00    -0.550 OA
ENDBRANCH  21  22
ENDBRANCH  20  21
ENDBRANCH  19  20
ENDBRANCH  18  19
ENDBRANCH  17  18
ENDBRANCH  16  17
ENDBRANCH  15  16
ENDBRANCH  14  15
ENDBRANCH  13  14
ENDBRANCH   1  13
TORSDOF 20
ENDMDL
MODEL 2
REMARK VINA RESULT:    23.038      1.024      2.178
REMARK INTER + INTRA:          48.772
REMARK INTER:                  49.978
REMARK INTRA:                  -1.205
REMARK UNBOUND:                -1.201
REMARK SMILES CCCCCCCCCCCCCCCCCCCCCC(=O)[O-]
REMARK SMILES IDX 12 1 11 2 10 3 9 4 8 5 7 6 6 7 5 8 4 9 3 10 2 11 1 12 13 13
REMARK SMILES IDX 14 14 15 15 16 16 17 17 18 18 19 19 20 20 21 21 22 22 23 23
REMARK SMILES IDX 24 24
REMARK H PARENT
REMARK Flexibility Score: inf
ROOT
ATOM      1  C   UNL     1      -1.130  19.829  21.059  1.00  0.00     0.000 C 
ENDROOT
BRANCH   1   2
ATOM      2  C   UNL     1      -0.428  18.660  20.346  1.00  0.00     0.000 C 
BRANCH   2   3
ATOM      3  C   UNL     1      -0.921  17.289  20.835  1.00  0.00     0.000 C 
BRANCH   3   4
ATOM      4  C   UNL     1      -0.124  16.123  20.233  1.00  0.00    -0.000 C 
BRANCH   4   5
ATOM      5  C   UNL     1      -0.938  15.401  19.152  1.00  0.00    -0.000 C 
BRANCH   5   6
ATOM      6  C   UNL     1      -0.328  14.029  18.827  1.00  0.00    -0.000 C 
BRANCH   6   7
ATOM      7  C   UNL     1      -1.386  12.920  18.710  1.00  0.00    -0.000 C 
BRANCH   7   8
ATOM      8  C   UNL     1      -2.815  13.443  18.931  1.00  0.00    -0.000 C 
BRANCH   8   9
ATOM      9  C   UNL     1      -3.343  13.137  20.342  1.00  0.00    -0.000 C 
BRANCH   9  10
ATOM     10  C   UNL     1      -4.493  14.071  20.763  1.00  0.00    -0.000 C 
BRANCH  10  11
ATOM     11  C   UNL     1      -4.038  15.530  20.915  1.00  0.00    -0.003 C 
ATOM     12  C   UNL     1      -5.199  16.522  20.843  1.00  0.00     0.004 C 
ENDBRANCH  10  11
ENDBRANCH   9  10
ENDBRANCH   8   9
ENDBRANCH   7   8
ENDBRANCH   6   7
ENDBRANCH   5   6
ENDBRANCH   4   5
ENDBRANCH   3   4
ENDBRANCH   2   3
ENDBRANCH   1   2
BRANCH   1  13
ATOM     13  C   UNL     1      -0.147  20.718  21.839  1.00  0.00     0.000 C 
BRANCH  13  14
ATOM     14  C   UNL     1      -0.607  22.184  21.917  1.00  0.00     0.000 C 
BRANCH  14  15
ATOM     15  C   UNL     1      -1.448  22.477  23.171  1.00  0.00     0.000 C 
BRANCH  15  16
ATOM     16  C   UNL     1      -2.818  23.133  22.898  1.00  0.00     0.000 C 
BRANCH  16  17
ATOM     17  C   UNL     1      -2.825  24.672  22.946  1.00  0.00     0.000 C 
BRANCH  17  18
ATOM     18  C   UNL     1      -2.976  25.311  21.558  1.00  0.00     0.000 C 
BRANCH  18  19
ATOM     19  C   UNL     1      -3.434  26.772  21.673  1.00  0.00     0.000 C 
BRANCH  19  20
ATOM     20  C   UNL     1      -4.295  27.231  20.483  1.00  0.00     0.006 C 
BRANCH  20  21
ATOM     21  C   UNL     1      -3.508  27.982  19.393  1.00  0.00     0.053 C 
BRANCH  21  22
ATOM     22  C   UNL     1      -3.125  29.370  19.808  1.00  0.00     0.041 C 
ATOM     23  O   UNL     1      -1.919  29.660  20.022  1.00  0.00    -0.550 OA
ATOM     24  O   UNL     1      -4.099  30.353  19.927  1.00  0.00    -0.550 OA
ENDBRANCH  21  22
ENDBRANCH  20  21
ENDBRANCH  19  20
ENDBRANCH  18  19
ENDBRANCH  17  18
ENDBRANCH  16  17
ENDBRANCH  15  16
ENDBRANCH  14  15
ENDBRANCH  13  14
ENDBRANCH   1  13
TORSDOF 20
ENDMDL
MODEL 3
REMARK VINA RESULT:    23.572     11.829     14.977
REMARK INTER + INTRA:          49.932
REMARK INTER:                  51.630
REMARK INTRA:                  -1.698
REMARK UNBOUND:                -1.201
REMARK SMILES CCCCCCCCCCCCCCCCCCCCCC(=O)[O-]
REMARK SMILES IDX 12 1 11 2 10 3 9 4 8 5 7 6 6 7 5 8 4 9 3 10 2 11 1 12 13 13
REMARK SMILES IDX 14 14 15 15 16 16 17 17 18 18 19 19 20 20 21 21 22 22 23 23
REMARK SMILES IDX 24 24
REMARK H PARENT
REMARK Flexibility Score: inf
ROOT
ATOM      1  C   UNL     1      -5.132  21.510   7.169  1.00  0.00     0.000 C 
ENDROOT
BRANCH   1   2
ATOM      2  C   UNL     1      -4.294  22.801   7.176  1.00  0.00     0.000 C 
BRANCH   2   3
ATOM      3  C   UNL     1      -2.825  22.549   7.552  1.00  0.00     0.000 C 
BRANCH   3   4
ATOM      4  C   UNL     1      -2.676  21.727   8.841  1.00  0.00    -0.000 C 
BRANCH   4   5
ATOM      5  C   UNL     1      -1.268  21.880   9.430  1.00  0.00    -0.000 C 
BRANCH   5   6
ATOM      6  C   UNL     1      -1.036  23.312   9.936  1.00  0.00    -0.000 C 
BRANCH   6   7
ATOM      7  C   UNL     1      -0.073  24.110   9.043  1.00  0.00    -0.000 C 
BRANCH   7   8
ATOM      8  C   UNL     1      -0.371  25.619   9.054  1.00  0.00    -0.000 C 
BRANCH   8   9
ATOM      9  C   UNL     1       0.275  26.339  10.250  1.00  0.00    -0.000 C 
BRANCH   9  10
ATOM     10  C   UNL     1      -0.678  27.344  10.924  1.00  0.00    -0.000 C 
BRANCH  10  11
ATOM     11  C   UNL     1      -1.367  26.759  12.165  1.00  0.00    -0.003 C 
ATOM     12  C   UNL     1      -1.853  27.837  13.134  1.00  0.00     0.004 C 
ENDBRANCH  10  11
ENDBRANCH   9  10
ENDBRANCH   8   9
ENDBRANCH   7   8
ENDBRANCH   6   7
ENDBRANCH   5   6
ENDBRANCH   4   5
ENDBRANCH   3   4
ENDBRANCH   2   3
ENDBRANCH   1   2
BRANCH   1  13
ATOM     13  C   UNL     1      -5.845  21.280   5.826  1.00  0.00     0.000 C 
BRANCH  13  14
ATOM     14  C   UNL     1      -6.926  20.188   5.909  1.00  0.00     0.000 C 
BRANCH  14  15
ATOM     15  C   UNL     1      -6.438  18.922   6.635  1.00  0.00     0.000 C 
BRANCH  15  16
ATOM     16  C   UNL     1      -7.142  18.629   7.976  1.00  0.00     0.000 C 
BRANCH  16  17
ATOM     17  C   UNL     1      -6.302  17.834   8.992  1.00  0.00     0.000 C 
BRANCH  17  18
ATOM     18  C   UNL     1      -5.889  18.671  10.211  1.00  0.00     0.000 C 
BRANCH  18  19
ATOM     19  C   UNL     1      -4.407  19.064  10.132  1.00  0.00     0.000 C 
BRANCH  19  20
ATOM     20  C   UNL     1      -3.461  17.849  10.123  1.00  0.00     0.006 C 
BRANCH  20  21
ATOM     21  C   UNL     1      -2.015  18.186   9.714  1.00  0.00     0.053 C 
BRANCH  21  22
ATOM     22  C   UNL     1      -1.202  16.965   9.407  1.00  0.00     0.041 C 
ATOM     23  O   UNL     1      -1.295  16.405   8.282  1.00  0.00    -0.550 OA
ATOM     24  O   UNL     1      -0.316  16.464  10.352  1.00  0.00    -0.550 OA
ENDBRANCH  21  22
ENDBRANCH  20  21
ENDBRANCH  19  20
ENDBRANCH  18  19
ENDBRANCH  17  18
ENDBRANCH  16  17
ENDBRANCH  15  16
ENDBRANCH  14  15
ENDBRANCH  13  14
ENDBRANCH   1  13
TORSDOF 20
ENDMDL
MODEL 4
REMARK VINA RESULT:    23.949     11.729     13.092
REMARK INTER + INTRA:          50.750
REMARK INTER:                  52.838
REMARK INTRA:                  -2.088
REMARK UNBOUND:                -1.201
REMARK SMILES CCCCCCCCCCCCCCCCCCCCCC(=O)[O-]
REMARK SMILES IDX 12 1 11 2 10 3 9 4 8 5 7 6 6 7 5 8 4 9 3 10 2 11 1 12 13 13
REMARK SMILES IDX 14 14 15 15 16 16 17 17 18 18 19 19 20 20 21 21 22 22 23 23
REMARK SMILES IDX 24 24
REMARK H PARENT
REMARK Flexibility Score: inf
ROOT
ATOM      1  C   UNL     1      -5.608  20.669   5.704  1.00  0.00     0.000 C 
ENDROOT
BRANCH   1   2
ATOM      2  C   UNL     1      -6.980  20.644   5.008  1.00  0.00     0.000 C 
BRANCH   2   3
ATOM      3  C   UNL     1      -8.147  20.793   5.998  1.00  0.00     0.000 C 
BRANCH   3   4
ATOM      4  C   UNL     1      -8.848  19.458   6.293  1.00  0.00    -0.000 C 
BRANCH   4   5
ATOM      5  C   UNL     1      -8.629  19.033   7.750  1.00  0.00    -0.000 C 
BRANCH   5   6
ATOM      6  C   UNL     1      -7.376  18.154   7.885  1.00  0.00    -0.000 C 
BRANCH   6   7
ATOM      7  C   UNL     1      -6.313  18.771   8.809  1.00  0.00    -0.000 C 
BRANCH   7   8
ATOM      8  C   UNL     1      -4.979  18.007   8.767  1.00  0.00    -0.000 C 
BRANCH   8   9
ATOM      9  C   UNL     1      -4.072  18.338   9.963  1.00  0.00    -0.000 C 
BRANCH   9  10
ATOM     10  C   UNL     1      -2.905  17.346  10.116  1.00  0.00    -0.000 C 
BRANCH  10  11
ATOM     11  C   UNL     1      -1.581  17.909   9.577  1.00  0.00    -0.003 C 
ATOM     12  C   UNL     1      -0.513  16.830   9.391  1.00  0.00     0.004 C 
ENDBRANCH  10  11
ENDBRANCH   9  10
ENDBRANCH   8   9
ENDBRANCH   7   8
ENDBRANCH   6   7
ENDBRANCH   5   6
ENDBRANCH   4   5
ENDBRANCH   3   4
ENDBRANCH   2   3
ENDBRANCH   1   2
BRANCH   1  13
ATOM     13  C   UNL     1      -5.561  21.663   6.877  1.00  0.00     0.000 C 
BRANCH  13  14
ATOM     14  C   UNL     1      -4.148  22.215   7.130  1.00  0.00     0.000 C 
BRANCH  14  15
ATOM     15  C   UNL     1      -3.525  21.680   8.431  1.00  0.00     0.000 C 
BRANCH  15  16
ATOM     16  C   UNL     1      -2.028  22.005   8.618  1.00  0.00     0.000 C 
BRANCH  16  17
ATOM     17  C   UNL     1      -1.608  22.336  10.062  1.00  0.00     0.000 C 
BRANCH  17  18
ATOM     18  C   UNL     1      -0.414  23.298  10.130  1.00  0.00     0.000 C 
BRANCH  18  19
ATOM     19  C   UNL     1      -0.467  24.321   8.987  1.00  0.00     0.000 C 
BRANCH  19  20
ATOM     20  C   UNL     1      -0.199  25.763   9.454  1.00  0.00     0.006 C 
BRANCH  20  21
ATOM     21  C   UNL     1      -0.330  25.963  10.974  1.00  0.00     0.053 C 
BRANCH  21  22
ATOM     22  C   UNL     1      -0.914  27.296  11.334  1.00  0.00     0.041 C 
ATOM     23  O   UNL     1      -1.509  27.454  12.433  1.00  0.00    -0.550 OA
ATOM     24  O   UNL     1      -0.771  28.374  10.470  1.00  0.00    -0.550 OA
ENDBRANCH  21  22
ENDBRANCH  20  21
ENDBRANCH  19  20
ENDBRANCH  18  19
ENDBRANCH  17  18
ENDBRANCH  16  17
ENDBRANCH  15  16
ENDBRANCH  14  15
ENDBRANCH  13  14
ENDBRANCH   1  13
TORSDOF 20
ENDMDL
MODEL 5
REMARK VINA RESULT:    24.279     10.993     12.318
REMARK INTER + INTRA:          51.464
REMARK INTER:                  53.219
REMARK INTRA:                  -1.755
REMARK UNBOUND:                -1.201
REMARK SMILES CCCCCCCCCCCCCCCCCCCCCC(=O)[O-]
REMARK SMILES IDX 12 1 11 2 10 3 9 4 8 5 7 6 6 7 5 8 4 9 3 10 2 11 1 12 13 13
REMARK SMILES IDX 14 14 15 15 16 16 17 17 18 18 19 19 20 20 21 21 22 22 23 23
REMARK SMILES IDX 24 24
REMARK H PARENT
REMARK Flexibility Score: inf
ROOT
ATOM      1  C   UNL     1      -5.730  21.849   7.104  1.00  0.00     0.000 C 
ENDROOT
BRANCH   1   2
ATOM      2  C   UNL     1      -5.915  20.908   5.901  1.00  0.00     0.000 C 
BRANCH   2   3
ATOM      3  C   UNL     1      -6.564  19.571   6.291  1.00  0.00     0.000 C 
BRANCH   3   4
ATOM      4  C   UNL     1      -6.691  19.394   7.811  1.00  0.00    -0.000 C 
BRANCH   4   5
ATOM      5  C   UNL     1      -6.011  18.099   8.272  1.00  0.00    -0.000 C 
BRANCH   5   6
ATOM      6  C   UNL     1      -5.509  18.226   9.719  1.00  0.00    -0.000 C 
BRANCH   6   7
ATOM      7  C   UNL     1      -4.160  18.957   9.819  1.00  0.00    -0.000 C 
BRANCH   7   8
ATOM      8  C   UNL     1      -3.009  18.020  10.221  1.00  0.00    -0.000 C 
BRANCH   8   9
ATOM      9  C   UNL     1      -1.689  18.371   9.516  1.00  0.00    -0.000 C 
BRANCH   9  10
ATOM     10  C   UNL     1      -0.755  17.156   9.363  1.00  0.00    -0.000 C 
BRANCH  10  11
ATOM     11  C   UNL     1      -1.114  16.014  10.326  1.00  0.00    -0.003 C 
ATOM     12  C   UNL     1      -1.396  14.697   9.602  1.00  0.00     0.004 C 
ENDBRANCH  10  11
ENDBRANCH   9  10
ENDBRANCH   8   9
ENDBRANCH   7   8
ENDBRANCH   6   7
ENDBRANCH   5   6
ENDBRANCH   4   5
ENDBRANCH   3   4
ENDBRANCH   2   3
ENDBRANCH   1   2
BRANCH   1  13
ATOM     13  C   UNL     1      -4.307  22.425   7.187  1.00  0.00     0.000 C 
BRANCH  13  14
ATOM     14  C   UNL     1      -3.393  21.613   8.122  1.00  0.00     0.000 C 
BRANCH  14  15
ATOM     15  C   UNL     1      -2.056  22.319   8.407  1.00  0.00     0.000 C 
BRANCH  15  16
ATOM     16  C   UNL     1      -1.512  22.129   9.838  1.00  0.00     0.000 C 
BRANCH  16  17
ATOM     17  C   UNL     1      -0.666  23.299  10.374  1.00  0.00     0.000 C 
BRANCH  17  18
ATOM     18  C   UNL     1      -0.015  24.126   9.256  1.00  0.00     0.000 C 
BRANCH  18  19
ATOM     19  C   UNL     1      -0.543  25.568   9.262  1.00  0.00     0.000 C 
BRANCH  19  20
ATOM     20  C   UNL     1       0.100  26.442  10.354  1.00  0.00     0.006 C 
BRANCH  20  21
ATOM     21  C   UNL     1      -0.788  27.609  10.824  1.00  0.00     0.053 C 
BRANCH  21  22
ATOM     22  C   UNL     1      -1.455  27.336  12.138  1.00  0.00     0.041 C 
ATOM     23  O   UNL     1      -1.993  26.219  12.358  1.00  0.00    -0.550 OA
ATOM     24  O   UNL     1      -1.453  28.304  13.133  1.00  0.00    -0.550 OA
ENDBRANCH  21  22
ENDBRANCH  20  21
ENDBRANCH  19  20
ENDBRANCH  18  19
ENDBRANCH  17  18
ENDBRANCH  16  17
ENDBRANCH  15  16
ENDBRANCH  14  15
ENDBRANCH  13  14
ENDBRANCH   1  13
TORSDOF 20
ENDMDL
MODEL 6
REMARK VINA RESULT:    24.315     10.728     14.386
REMARK INTER + INTRA:          51.542
REMARK INTER:                  53.087
REMARK INTRA:                  -1.545
REMARK UNBOUND:                -1.201
REMARK SMILES CCCCCCCCCCCCCCCCCCCCCC(=O)[O-]
REMARK SMILES IDX 12 1 11 2 10 3 9 4 8 5 7 6 6 7 5 8 4 9 3 10 2 11 1 12 13 13
REMARK SMILES IDX 14 14 15 15 16 16 17 17 18 18 19 19 20 20 21 21 22 22 23 23
REMARK SMILES IDX 24 24
REMARK H PARENT
REMARK Flexibility Score: inf
ROOT
ATOM      1  C   UNL     1      -0.742  17.128  10.071  1.00  0.00     0.000 C 
ENDROOT
BRANCH   1   2
ATOM      2  C   UNL     1      -1.758  18.279  10.171  1.00  0.00     0.000 C 
BRANCH   2   3
ATOM      3  C   UNL     1      -1.478  19.403   9.162  1.00  0.00     0.000 C 
BRANCH   3   4
ATOM      4  C   UNL     1      -1.513  20.798   9.804  1.00  0.00    -0.000 C 
BRANCH   4   5
ATOM      5  C   UNL     1      -2.271  21.793   8.915  1.00  0.00    -0.000 C 
BRANCH   5   6
ATOM      6  C   UNL     1      -1.363  22.960   8.496  1.00  0.00    -0.000 C 
BRANCH   6   7
ATOM      7  C   UNL     1      -0.295  23.291   9.551  1.00  0.00    -0.000 C 
BRANCH   7   8
ATOM      8  C   UNL     1       0.144  24.765   9.503  1.00  0.00    -0.000 C 
BRANCH   8   9
ATOM      9  C   UNL     1      -0.504  25.609  10.613  1.00  0.00    -0.000 C 
BRANCH   9  10
ATOM     10  C   UNL     1      -0.255  27.118  10.435  1.00  0.00    -0.000 C 
BRANCH  10  11
ATOM     11  C   UNL     1      -1.072  27.968  11.418  1.00  0.00    -0.003 C 
ATOM     12  C   UNL     1      -1.462  27.200  12.681  1.00  0.00     0.004 C 
ENDBRANCH  10  11
ENDBRANCH   9  10
ENDBRANCH   8   9
ENDBRANCH   7   8
ENDBRANCH   6   7
ENDBRANCH   5   6
ENDBRANCH   4   5
ENDBRANCH   3   4
ENDBRANCH   2   3
ENDBRANCH   1   2
BRANCH   1  13
ATOM     13  C   UNL     1      -1.345  15.865   9.432  1.00  0.00     0.000 C 
BRANCH  13  14
ATOM     14  C   UNL     1      -1.913  16.126   8.026  1.00  0.00     0.000 C 
BRANCH  14  15
ATOM     15  C   UNL     1      -2.822  14.988   7.532  1.00  0.00     0.000 C 
BRANCH  15  16
ATOM     16  C   UNL     1      -4.248  15.420   7.130  1.00  0.00     0.000 C 
BRANCH  16  17
ATOM     17  C   UNL     1      -5.380  14.550   7.707  1.00  0.00     0.000 C 
BRANCH  17  18
ATOM     18  C   UNL     1      -6.668  15.344   7.968  1.00  0.00     0.000 C 
BRANCH  18  19
ATOM     19  C   UNL     1      -6.521  16.799   7.501  1.00  0.00     0.000 C 
BRANCH  19  20
ATOM     20  C   UNL     1      -6.720  17.821   8.635  1.00  0.00     0.006 C 
BRANCH  20  21
ATOM     21  C   UNL     1      -5.411  18.276   9.304  1.00  0.00     0.053 C 
BRANCH  21  22
ATOM     22  C   UNL     1      -5.632  19.314  10.362  1.00  0.00     0.041 C 
ATOM     23  O   UNL     1      -6.194  19.006  11.447  1.00  0.00    -0.550 OA
ATOM     24  O   UNL     1      -5.187  20.614  10.165  1.00  0.00    -0.550 OA
ENDBRANCH  21  22
ENDBRANCH  20  21
ENDBRANCH  19  20
ENDBRANCH  18  19
ENDBRANCH  17  18
ENDBRANCH  16  17
ENDBRANCH  15  16
ENDBRANCH  14  15
ENDBRANCH  13  14
ENDBRANCH   1  13
TORSDOF 20
ENDMDL
MODEL 7
REMARK VINA RESULT:    24.416     12.299     15.274
REMARK INTER + INTRA:          51.761
REMARK INTER:                  52.979
REMARK INTRA:                  -1.218
REMARK UNBOUND:                -1.201
REMARK SMILES CCCCCCCCCCCCCCCCCCCCCC(=O)[O-]
REMARK SMILES IDX 12 1 11 2 10 3 9 4 8 5 7 6 6 7 5 8 4 9 3 10 2 11 1 12 13 13
REMARK SMILES IDX 14 14 15 15 16 16 17 17 18 18 19 19 20 20 21 21 22 22 23 23
REMARK SMILES IDX 24 24
REMARK H PARENT
REMARK Flexibility Score: inf
ROOT
ATOM      1  C   UNL     1      -6.345  20.663   5.218  1.00  0.00     0.000 C 
ENDROOT
BRANCH   1   2
ATOM      2  C   UNL     1      -5.613  20.720   6.570  1.00  0.00     0.000 C 
BRANCH   2   3
ATOM      3  C   UNL     1      -5.280  22.157   7.001  1.00  0.00     0.000 C 
BRANCH   3   4
ATOM      4  C   UNL     1      -3.769  22.399   7.140  1.00  0.00    -0.000 C 
BRANCH   4   5
ATOM      5  C   UNL     1      -3.238  21.811   8.453  1.00  0.00    -0.000 C 
BRANCH   5   6
ATOM      6  C   UNL     1      -1.732  22.076   8.606  1.00  0.00    -0.000 C 
BRANCH   6   7
ATOM      7  C   UNL     1      -1.385  22.793   9.921  1.00  0.00    -0.000 C 
BRANCH   7   8
ATOM      8  C   UNL     1      -0.218  23.783   9.763  1.00  0.00    -0.000 C 
BRANCH   8   9
ATOM      9  C   UNL     1      -0.658  25.119   9.144  1.00  0.00    -0.000 C 
BRANCH   9  10
ATOM     10  C   UNL     1      -0.013  26.335   9.834  1.00  0.00    -0.000 C 
BRANCH  10  11
ATOM     11  C   UNL     1      -0.302  26.376  11.342  1.00  0.00    -0.003 C 
ATOM     12  C   UNL     1      -1.467  27.301  11.696  1.00  0.00     0.004 C 
ENDBRANCH  10  11
ENDBRANCH   9  10
ENDBRANCH   8   9
ENDBRANCH   7   8
ENDBRANCH   6   7
ENDBRANCH   5   6
ENDBRANCH   4   5
ENDBRANCH   3   4
ENDBRANCH   2   3
ENDBRANCH   1   2
BRANCH   1  13
ATOM     13  C   UNL     1      -7.853  20.935   5.353  1.00  0.00     0.000 C 
BRANCH  13  14
ATOM     14  C   UNL     1      -8.429  20.425   6.686  1.00  0.00     0.000 C 
BRANCH  14  15
ATOM     15  C   UNL     1      -8.318  18.897   6.836  1.00  0.00     0.000 C 
BRANCH  15  16
ATOM     16  C   UNL     1      -7.803  18.413   8.207  1.00  0.00     0.000 C 
BRANCH  16  17
ATOM     17  C   UNL     1      -6.282  18.188   8.290  1.00  0.00     0.000 C 
BRANCH  17  18
ATOM     18  C   UNL     1      -5.727  18.379   9.709  1.00  0.00     0.000 C 
BRANCH  18  19
ATOM     19  C   UNL     1      -4.281  18.893   9.668  1.00  0.00     0.000 C 
BRANCH  19  20
ATOM     20  C   UNL     1      -3.272  17.904  10.280  1.00  0.00     0.006 C 
BRANCH  20  21
ATOM     21  C   UNL     1      -1.815  18.149   9.847  1.00  0.00     0.053 C 
BRANCH  21  22
ATOM     22  C   UNL     1      -1.169  16.925   9.272  1.00  0.00     0.041 C 
ATOM     23  O   UNL     1      -0.034  16.555   9.676  1.00  0.00    -0.550 OA
ATOM     24  O   UNL     1      -1.834  16.173   8.313  1.00  0.00    -0.550 OA
ENDBRANCH  21  22
ENDBRANCH  20  21
ENDBRANCH  19  20
ENDBRANCH  18  19
ENDBRANCH  17  18
ENDBRANCH  16  17
ENDBRANCH  15  16
ENDBRANCH  14  15
ENDBRANCH  13  14
ENDBRANCH   1  13
TORSDOF 20
ENDMDL
MODEL 8
REMARK VINA RESULT:    24.545      3.296     10.073
REMARK INTER + INTRA:          52.042
REMARK INTER:                  53.160
REMARK INTRA:                  -1.118
REMARK UNBOUND:                -1.201
REMARK SMILES CCCCCCCCCCCCCCCCCCCCCC(=O)[O-]
REMARK SMILES IDX 12 1 11 2 10 3 9 4 8 5 7 6 6 7 5 8 4 9 3 10 2 11 1 12 13 13
REMARK SMILES IDX 14 14 15 15 16 16 17 17 18 18 19 19 20 20 21 21 22 22 23 23
REMARK SMILES IDX 24 24
REMARK H PARENT
REMARK Flexibility Score: inf
ROOT
ATOM      1  C   UNL     1      -0.820  17.677  21.006  1.00  0.00     0.000 C 
ENDROOT
BRANCH   1   2
ATOM      2  C   UNL     1      -0.890  19.167  20.629  1.00  0.00     0.000 C 
BRANCH   2   3
ATOM      3  C   UNL     1      -0.385  20.085  21.754  1.00  0.00     0.000 C 
BRANCH   3   4
ATOM      4  C   UNL     1      -0.870  21.534  21.599  1.00  0.00    -0.000 C 
BRANCH   4   5
ATOM      5  C   UNL     1      -1.547  22.026  22.885  1.00  0.00    -0.000 C 
BRANCH   5   6
ATOM      6  C   UNL     1      -1.611  23.561  22.921  1.00  0.00    -0.000 C 
BRANCH   6   7
ATOM      7  C   UNL     1      -2.984  24.109  22.501  1.00  0.00    -0.000 C 
BRANCH   7   8
ATOM      8  C   UNL     1      -3.006  25.645  22.417  1.00  0.00    -0.000 C 
BRANCH   8   9
ATOM      9  C   UNL     1      -3.196  26.154  20.979  1.00  0.00    -0.000 C 
BRANCH   9  10
ATOM     10  C   UNL     1      -4.059  27.427  20.908  1.00  0.00    -0.000 C 
BRANCH  10  11
ATOM     11  C   UNL     1      -3.730  28.293  19.683  1.00  0.00    -0.003 C 
ATOM     12  C   UNL     1      -2.586  29.273  19.943  1.00  0.00     0.004 C 
ENDBRANCH  10  11
ENDBRANCH   9  10
ENDBRANCH   8   9
ENDBRANCH   7   8
ENDBRANCH   6   7
ENDBRANCH   5   6
ENDBRANCH   4   5
ENDBRANCH   3   4
ENDBRANCH   2   3
ENDBRANCH   1   2
BRANCH   1  13
ATOM     13  C   UNL     1      -0.065  16.840  19.959  1.00  0.00     0.000 C 
BRANCH  13  14
ATOM     14  C   UNL     1      -0.599  15.401  19.853  1.00  0.00     0.000 C 
BRANCH  14  15
ATOM     15  C   UNL     1      -0.448  14.813  18.439  1.00  0.00     0.000 C 
BRANCH  15  16
ATOM     16  C   UNL     1      -0.979  13.375  18.272  1.00  0.00     0.000 C 
BRANCH  16  17
ATOM     17  C   UNL     1      -1.635  12.772  19.528  1.00  0.00     0.000 C 
BRANCH  17  18
ATOM     18  C   UNL     1      -3.166  12.703  19.427  1.00  0.00     0.000 C 
BRANCH  18  19
ATOM     19  C   UNL     1      -3.821  13.060  20.768  1.00  0.00     0.000 C 
BRANCH  19  20
ATOM     20  C   UNL     1      -4.912  14.139  20.639  1.00  0.00     0.006 C 
BRANCH  20  21
ATOM     21  C   UNL     1      -4.369  15.580  20.637  1.00  0.00     0.053 C 
BRANCH  21  22
ATOM     22  C   UNL     1      -5.459  16.609  20.624  1.00  0.00     0.041 C 
ATOM     23  O   UNL     1      -6.556  16.366  20.055  1.00  0.00    -0.550 OA
ATOM     24  O   UNL     1      -5.275  17.824  21.270  1.00  0.00    -0.550 OA
ENDBRANCH  21  22
ENDBRANCH  20  21
ENDBRANCH  19  20
ENDBRANCH  18  19
ENDBRANCH  17  18
ENDBRANCH  16  17
ENDBRANCH  15  16
ENDBRANCH  14  15
ENDBRANCH  13  14
ENDBRANCH   1  13
TORSDOF 20
ENDMDL
MODEL 9
REMARK VINA RESULT:    24.708     11.707     15.282
REMARK INTER + INTRA:          52.396
REMARK INTER:                  53.688
REMARK INTRA:                  -1.292
REMARK UNBOUND:                -1.201
REMARK SMILES CCCCCCCCCCCCCCCCCCCCCC(=O)[O-]
REMARK SMILES IDX 12 1 11 2 10 3 9 4 8 5 7 6 6 7 5 8 4 9 3 10 2 11 1 12 13 13
REMARK SMILES IDX 14 14 15 15 16 16 17 17 18 18 19 19 20 20 21 21 22 22 23 23
REMARK SMILES IDX 24 24
REMARK H PARENT
REMARK Flexibility Score: inf
ROOT
ATOM      1  C   UNL     1      -6.270  20.904   6.062  1.00  0.00     0.000 C 
ENDROOT
BRANCH   1   2
ATOM      2  C   UNL     1      -4.911  21.418   6.568  1.00  0.00     0.000 C 
BRANCH   2   3
ATOM      3  C   UNL     1      -5.029  22.208   7.881  1.00  0.00     0.000 C 
BRANCH   3   4
ATOM      4  C   UNL     1      -3.979  21.791   8.921  1.00  0.00    -0.000 C 
BRANCH   4   5
ATOM      5  C   UNL     1      -2.568  21.829   8.322  1.00  0.00    -0.000 C 
BRANCH   5   6
ATOM      6  C   UNL     1      -1.522  22.163   9.397  1.00  0.00    -0.000 C 
BRANCH   6   7
ATOM      7  C   UNL     1      -0.585  23.308   8.980  1.00  0.00    -0.000 C 
BRANCH   7   8
ATOM      8  C   UNL     1      -0.383  24.343  10.100  1.00  0.00    -0.000 C 
BRANCH   8   9
ATOM      9  C   UNL     1      -0.351  25.786   9.570  1.00  0.00    -0.000 C 
BRANCH   9  10
ATOM     10  C   UNL     1      -0.013  26.814  10.666  1.00  0.00    -0.000 C 
BRANCH  10  11
ATOM     11  C   UNL     1      -1.231  27.653  11.080  1.00  0.00    -0.003 C 
ATOM     12  C   UNL     1      -1.562  27.520  12.567  1.00  0.00     0.004 C 
ENDBRANCH  10  11
ENDBRANCH   9  10
ENDBRANCH   8   9
ENDBRANCH   7   8
ENDBRANCH   6   7
ENDBRANCH   5   6
ENDBRANCH   4   5
ENDBRANCH   3   4
ENDBRANCH   2   3
ENDBRANCH   1   2
BRANCH   1  13
ATOM     13  C   UNL     1      -6.398  19.375   6.173  1.00  0.00     0.000 C 
BRANCH  13  14
ATOM     14  C   UNL     1      -7.004  18.927   7.514  1.00  0.00     0.000 C 
BRANCH  14  15
ATOM     15  C   UNL     1      -6.017  18.114   8.370  1.00  0.00     0.000 C 
BRANCH  15  16
ATOM     16  C   UNL     1      -5.969  16.605   8.052  1.00  0.00     0.000 C 
BRANCH  16  17
ATOM     17  C   UNL     1      -4.897  16.189   7.028  1.00  0.00     0.000 C 
BRANCH  17  18
ATOM     18  C   UNL     1      -3.904  15.161   7.588  1.00  0.00     0.000 C 
BRANCH  18  19
ATOM     19  C   UNL     1      -2.479  15.732   7.614  1.00  0.00     0.000 C 
BRANCH  19  20
ATOM     20  C   UNL     1      -1.704  15.364   8.892  1.00  0.00     0.006 C 
BRANCH  20  21
ATOM     21  C   UNL     1      -0.796  16.490   9.419  1.00  0.00     0.053 C 
BRANCH  21  22
ATOM     22  C   UNL     1      -1.555  17.742   9.740  1.00  0.00     0.041 C 
ATOM     23  O   UNL     1      -2.604  17.690  10.435  1.00  0.00    -0.550 OA
ATOM     24  O   UNL     1      -1.084  18.972   9.299  1.00  0.00    -0.550 OA
ENDBRANCH  21  22
ENDBRANCH  20  21
ENDBRANCH  19  20
ENDBRANCH  18  19
ENDBRANCH  17  18
ENDBRANCH  16  17
ENDBRANCH  15  16
ENDBRANCH  14  15
ENDBRANCH  13  14
ENDBRANCH   1  13
TORSDOF 20
ENDMDL
