MODEL 1
REMARK VINA RESULT:    -4.199      0.000      0.000
REMARK INTER + INTRA:         -13.082
REMARK INTER:                  -9.109
REMARK INTRA:                  -3.973
REMARK UNBOUND:                -3.973
REMARK SMILES CCCCCCCCCCCCCCCCCCCCCC(=O)[O-]
REMARK SMILES IDX 12 1 11 2 10 3 9 4 8 5 7 6 6 7 5 8 4 9 3 10 2 11 1 12 13 13
REMARK SMILES IDX 14 14 15 15 16 16 17 17 18 18 19 19 20 20 21 21 22 22 23 23
REMARK SMILES IDX 24 24
REMARK H PARENT
REMARK Flexibility Score: inf
ROOT
ATOM      1  C   UNL     1      41.619  63.676  13.000  1.00  0.00     0.000 C 
ENDROOT
BRANCH   1   2
ATOM      2  C   UNL     1      42.254  63.673  11.597  1.00  0.00     0.000 C 
BRANCH   2   3
ATOM      3  C   UNL     1      43.739  64.091  11.547  1.00  0.00     0.000 C 
BRANCH   3   4
ATOM      4  C   UNL     1      44.618  63.527  12.677  1.00  0.00    -0.000 C 
BRANCH   4   5
ATOM      5  C   UNL     1      44.970  62.045  12.477  1.00  0.00    -0.000 C 
BRANCH   5   6
ATOM      6  C   UNL     1      44.297  61.174  13.545  1.00  0.00    -0.000 C 
BRANCH   6   7
ATOM      7  C   UNL     1      43.789  59.856  12.942  1.00  0.00    -0.000 C 
BRANCH   7   8
ATOM      8  C   UNL     1      42.548  60.052  12.057  1.00  0.00    -0.000 C 
BRANCH   8   9
ATOM      9  C   UNL     1      42.792  59.640  10.595  1.00  0.00    -0.000 C 
BRANCH   9  10
ATOM     10  C   UNL     1      42.459  60.764   9.601  1.00  0.00    -0.000 C 
BRANCH  10  11
ATOM     11  C   UNL     1      43.711  61.359   8.941  1.00  0.00    -0.003 C 
ATOM     12  C   UNL     1      44.921  60.449   9.133  1.00  0.00     0.004 C 
ENDBRANCH  10  11
ENDBRANCH   9  10
ENDBRANCH   8   9
ENDBRANCH   7   8
ENDBRANCH   6   7
ENDBRANCH   5   6
ENDBRANCH   4   5
ENDBRANCH   3   4
ENDBRANCH   2   3
ENDBRANCH   1   2
BRANCH   1  13
ATOM     13  C   UNL     1      40.272  62.936  13.102  1.00  0.00     0.000 C 
BRANCH  13  14
ATOM     14  C   UNL     1      39.739  62.427  11.745  1.00  0.00     0.000 C 
BRANCH  14  15
ATOM     15  C   UNL     1      38.510  63.216  11.264  1.00  0.00     0.000 C 
BRANCH  15  16
ATOM     16  C   UNL     1      38.789  64.033   9.992  1.00  0.00     0.000 C 
BRANCH  16  17
ATOM     17  C   UNL     1      39.583  63.240   8.938  1.00  0.00     0.000 C 
BRANCH  17  18
ATOM     18  C   UNL     1      40.241  64.161   7.888  1.00  0.00     0.000 C 
BRANCH  18  19
ATOM     19  C   UNL     1      41.756  64.328   8.086  1.00  0.00     0.000 C 
BRANCH  19  20
ATOM     20  C   UNL     1      42.144  65.737   8.562  1.00  0.00     0.006 C 
BRANCH  20  21
ATOM     21  C   UNL     1      43.122  66.424   7.600  1.00  0.00     0.053 C 
BRANCH  21  22
ATOM     22  C   UNL     1      42.403  67.114   6.481  1.00  0.00     0.041 C 
ATOM     23  O   UNL     1      41.383  67.814   6.718  1.00  0.00    -0.550 OA
ATOM     24  O   UNL     1      42.879  67.009   5.181  1.00  0.00    -0.550 OA
ENDBRANCH  21  22
ENDBRANCH  20  21
ENDBRANCH  19  20
ENDBRANCH  18  19
ENDBRANCH  17  18
ENDBRANCH  16  17
ENDBRANCH  15  16
ENDBRANCH  14  15
ENDBRANCH  13  14
ENDBRANCH   1  13
TORSDOF 20
ENDMDL
MODEL 2
REMARK VINA RESULT:    -4.153      1.519      4.200
REMARK INTER + INTRA:         -12.982
REMARK INTER:                  -9.575
REMARK INTRA:                  -3.408
REMARK UNBOUND:                -3.973
REMARK SMILES CCCCCCCCCCCCCCCCCCCCCC(=O)[O-]
REMARK SMILES IDX 12 1 11 2 10 3 9 4 8 5 7 6 6 7 5 8 4 9 3 10 2 11 1 12 13 13
REMARK SMILES IDX 14 14 15 15 16 16 17 17 18 18 19 19 20 20 21 21 22 22 23 23
REMARK SMILES IDX 24 24
REMARK H PARENT
REMARK Flexibility Score: inf
ROOT
ATOM      1  C   UNL     1      44.964  60.145   9.564  1.00  0.00     0.000 C 
ENDROOT
BRANCH   1   2
ATOM      2  C   UNL     1      45.061  60.485  11.063  1.00  0.00     0.000 C 
BRANCH   2   3
ATOM      3  C   UNL     1      43.737  60.378  11.849  1.00  0.00     0.000 C 
BRANCH   3   4
ATOM      4  C   UNL     1      43.519  61.464  12.917  1.00  0.00    -0.000 C 
BRANCH   4   5
ATOM      5  C   UNL     1      44.748  62.363  13.115  1.00  0.00    -0.000 C 
BRANCH   5   6
ATOM      6  C   UNL     1      44.588  63.683  12.351  1.00  0.00    -0.000 C 
BRANCH   6   7
ATOM      7  C   UNL     1      43.119  63.931  11.979  1.00  0.00    -0.000 C 
BRANCH   7   8
ATOM      8  C   UNL     1      42.930  64.215  10.480  1.00  0.00    -0.000 C 
BRANCH   8   9
ATOM      9  C   UNL     1      41.507  63.893   9.991  1.00  0.00    -0.000 C 
BRANCH   9  10
ATOM     10  C   UNL     1      40.867  62.728  10.763  1.00  0.00    -0.000 C 
BRANCH  10  11
ATOM     11  C   UNL     1      39.610  63.151  11.537  1.00  0.00    -0.003 C 
ATOM     12  C   UNL     1      39.754  62.849  13.026  1.00  0.00     0.004 C 
ENDBRANCH  10  11
ENDBRANCH   9  10
ENDBRANCH   8   9
ENDBRANCH   7   8
ENDBRANCH   6   7
ENDBRANCH   5   6
ENDBRANCH   4   5
ENDBRANCH   3   4
ENDBRANCH   2   3
ENDBRANCH   1   2
BRANCH   1  13
ATOM     13  C   UNL     1      44.312  61.235   8.694  1.00  0.00     0.000 C 
BRANCH  13  14
ATOM     14  C   UNL     1      42.859  60.913   8.279  1.00  0.00     0.000 C 
BRANCH  14  15
ATOM     15  C   UNL     1      42.378  61.783   7.106  1.00  0.00     0.000 C 
BRANCH  15  16
ATOM     16  C   UNL     1      43.246  63.036   6.900  1.00  0.00     0.000 C 
BRANCH  16  17
ATOM     17  C   UNL     1      42.634  64.023   5.891  1.00  0.00     0.000 C 
BRANCH  17  18
ATOM     18  C   UNL     1      43.383  65.373   5.867  1.00  0.00     0.000 C 
BRANCH  18  19
ATOM     19  C   UNL     1      43.518  66.022   7.254  1.00  0.00     0.000 C 
BRANCH  19  20
ATOM     20  C   UNL     1      42.630  67.265   7.421  1.00  0.00     0.006 C 
BRANCH  20  21
ATOM     21  C   UNL     1      41.155  66.898   7.635  1.00  0.00     0.053 C 
BRANCH  21  22
ATOM     22  C   UNL     1      40.281  67.475   6.565  1.00  0.00     0.041 C 
ATOM     23  O   UNL     1      40.788  67.918   5.501  1.00  0.00    -0.550 OA
ATOM     24  O   UNL     1      38.902  67.494   6.730  1.00  0.00    -0.550 OA
ENDBRANCH  21  22
ENDBRANCH  20  21
ENDBRANCH  19  20
ENDBRANCH  18  19
ENDBRANCH  17  18
ENDBRANCH  16  17
ENDBRANCH  15  16
ENDBRANCH  14  15
ENDBRANCH  13  14
ENDBRANCH   1  13
TORSDOF 20
ENDMDL
MODEL 3
REMARK VINA RESULT:    -4.145      2.512      6.976
REMARK INTER + INTRA:         -12.966
REMARK INTER:                  -9.641
REMARK INTRA:                  -3.325
REMARK UNBOUND:                -3.973
REMARK SMILES CCCCCCCCCCCCCCCCCCCCCC(=O)[O-]
REMARK SMILES IDX 12 1 11 2 10 3 9 4 8 5 7 6 6 7 5 8 4 9 3 10 2 11 1 12 13 13
REMARK SMILES IDX 14 14 15 15 16 16 17 17 18 18 19 19 20 20 21 21 22 22 23 23
REMARK SMILES IDX 24 24
REMARK H PARENT
REMARK Flexibility Score: inf
ROOT
ATOM      1  C   UNL     1      43.935  61.108   8.165  1.00  0.00     0.000 C 
ENDROOT
BRANCH   1   2
ATOM      2  C   UNL     1      43.228  62.399   7.713  1.00  0.00     0.000 C 
BRANCH   2   3
ATOM      3  C   UNL     1      41.965  62.190   6.851  1.00  0.00     0.000 C 
BRANCH   3   4
ATOM      4  C   UNL     1      41.923  62.998   5.542  1.00  0.00    -0.000 C 
BRANCH   4   5
ATOM      5  C   UNL     1      43.098  63.979   5.408  1.00  0.00    -0.000 C 
BRANCH   5   6
ATOM      6  C   UNL     1      42.818  65.021   4.317  1.00  0.00    -0.000 C 
BRANCH   6   7
ATOM      7  C   UNL     1      43.416  66.384   4.690  1.00  0.00    -0.000 C 
BRANCH   7   8
ATOM      8  C   UNL     1      42.338  67.447   4.962  1.00  0.00    -0.000 C 
BRANCH   8   9
ATOM      9  C   UNL     1      41.685  67.288   6.346  1.00  0.00    -0.000 C 
BRANCH   9  10
ATOM     10  C   UNL     1      42.719  67.098   7.467  1.00  0.00    -0.000 C 
BRANCH  10  11
ATOM     11  C   UNL     1      42.332  65.977   8.444  1.00  0.00    -0.003 C 
ATOM     12  C   UNL     1      40.898  65.512   8.206  1.00  0.00     0.004 C 
ENDBRANCH  10  11
ENDBRANCH   9  10
ENDBRANCH   8   9
ENDBRANCH   7   8
ENDBRANCH   6   7
ENDBRANCH   5   6
ENDBRANCH   4   5
ENDBRANCH   3   4
ENDBRANCH   2   3
ENDBRANCH   1   2
BRANCH   1  13
ATOM     13  C   UNL     1      44.335  61.076   9.652  1.00  0.00     0.000 C 
BRANCH  13  14
ATOM     14  C   UNL     1      43.919  59.778  10.379  1.00  0.00     0.000 C 
BRANCH  14  15
ATOM     15  C   UNL     1      43.019  60.049  11.595  1.00  0.00     0.000 C 
BRANCH  15  16
ATOM     16  C   UNL     1      43.774  59.937  12.931  1.00  0.00     0.000 C 
BRANCH  16  17
ATOM     17  C   UNL     1      43.851  61.277  13.684  1.00  0.00     0.000 C 
BRANCH  17  18
ATOM     18  C   UNL     1      44.974  62.187  13.142  1.00  0.00     0.000 C 
BRANCH  18  19
ATOM     19  C   UNL     1      44.453  63.476  12.486  1.00  0.00     0.000 C 
BRANCH  19  20
ATOM     20  C   UNL     1      42.923  63.603  12.552  1.00  0.00     0.006 C 
BRANCH  20  21
ATOM     21  C   UNL     1      42.286  63.652  11.157  1.00  0.00     0.053 C 
BRANCH  21  22
ATOM     22  C   UNL     1      40.960  62.956  11.130  1.00  0.00     0.041 C 
ATOM     23  O   UNL     1      40.582  62.347  10.095  1.00  0.00    -0.550 OA
ATOM     24  O   UNL     1      40.154  62.955  12.261  1.00  0.00    -0.550 OA
ENDBRANCH  21  22
ENDBRANCH  20  21
ENDBRANCH  19  20
ENDBRANCH  18  19
ENDBRANCH  17  18
ENDBRANCH  16  17
ENDBRANCH  15  16
ENDBRANCH  14  15
ENDBRANCH  13  14
ENDBRANCH   1  13
TORSDOF 20
ENDMDL
MODEL 4
REMARK VINA RESULT:    -4.132      2.586      6.090
REMARK INTER + INTRA:         -12.937
REMARK INTER:                  -9.087
REMARK INTRA:                  -3.850
REMARK UNBOUND:                -3.973
REMARK SMILES CCCCCCCCCCCCCCCCCCCCCC(=O)[O-]
REMARK SMILES IDX 12 1 11 2 10 3 9 4 8 5 7 6 6 7 5 8 4 9 3 10 2 11 1 12 13 13
REMARK SMILES IDX 14 14 15 15 16 16 17 17 18 18 19 19 20 20 21 21 22 22 23 23
REMARK SMILES IDX 24 24
REMARK H PARENT
REMARK Flexibility Score: inf
ROOT
ATOM      1  C   UNL     1      44.650  62.964  12.549  1.00  0.00     0.000 C 
ENDROOT
BRANCH   1   2
ATOM      2  C   UNL     1      43.854  64.123  11.920  1.00  0.00     0.000 C 
BRANCH   2   3
ATOM      3  C   UNL     1      42.527  63.719  11.244  1.00  0.00     0.000 C 
BRANCH   3   4
ATOM      4  C   UNL     1      42.573  63.631   9.708  1.00  0.00    -0.000 C 
BRANCH   4   5
ATOM      5  C   UNL     1      41.249  64.042   9.047  1.00  0.00    -0.000 C 
BRANCH   5   6
ATOM      6  C   UNL     1      41.063  63.323   7.704  1.00  0.00    -0.000 C 
BRANCH   6   7
ATOM      7  C   UNL     1      42.417  62.913   7.106  1.00  0.00    -0.000 C 
BRANCH   7   8
ATOM      8  C   UNL     1      42.728  63.651   5.793  1.00  0.00    -0.000 C 
BRANCH   8   9
ATOM      9  C   UNL     1      43.638  64.874   6.002  1.00  0.00    -0.000 C 
BRANCH   9  10
ATOM     10  C   UNL     1      42.910  66.202   5.742  1.00  0.00    -0.000 C 
BRANCH  10  11
ATOM     11  C   UNL     1      42.577  66.956   7.037  1.00  0.00    -0.003 C 
ATOM     12  C   UNL     1      43.662  66.750   8.090  1.00  0.00     0.004 C 
ENDBRANCH  10  11
ENDBRANCH   9  10
ENDBRANCH   8   9
ENDBRANCH   7   8
ENDBRANCH   6   7
ENDBRANCH   5   6
ENDBRANCH   4   5
ENDBRANCH   3   4
ENDBRANCH   2   3
ENDBRANCH   1   2
BRANCH   1  13
ATOM     13  C   UNL     1      43.838  61.677  12.788  1.00  0.00     0.000 C 
BRANCH  13  14
ATOM     14  C   UNL     1      44.426  60.432  12.087  1.00  0.00     0.000 C 
BRANCH  14  15
ATOM     15  C   UNL     1      45.245  60.795  10.838  1.00  0.00     0.000 C 
BRANCH  15  16
ATOM     16  C   UNL     1      44.948  59.872   9.644  1.00  0.00     0.000 C 
BRANCH  16  17
ATOM     17  C   UNL     1      43.615  60.206   8.952  1.00  0.00     0.000 C 
BRANCH  17  18
ATOM     18  C   UNL     1      42.438  59.386   9.525  1.00  0.00     0.000 C 
BRANCH  18  19
ATOM     19  C   UNL     1      41.122  60.177   9.600  1.00  0.00     0.000 C 
BRANCH  19  20
ATOM     20  C   UNL     1      40.763  60.602  11.033  1.00  0.00     0.006 C 
BRANCH  20  21
ATOM     21  C   UNL     1      39.279  60.967  11.173  1.00  0.00     0.053 C 
BRANCH  21  22
ATOM     22  C   UNL     1      39.100  62.353  11.713  1.00  0.00     0.041 C 
ATOM     23  O   UNL     1      38.444  63.209  11.062  1.00  0.00    -0.550 OA
ATOM     24  O   UNL     1      39.633  62.690  12.950  1.00  0.00    -0.550 OA
ENDBRANCH  21  22
ENDBRANCH  20  21
ENDBRANCH  19  20
ENDBRANCH  18  19
ENDBRANCH  17  18
ENDBRANCH  16  17
ENDBRANCH  15  16
ENDBRANCH  14  15
ENDBRANCH  13  14
ENDBRANCH   1  13
TORSDOF 20
ENDMDL
MODEL 5
REMARK VINA RESULT:    -4.122      1.765      4.375
REMARK INTER + INTRA:         -12.914
REMARK INTER:                  -9.216
REMARK INTRA:                  -3.699
REMARK UNBOUND:                -3.973
REMARK SMILES CCCCCCCCCCCCCCCCCCCCCC(=O)[O-]
REMARK SMILES IDX 12 1 11 2 10 3 9 4 8 5 7 6 6 7 5 8 4 9 3 10 2 11 1 12 13 13
REMARK SMILES IDX 14 14 15 15 16 16 17 17 18 18 19 19 20 20 21 21 22 22 23 23
REMARK SMILES IDX 24 24
REMARK H PARENT
REMARK Flexibility Score: inf
ROOT
ATOM      1  C   UNL     1      44.277  61.141   8.885  1.00  0.00     0.000 C 
ENDROOT
BRANCH   1   2
ATOM      2  C   UNL     1      44.249  60.208  10.110  1.00  0.00     0.000 C 
BRANCH   2   3
ATOM      3  C   UNL     1      42.842  59.791  10.586  1.00  0.00     0.000 C 
BRANCH   3   4
ATOM      4  C   UNL     1      42.658  59.725  12.112  1.00  0.00    -0.000 C 
BRANCH   4   5
ATOM      5  C   UNL     1      43.969  59.949  12.881  1.00  0.00    -0.000 C 
BRANCH   5   6
ATOM      6  C   UNL     1      43.882  61.206  13.756  1.00  0.00    -0.000 C 
BRANCH   6   7
ATOM      7  C   UNL     1      44.988  62.208  13.394  1.00  0.00    -0.000 C 
BRANCH   7   8
ATOM      8  C   UNL     1      44.567  63.171  12.272  1.00  0.00    -0.000 C 
BRANCH   8   9
ATOM      9  C   UNL     1      43.125  63.682  12.440  1.00  0.00    -0.000 C 
BRANCH   9  10
ATOM     10  C   UNL     1      42.316  63.602  11.136  1.00  0.00    -0.000 C 
BRANCH  10  11
ATOM     11  C   UNL     1      40.960  62.906  11.324  1.00  0.00    -0.003 C 
ATOM     12  C   UNL     1      40.586  62.820  12.801  1.00  0.00     0.004 C 
ENDBRANCH  10  11
ENDBRANCH   9  10
ENDBRANCH   8   9
ENDBRANCH   7   8
ENDBRANCH   6   7
ENDBRANCH   5   6
ENDBRANCH   4   5
ENDBRANCH   3   4
ENDBRANCH   2   3
ENDBRANCH   1   2
BRANCH   1  13
ATOM     13  C   UNL     1      43.005  61.109   8.018  1.00  0.00     0.000 C 
BRANCH  13  14
ATOM     14  C   UNL     1      42.370  62.499   7.794  1.00  0.00     0.000 C 
BRANCH  14  15
ATOM     15  C   UNL     1      42.556  63.004   6.354  1.00  0.00     0.000 C 
BRANCH  15  16
ATOM     16  C   UNL     1      43.456  64.248   6.272  1.00  0.00     0.000 C 
BRANCH  16  17
ATOM     17  C   UNL     1      43.136  65.287   7.362  1.00  0.00     0.000 C 
BRANCH  17  18
ATOM     18  C   UNL     1      42.912  66.698   6.776  1.00  0.00     0.000 C 
BRANCH  18  19
ATOM     19  C   UNL     1      41.507  67.258   7.052  1.00  0.00     0.000 C 
BRANCH  19  20
ATOM     20  C   UNL     1      40.840  66.617   8.280  1.00  0.00     0.006 C 
BRANCH  20  21
ATOM     21  C   UNL     1      39.391  66.196   7.997  1.00  0.00     0.053 C 
BRANCH  21  22
ATOM     22  C   UNL     1      39.314  64.788   7.491  1.00  0.00     0.041 C 
ATOM     23  O   UNL     1      39.398  64.551   6.258  1.00  0.00    -0.550 OA
ATOM     24  O   UNL     1      39.180  63.736   8.387  1.00  0.00    -0.550 OA
ENDBRANCH  21  22
ENDBRANCH  20  21
ENDBRANCH  19  20
ENDBRANCH  18  19
ENDBRANCH  17  18
ENDBRANCH  16  17
ENDBRANCH  15  16
ENDBRANCH  14  15
ENDBRANCH  13  14
ENDBRANCH   1  13
TORSDOF 20
ENDMDL
MODEL 6
REMARK VINA RESULT:    -4.106      2.434      6.184
REMARK INTER + INTRA:         -12.879
REMARK INTER:                  -9.206
REMARK INTRA:                  -3.674
REMARK UNBOUND:                -3.973
REMARK SMILES CCCCCCCCCCCCCCCCCCCCCC(=O)[O-]
REMARK SMILES IDX 12 1 11 2 10 3 9 4 8 5 7 6 6 7 5 8 4 9 3 10 2 11 1 12 13 13
REMARK SMILES IDX 14 14 15 15 16 16 17 17 18 18 19 19 20 20 21 21 22 22 23 23
REMARK SMILES IDX 24 24
REMARK H PARENT
REMARK Flexibility Score: inf
ROOT
ATOM      1  C   UNL     1      41.492  63.429  13.089  1.00  0.00     0.000 C 
ENDROOT
BRANCH   1   2
ATOM      2  C   UNL     1      40.147  62.710  12.876  1.00  0.00     0.000 C 
BRANCH   2   3
ATOM      3  C   UNL     1      39.419  63.055  11.559  1.00  0.00     0.000 C 
BRANCH   3   4
ATOM      4  C   UNL     1      39.218  61.875  10.592  1.00  0.00    -0.000 C 
BRANCH   4   5
ATOM      5  C   UNL     1      39.214  62.306   9.118  1.00  0.00    -0.000 C 
BRANCH   5   6
ATOM      6  C   UNL     1      39.992  63.614   8.928  1.00  0.00    -0.000 C 
BRANCH   6   7
ATOM      7  C   UNL     1      41.042  63.475   7.816  1.00  0.00    -0.000 C 
BRANCH   7   8
ATOM      8  C   UNL     1      42.401  64.077   8.210  1.00  0.00    -0.000 C 
BRANCH   8   9
ATOM      9  C   UNL     1      42.315  65.580   8.523  1.00  0.00    -0.000 C 
BRANCH   9  10
ATOM     10  C   UNL     1      42.846  66.453   7.374  1.00  0.00    -0.000 C 
BRANCH  10  11
ATOM     11  C   UNL     1      43.545  65.631   6.282  1.00  0.00    -0.003 C 
ATOM     12  C   UNL     1      43.342  66.259   4.906  1.00  0.00     0.004 C 
ENDBRANCH  10  11
ENDBRANCH   9  10
ENDBRANCH   8   9
ENDBRANCH   7   8
ENDBRANCH   6   7
ENDBRANCH   5   6
ENDBRANCH   4   5
ENDBRANCH   3   4
ENDBRANCH   2   3
ENDBRANCH   1   2
BRANCH   1  13
ATOM     13  C   UNL     1      42.304  63.677  11.805  1.00  0.00     0.000 C 
BRANCH  13  14
ATOM     14  C   UNL     1      43.806  63.937  12.059  1.00  0.00     0.000 C 
BRANCH  14  15
ATOM     15  C   UNL     1      44.640  62.647  12.008  1.00  0.00     0.000 C 
BRANCH  15  16
ATOM     16  C   UNL     1      44.956  62.087  13.405  1.00  0.00     0.000 C 
BRANCH  16  17
ATOM     17  C   UNL     1      43.977  60.980  13.836  1.00  0.00     0.000 C 
BRANCH  17  18
ATOM     18  C   UNL     1      43.773  59.919  12.733  1.00  0.00     0.000 C 
BRANCH  18  19
ATOM     19  C   UNL     1      42.331  59.857  12.204  1.00  0.00     0.000 C 
BRANCH  19  20
ATOM     20  C   UNL     1      42.256  59.458  10.722  1.00  0.00     0.006 C 
BRANCH  20  21
ATOM     21  C   UNL     1      42.620  60.623   9.790  1.00  0.00     0.053 C 
BRANCH  21  22
ATOM     22  C   UNL     1      43.893  60.357   9.046  1.00  0.00     0.041 C 
ATOM     23  O   UNL     1      44.327  61.194   8.212  1.00  0.00    -0.550 OA
ATOM     24  O   UNL     1      44.616  59.199   9.299  1.00  0.00    -0.550 OA
ENDBRANCH  21  22
ENDBRANCH  20  21
ENDBRANCH  19  20
ENDBRANCH  18  19
ENDBRANCH  17  18
ENDBRANCH  16  17
ENDBRANCH  15  16
ENDBRANCH  14  15
ENDBRANCH  13  14
ENDBRANCH   1  13
TORSDOF 20
ENDMDL
MODEL 7
REMARK VINA RESULT:    -4.056      1.855      4.092
REMARK INTER + INTRA:         -12.771
REMARK INTER:                  -8.902
REMARK INTRA:                  -3.869
REMARK UNBOUND:                -3.973
REMARK SMILES CCCCCCCCCCCCCCCCCCCCCC(=O)[O-]
REMARK SMILES IDX 12 1 11 2 10 3 9 4 8 5 7 6 6 7 5 8 4 9 3 10 2 11 1 12 13 13
REMARK SMILES IDX 14 14 15 15 16 16 17 17 18 18 19 19 20 20 21 21 22 22 23 23
REMARK SMILES IDX 24 24
REMARK H PARENT
REMARK Flexibility Score: inf
ROOT
ATOM      1  C   UNL     1      40.840  64.086   9.280  1.00  0.00     0.000 C 
ENDROOT
BRANCH   1   2
ATOM      2  C   UNL     1      41.240  62.618   9.043  1.00  0.00     0.000 C 
BRANCH   2   3
ATOM      3  C   UNL     1      42.757  62.362   8.916  1.00  0.00     0.000 C 
BRANCH   3   4
ATOM      4  C   UNL     1      43.208  60.925   9.230  1.00  0.00    -0.000 C 
BRANCH   4   5
ATOM      5  C   UNL     1      44.735  60.783   9.310  1.00  0.00    -0.000 C 
BRANCH   5   6
ATOM      6  C   UNL     1      45.183  60.505  10.750  1.00  0.00    -0.000 C 
BRANCH   6   7
ATOM      7  C   UNL     1      44.005  60.027  11.612  1.00  0.00    -0.000 C 
BRANCH   7   8
ATOM      8  C   UNL     1      44.293  60.140  13.118  1.00  0.00    -0.000 C 
BRANCH   8   9
ATOM      9  C   UNL     1      43.713  61.423  13.738  1.00  0.00    -0.000 C 
BRANCH   9  10
ATOM     10  C   UNL     1      42.444  61.904  13.017  1.00  0.00    -0.000 C 
BRANCH  10  11
ATOM     11  C   UNL     1      42.536  63.373  12.576  1.00  0.00    -0.003 C 
ATOM     12  C   UNL     1      43.971  63.751  12.220  1.00  0.00     0.004 C 
ENDBRANCH  10  11
ENDBRANCH   9  10
ENDBRANCH   8   9
ENDBRANCH   7   8
ENDBRANCH   6   7
ENDBRANCH   5   6
ENDBRANCH   4   5
ENDBRANCH   3   4
ENDBRANCH   2   3
ENDBRANCH   1   2
BRANCH   1  13
ATOM     13  C   UNL     1      42.010  65.086   9.266  1.00  0.00     0.000 C 
BRANCH  13  14
ATOM     14  C   UNL     1      41.846  66.221   8.231  1.00  0.00     0.000 C 
BRANCH  14  15
ATOM     15  C   UNL     1      43.197  66.748   7.720  1.00  0.00     0.000 C 
BRANCH  15  16
ATOM     16  C   UNL     1      43.502  66.304   6.280  1.00  0.00     0.000 C 
BRANCH  16  17
ATOM     17  C   UNL     1      43.619  64.776   6.141  1.00  0.00     0.000 C 
BRANCH  17  18
ATOM     18  C   UNL     1      42.748  64.226   4.992  1.00  0.00     0.000 C 
BRANCH  18  19
ATOM     19  C   UNL     1      41.549  63.394   5.478  1.00  0.00     0.000 C 
BRANCH  19  20
ATOM     20  C   UNL     1      40.251  64.213   5.563  1.00  0.00     0.006 C 
BRANCH  20  21
ATOM     21  C   UNL     1      40.233  65.375   4.561  1.00  0.00     0.053 C 
BRANCH  21  22
ATOM     22  C   UNL     1      39.887  66.672   5.226  1.00  0.00     0.041 C 
ATOM     23  O   UNL     1      40.547  67.713   4.970  1.00  0.00    -0.550 OA
ATOM     24  O   UNL     1      38.815  66.736   6.106  1.00  0.00    -0.550 OA
ENDBRANCH  21  22
ENDBRANCH  20  21
ENDBRANCH  19  20
ENDBRANCH  18  19
ENDBRANCH  17  18
ENDBRANCH  16  17
ENDBRANCH  15  16
ENDBRANCH  14  15
ENDBRANCH  13  14
ENDBRANCH   1  13
TORSDOF 20
ENDMDL
MODEL 8
REMARK VINA RESULT:    -4.012      3.102      6.795
REMARK INTER + INTRA:         -12.676
REMARK INTER:                  -9.303
REMARK INTRA:                  -3.372
REMARK UNBOUND:                -3.973
REMARK SMILES CCCCCCCCCCCCCCCCCCCCCC(=O)[O-]
REMARK SMILES IDX 12 1 11 2 10 3 9 4 8 5 7 6 6 7 5 8 4 9 3 10 2 11 1 12 13 13
REMARK SMILES IDX 14 14 15 15 16 16 17 17 18 18 19 19 20 20 21 21 22 22 23 23
REMARK SMILES IDX 24 24
REMARK H PARENT
REMARK Flexibility Score: inf
ROOT
ATOM      1  C   UNL     1      42.288  65.376   9.181  1.00  0.00     0.000 C 
ENDROOT
BRANCH   1   2
ATOM      2  C   UNL     1      40.904  65.457   8.509  1.00  0.00     0.000 C 
BRANCH   2   3
ATOM      3  C   UNL     1      40.603  66.785   7.783  1.00  0.00     0.000 C 
BRANCH   3   4
ATOM      4  C   UNL     1      41.840  67.571   7.314  1.00  0.00    -0.000 C 
BRANCH   4   5
ATOM      5  C   UNL     1      41.616  68.298   5.980  1.00  0.00    -0.000 C 
BRANCH   5   6
ATOM      6  C   UNL     1      41.732  67.323   4.801  1.00  0.00    -0.000 C 
BRANCH   6   7
ATOM      7  C   UNL     1      43.201  66.993   4.500  1.00  0.00    -0.000 C 
BRANCH   7   8
ATOM      8  C   UNL     1      43.454  65.481   4.383  1.00  0.00    -0.000 C 
BRANCH   8   9
ATOM      9  C   UNL     1      43.561  64.790   5.753  1.00  0.00    -0.000 C 
BRANCH   9  10
ATOM     10  C   UNL     1      42.654  63.554   5.862  1.00  0.00    -0.000 C 
BRANCH  10  11
ATOM     11  C   UNL     1      43.110  62.582   6.960  1.00  0.00    -0.003 C 
ATOM     12  C   UNL     1      42.095  61.460   7.158  1.00  0.00     0.004 C 
ENDBRANCH  10  11
ENDBRANCH   9  10
ENDBRANCH   8   9
ENDBRANCH   7   8
ENDBRANCH   6   7
ENDBRANCH   5   6
ENDBRANCH   4   5
ENDBRANCH   3   4
ENDBRANCH   2   3
ENDBRANCH   1   2
BRANCH   1  13
ATOM     13  C   UNL     1      42.423  64.280  10.254  1.00  0.00     0.000 C 
BRANCH  13  14
ATOM     14  C   UNL     1      41.318  63.203  10.185  1.00  0.00     0.000 C 
BRANCH  14  15
ATOM     15  C   UNL     1      40.895  62.707  11.577  1.00  0.00     0.000 C 
BRANCH  15  16
ATOM     16  C   UNL     1      41.790  63.255  12.701  1.00  0.00     0.000 C 
BRANCH  16  17
ATOM     17  C   UNL     1      42.009  62.239  13.835  1.00  0.00     0.000 C 
BRANCH  17  18
ATOM     18  C   UNL     1      43.291  61.403  13.630  1.00  0.00     0.000 C 
BRANCH  18  19
ATOM     19  C   UNL     1      44.332  62.092  12.732  1.00  0.00     0.000 C 
BRANCH  19  20
ATOM     20  C   UNL     1      45.035  61.115  11.776  1.00  0.00     0.006 C 
BRANCH  20  21
ATOM     21  C   UNL     1      44.447  61.167  10.360  1.00  0.00     0.053 C 
BRANCH  21  22
ATOM     22  C   UNL     1      43.712  59.906  10.020  1.00  0.00     0.041 C 
ATOM     23  O   UNL     1      44.111  59.173   9.077  1.00  0.00    -0.550 OA
ATOM     24  O   UNL     1      42.605  59.526  10.767  1.00  0.00    -0.550 OA
ENDBRANCH  21  22
ENDBRANCH  20  21
ENDBRANCH  19  20
ENDBRANCH  18  19
ENDBRANCH  17  18
ENDBRANCH  16  17
ENDBRANCH  15  16
ENDBRANCH  14  15
ENDBRANCH  13  14
ENDBRANCH   1  13
TORSDOF 20
ENDMDL
MODEL 9
REMARK VINA RESULT:    -4.002      1.949      4.766
REMARK INTER + INTRA:         -12.656
REMARK INTER:                  -9.128
REMARK INTRA:                  -3.528
REMARK UNBOUND:                -3.973
REMARK SMILES CCCCCCCCCCCCCCCCCCCCCC(=O)[O-]
REMARK SMILES IDX 12 1 11 2 10 3 9 4 8 5 7 6 6 7 5 8 4 9 3 10 2 11 1 12 13 13
REMARK SMILES IDX 14 14 15 15 16 16 17 17 18 18 19 19 20 20 21 21 22 22 23 23
REMARK SMILES IDX 24 24
REMARK H PARENT
REMARK Flexibility Score: inf
ROOT
ATOM      1  C   UNL     1      43.047  62.369   7.962  1.00  0.00     0.000 C 
ENDROOT
BRANCH   1   2
ATOM      2  C   UNL     1      43.891  61.137   8.338  1.00  0.00     0.000 C 
BRANCH   2   3
ATOM      3  C   UNL     1      43.178  60.101   9.233  1.00  0.00     0.000 C 
BRANCH   3   4
ATOM      4  C   UNL     1      41.760  60.490   9.686  1.00  0.00    -0.000 C 
BRANCH   4   5
ATOM      5  C   UNL     1      41.509  60.203  11.173  1.00  0.00    -0.000 C 
BRANCH   5   6
ATOM      6  C   UNL     1      42.682  59.428  11.786  1.00  0.00    -0.000 C 
BRANCH   6   7
ATOM      7  C   UNL     1      43.147  60.078  13.098  1.00  0.00    -0.000 C 
BRANCH   7   8
ATOM      8  C   UNL     1      44.559  60.678  12.990  1.00  0.00    -0.000 C 
BRANCH   8   9
ATOM      9  C   UNL     1      44.550  62.216  12.995  1.00  0.00    -0.000 C 
BRANCH   9  10
ATOM     10  C   UNL     1      44.276  62.809  11.604  1.00  0.00    -0.000 C 
BRANCH  10  11
ATOM     11  C   UNL     1      43.184  63.890  11.627  1.00  0.00    -0.003 C 
ATOM     12  C   UNL     1      42.094  63.548  12.638  1.00  0.00     0.004 C 
ENDBRANCH  10  11
ENDBRANCH   9  10
ENDBRANCH   8   9
ENDBRANCH   7   8
ENDBRANCH   6   7
ENDBRANCH   5   6
ENDBRANCH   4   5
ENDBRANCH   3   4
ENDBRANCH   2   3
ENDBRANCH   1   2
BRANCH   1  13
ATOM     13  C   UNL     1      43.455  63.055   6.645  1.00  0.00     0.000 C 
BRANCH  13  14
ATOM     14  C   UNL     1      42.356  63.022   5.561  1.00  0.00     0.000 C 
BRANCH  14  15
ATOM     15  C   UNL     1      42.377  64.272   4.666  1.00  0.00     0.000 C 
BRANCH  15  16
ATOM     16  C   UNL     1      43.500  65.253   5.042  1.00  0.00     0.000 C 
BRANCH  16  17
ATOM     17  C   UNL     1      43.031  66.719   5.047  1.00  0.00     0.000 C 
BRANCH  17  18
ATOM     18  C   UNL     1      42.348  67.109   6.376  1.00  0.00     0.000 C 
BRANCH  18  19
ATOM     19  C   UNL     1      43.067  66.556   7.617  1.00  0.00     0.000 C 
BRANCH  19  20
ATOM     20  C   UNL     1      42.110  65.873   8.607  1.00  0.00     0.006 C 
BRANCH  20  21
ATOM     21  C   UNL     1      40.638  66.149   8.272  1.00  0.00     0.053 C 
BRANCH  21  22
ATOM     22  C   UNL     1      39.792  64.926   8.452  1.00  0.00     0.041 C 
ATOM     23  O   UNL     1      39.860  63.980   7.624  1.00  0.00    -0.550 OA
ATOM     24  O   UNL     1      38.951  64.820   9.552  1.00  0.00    -0.550 OA
ENDBRANCH  21  22
ENDBRANCH  20  21
ENDBRANCH  19  20
ENDBRANCH  18  19
ENDBRANCH  17  18
ENDBRANCH  16  17
ENDBRANCH  15  16
ENDBRANCH  14  15
ENDBRANCH  13  14
ENDBRANCH   1  13
TORSDOF 20
ENDMDL
