MODEL 1
REMARK VINA RESULT:    39.699      0.000      0.000
REMARK INTER + INTRA:          56.129
REMARK INTER:                  52.463
REMARK INTRA:                   3.666
REMARK UNBOUND:                 3.666
REMARK SMILES CC[C@H](C=C[C@H](C)[C@H]1CC[C@@H]2[C@@H]3CC=C4C[C@@H](O)CC[C@@]4(C)[C@@H]3CC[C@@]21C)C(C)C
REMARK SMILES IDX 6 1 7 2 5 3 4 4 3 5 2 6 1 7 28 8 29 9 30 10 8 11 9 12 26 13
REMARK SMILES IDX 10 14 11 15 25 16 27 17 12 18 24 19 23 20 13 21 21 22 14 23
REMARK SMILES IDX 15 24 20 25 22 26 16 27 19 28 17 29 18 30
REMARK H PARENT 18 31
REMARK Flexibility Score: inf
ROOT
ATOM      1  C   UNL     1       0.133  59.931  -6.509  1.00  0.00     0.012 C 
ATOM      2  C   UNL     1       1.250  58.875  -6.394  1.00  0.00     0.012 C 
ENDROOT
BRANCH   1   3
ATOM      3  C   UNL     1      -1.192  59.236  -6.260  1.00  0.00    -0.028 C 
ATOM      4  C   UNL     1      -2.253  59.857  -5.716  1.00  0.00    -0.027 C 
BRANCH   4   5
ATOM      5  C   UNL     1      -3.550  59.114  -5.454  1.00  0.00     0.014 C 
BRANCH   5   6
ATOM      6  C   UNL     1      -4.132  59.478  -4.059  1.00  0.00     0.004 C 
ATOM      7  C   UNL     1      -3.340  58.952  -2.863  1.00  0.00     0.004 C 
ENDBRANCH   5   6
BRANCH   5   8
ATOM      8  C   UNL     1      -4.547  59.162  -6.663  1.00  0.00    -0.011 C 
ATOM      9  C   UNL     1      -5.357  60.468  -6.694  1.00  0.00     0.008 C 
ATOM     10  C   UNL     1      -3.938  58.875  -8.051  1.00  0.00     0.008 C 
ENDBRANCH   5   8
ENDBRANCH   4   5
ENDBRANCH   1   3
BRANCH   1  11
ATOM     11  C   UNL     1       0.332  61.181  -5.565  1.00  0.00     0.002 C 
ATOM     12  C   UNL     1      -0.974  61.600  -4.863  1.00  0.00     0.005 C 
ATOM     13  C   UNL     1       1.312  60.972  -4.352  1.00  0.00    -0.026 C 
ATOM     14  C   UNL     1      -1.017  60.856  -3.533  1.00  0.00     0.005 C 
ATOM     15  C   UNL     1       0.402  60.312  -3.281  1.00  0.00    -0.001 C 
ATOM     16  C   UNL     1       1.888  62.362  -3.875  1.00  0.00     0.007 C 
ATOM     17  C   UNL     1       2.518  60.047  -4.662  1.00  0.00     0.012 C 
ATOM     18  C   UNL     1       0.933  60.449  -1.823  1.00  0.00     0.000 C 
ATOM     19  C   UNL     1       1.278  62.903  -2.575  1.00  0.00     0.005 C 
ATOM     20  C   UNL     1       1.429  61.884  -1.424  1.00  0.00     0.003 C 
ATOM     21  C   UNL     1      -0.020  59.799  -0.803  1.00  0.00     0.031 C 
ATOM     22  C   UNL     1       0.928  62.423  -0.018  1.00  0.00    -0.008 C 
ATOM     23  C   UNL     1       0.437  60.051   0.599  1.00  0.00    -0.027 C 
ATOM     24  C   UNL     1       0.876  61.263   0.990  1.00  0.00    -0.065 C 
ATOM     25  C   UNL     1       1.931  63.523   0.474  1.00  0.00     0.014 C 
ATOM     26  C   UNL     1      -0.486  63.052  -0.104  1.00  0.00     0.016 C 
ATOM     27  C   UNL     1       1.022  61.513   2.480  1.00  0.00     0.063 C 
ATOM     28  C   UNL     1       1.829  63.835   1.971  1.00  0.00     0.033 C 
ATOM     29  C   UNL     1       2.072  62.578   2.807  1.00  0.00     0.118 C 
BRANCH  29  30
ATOM     30  O   UNL     1       3.365  62.082   2.564  1.00  0.00    -0.393 OA
ATOM     31  H   UNL     1       3.892  62.240   3.388  1.00  0.00     0.210 HD
ENDBRANCH  29  30
ENDBRANCH   1  11
TORSDOF 6
ENDMDL
MODEL 2
REMARK VINA RESULT:    42.288      1.724      4.444
REMARK INTER + INTRA:          59.550
REMARK INTER:                  55.985
REMARK INTRA:                   3.565
REMARK UNBOUND:                 3.666
REMARK SMILES CC[C@H](C=C[C@H](C)[C@H]1CC[C@@H]2[C@@H]3CC=C4C[C@@H](O)CC[C@@]4(C)[C@@H]3CC[C@@]21C)C(C)C
REMARK SMILES IDX 6 1 7 2 5 3 4 4 3 5 2 6 1 7 28 8 29 9 30 10 8 11 9 12 26 13
REMARK SMILES IDX 10 14 11 15 25 16 27 17 12 18 24 19 23 20 13 21 21 22 14 23
REMARK SMILES IDX 15 24 20 25 22 26 16 27 19 28 17 29 18 30
REMARK H PARENT 18 31
REMARK Flexibility Score: inf
ROOT
ATOM      1  C   UNL     1      -1.743  59.914  -6.856  1.00  0.00     0.012 C 
ATOM      2  C   UNL     1      -2.639  61.167  -6.794  1.00  0.00     0.012 C 
ENDROOT
BRANCH   1   3
ATOM      3  C   UNL     1      -0.454  60.297  -7.559  1.00  0.00    -0.028 C 
ATOM      4  C   UNL     1       0.541  60.963  -6.946  1.00  0.00    -0.027 C 
BRANCH   4   5
ATOM      5  C   UNL     1       1.801  61.356  -7.696  1.00  0.00     0.014 C 
BRANCH   5   6
ATOM      6  C   UNL     1       2.498  62.571  -7.023  1.00  0.00     0.004 C 
ATOM      7  C   UNL     1       2.112  62.821  -5.565  1.00  0.00     0.004 C 
ENDBRANCH   5   6
BRANCH   5   8
ATOM      8  C   UNL     1       2.716  60.133  -8.054  1.00  0.00    -0.011 C 
ATOM      9  C   UNL     1       4.201  60.525  -8.125  1.00  0.00     0.008 C 
ATOM     10  C   UNL     1       2.534  58.875  -7.181  1.00  0.00     0.008 C 
ENDBRANCH   5   8
ENDBRANCH   4   5
ENDBRANCH   1   3
BRANCH   1  11
ATOM     11  C   UNL     1      -1.475  59.247  -5.450  1.00  0.00     0.002 C 
ATOM     12  C   UNL     1       0.007  58.876  -5.250  1.00  0.00     0.005 C 
ATOM     13  C   UNL     1      -1.765  60.155  -4.198  1.00  0.00    -0.026 C 
ATOM     14  C   UNL     1       0.676  60.074  -4.584  1.00  0.00     0.005 C 
ATOM     15  C   UNL     1      -0.455  60.976  -4.055  1.00  0.00    -0.001 C 
ATOM     16  C   UNL     1      -2.050  59.256  -2.932  1.00  0.00     0.007 C 
ATOM     17  C   UNL     1      -2.971  61.113  -4.373  1.00  0.00     0.012 C 
ATOM     18  C   UNL     1      -0.234  61.579  -2.636  1.00  0.00     0.000 C 
ATOM     19  C   UNL     1      -0.899  59.181  -1.920  1.00  0.00     0.005 C 
ATOM     20  C   UNL     1      -0.486  60.590  -1.442  1.00  0.00     0.003 C 
ATOM     21  C   UNL     1       1.090  62.361  -2.545  1.00  0.00     0.031 C 
ATOM     22  C   UNL     1       0.619  60.585  -0.303  1.00  0.00    -0.008 C 
ATOM     23  C   UNL     1       1.349  62.823  -1.145  1.00  0.00    -0.027 C 
ATOM     24  C   UNL     1       1.144  62.014  -0.087  1.00  0.00    -0.065 C 
ATOM     25  C   UNL     1      -0.034  60.044   1.016  1.00  0.00     0.014 C 
ATOM     26  C   UNL     1       1.823  59.677  -0.661  1.00  0.00     0.016 C 
ATOM     27  C   UNL     1       1.719  62.444   1.250  1.00  0.00     0.063 C 
ATOM     28  C   UNL     1       0.762  60.367   2.285  1.00  0.00     0.033 C 
ATOM     29  C   UNL     1       0.946  61.876   2.443  1.00  0.00     0.118 C 
BRANCH  29  30
ATOM     30  O   UNL     1      -0.306  62.503   2.558  1.00  0.00    -0.393 OA
ATOM     31  H   UNL     1      -0.280  63.308   1.981  1.00  0.00     0.210 HD
ENDBRANCH  29  30
ENDBRANCH   1  11
TORSDOF 6
ENDMDL
