MODEL 1
REMARK VINA RESULT:    -5.564      0.000      0.000
REMARK INTER + INTRA:         -14.874
REMARK INTER:                 -12.070
REMARK INTRA:                  -2.804
REMARK UNBOUND:                -2.804
REMARK SMILES CCCCCCCCCCCCCCCCCCCCCC(=O)[O-]
REMARK SMILES IDX 12 1 11 2 10 3 9 4 8 5 7 6 6 7 5 8 4 9 3 10 2 11 1 12 13 13
REMARK SMILES IDX 14 14 15 15 16 16 17 17 18 18 19 19 20 20 21 21 22 22 23 23
REMARK SMILES IDX 24 24
REMARK H PARENT
REMARK Flexibility Score: inf
ROOT
ATOM      1  C   UNL     1       6.691  48.877   9.047  1.00  0.00     0.000 C 
ENDROOT
BRANCH   1   2
ATOM      2  C   UNL     1       5.911  49.854   9.942  1.00  0.00     0.000 C 
BRANCH   2   3
ATOM      3  C   UNL     1       5.170  50.943   9.143  1.00  0.00     0.000 C 
BRANCH   3   4
ATOM      4  C   UNL     1       3.670  50.685   8.916  1.00  0.00    -0.000 C 
BRANCH   4   5
ATOM      5  C   UNL     1       3.375  49.981   7.582  1.00  0.00    -0.000 C 
BRANCH   5   6
ATOM      6  C   UNL     1       1.900  49.561   7.499  1.00  0.00    -0.000 C 
BRANCH   6   7
ATOM      7  C   UNL     1       1.681  48.072   7.821  1.00  0.00    -0.000 C 
BRANCH   7   8
ATOM      8  C   UNL     1       1.261  47.777   9.273  1.00  0.00    -0.000 C 
BRANCH   8   9
ATOM      9  C   UNL     1       0.077  46.803   9.425  1.00  0.00    -0.000 C 
BRANCH   9  10
ATOM     10  C   UNL     1       0.489  45.385   9.873  1.00  0.00    -0.000 C 
BRANCH  10  11
ATOM     11  C   UNL     1       0.728  44.439   8.688  1.00  0.00    -0.003 C 
ATOM     12  C   UNL     1      -0.124  44.836   7.486  1.00  0.00     0.004 C 
ENDBRANCH  10  11
ENDBRANCH   9  10
ENDBRANCH   8   9
ENDBRANCH   7   8
ENDBRANCH   6   7
ENDBRANCH   5   6
ENDBRANCH   4   5
ENDBRANCH   3   4
ENDBRANCH   2   3
ENDBRANCH   1   2
BRANCH   1  13
ATOM     13  C   UNL     1       6.412  47.401   9.384  1.00  0.00     0.000 C 
BRANCH  13  14
ATOM     14  C   UNL     1       4.950  47.069   9.750  1.00  0.00     0.000 C 
BRANCH  14  15
ATOM     15  C   UNL     1       4.363  45.831   9.046  1.00  0.00     0.000 C 
BRANCH  15  16
ATOM     16  C   UNL     1       4.138  44.613   9.962  1.00  0.00     0.000 C 
BRANCH  16  17
ATOM     17  C   UNL     1       4.329  44.922  11.463  1.00  0.00     0.000 C 
BRANCH  17  18
ATOM     18  C   UNL     1       3.741  43.826  12.368  1.00  0.00     0.000 C 
BRANCH  18  19
ATOM     19  C   UNL     1       2.598  43.051  11.694  1.00  0.00     0.000 C 
BRANCH  19  20
ATOM     20  C   UNL     1       2.764  41.528  11.807  1.00  0.00     0.006 C 
BRANCH  20  21
ATOM     21  C   UNL     1       4.092  41.171  12.481  1.00  0.00     0.053 C 
BRANCH  21  22
ATOM     22  C   UNL     1       4.087  39.742  12.925  1.00  0.00     0.041 C 
ATOM     23  O   UNL     1       5.070  39.272  13.556  1.00  0.00    -0.550 OA
ATOM     24  O   UNL     1       3.020  38.915  12.597  1.00  0.00    -0.550 OA
ENDBRANCH  21  22
ENDBRANCH  20  21
ENDBRANCH  19  20
ENDBRANCH  18  19
ENDBRANCH  17  18
ENDBRANCH  16  17
ENDBRANCH  15  16
ENDBRANCH  14  15
ENDBRANCH  13  14
ENDBRANCH   1  13
TORSDOF 20
ENDMDL
MODEL 2
REMARK VINA RESULT:    -5.390      1.004      4.471
REMARK INTER + INTRA:         -14.495
REMARK INTER:                 -11.829
REMARK INTRA:                  -2.666
REMARK UNBOUND:                -2.804
REMARK SMILES CCCCCCCCCCCCCCCCCCCCCC(=O)[O-]
REMARK SMILES IDX 12 1 11 2 10 3 9 4 8 5 7 6 6 7 5 8 4 9 3 10 2 11 1 12 13 13
REMARK SMILES IDX 14 14 15 15 16 16 17 17 18 18 19 19 20 20 21 21 22 22 23 23
REMARK SMILES IDX 24 24
REMARK H PARENT
REMARK Flexibility Score: inf
ROOT
ATOM      1  C   UNL     1       0.373  44.540   7.829  1.00  0.00     0.000 C 
ENDROOT
BRANCH   1   2
ATOM      2  C   UNL     1       0.073  46.028   7.582  1.00  0.00     0.000 C 
BRANCH   2   3
ATOM      3  C   UNL     1       0.476  46.928   8.765  1.00  0.00     0.000 C 
BRANCH   3   4
ATOM      4  C   UNL     1       1.413  48.098   8.411  1.00  0.00    -0.000 C 
BRANCH   4   5
ATOM      5  C   UNL     1       2.831  47.640   8.039  1.00  0.00    -0.000 C 
BRANCH   5   6
ATOM      6  C   UNL     1       3.517  48.671   7.129  1.00  0.00    -0.000 C 
BRANCH   6   7
ATOM      7  C   UNL     1       3.242  50.124   7.557  1.00  0.00    -0.000 C 
BRANCH   7   8
ATOM      8  C   UNL     1       4.395  50.806   8.316  1.00  0.00    -0.000 C 
BRANCH   8   9
ATOM      9  C   UNL     1       4.512  50.426   9.805  1.00  0.00    -0.000 C 
BRANCH   9  10
ATOM     10  C   UNL     1       5.854  49.760  10.175  1.00  0.00    -0.000 C 
BRANCH  10  11
ATOM     11  C   UNL     1       6.490  49.018   8.990  1.00  0.00    -0.003 C 
ATOM     12  C   UNL     1       6.831  47.578   9.361  1.00  0.00     0.004 C 
ENDBRANCH  10  11
ENDBRANCH   9  10
ENDBRANCH   8   9
ENDBRANCH   7   8
ENDBRANCH   6   7
ENDBRANCH   5   6
ENDBRANCH   4   5
ENDBRANCH   3   4
ENDBRANCH   2   3
ENDBRANCH   1   2
BRANCH   1  13
ATOM     13  C   UNL     1       1.301  44.307   9.035  1.00  0.00     0.000 C 
BRANCH  13  14
ATOM     14  C   UNL     1       2.332  43.171   8.869  1.00  0.00     0.000 C 
BRANCH  14  15
ATOM     15  C   UNL     1       3.780  43.541   9.237  1.00  0.00     0.000 C 
BRANCH  15  16
ATOM     16  C   UNL     1       3.963  44.972   9.780  1.00  0.00     0.000 C 
BRANCH  16  17
ATOM     17  C   UNL     1       4.153  45.035  11.311  1.00  0.00     0.000 C 
BRANCH  17  18
ATOM     18  C   UNL     1       3.833  43.696  11.998  1.00  0.00     0.000 C 
BRANCH  18  19
ATOM     19  C   UNL     1       2.363  43.592  12.436  1.00  0.00     0.000 C 
BRANCH  19  20
ATOM     20  C   UNL     1       1.800  42.169  12.293  1.00  0.00     0.006 C 
BRANCH  20  21
ATOM     21  C   UNL     1       2.920  41.164  12.009  1.00  0.00     0.053 C 
BRANCH  21  22
ATOM     22  C   UNL     1       2.647  39.866  12.702  1.00  0.00     0.041 C 
ATOM     23  O   UNL     1       1.531  39.661  13.246  1.00  0.00    -0.550 OA
ATOM     24  O   UNL     1       3.644  38.901  12.791  1.00  0.00    -0.550 OA
ENDBRANCH  21  22
ENDBRANCH  20  21
ENDBRANCH  19  20
ENDBRANCH  18  19
ENDBRANCH  17  18
ENDBRANCH  16  17
ENDBRANCH  15  16
ENDBRANCH  14  15
ENDBRANCH  13  14
ENDBRANCH   1  13
TORSDOF 20
ENDMDL
MODEL 3
REMARK VINA RESULT:    -5.233      2.699      6.398
REMARK INTER + INTRA:         -14.154
REMARK INTER:                 -11.444
REMARK INTRA:                  -2.711
REMARK UNBOUND:                -2.804
REMARK SMILES CCCCCCCCCCCCCCCCCCCCCC(=O)[O-]
REMARK SMILES IDX 12 1 11 2 10 3 9 4 8 5 7 6 6 7 5 8 4 9 3 10 2 11 1 12 13 13
REMARK SMILES IDX 14 14 15 15 16 16 17 17 18 18 19 19 20 20 21 21 22 22 23 23
REMARK SMILES IDX 24 24
REMARK H PARENT
REMARK Flexibility Score: inf
ROOT
ATOM      1  C   UNL     1       6.638  47.740   9.318  1.00  0.00     0.000 C 
ENDROOT
BRANCH   1   2
ATOM      2  C   UNL     1       5.301  47.006   9.121  1.00  0.00     0.000 C 
BRANCH   2   3
ATOM      3  C   UNL     1       4.481  46.890  10.419  1.00  0.00     0.000 C 
BRANCH   3   4
ATOM      4  C   UNL     1       4.059  45.460  10.803  1.00  0.00    -0.000 C 
BRANCH   4   5
ATOM      5  C   UNL     1       4.152  44.470   9.632  1.00  0.00    -0.000 C 
BRANCH   5   6
ATOM      6  C   UNL     1       3.078  43.378   9.752  1.00  0.00    -0.000 C 
BRANCH   6   7
ATOM      7  C   UNL     1       2.042  43.674  10.851  1.00  0.00    -0.000 C 
BRANCH   7   8
ATOM      8  C   UNL     1       2.012  42.656  12.006  1.00  0.00    -0.000 C 
BRANCH   8   9
ATOM      9  C   UNL     1       2.818  41.367  11.761  1.00  0.00    -0.000 C 
BRANCH   9  10
ATOM     10  C   UNL     1       4.187  41.343  12.474  1.00  0.00    -0.000 C 
BRANCH  10  11
ATOM     11  C   UNL     1       4.638  39.920  12.834  1.00  0.00    -0.003 C 
ATOM     12  C   UNL     1       3.454  38.957  12.862  1.00  0.00     0.004 C 
ENDBRANCH  10  11
ENDBRANCH   9  10
ENDBRANCH   8   9
ENDBRANCH   7   8
ENDBRANCH   6   7
ENDBRANCH   5   6
ENDBRANCH   4   5
ENDBRANCH   3   4
ENDBRANCH   2   3
ENDBRANCH   1   2
BRANCH   1  13
ATOM     13  C   UNL     1       6.584  49.214   8.876  1.00  0.00     0.000 C 
BRANCH  13  14
ATOM     14  C   UNL     1       6.080  50.209   9.942  1.00  0.00     0.000 C 
BRANCH  14  15
ATOM     15  C   UNL     1       4.683  50.801   9.677  1.00  0.00     0.000 C 
BRANCH  15  16
ATOM     16  C   UNL     1       4.088  50.459   8.297  1.00  0.00     0.000 C 
BRANCH  16  17
ATOM     17  C   UNL     1       2.553  50.612   8.228  1.00  0.00     0.000 C 
BRANCH  17  18
ATOM     18  C   UNL     1       1.836  49.262   8.051  1.00  0.00     0.000 C 
BRANCH  18  19
ATOM     19  C   UNL     1       1.655  48.508   9.378  1.00  0.00     0.000 C 
BRANCH  19  20
ATOM     20  C   UNL     1       0.857  47.205   9.218  1.00  0.00     0.006 C 
BRANCH  20  21
ATOM     21  C   UNL     1       1.159  46.541   7.871  1.00  0.00     0.053 C 
BRANCH  21  22
ATOM     22  C   UNL     1       0.099  45.542   7.530  1.00  0.00     0.041 C 
ATOM     23  O   UNL     1       0.216  44.344   7.900  1.00  0.00    -0.550 OA
ATOM     24  O   UNL     1      -0.994  45.921   6.761  1.00  0.00    -0.550 OA
ENDBRANCH  21  22
ENDBRANCH  20  21
ENDBRANCH  19  20
ENDBRANCH  18  19
ENDBRANCH  17  18
ENDBRANCH  16  17
ENDBRANCH  15  16
ENDBRANCH  14  15
ENDBRANCH  13  14
ENDBRANCH   1  13
TORSDOF 20
ENDMDL
MODEL 4
REMARK VINA RESULT:    -5.194      1.037      3.847
REMARK INTER + INTRA:         -14.070
REMARK INTER:                 -11.206
REMARK INTRA:                  -2.865
REMARK UNBOUND:                -2.804
REMARK SMILES CCCCCCCCCCCCCCCCCCCCCC(=O)[O-]
REMARK SMILES IDX 12 1 11 2 10 3 9 4 8 5 7 6 6 7 5 8 4 9 3 10 2 11 1 12 13 13
REMARK SMILES IDX 14 14 15 15 16 16 17 17 18 18 19 19 20 20 21 21 22 22 23 23
REMARK SMILES IDX 24 24
REMARK H PARENT
REMARK Flexibility Score: inf
ROOT
ATOM      1  C   UNL     1       1.627  47.768   7.527  1.00  0.00     0.000 C 
ENDROOT
BRANCH   1   2
ATOM      2  C   UNL     1       2.061  49.076   8.209  1.00  0.00     0.000 C 
BRANCH   2   3
ATOM      3  C   UNL     1       2.977  49.942   7.325  1.00  0.00     0.000 C 
BRANCH   3   4
ATOM      4  C   UNL     1       4.160  50.605   8.055  1.00  0.00    -0.000 C 
BRANCH   4   5
ATOM      5  C   UNL     1       4.094  50.440   9.580  1.00  0.00    -0.000 C 
BRANCH   5   6
ATOM      6  C   UNL     1       5.458  50.013  10.144  1.00  0.00    -0.000 C 
BRANCH   6   7
ATOM      7  C   UNL     1       6.366  49.361   9.085  1.00  0.00    -0.000 C 
BRANCH   7   8
ATOM      8  C   UNL     1       6.395  47.821   9.116  1.00  0.00    -0.000 C 
BRANCH   8   9
ATOM      9  C   UNL     1       5.102  47.134   8.639  1.00  0.00    -0.000 C 
BRANCH   9  10
ATOM     10  C   UNL     1       4.778  45.826   9.392  1.00  0.00    -0.000 C 
BRANCH  10  11
ATOM     11  C   UNL     1       4.315  46.076  10.835  1.00  0.00    -0.003 C 
ATOM     12  C   UNL     1       3.251  47.169  10.889  1.00  0.00     0.004 C 
ENDBRANCH  10  11
ENDBRANCH   9  10
ENDBRANCH   8   9
ENDBRANCH   7   8
ENDBRANCH   6   7
ENDBRANCH   5   6
ENDBRANCH   4   5
ENDBRANCH   3   4
ENDBRANCH   2   3
ENDBRANCH   1   2
BRANCH   1  13
ATOM     13  C   UNL     1       0.288  47.228   8.061  1.00  0.00     0.000 C 
BRANCH  13  14
ATOM     14  C   UNL     1      -0.237  45.954   7.367  1.00  0.00     0.000 C 
BRANCH  14  15
ATOM     15  C   UNL     1       0.311  44.629   7.927  1.00  0.00     0.000 C 
BRANCH  15  16
ATOM     16  C   UNL     1       1.258  44.780   9.134  1.00  0.00     0.000 C 
BRANCH  16  17
ATOM     17  C   UNL     1       0.566  44.561  10.497  1.00  0.00     0.000 C 
BRANCH  17  18
ATOM     18  C   UNL     1       1.468  43.823  11.501  1.00  0.00     0.000 C 
BRANCH  18  19
ATOM     19  C   UNL     1       2.280  42.692  10.849  1.00  0.00     0.000 C 
BRANCH  19  20
ATOM     20  C   UNL     1       3.269  42.033  11.821  1.00  0.00     0.006 C 
BRANCH  20  21
ATOM     21  C   UNL     1       2.723  40.697  12.335  1.00  0.00     0.053 C 
BRANCH  21  22
ATOM     22  C   UNL     1       3.845  39.784  12.716  1.00  0.00     0.041 C 
ATOM     23  O   UNL     1       4.973  40.256  13.013  1.00  0.00    -0.550 OA
ATOM     24  O   UNL     1       3.659  38.406  12.695  1.00  0.00    -0.550 OA
ENDBRANCH  21  22
ENDBRANCH  20  21
ENDBRANCH  19  20
ENDBRANCH  18  19
ENDBRANCH  17  18
ENDBRANCH  16  17
ENDBRANCH  15  16
ENDBRANCH  14  15
ENDBRANCH  13  14
ENDBRANCH   1  13
TORSDOF 20
ENDMDL
MODEL 5
REMARK VINA RESULT:    -5.193      0.969      1.935
REMARK INTER + INTRA:         -14.069
REMARK INTER:                 -11.736
REMARK INTRA:                  -2.332
REMARK UNBOUND:                -2.804
REMARK SMILES CCCCCCCCCCCCCCCCCCCCCC(=O)[O-]
REMARK SMILES IDX 12 1 11 2 10 3 9 4 8 5 7 6 6 7 5 8 4 9 3 10 2 11 1 12 13 13
REMARK SMILES IDX 14 14 15 15 16 16 17 17 18 18 19 19 20 20 21 21 22 22 23 23
REMARK SMILES IDX 24 24
REMARK H PARENT
REMARK Flexibility Score: inf
ROOT
ATOM      1  C   UNL     1       5.790  47.262   9.199  1.00  0.00     0.000 C 
ENDROOT
BRANCH   1   2
ATOM      2  C   UNL     1       6.766  48.448   9.260  1.00  0.00     0.000 C 
BRANCH   2   3
ATOM      3  C   UNL     1       6.126  49.727   9.833  1.00  0.00     0.000 C 
BRANCH   3   4
ATOM      4  C   UNL     1       5.598  50.723   8.785  1.00  0.00    -0.000 C 
BRANCH   4   5
ATOM      5  C   UNL     1       4.134  51.125   9.022  1.00  0.00    -0.000 C 
BRANCH   5   6
ATOM      6  C   UNL     1       3.262  50.754   7.813  1.00  0.00    -0.000 C 
BRANCH   6   7
ATOM      7  C   UNL     1       3.396  49.275   7.408  1.00  0.00    -0.000 C 
BRANCH   7   8
ATOM      8  C   UNL     1       2.117  48.436   7.584  1.00  0.00    -0.000 C 
BRANCH   8   9
ATOM      9  C   UNL     1       1.402  48.611   8.937  1.00  0.00    -0.000 C 
BRANCH   9  10
ATOM     10  C   UNL     1       0.022  47.924   9.006  1.00  0.00    -0.000 C 
BRANCH  10  11
ATOM     11  C   UNL     1       0.115  46.457   9.448  1.00  0.00    -0.003 C 
ATOM     12  C   UNL     1       0.199  45.523   8.244  1.00  0.00     0.004 C 
ENDBRANCH  10  11
ENDBRANCH   9  10
ENDBRANCH   8   9
ENDBRANCH   7   8
ENDBRANCH   6   7
ENDBRANCH   5   6
ENDBRANCH   4   5
ENDBRANCH   3   4
ENDBRANCH   2   3
ENDBRANCH   1   2
BRANCH   1  13
ATOM     13  C   UNL     1       4.676  47.346  10.258  1.00  0.00     0.000 C 
BRANCH  13  14
ATOM     14  C   UNL     1       3.684  46.165  10.273  1.00  0.00     0.000 C 
BRANCH  14  15
ATOM     15  C   UNL     1       4.314  44.784  10.536  1.00  0.00     0.000 C 
BRANCH  15  16
ATOM     16  C   UNL     1       3.987  43.713   9.477  1.00  0.00     0.000 C 
BRANCH  16  17
ATOM     17  C   UNL     1       2.613  43.038   9.682  1.00  0.00     0.000 C 
BRANCH  17  18
ATOM     18  C   UNL     1       1.888  43.550  10.938  1.00  0.00     0.000 C 
BRANCH  18  19
ATOM     19  C   UNL     1       2.024  42.592  12.133  1.00  0.00     0.000 C 
BRANCH  19  20
ATOM     20  C   UNL     1       2.683  41.258  11.752  1.00  0.00     0.006 C 
BRANCH  20  21
ATOM     21  C   UNL     1       2.464  40.208  12.846  1.00  0.00     0.053 C 
BRANCH  21  22
ATOM     22  C   UNL     1       3.493  39.127  12.749  1.00  0.00     0.041 C 
ATOM     23  O   UNL     1       3.176  37.987  12.318  1.00  0.00    -0.550 OA
ATOM     24  O   UNL     1       4.793  39.362  13.182  1.00  0.00    -0.550 OA
ENDBRANCH  21  22
ENDBRANCH  20  21
ENDBRANCH  19  20
ENDBRANCH  18  19
ENDBRANCH  17  18
ENDBRANCH  16  17
ENDBRANCH  15  16
ENDBRANCH  14  15
ENDBRANCH  13  14
ENDBRANCH   1  13
TORSDOF 20
ENDMDL
MODEL 6
REMARK VINA RESULT:    -5.114      2.805      7.357
REMARK INTER + INTRA:         -13.896
REMARK INTER:                 -11.486
REMARK INTRA:                  -2.411
REMARK UNBOUND:                -2.804
REMARK SMILES CCCCCCCCCCCCCCCCCCCCCC(=O)[O-]
REMARK SMILES IDX 12 1 11 2 10 3 9 4 8 5 7 6 6 7 5 8 4 9 3 10 2 11 1 12 13 13
REMARK SMILES IDX 14 14 15 15 16 16 17 17 18 18 19 19 20 20 21 21 22 22 23 23
REMARK SMILES IDX 24 24
REMARK H PARENT
REMARK Flexibility Score: inf
ROOT
ATOM      1  C   UNL     1       0.625  44.944   9.941  1.00  0.00     0.000 C 
ENDROOT
BRANCH   1   2
ATOM      2  C   UNL     1       0.989  44.036   8.754  1.00  0.00     0.000 C 
BRANCH   2   3
ATOM      3  C   UNL     1       2.285  43.236   8.983  1.00  0.00     0.000 C 
BRANCH   3   4
ATOM      4  C   UNL     1       3.582  44.066   8.962  1.00  0.00    -0.000 C 
BRANCH   4   5
ATOM      5  C   UNL     1       4.469  43.828  10.193  1.00  0.00    -0.000 C 
BRANCH   5   6
ATOM      6  C   UNL     1       3.945  44.614  11.405  1.00  0.00    -0.000 C 
BRANCH   6   7
ATOM      7  C   UNL     1       3.524  43.704  12.573  1.00  0.00    -0.000 C 
BRANCH   7   8
ATOM      8  C   UNL     1       2.324  42.784  12.278  1.00  0.00    -0.000 C 
BRANCH   8   9
ATOM      9  C   UNL     1       2.667  41.289  12.137  1.00  0.00    -0.000 C 
BRANCH   9  10
ATOM     10  C   UNL     1       4.164  40.971  12.331  1.00  0.00    -0.000 C 
BRANCH  10  11
ATOM     11  C   UNL     1       4.394  39.626  13.035  1.00  0.00    -0.003 C 
ATOM     12  C   UNL     1       3.326  38.610  12.642  1.00  0.00     0.004 C 
ENDBRANCH  10  11
ENDBRANCH   9  10
ENDBRANCH   8   9
ENDBRANCH   7   8
ENDBRANCH   6   7
ENDBRANCH   5   6
ENDBRANCH   4   5
ENDBRANCH   3   4
ENDBRANCH   2   3
ENDBRANCH   1   2
BRANCH   1  13
ATOM     13  C   UNL     1       0.749  46.442   9.610  1.00  0.00     0.000 C 
BRANCH  13  14
ATOM     14  C   UNL     1       0.932  46.779   8.116  1.00  0.00     0.000 C 
BRANCH  14  15
ATOM     15  C   UNL     1       1.257  48.254   7.812  1.00  0.00     0.000 C 
BRANCH  15  16
ATOM     16  C   UNL     1       2.759  48.566   7.661  1.00  0.00     0.000 C 
BRANCH  16  17
ATOM     17  C   UNL     1       3.053  50.037   7.296  1.00  0.00     0.000 C 
BRANCH  17  18
ATOM     18  C   UNL     1       4.019  50.707   8.288  1.00  0.00     0.000 C 
BRANCH  18  19
ATOM     19  C   UNL     1       3.920  50.114   9.703  1.00  0.00     0.000 C 
BRANCH  19  20
ATOM     20  C   UNL     1       5.295  49.822  10.323  1.00  0.00     0.006 C 
BRANCH  20  21
ATOM     21  C   UNL     1       6.301  49.399   9.248  1.00  0.00     0.053 C 
BRANCH  21  22
ATOM     22  C   UNL     1       6.517  47.919   9.286  1.00  0.00     0.041 C 
ATOM     23  O   UNL     1       5.536  47.134   9.204  1.00  0.00    -0.550 OA
ATOM     24  O   UNL     1       7.796  47.406   9.463  1.00  0.00    -0.550 OA
ENDBRANCH  21  22
ENDBRANCH  20  21
ENDBRANCH  19  20
ENDBRANCH  18  19
ENDBRANCH  17  18
ENDBRANCH  16  17
ENDBRANCH  15  16
ENDBRANCH  14  15
ENDBRANCH  13  14
ENDBRANCH   1  13
TORSDOF 20
ENDMDL
MODEL 7
REMARK VINA RESULT:    -5.053      3.162      7.053
REMARK INTER + INTRA:         -13.765
REMARK INTER:                 -11.261
REMARK INTRA:                  -2.504
REMARK UNBOUND:                -2.804
REMARK SMILES CCCCCCCCCCCCCCCCCCCCCC(=O)[O-]
REMARK SMILES IDX 12 1 11 2 10 3 9 4 8 5 7 6 6 7 5 8 4 9 3 10 2 11 1 12 13 13
REMARK SMILES IDX 14 14 15 15 16 16 17 17 18 18 19 19 20 20 21 21 22 22 23 23
REMARK SMILES IDX 24 24
REMARK H PARENT
REMARK Flexibility Score: inf
ROOT
ATOM      1  C   UNL     1       4.655  45.784  10.430  1.00  0.00     0.000 C 
ENDROOT
BRANCH   1   2
ATOM      2  C   UNL     1       4.134  45.030   9.196  1.00  0.00     0.000 C 
BRANCH   2   3
ATOM      3  C   UNL     1       4.000  43.514   9.429  1.00  0.00     0.000 C 
BRANCH   3   4
ATOM      4  C   UNL     1       2.568  42.957   9.328  1.00  0.00    -0.000 C 
BRANCH   4   5
ATOM      5  C   UNL     1       1.494  44.056   9.328  1.00  0.00    -0.000 C 
BRANCH   5   6
ATOM      6  C   UNL     1       0.962  44.301  10.748  1.00  0.00    -0.000 C 
BRANCH   6   7
ATOM      7  C   UNL     1       1.753  43.535  11.825  1.00  0.00    -0.000 C 
BRANCH   7   8
ATOM      8  C   UNL     1       0.906  42.602  12.710  1.00  0.00    -0.000 C 
BRANCH   8   9
ATOM      9  C   UNL     1       1.351  41.127  12.716  1.00  0.00    -0.000 C 
BRANCH   9  10
ATOM     10  C   UNL     1       2.844  40.925  12.381  1.00  0.00    -0.000 C 
BRANCH  10  11
ATOM     11  C   UNL     1       3.345  39.521  12.751  1.00  0.00    -0.003 C 
ATOM     12  C   UNL     1       4.798  39.561  13.215  1.00  0.00     0.004 C 
ENDBRANCH  10  11
ENDBRANCH   9  10
ENDBRANCH   8   9
ENDBRANCH   7   8
ENDBRANCH   6   7
ENDBRANCH   5   6
ENDBRANCH   4   5
ENDBRANCH   3   4
ENDBRANCH   2   3
ENDBRANCH   1   2
BRANCH   1  13
ATOM     13  C   UNL     1       4.844  47.291  10.178  1.00  0.00     0.000 C 
BRANCH  13  14
ATOM     14  C   UNL     1       5.905  47.659   9.120  1.00  0.00     0.000 C 
BRANCH  14  15
ATOM     15  C   UNL     1       6.050  49.165   8.833  1.00  0.00     0.000 C 
BRANCH  15  16
ATOM     16  C   UNL     1       5.432  50.089   9.902  1.00  0.00     0.000 C 
BRANCH  16  17
ATOM     17  C   UNL     1       4.158  50.821   9.428  1.00  0.00     0.000 C 
BRANCH  17  18
ATOM     18  C   UNL     1       3.871  50.593   7.934  1.00  0.00     0.000 C 
BRANCH  18  19
ATOM     19  C   UNL     1       2.455  50.053   7.678  1.00  0.00     0.000 C 
BRANCH  19  20
ATOM     20  C   UNL     1       2.034  48.984   8.698  1.00  0.00     0.006 C 
BRANCH  20  21
ATOM     21  C   UNL     1       1.764  47.644   8.006  1.00  0.00     0.053 C 
BRANCH  21  22
ATOM     22  C   UNL     1       0.309  47.304   8.071  1.00  0.00     0.041 C 
ATOM     23  O   UNL     1      -0.319  47.411   9.158  1.00  0.00    -0.550 OA
ATOM     24  O   UNL     1      -0.345  46.819   6.944  1.00  0.00    -0.550 OA
ENDBRANCH  21  22
ENDBRANCH  20  21
ENDBRANCH  19  20
ENDBRANCH  18  19
ENDBRANCH  17  18
ENDBRANCH  16  17
ENDBRANCH  15  16
ENDBRANCH  14  15
ENDBRANCH  13  14
ENDBRANCH   1  13
TORSDOF 20
ENDMDL
MODEL 8
REMARK VINA RESULT:    -4.977      2.302      6.771
REMARK INTER + INTRA:         -13.601
REMARK INTER:                 -11.541
REMARK INTRA:                  -2.060
REMARK UNBOUND:                -2.804
REMARK SMILES CCCCCCCCCCCCCCCCCCCCCC(=O)[O-]
REMARK SMILES IDX 12 1 11 2 10 3 9 4 8 5 7 6 6 7 5 8 4 9 3 10 2 11 1 12 13 13
REMARK SMILES IDX 14 14 15 15 16 16 17 17 18 18 19 19 20 20 21 21 22 22 23 23
REMARK SMILES IDX 24 24
REMARK H PARENT
REMARK Flexibility Score: inf
ROOT
ATOM      1  C   UNL     1       0.434  47.552   7.862  1.00  0.00     0.000 C 
ENDROOT
BRANCH   1   2
ATOM      2  C   UNL     1       0.249  46.055   7.560  1.00  0.00     0.000 C 
BRANCH   2   3
ATOM      3  C   UNL     1       0.612  45.151   8.753  1.00  0.00     0.000 C 
BRANCH   3   4
ATOM      4  C   UNL     1       0.378  45.771  10.142  1.00  0.00    -0.000 C 
BRANCH   4   5
ATOM      5  C   UNL     1       0.302  44.724  11.263  1.00  0.00    -0.000 C 
BRANCH   5   6
ATOM      6  C   UNL     1       1.367  43.633  11.066  1.00  0.00    -0.000 C 
BRANCH   6   7
ATOM      7  C   UNL     1       2.452  43.652  12.158  1.00  0.00    -0.000 C 
BRANCH   7   8
ATOM      8  C   UNL     1       3.686  42.779  11.860  1.00  0.00    -0.000 C 
BRANCH   8   9
ATOM      9  C   UNL     1       3.473  41.264  12.038  1.00  0.00    -0.000 C 
BRANCH   9  10
ATOM     10  C   UNL     1       4.640  40.550  12.752  1.00  0.00    -0.000 C 
BRANCH  10  11
ATOM     11  C   UNL     1       4.212  39.227  13.403  1.00  0.00    -0.003 C 
ATOM     12  C   UNL     1       3.298  38.429  12.477  1.00  0.00     0.004 C 
ENDBRANCH  10  11
ENDBRANCH   9  10
ENDBRANCH   8   9
ENDBRANCH   7   8
ENDBRANCH   6   7
ENDBRANCH   5   6
ENDBRANCH   4   5
ENDBRANCH   3   4
ENDBRANCH   2   3
ENDBRANCH   1   2
BRANCH   1  13
ATOM     13  C   UNL     1       1.911  47.986   7.866  1.00  0.00     0.000 C 
BRANCH  13  14
ATOM     14  C   UNL     1       2.172  49.447   8.286  1.00  0.00     0.000 C 
BRANCH  14  15
ATOM     15  C   UNL     1       3.226  50.192   7.446  1.00  0.00     0.000 C 
BRANCH  15  16
ATOM     16  C   UNL     1       4.378  50.815   8.260  1.00  0.00     0.000 C 
BRANCH  16  17
ATOM     17  C   UNL     1       4.168  50.740   9.788  1.00  0.00     0.000 C 
BRANCH  17  18
ATOM     18  C   UNL     1       5.022  49.641  10.445  1.00  0.00     0.000 C 
BRANCH  18  19
ATOM     19  C   UNL     1       6.218  49.222   9.576  1.00  0.00     0.000 C 
BRANCH  19  20
ATOM     20  C   UNL     1       6.380  47.697   9.483  1.00  0.00     0.006 C 
BRANCH  20  21
ATOM     21  C   UNL     1       5.189  47.064   8.757  1.00  0.00     0.053 C 
BRANCH  21  22
ATOM     22  C   UNL     1       4.540  46.028   9.618  1.00  0.00     0.041 C 
ATOM     23  O   UNL     1       4.124  44.953   9.111  1.00  0.00    -0.550 OA
ATOM     24  O   UNL     1       4.349  46.268  10.974  1.00  0.00    -0.550 OA
ENDBRANCH  21  22
ENDBRANCH  20  21
ENDBRANCH  19  20
ENDBRANCH  18  19
ENDBRANCH  17  18
ENDBRANCH  16  17
ENDBRANCH  15  16
ENDBRANCH  14  15
ENDBRANCH  13  14
ENDBRANCH   1  13
TORSDOF 20
ENDMDL
MODEL 9
REMARK VINA RESULT:    -4.956      0.973      4.108
REMARK INTER + INTRA:         -13.554
REMARK INTER:                 -11.245
REMARK INTRA:                  -2.308
REMARK UNBOUND:                -2.804
REMARK SMILES CCCCCCCCCCCCCCCCCCCCCC(=O)[O-]
REMARK SMILES IDX 12 1 11 2 10 3 9 4 8 5 7 6 6 7 5 8 4 9 3 10 2 11 1 12 13 13
REMARK SMILES IDX 14 14 15 15 16 16 17 17 18 18 19 19 20 20 21 21 22 22 23 23
REMARK SMILES IDX 24 24
REMARK H PARENT
REMARK Flexibility Score: inf
ROOT
ATOM      1  C   UNL     1       0.715  47.272   7.490  1.00  0.00     0.000 C 
ENDROOT
BRANCH   1   2
ATOM      2  C   UNL     1       0.624  48.473   8.446  1.00  0.00     0.000 C 
BRANCH   2   3
ATOM      3  C   UNL     1       0.831  49.824   7.736  1.00  0.00     0.000 C 
BRANCH   3   4
ATOM      4  C   UNL     1       2.021  50.657   8.245  1.00  0.00    -0.000 C 
BRANCH   4   5
ATOM      5  C   UNL     1       3.364  50.217   7.643  1.00  0.00    -0.000 C 
BRANCH   5   6
ATOM      6  C   UNL     1       4.524  51.030   8.239  1.00  0.00    -0.000 C 
BRANCH   6   7
ATOM      7  C   UNL     1       4.707  50.795   9.749  1.00  0.00    -0.000 C 
BRANCH   7   8
ATOM      8  C   UNL     1       5.964  49.992  10.133  1.00  0.00    -0.000 C 
BRANCH   8   9
ATOM      9  C   UNL     1       6.535  49.100   9.015  1.00  0.00    -0.000 C 
BRANCH   9  10
ATOM     10  C   UNL     1       6.413  47.588   9.301  1.00  0.00    -0.000 C 
BRANCH  10  11
ATOM     11  C   UNL     1       5.025  47.199   9.831  1.00  0.00    -0.003 C 
ATOM     12  C   UNL     1       4.090  46.808   8.690  1.00  0.00     0.004 C 
ENDBRANCH  10  11
ENDBRANCH   9  10
ENDBRANCH   8   9
ENDBRANCH   7   8
ENDBRANCH   6   7
ENDBRANCH   5   6
ENDBRANCH   4   5
ENDBRANCH   3   4
ENDBRANCH   2   3
ENDBRANCH   1   2
BRANCH   1  13
ATOM     13  C   UNL     1      -0.272  46.145   7.845  1.00  0.00     0.000 C 
BRANCH  13  14
ATOM     14  C   UNL     1       0.344  44.736   7.966  1.00  0.00     0.000 C 
BRANCH  14  15
ATOM     15  C   UNL     1       1.157  44.484   9.249  1.00  0.00     0.000 C 
BRANCH  15  16
ATOM     16  C   UNL     1       1.982  43.182   9.247  1.00  0.00     0.000 C 
BRANCH  16  17
ATOM     17  C   UNL     1       3.434  43.367   9.738  1.00  0.00     0.000 C 
BRANCH  17  18
ATOM     18  C   UNL     1       3.510  44.114  11.081  1.00  0.00     0.000 C 
BRANCH  18  19
ATOM     19  C   UNL     1       3.476  43.164  12.289  1.00  0.00     0.000 C 
BRANCH  19  20
ATOM     20  C   UNL     1       3.961  41.747  11.946  1.00  0.00     0.006 C 
BRANCH  20  21
ATOM     21  C   UNL     1       2.906  40.702  12.323  1.00  0.00     0.053 C 
BRANCH  21  22
ATOM     22  C   UNL     1       3.562  39.425  12.745  1.00  0.00     0.041 C 
ATOM     23  O   UNL     1       4.671  39.449  13.340  1.00  0.00    -0.550 OA
ATOM     24  O   UNL     1       2.972  38.205  12.437  1.00  0.00    -0.550 OA
ENDBRANCH  21  22
ENDBRANCH  20  21
ENDBRANCH  19  20
ENDBRANCH  18  19
ENDBRANCH  17  18
ENDBRANCH  16  17
ENDBRANCH  15  16
ENDBRANCH  14  15
ENDBRANCH  13  14
ENDBRANCH   1  13
TORSDOF 20
ENDMDL
