MODEL 1
REMARK VINA RESULT:    -4.268      0.000      0.000
REMARK INTER + INTRA:          -4.393
REMARK INTER:                  -4.393
REMARK INTRA:                   0.000
REMARK UNBOUND:                 0.000
REMARK SMILES O=c1ccc2ccc(O)cc2o1
REMARK SMILES IDX 6 1 7 2 8 3 10 4 11 5 5 6 4 7 3 8 2 9 1 10 12 11 9 12
REMARK H PARENT 9 13
REMARK Flexibility Score: inf
ROOT
ATOM      1  C   UNL     1     -11.875  -2.445 -13.074  1.00  0.00     0.016 A 
ATOM      2  C   UNL     1     -12.545  -2.374 -14.299  1.00  0.00     0.047 A 
ATOM      3  C   UNL     1     -13.851  -2.863 -14.422  1.00  0.00     0.119 A 
ATOM      4  C   UNL     1     -14.492  -3.429 -13.310  1.00  0.00     0.094 A 
ATOM      5  C   UNL     1     -13.831  -3.505 -12.079  1.00  0.00     0.142 A 
ATOM      6  C   UNL     1     -12.513  -3.010 -11.960  1.00  0.00     0.018 A 
ATOM      7  C   UNL     1     -11.877  -3.100 -10.718  1.00  0.00     0.019 A 
ATOM      8  C   UNL     1     -12.557  -3.670  -9.642  1.00  0.00     0.094 A 
ATOM      9  C   UNL     1     -13.861  -4.140  -9.834  1.00  0.00     0.336 A 
ATOM     10  O   UNL     1     -14.489  -4.658  -8.875  1.00  0.00    -0.246 OA
ATOM     11  O   UNL     1     -14.443  -4.043 -11.027  1.00  0.00    -0.423 OA
ENDROOT
BRANCH   3  12
ATOM     12  O   UNL     1     -14.501  -2.782 -15.651  1.00  0.00    -0.508 OA
ATOM     13  H   UNL     1     -14.851  -3.610 -16.120  1.00  0.00     0.293 HD
ENDBRANCH   3  12
TORSDOF 1
ENDMDL
MODEL 2
REMARK VINA RESULT:    -2.949      0.766      4.225
REMARK INTER + INTRA:          -3.035
REMARK INTER:                  -3.035
REMARK INTRA:                   0.000
REMARK UNBOUND:                 0.000
REMARK SMILES O=c1ccc2ccc(O)cc2o1
REMARK SMILES IDX 6 1 7 2 8 3 10 4 11 5 5 6 4 7 3 8 2 9 1 10 12 11 9 12
REMARK H PARENT 9 13
REMARK Flexibility Score: inf
ROOT
ATOM      1  C   UNL     1     -11.875  -3.115 -10.846  1.00  0.00     0.016 A 
ATOM      2  C   UNL     1     -12.534  -3.743  -9.784  1.00  0.00     0.047 A 
ATOM      3  C   UNL     1     -13.830  -4.245  -9.953  1.00  0.00     0.119 A 
ATOM      4  C   UNL     1     -14.472  -4.119 -11.194  1.00  0.00     0.094 A 
ATOM      5  C   UNL     1     -13.821  -3.493 -12.262  1.00  0.00     0.142 A 
ATOM      6  C   UNL     1     -12.513  -2.988 -12.088  1.00  0.00     0.018 A 
ATOM      7  C   UNL     1     -11.888  -2.366 -13.173  1.00  0.00     0.019 A 
ATOM      8  C   UNL     1     -12.567  -2.266 -14.387  1.00  0.00     0.094 A 
ATOM      9  C   UNL     1     -13.861  -2.789 -14.487  1.00  0.00     0.336 A 
ATOM     10  O   UNL     1     -14.490  -2.707 -15.574  1.00  0.00    -0.246 OA
ATOM     11  O   UNL     1     -14.434  -3.375 -13.438  1.00  0.00    -0.423 OA
ENDROOT
BRANCH   3  12
ATOM     12  O   UNL     1     -14.470  -4.867  -8.883  1.00  0.00    -0.508 OA
ATOM     13  H   UNL     1     -14.900  -5.779  -8.982  1.00  0.00     0.293 HD
ENDBRANCH   3  12
TORSDOF 1
ENDMDL
MODEL 3
REMARK VINA RESULT:    -2.299     22.962     23.936
REMARK INTER + INTRA:          -2.366
REMARK INTER:                  -2.366
REMARK INTRA:                   0.000
REMARK UNBOUND:                 0.000
REMARK SMILES O=c1ccc2ccc(O)cc2o1
REMARK SMILES IDX 6 1 7 2 8 3 10 4 11 5 5 6 4 7 3 8 2 9 1 10 12 11 9 12
REMARK H PARENT 9 13
REMARK Flexibility Score: inf
ROOT
ATOM      1  C   UNL     1     -31.015   2.032 -24.962  1.00  0.00     0.016 A 
ATOM      2  C   UNL     1     -31.297   3.310 -25.457  1.00  0.00     0.047 A 
ATOM      3  C   UNL     1     -31.850   3.467 -26.734  1.00  0.00     0.119 A 
ATOM      4  C   UNL     1     -32.122   2.339 -27.521  1.00  0.00     0.094 A 
ATOM      5  C   UNL     1     -31.844   1.057 -27.035  1.00  0.00     0.142 A 
ATOM      6  C   UNL     1     -31.286   0.902 -25.746  1.00  0.00     0.018 A 
ATOM      7  C   UNL     1     -31.017  -0.391 -25.287  1.00  0.00     0.019 A 
ATOM      8  C   UNL     1     -31.306  -1.481 -26.107  1.00  0.00     0.094 A 
ATOM      9  C   UNL     1     -31.858  -1.252 -27.373  1.00  0.00     0.336 A 
ATOM     10  O   UNL     1     -32.125  -2.223 -28.127  1.00  0.00    -0.246 OA
ATOM     11  O   UNL     1     -32.103  -0.011 -27.786  1.00  0.00    -0.423 OA
ENDROOT
BRANCH   3  12
ATOM     12  O   UNL     1     -32.125   4.748 -27.208  1.00  0.00    -0.508 OA
ATOM     13  H   UNL     1     -31.503   5.526 -27.020  1.00  0.00     0.293 HD
ENDBRANCH   3  12
TORSDOF 1
ENDMDL
MODEL 4
REMARK VINA RESULT:    -2.252     22.846     23.987
REMARK INTER + INTRA:          -2.318
REMARK INTER:                  -2.318
REMARK INTRA:                   0.000
REMARK UNBOUND:                 0.000
REMARK SMILES O=c1ccc2ccc(O)cc2o1
REMARK SMILES IDX 6 1 7 2 8 3 10 4 11 5 5 6 4 7 3 8 2 9 1 10 12 11 9 12
REMARK H PARENT 9 13
REMARK Flexibility Score: inf
ROOT
ATOM      1  C   UNL     1     -31.071  -0.061 -25.032  1.00  0.00     0.016 A 
ATOM      2  C   UNL     1     -31.340  -1.238 -25.737  1.00  0.00     0.047 A 
ATOM      3  C   UNL     1     -31.865  -1.183 -27.034  1.00  0.00     0.119 A 
ATOM      4  C   UNL     1     -32.123   0.061 -27.630  1.00  0.00     0.094 A 
ATOM      5  C   UNL     1     -31.857   1.244 -26.933  1.00  0.00     0.142 A 
ATOM      6  C   UNL     1     -31.327   1.184 -25.625  1.00  0.00     0.018 A 
ATOM      7  C   UNL     1     -31.073   2.383 -24.952  1.00  0.00     0.019 A 
ATOM      8  C   UNL     1     -31.346   3.594 -25.588  1.00  0.00     0.094 A 
ATOM      9  C   UNL     1     -31.870   3.577 -26.885  1.00  0.00     0.336 A 
ATOM     10  O   UNL     1     -32.123   4.660 -27.474  1.00  0.00    -0.246 OA
ATOM     11  O   UNL     1     -32.104   2.422 -27.502  1.00  0.00    -0.423 OA
ENDROOT
BRANCH   3  12
ATOM     12  O   UNL     1     -32.125  -2.367 -27.720  1.00  0.00    -0.508 OA
ATOM     13  H   UNL     1     -31.985  -3.271 -27.285  1.00  0.00     0.293 HD
ENDBRANCH   3  12
TORSDOF 1
ENDMDL
MODEL 5
REMARK VINA RESULT:    -1.893      1.595      4.775
REMARK INTER + INTRA:          -1.948
REMARK INTER:                  -1.948
REMARK INTRA:                   0.000
REMARK UNBOUND:                 0.000
REMARK SMILES O=c1ccc2ccc(O)cc2o1
REMARK SMILES IDX 6 1 7 2 8 3 10 4 11 5 5 6 4 7 3 8 2 9 1 10 12 11 9 12
REMARK H PARENT 9 13
REMARK Flexibility Score: inf
ROOT
ATOM      1  C   UNL     1     -14.503  -3.992 -11.346  1.00  0.00     0.016 A 
ATOM      2  C   UNL     1     -13.794  -3.919 -10.142  1.00  0.00     0.047 A 
ATOM      3  C   UNL     1     -12.565  -3.251 -10.084  1.00  0.00     0.119 A 
ATOM      4  C   UNL     1     -12.040  -2.650 -11.238  1.00  0.00     0.094 A 
ATOM      5  C   UNL     1     -12.742  -2.717 -12.447  1.00  0.00     0.142 A 
ATOM      6  C   UNL     1     -13.981  -3.393 -12.501  1.00  0.00     0.018 A 
ATOM      7  C   UNL     1     -14.659  -3.444 -13.723  1.00  0.00     0.019 A 
ATOM      8  C   UNL     1     -14.097  -2.831 -14.843  1.00  0.00     0.094 A 
ATOM      9  C   UNL     1     -12.865  -2.181 -14.714  1.00  0.00     0.336 A 
ATOM     10  O   UNL     1     -12.342  -1.623 -15.714  1.00  0.00    -0.246 OA
ATOM     11  O   UNL     1     -12.240  -2.147 -13.540  1.00  0.00    -0.423 OA
ENDROOT
BRANCH   3  12
ATOM     12  O   UNL     1     -11.875  -3.189  -8.875  1.00  0.00    -0.508 OA
ATOM     13  H   UNL     1     -11.174  -2.478  -8.702  1.00  0.00     0.293 HD
ENDBRANCH   3  12
TORSDOF 1
ENDMDL
MODEL 6
REMARK VINA RESULT:    -1.830      1.551      2.220
REMARK INTER + INTRA:          -1.883
REMARK INTER:                  -1.883
REMARK INTRA:                   0.000
REMARK UNBOUND:                 0.000
REMARK SMILES O=c1ccc2ccc(O)cc2o1
REMARK SMILES IDX 6 1 7 2 8 3 10 4 11 5 5 6 4 7 3 8 2 9 1 10 12 11 9 12
REMARK H PARENT 9 13
REMARK Flexibility Score: inf
ROOT
ATOM      1  C   UNL     1     -14.400  -3.866 -13.526  1.00  0.00     0.016 A 
ATOM      2  C   UNL     1     -14.006  -3.211 -14.697  1.00  0.00     0.047 A 
ATOM      3  C   UNL     1     -12.989  -2.249 -14.663  1.00  0.00     0.119 A 
ATOM      4  C   UNL     1     -12.361  -1.940 -13.447  1.00  0.00     0.094 A 
ATOM      5  C   UNL     1     -12.747  -2.589 -12.270  1.00  0.00     0.142 A 
ATOM      6  C   UNL     1     -13.774  -3.559 -12.309  1.00  0.00     0.018 A 
ATOM      7  C   UNL     1     -14.140  -4.191 -11.117  1.00  0.00     0.019 A 
ATOM      8  C   UNL     1     -13.485  -3.850  -9.934  1.00  0.00     0.094 A 
ATOM      9  C   UNL     1     -12.477  -2.880  -9.971  1.00  0.00     0.336 A 
ATOM     10  O   UNL     1     -11.876  -2.558  -8.913  1.00  0.00    -0.246 OA
ATOM     11  O   UNL     1     -12.149  -2.293 -11.119  1.00  0.00    -0.423 OA
ENDROOT
BRANCH   3  12
ATOM     12  O   UNL     1     -12.611  -1.609 -15.841  1.00  0.00    -0.508 OA
ATOM     13  H   UNL     1     -12.869  -1.976 -16.749  1.00  0.00     0.293 HD
ENDBRANCH   3  12
TORSDOF 1
ENDMDL
