MODEL 1
REMARK VINA RESULT:    -3.592      0.000      0.000
REMARK INTER + INTRA:         -13.045
REMARK INTER:                  -9.052
REMARK INTRA:                  -3.993
REMARK UNBOUND:                -3.993
REMARK SMILES CCCCCCCCCCCCCCCCCCCCCCCCCCCC(=O)[O-]
REMARK SMILES IDX 15 1 16 2 17 3 18 4 19 5 20 6 21 7 22 8 23 9 24 10 25 11
REMARK SMILES IDX 26 12 27 13 28 14 29 15 30 16 14 17 13 18 12 19 11 20 10 21
REMARK SMILES IDX 9 22 8 23 7 24 6 25 5 26 4 27 3 28 2 29 1 30
REMARK H PARENT
REMARK Flexibility Score: inf
ROOT
ATOM      1  C   UNL     1     -19.234  29.735  21.323  1.00  0.00     0.000 C 
ENDROOT
BRANCH   1   2
ATOM      2  C   UNL     1     -19.746  29.853  22.768  1.00  0.00     0.000 C 
BRANCH   2   3
ATOM      3  C   UNL     1     -18.961  28.948  23.744  1.00  0.00     0.000 C 
BRANCH   3   4
ATOM      4  C   UNL     1     -17.694  28.329  23.125  1.00  0.00     0.000 C 
BRANCH   4   5
ATOM      5  C   UNL     1     -17.592  26.799  23.266  1.00  0.00     0.000 C 
BRANCH   5   6
ATOM      6  C   UNL     1     -17.677  26.015  21.939  1.00  0.00     0.000 C 
BRANCH   6   7
ATOM      7  C   UNL     1     -16.721  24.814  21.830  1.00  0.00     0.000 C 
BRANCH   7   8
ATOM      8  C   UNL     1     -17.422  23.536  21.338  1.00  0.00     0.000 C 
BRANCH   8   9
ATOM      9  C   UNL     1     -18.680  23.825  20.500  1.00  0.00     0.000 C 
BRANCH   9  10
ATOM     10  C   UNL     1     -18.661  23.231  19.079  1.00  0.00     0.000 C 
BRANCH  10  11
ATOM     11  C   UNL     1     -19.475  24.018  18.035  1.00  0.00     0.000 C 
BRANCH  11  12
ATOM     12  C   UNL     1     -19.251  23.538  16.585  1.00  0.00     0.006 C 
BRANCH  12  13
ATOM     13  C   UNL     1     -20.570  23.279  15.844  1.00  0.00     0.053 C 
BRANCH  13  14
ATOM     14  C   UNL     1     -20.447  23.668  14.405  1.00  0.00     0.041 C 
ATOM     15  O   UNL     1     -20.976  22.959  13.509  1.00  0.00    -0.550 OA
ATOM     16  O   UNL     1     -19.717  24.797  14.050  1.00  0.00    -0.550 OA
ENDBRANCH  13  14
ENDBRANCH  12  13
ENDBRANCH  11  12
ENDBRANCH  10  11
ENDBRANCH   9  10
ENDBRANCH   8   9
ENDBRANCH   7   8
ENDBRANCH   6   7
ENDBRANCH   5   6
ENDBRANCH   4   5
ENDBRANCH   3   4
ENDBRANCH   2   3
ENDBRANCH   1   2
BRANCH   1  17
ATOM     17  C   UNL     1     -20.367  29.835  20.279  1.00  0.00     0.000 C 
BRANCH  17  18
ATOM     18  C   UNL     1     -20.362  28.693  19.244  1.00  0.00     0.000 C 
BRANCH  18  19
ATOM     19  C   UNL     1     -20.240  27.277  19.836  1.00  0.00     0.000 C 
BRANCH  19  20
ATOM     20  C   UNL     1     -21.559  26.673  20.362  1.00  0.00     0.000 C 
BRANCH  20  21
ATOM     21  C   UNL     1     -21.614  26.453  21.885  1.00  0.00     0.000 C 
BRANCH  21  22
ATOM     22  C   UNL     1     -22.342  27.555  22.678  1.00  0.00    -0.000 C 
BRANCH  22  23
ATOM     23  C   UNL     1     -23.174  28.512  21.796  1.00  0.00    -0.000 C 
BRANCH  23  24
ATOM     24  C   UNL     1     -23.749  29.699  22.588  1.00  0.00    -0.000 C 
BRANCH  24  25
ATOM     25  C   UNL     1     -23.479  31.056  21.915  1.00  0.00    -0.000 C 
BRANCH  25  26
ATOM     26  C   UNL     1     -22.740  32.088  22.792  1.00  0.00    -0.000 C 
BRANCH  26  27
ATOM     27  C   UNL     1     -21.559  32.802  22.112  1.00  0.00    -0.000 C 
BRANCH  27  28
ATOM     28  C   UNL     1     -21.605  34.339  22.172  1.00  0.00    -0.000 C 
BRANCH  28  29
ATOM     29  C   UNL     1     -21.689  35.016  20.787  1.00  0.00    -0.003 C 
ATOM     30  C   UNL     1     -22.963  34.650  20.024  1.00  0.00     0.004 C 
ENDBRANCH  28  29
ENDBRANCH  27  28
ENDBRANCH  26  27
ENDBRANCH  25  26
ENDBRANCH  24  25
ENDBRANCH  23  24
ENDBRANCH  22  23
ENDBRANCH  21  22
ENDBRANCH  20  21
ENDBRANCH  19  20
ENDBRANCH  18  19
ENDBRANCH  17  18
ENDBRANCH   1  17
TORSDOF 26
ENDMDL
MODEL 2
REMARK VINA RESULT:    -3.576      5.368     10.166
REMARK INTER + INTRA:         -13.004
REMARK INTER:                  -8.569
REMARK INTRA:                  -4.436
REMARK UNBOUND:                -3.993
REMARK SMILES CCCCCCCCCCCCCCCCCCCCCCCCCCCC(=O)[O-]
REMARK SMILES IDX 15 1 16 2 17 3 18 4 19 5 20 6 21 7 22 8 23 9 24 10 25 11
REMARK SMILES IDX 26 12 27 13 28 14 29 15 30 16 14 17 13 18 12 19 11 20 10 21
REMARK SMILES IDX 9 22 8 23 7 24 6 25 5 26 4 27 3 28 2 29 1 30
REMARK H PARENT
REMARK Flexibility Score: inf
ROOT
ATOM      1  C   UNL     1     -19.498  30.384  23.357  1.00  0.00     0.000 C 
ENDROOT
BRANCH   1   2
ATOM      2  C   UNL     1     -19.178  31.874  23.567  1.00  0.00     0.000 C 
BRANCH   2   3
ATOM      3  C   UNL     1     -20.277  32.796  22.990  1.00  0.00     0.000 C 
BRANCH   3   4
ATOM      4  C   UNL     1     -21.634  32.094  22.803  1.00  0.00     0.000 C 
BRANCH   4   5
ATOM      5  C   UNL     1     -22.147  32.065  21.351  1.00  0.00     0.000 C 
BRANCH   5   6
ATOM      6  C   UNL     1     -23.620  32.488  21.172  1.00  0.00     0.000 C 
BRANCH   6   7
ATOM      7  C   UNL     1     -23.830  33.936  20.696  1.00  0.00     0.000 C 
BRANCH   7   8
ATOM      8  C   UNL     1     -22.598  34.513  19.979  1.00  0.00     0.000 C 
BRANCH   8   9
ATOM      9  C   UNL     1     -21.929  35.658  20.760  1.00  0.00     0.000 C 
BRANCH   9  10
ATOM     10  C   UNL     1     -22.646  36.055  22.064  1.00  0.00     0.000 C 
BRANCH  10  11
ATOM     11  C   UNL     1     -23.383  37.407  22.014  1.00  0.00     0.000 C 
BRANCH  11  12
ATOM     12  C   UNL     1     -22.444  38.628  22.120  1.00  0.00     0.006 C 
BRANCH  12  13
ATOM     13  C   UNL     1     -22.408  39.454  20.827  1.00  0.00     0.053 C 
BRANCH  13  14
ATOM     14  C   UNL     1     -22.111  40.888  21.129  1.00  0.00     0.041 C 
ATOM     15  O   UNL     1     -22.749  41.805  20.548  1.00  0.00    -0.550 OA
ATOM     16  O   UNL     1     -21.101  41.215  22.027  1.00  0.00    -0.550 OA
ENDBRANCH  13  14
ENDBRANCH  12  13
ENDBRANCH  11  12
ENDBRANCH  10  11
ENDBRANCH   9  10
ENDBRANCH   8   9
ENDBRANCH   7   8
ENDBRANCH   6   7
ENDBRANCH   5   6
ENDBRANCH   4   5
ENDBRANCH   3   4
ENDBRANCH   2   3
ENDBRANCH   1   2
BRANCH   1  17
ATOM     17  C   UNL     1     -18.305  29.594  22.778  1.00  0.00     0.000 C 
BRANCH  17  18
ATOM     18  C   UNL     1     -18.607  28.914  21.427  1.00  0.00     0.000 C 
BRANCH  18  19
ATOM     19  C   UNL     1     -19.599  29.669  20.524  1.00  0.00     0.000 C 
BRANCH  19  20
ATOM     20  C   UNL     1     -20.257  28.815  19.420  1.00  0.00     0.000 C 
BRANCH  20  21
ATOM     21  C   UNL     1     -21.790  28.930  19.331  1.00  0.00     0.000 C 
BRANCH  21  22
ATOM     22  C   UNL     1     -22.563  27.646  19.687  1.00  0.00    -0.000 C 
BRANCH  22  23
ATOM     23  C   UNL     1     -23.341  27.736  21.018  1.00  0.00    -0.000 C 
BRANCH  23  24
ATOM     24  C   UNL     1     -22.562  28.488  22.110  1.00  0.00    -0.000 C 
BRANCH  24  25
ATOM     25  C   UNL     1     -22.624  27.790  23.480  1.00  0.00    -0.000 C 
BRANCH  25  26
ATOM     26  C   UNL     1     -21.936  26.411  23.545  1.00  0.00    -0.000 C 
BRANCH  26  27
ATOM     27  C   UNL     1     -20.537  26.345  22.906  1.00  0.00    -0.000 C 
BRANCH  27  28
ATOM     28  C   UNL     1     -20.293  25.125  21.999  1.00  0.00    -0.000 C 
BRANCH  28  29
ATOM     29  C   UNL     1     -19.378  25.419  20.791  1.00  0.00    -0.003 C 
ATOM     30  C   UNL     1     -20.031  25.069  19.454  1.00  0.00     0.004 C 
ENDBRANCH  28  29
ENDBRANCH  27  28
ENDBRANCH  26  27
ENDBRANCH  25  26
ENDBRANCH  24  25
ENDBRANCH  23  24
ENDBRANCH  22  23
ENDBRANCH  21  22
ENDBRANCH  20  21
ENDBRANCH  19  20
ENDBRANCH  18  19
ENDBRANCH  17  18
ENDBRANCH   1  17
TORSDOF 26
ENDMDL
MODEL 3
REMARK VINA RESULT:    -3.536      4.418      9.087
REMARK INTER + INTRA:         -12.902
REMARK INTER:                  -8.175
REMARK INTRA:                  -4.727
REMARK UNBOUND:                -3.993
REMARK SMILES CCCCCCCCCCCCCCCCCCCCCCCCCCCC(=O)[O-]
REMARK SMILES IDX 15 1 16 2 17 3 18 4 19 5 20 6 21 7 22 8 23 9 24 10 25 11
REMARK SMILES IDX 26 12 27 13 28 14 29 15 30 16 14 17 13 18 12 19 11 20 10 21
REMARK SMILES IDX 9 22 8 23 7 24 6 25 5 26 4 27 3 28 2 29 1 30
REMARK H PARENT
REMARK Flexibility Score: inf
ROOT
ATOM      1  C   UNL     1     -20.375  28.870  19.262  1.00  0.00     0.000 C 
ENDROOT
BRANCH   1   2
ATOM      2  C   UNL     1     -19.829  29.750  20.400  1.00  0.00     0.000 C 
BRANCH   2   3
ATOM      3  C   UNL     1     -19.006  28.938  21.425  1.00  0.00     0.000 C 
BRANCH   3   4
ATOM      4  C   UNL     1     -19.280  29.335  22.887  1.00  0.00     0.000 C 
BRANCH   4   5
ATOM      5  C   UNL     1     -18.743  30.722  23.287  1.00  0.00     0.000 C 
BRANCH   5   6
ATOM      6  C   UNL     1     -19.815  31.724  23.764  1.00  0.00     0.000 C 
BRANCH   6   7
ATOM      7  C   UNL     1     -21.270  31.288  23.519  1.00  0.00     0.000 C 
BRANCH   7   8
ATOM      8  C   UNL     1     -22.154  32.428  22.984  1.00  0.00     0.000 C 
BRANCH   8   9
ATOM      9  C   UNL     1     -21.869  32.767  21.510  1.00  0.00     0.000 C 
BRANCH   9  10
ATOM     10  C   UNL     1     -23.112  33.143  20.682  1.00  0.00     0.000 C 
BRANCH  10  11
ATOM     11  C   UNL     1     -23.510  34.629  20.746  1.00  0.00     0.000 C 
BRANCH  11  12
ATOM     12  C   UNL     1     -22.305  35.589  20.852  1.00  0.00     0.006 C 
BRANCH  12  13
ATOM     13  C   UNL     1     -22.654  36.887  21.591  1.00  0.00     0.053 C 
BRANCH  13  14
ATOM     14  C   UNL     1     -22.014  36.907  22.944  1.00  0.00     0.041 C 
ATOM     15  O   UNL     1     -21.893  35.842  23.604  1.00  0.00    -0.550 OA
ATOM     16  O   UNL     1     -21.586  38.111  23.493  1.00  0.00    -0.550 OA
ENDBRANCH  13  14
ENDBRANCH  12  13
ENDBRANCH  11  12
ENDBRANCH  10  11
ENDBRANCH   9  10
ENDBRANCH   8   9
ENDBRANCH   7   8
ENDBRANCH   6   7
ENDBRANCH   5   6
ENDBRANCH   4   5
ENDBRANCH   3   4
ENDBRANCH   2   3
ENDBRANCH   1   2
BRANCH   1  17
ATOM     17  C   UNL     1     -21.916  28.787  19.260  1.00  0.00     0.000 C 
BRANCH  17  18
ATOM     18  C   UNL     1     -22.573  29.381  20.522  1.00  0.00     0.000 C 
BRANCH  18  19
ATOM     19  C   UNL     1     -23.402  28.386  21.355  1.00  0.00     0.000 C 
BRANCH  19  20
ATOM     20  C   UNL     1     -22.866  28.120  22.778  1.00  0.00     0.000 C 
BRANCH  20  21
ATOM     21  C   UNL     1     -22.358  26.689  23.028  1.00  0.00     0.000 C 
BRANCH  21  22
ATOM     22  C   UNL     1     -21.311  26.181  22.018  1.00  0.00    -0.000 C 
BRANCH  22  23
ATOM     23  C   UNL     1     -21.856  25.125  21.032  1.00  0.00    -0.000 C 
BRANCH  23  24
ATOM     24  C   UNL     1     -21.160  25.179  19.662  1.00  0.00    -0.000 C 
BRANCH  24  25
ATOM     25  C   UNL     1     -19.638  25.381  19.771  1.00  0.00    -0.000 C 
BRANCH  25  26
ATOM     26  C   UNL     1     -18.821  24.095  20.015  1.00  0.00    -0.000 C 
BRANCH  26  27
ATOM     27  C   UNL     1     -17.915  24.121  21.258  1.00  0.00    -0.000 C 
BRANCH  27  28
ATOM     28  C   UNL     1     -17.716  25.511  21.889  1.00  0.00    -0.000 C 
BRANCH  28  29
ATOM     29  C   UNL     1     -16.642  25.546  22.997  1.00  0.00    -0.003 C 
ATOM     30  C   UNL     1     -15.576  24.463  22.824  1.00  0.00     0.004 C 
ENDBRANCH  28  29
ENDBRANCH  27  28
ENDBRANCH  26  27
ENDBRANCH  25  26
ENDBRANCH  24  25
ENDBRANCH  23  24
ENDBRANCH  22  23
ENDBRANCH  21  22
ENDBRANCH  20  21
ENDBRANCH  19  20
ENDBRANCH  18  19
ENDBRANCH  17  18
ENDBRANCH   1  17
TORSDOF 26
ENDMDL
MODEL 4
REMARK VINA RESULT:    -3.528      4.921     10.271
REMARK INTER + INTRA:         -12.883
REMARK INTER:                  -9.125
REMARK INTRA:                  -3.758
REMARK UNBOUND:                -3.993
REMARK SMILES CCCCCCCCCCCCCCCCCCCCCCCCCCCC(=O)[O-]
REMARK SMILES IDX 15 1 16 2 17 3 18 4 19 5 20 6 21 7 22 8 23 9 24 10 25 11
REMARK SMILES IDX 26 12 27 13 28 14 29 15 30 16 14 17 13 18 12 19 11 20 10 21
REMARK SMILES IDX 9 22 8 23 7 24 6 25 5 26 4 27 3 28 2 29 1 30
REMARK H PARENT
REMARK Flexibility Score: inf
ROOT
ATOM      1  C   UNL     1     -19.627  29.637  20.269  1.00  0.00     0.000 C 
ENDROOT
BRANCH   1   2
ATOM      2  C   UNL     1     -19.548  29.313  21.771  1.00  0.00     0.000 C 
BRANCH   2   3
ATOM      3  C   UNL     1     -20.485  30.207  22.613  1.00  0.00     0.000 C 
BRANCH   3   4
ATOM      4  C   UNL     1     -21.136  31.347  21.809  1.00  0.00     0.000 C 
BRANCH   4   5
ATOM      5  C   UNL     1     -22.666  31.445  21.955  1.00  0.00     0.000 C 
BRANCH   5   6
ATOM      6  C   UNL     1     -23.391  32.131  20.779  1.00  0.00     0.000 C 
BRANCH   6   7
ATOM      7  C   UNL     1     -23.554  33.655  20.912  1.00  0.00     0.000 C 
BRANCH   7   8
ATOM      8  C   UNL     1     -22.634  34.439  19.962  1.00  0.00     0.000 C 
BRANCH   8   9
ATOM      9  C   UNL     1     -21.732  35.448  20.696  1.00  0.00     0.000 C 
BRANCH   9  10
ATOM     10  C   UNL     1     -21.817  35.392  22.232  1.00  0.00     0.000 C 
BRANCH  10  11
ATOM     11  C   UNL     1     -22.511  36.601  22.888  1.00  0.00     0.000 C 
BRANCH  11  12
ATOM     12  C   UNL     1     -22.995  37.662  21.875  1.00  0.00     0.006 C 
BRANCH  12  13
ATOM     13  C   UNL     1     -22.224  38.983  21.998  1.00  0.00     0.053 C 
BRANCH  13  14
ATOM     14  C   UNL     1     -22.527  39.875  20.836  1.00  0.00     0.041 C 
ATOM     15  O   UNL     1     -23.676  40.372  20.700  1.00  0.00    -0.550 OA
ATOM     16  O   UNL     1     -21.550  40.129  19.880  1.00  0.00    -0.550 OA
ENDBRANCH  13  14
ENDBRANCH  12  13
ENDBRANCH  11  12
ENDBRANCH  10  11
ENDBRANCH   9  10
ENDBRANCH   8   9
ENDBRANCH   7   8
ENDBRANCH   6   7
ENDBRANCH   5   6
ENDBRANCH   4   5
ENDBRANCH   3   4
ENDBRANCH   2   3
ENDBRANCH   1   2
BRANCH   1  17
ATOM     17  C   UNL     1     -20.393  28.563  19.468  1.00  0.00     0.000 C 
BRANCH  17  18
ATOM     18  C   UNL     1     -21.873  28.914  19.213  1.00  0.00     0.000 C 
BRANCH  18  19
ATOM     19  C   UNL     1     -22.884  27.846  19.667  1.00  0.00     0.000 C 
BRANCH  19  20
ATOM     20  C   UNL     1     -23.210  27.854  21.176  1.00  0.00     0.000 C 
BRANCH  20  21
ATOM     21  C   UNL     1     -22.456  26.804  22.013  1.00  0.00     0.000 C 
BRANCH  21  22
ATOM     22  C   UNL     1     -22.807  25.339  21.692  1.00  0.00    -0.000 C 
BRANCH  22  23
ATOM     23  C   UNL     1     -21.577  24.458  21.381  1.00  0.00    -0.000 C 
BRANCH  23  24
ATOM     24  C   UNL     1     -20.868  24.869  20.080  1.00  0.00    -0.000 C 
BRANCH  24  25
ATOM     25  C   UNL     1     -19.335  24.889  20.214  1.00  0.00    -0.000 C 
BRANCH  25  26
ATOM     26  C   UNL     1     -18.788  25.766  21.359  1.00  0.00    -0.000 C 
BRANCH  26  27
ATOM     27  C   UNL     1     -17.280  25.619  21.635  1.00  0.00    -0.000 C 
BRANCH  27  28
ATOM     28  C   UNL     1     -16.820  24.194  21.991  1.00  0.00    -0.000 C 
BRANCH  28  29
ATOM     29  C   UNL     1     -15.597  24.149  22.931  1.00  0.00    -0.003 C 
ATOM     30  C   UNL     1     -14.757  22.884  22.752  1.00  0.00     0.004 C 
ENDBRANCH  28  29
ENDBRANCH  27  28
ENDBRANCH  26  27
ENDBRANCH  25  26
ENDBRANCH  24  25
ENDBRANCH  23  24
ENDBRANCH  22  23
ENDBRANCH  21  22
ENDBRANCH  20  21
ENDBRANCH  19  20
ENDBRANCH  18  19
ENDBRANCH  17  18
ENDBRANCH   1  17
TORSDOF 26
ENDMDL
MODEL 5
REMARK VINA RESULT:    -3.446      4.777     10.419
REMARK INTER + INTRA:         -12.676
REMARK INTER:                  -8.788
REMARK INTRA:                  -3.888
REMARK UNBOUND:                -3.993
REMARK SMILES CCCCCCCCCCCCCCCCCCCCCCCCCCCC(=O)[O-]
REMARK SMILES IDX 15 1 16 2 17 3 18 4 19 5 20 6 21 7 22 8 23 9 24 10 25 11
REMARK SMILES IDX 26 12 27 13 28 14 29 15 30 16 14 17 13 18 12 19 11 20 10 21
REMARK SMILES IDX 9 22 8 23 7 24 6 25 5 26 4 27 3 28 2 29 1 30
REMARK H PARENT
REMARK Flexibility Score: inf
ROOT
ATOM      1  C   UNL     1     -19.790  29.915  20.046  1.00  0.00     0.000 C 
ENDROOT
BRANCH   1   2
ATOM      2  C   UNL     1     -19.412  29.537  21.488  1.00  0.00     0.000 C 
BRANCH   2   3
ATOM      3  C   UNL     1     -20.314  30.234  22.531  1.00  0.00     0.000 C 
BRANCH   3   4
ATOM      4  C   UNL     1     -20.951  31.539  22.020  1.00  0.00     0.000 C 
BRANCH   4   5
ATOM      5  C   UNL     1     -22.491  31.537  21.998  1.00  0.00     0.000 C 
BRANCH   5   6
ATOM      6  C   UNL     1     -23.126  32.147  20.731  1.00  0.00     0.000 C 
BRANCH   6   7
ATOM      7  C   UNL     1     -23.549  33.621  20.858  1.00  0.00     0.000 C 
BRANCH   7   8
ATOM      8  C   UNL     1     -22.503  34.593  20.287  1.00  0.00     0.000 C 
BRANCH   8   9
ATOM      9  C   UNL     1     -21.593  35.201  21.370  1.00  0.00     0.000 C 
BRANCH   9  10
ATOM     10  C   UNL     1     -22.235  35.310  22.766  1.00  0.00     0.000 C 
BRANCH  10  11
ATOM     11  C   UNL     1     -21.850  36.573  23.560  1.00  0.00     0.000 C 
BRANCH  11  12
ATOM     12  C   UNL     1     -22.686  37.817  23.189  1.00  0.00     0.006 C 
BRANCH  12  13
ATOM     13  C   UNL     1     -21.835  39.092  23.111  1.00  0.00     0.053 C 
BRANCH  13  14
ATOM     14  C   UNL     1     -21.993  39.745  21.774  1.00  0.00     0.041 C 
ATOM     15  O   UNL     1     -22.650  39.176  20.864  1.00  0.00    -0.550 OA
ATOM     16  O   UNL     1     -21.383  40.968  21.521  1.00  0.00    -0.550 OA
ENDBRANCH  13  14
ENDBRANCH  12  13
ENDBRANCH  11  12
ENDBRANCH  10  11
ENDBRANCH   9  10
ENDBRANCH   8   9
ENDBRANCH   7   8
ENDBRANCH   6   7
ENDBRANCH   5   6
ENDBRANCH   4   5
ENDBRANCH   3   4
ENDBRANCH   2   3
ENDBRANCH   1   2
BRANCH   1  17
ATOM     17  C   UNL     1     -20.390  28.731  19.258  1.00  0.00     0.000 C 
BRANCH  17  18
ATOM     18  C   UNL     1     -21.931  28.694  19.269  1.00  0.00     0.000 C 
BRANCH  18  19
ATOM     19  C   UNL     1     -22.548  27.441  19.917  1.00  0.00     0.000 C 
BRANCH  19  20
ATOM     20  C   UNL     1     -22.738  27.524  21.447  1.00  0.00     0.000 C 
BRANCH  20  21
ATOM     21  C   UNL     1     -21.677  26.778  22.277  1.00  0.00     0.000 C 
BRANCH  21  22
ATOM     22  C   UNL     1     -20.938  25.650  21.532  1.00  0.00    -0.000 C 
BRANCH  22  23
ATOM     23  C   UNL     1     -19.412  25.864  21.430  1.00  0.00    -0.000 C 
BRANCH  23  24
ATOM     24  C   UNL     1     -18.615  24.569  21.662  1.00  0.00    -0.000 C 
BRANCH  24  25
ATOM     25  C   UNL     1     -17.682  24.222  20.488  1.00  0.00    -0.000 C 
BRANCH  25  26
ATOM     26  C   UNL     1     -18.090  22.977  19.672  1.00  0.00    -0.000 C 
BRANCH  26  27
ATOM     27  C   UNL     1     -18.206  23.199  18.154  1.00  0.00    -0.000 C 
BRANCH  27  28
ATOM     28  C   UNL     1     -19.603  23.621  17.663  1.00  0.00    -0.000 C 
BRANCH  28  29
ATOM     29  C   UNL     1     -20.748  23.209  18.611  1.00  0.00    -0.003 C 
ATOM     30  C   UNL     1     -22.003  24.065  18.433  1.00  0.00     0.004 C 
ENDBRANCH  28  29
ENDBRANCH  27  28
ENDBRANCH  26  27
ENDBRANCH  25  26
ENDBRANCH  24  25
ENDBRANCH  23  24
ENDBRANCH  22  23
ENDBRANCH  21  22
ENDBRANCH  20  21
ENDBRANCH  19  20
ENDBRANCH  18  19
ENDBRANCH  17  18
ENDBRANCH   1  17
TORSDOF 26
ENDMDL
MODEL 6
REMARK VINA RESULT:    -3.387      4.003      8.760
REMARK INTER + INTRA:         -12.527
REMARK INTER:                  -7.694
REMARK INTRA:                  -4.833
REMARK UNBOUND:                -3.993
REMARK SMILES CCCCCCCCCCCCCCCCCCCCCCCCCCCC(=O)[O-]
REMARK SMILES IDX 15 1 16 2 17 3 18 4 19 5 20 6 21 7 22 8 23 9 24 10 25 11
REMARK SMILES IDX 26 12 27 13 28 14 29 15 30 16 14 17 13 18 12 19 11 20 10 21
REMARK SMILES IDX 9 22 8 23 7 24 6 25 5 26 4 27 3 28 2 29 1 30
REMARK H PARENT
REMARK Flexibility Score: inf
ROOT
ATOM      1  C   UNL     1     -18.934  29.421  21.085  1.00  0.00     0.000 C 
ENDROOT
BRANCH   1   2
ATOM      2  C   UNL     1     -19.916  29.823  19.971  1.00  0.00     0.000 C 
BRANCH   2   3
ATOM      3  C   UNL     1     -20.634  28.601  19.354  1.00  0.00     0.000 C 
BRANCH   3   4
ATOM      4  C   UNL     1     -22.162  28.764  19.270  1.00  0.00     0.000 C 
BRANCH   4   5
ATOM      5  C   UNL     1     -22.962  27.478  19.552  1.00  0.00     0.000 C 
BRANCH   5   6
ATOM      6  C   UNL     1     -23.614  27.409  20.948  1.00  0.00     0.000 C 
BRANCH   6   7
ATOM      7  C   UNL     1     -22.660  27.669  22.127  1.00  0.00     0.000 C 
BRANCH   7   8
ATOM      8  C   UNL     1     -23.186  28.743  23.094  1.00  0.00     0.000 C 
BRANCH   8   9
ATOM      9  C   UNL     1     -23.693  30.005  22.373  1.00  0.00     0.000 C 
BRANCH   9  10
ATOM     10  C   UNL     1     -22.839  31.267  22.600  1.00  0.00     0.000 C 
BRANCH  10  11
ATOM     11  C   UNL     1     -22.434  32.016  21.317  1.00  0.00     0.000 C 
BRANCH  11  12
ATOM     12  C   UNL     1     -23.258  33.296  21.061  1.00  0.00     0.006 C 
BRANCH  12  13
ATOM     13  C   UNL     1     -22.442  34.388  20.356  1.00  0.00     0.053 C 
BRANCH  13  14
ATOM     14  C   UNL     1     -22.134  35.504  21.303  1.00  0.00     0.041 C 
ATOM     15  O   UNL     1     -21.549  35.268  22.393  1.00  0.00    -0.550 OA
ATOM     16  O   UNL     1     -22.527  36.803  20.999  1.00  0.00    -0.550 OA
ENDBRANCH  13  14
ENDBRANCH  12  13
ENDBRANCH  11  12
ENDBRANCH  10  11
ENDBRANCH   9  10
ENDBRANCH   8   9
ENDBRANCH   7   8
ENDBRANCH   6   7
ENDBRANCH   5   6
ENDBRANCH   4   5
ENDBRANCH   3   4
ENDBRANCH   2   3
ENDBRANCH   1   2
BRANCH   1  17
ATOM     17  C   UNL     1     -19.534  29.590  22.497  1.00  0.00     0.000 C 
BRANCH  17  18
ATOM     18  C   UNL     1     -19.054  28.529  23.508  1.00  0.00     0.000 C 
BRANCH  18  19
ATOM     19  C   UNL     1     -19.142  27.073  23.017  1.00  0.00     0.000 C 
BRANCH  19  20
ATOM     20  C   UNL     1     -17.799  26.448  22.584  1.00  0.00     0.000 C 
BRANCH  20  21
ATOM     21  C   UNL     1     -17.680  24.930  22.817  1.00  0.00     0.000 C 
BRANCH  21  22
ATOM     22  C   UNL     1     -16.751  24.189  21.837  1.00  0.00    -0.000 C 
BRANCH  22  23
ATOM     23  C   UNL     1     -17.441  23.036  21.076  1.00  0.00    -0.000 C 
BRANCH  23  24
ATOM     24  C   UNL     1     -16.913  22.875  19.640  1.00  0.00    -0.000 C 
BRANCH  24  25
ATOM     25  C   UNL     1     -17.962  23.234  18.573  1.00  0.00    -0.000 C 
BRANCH  25  26
ATOM     26  C   UNL     1     -19.417  23.304  19.081  1.00  0.00    -0.000 C 
BRANCH  26  27
ATOM     27  C   UNL     1     -20.009  24.722  19.179  1.00  0.00    -0.000 C 
BRANCH  27  28
ATOM     28  C   UNL     1     -20.672  25.058  20.528  1.00  0.00    -0.000 C 
BRANCH  28  29
ATOM     29  C   UNL     1     -21.253  23.830  21.261  1.00  0.00    -0.003 C 
ATOM     30  C   UNL     1     -21.279  24.003  22.780  1.00  0.00     0.004 C 
ENDBRANCH  28  29
ENDBRANCH  27  28
ENDBRANCH  26  27
ENDBRANCH  25  26
ENDBRANCH  24  25
ENDBRANCH  23  24
ENDBRANCH  22  23
ENDBRANCH  21  22
ENDBRANCH  20  21
ENDBRANCH  19  20
ENDBRANCH  18  19
ENDBRANCH  17  18
ENDBRANCH   1  17
TORSDOF 26
ENDMDL
MODEL 7
REMARK VINA RESULT:    -3.317      5.186     10.650
REMARK INTER + INTRA:         -12.351
REMARK INTER:                  -9.215
REMARK INTRA:                  -3.136
REMARK UNBOUND:                -3.993
REMARK SMILES CCCCCCCCCCCCCCCCCCCCCCCCCCCC(=O)[O-]
REMARK SMILES IDX 15 1 16 2 17 3 18 4 19 5 20 6 21 7 22 8 23 9 24 10 25 11
REMARK SMILES IDX 26 12 27 13 28 14 29 15 30 16 14 17 13 18 12 19 11 20 10 21
REMARK SMILES IDX 9 22 8 23 7 24 6 25 5 26 4 27 3 28 2 29 1 30
REMARK H PARENT
REMARK Flexibility Score: inf
ROOT
ATOM      1  C   UNL     1     -19.377  29.718  22.778  1.00  0.00     0.000 C 
ENDROOT
BRANCH   1   2
ATOM      2  C   UNL     1     -19.438  31.213  23.130  1.00  0.00     0.000 C 
BRANCH   2   3
ATOM      3  C   UNL     1     -20.748  31.876  22.645  1.00  0.00     0.000 C 
BRANCH   3   4
ATOM      4  C   UNL     1     -21.438  31.110  21.502  1.00  0.00     0.000 C 
BRANCH   4   5
ATOM      5  C   UNL     1     -22.886  31.550  21.216  1.00  0.00     0.000 C 
BRANCH   5   6
ATOM      6  C   UNL     1     -23.216  33.005  21.611  1.00  0.00     0.000 C 
BRANCH   6   7
ATOM      7  C   UNL     1     -23.095  34.033  20.473  1.00  0.00     0.000 C 
BRANCH   7   8
ATOM      8  C   UNL     1     -21.902  34.986  20.655  1.00  0.00     0.000 C 
BRANCH   8   9
ATOM      9  C   UNL     1     -21.862  35.641  22.047  1.00  0.00     0.000 C 
BRANCH   9  10
ATOM     10  C   UNL     1     -22.863  36.794  22.248  1.00  0.00     0.000 C 
BRANCH  10  11
ATOM     11  C   UNL     1     -22.229  38.195  22.342  1.00  0.00     0.000 C 
BRANCH  11  12
ATOM     12  C   UNL     1     -22.986  39.273  21.537  1.00  0.00     0.006 C 
BRANCH  12  13
ATOM     13  C   UNL     1     -22.176  39.784  20.338  1.00  0.00     0.053 C 
BRANCH  13  14
ATOM     14  C   UNL     1     -21.481  41.063  20.683  1.00  0.00     0.041 C 
ATOM     15  O   UNL     1     -22.104  41.985  21.271  1.00  0.00    -0.550 OA
ATOM     16  O   UNL     1     -20.152  41.252  20.320  1.00  0.00    -0.550 OA
ENDBRANCH  13  14
ENDBRANCH  12  13
ENDBRANCH  11  12
ENDBRANCH  10  11
ENDBRANCH   9  10
ENDBRANCH   8   9
ENDBRANCH   7   8
ENDBRANCH   6   7
ENDBRANCH   5   6
ENDBRANCH   4   5
ENDBRANCH   3   4
ENDBRANCH   2   3
ENDBRANCH   1   2
BRANCH   1  17
ATOM     17  C   UNL     1     -17.930  29.203  22.616  1.00  0.00     0.000 C 
BRANCH  17  18
ATOM     18  C   UNL     1     -17.832  27.679  22.404  1.00  0.00     0.000 C 
BRANCH  18  19
ATOM     19  C   UNL     1     -17.917  26.835  23.689  1.00  0.00     0.000 C 
BRANCH  19  20
ATOM     20  C   UNL     1     -17.547  25.347  23.519  1.00  0.00     0.000 C 
BRANCH  20  21
ATOM     21  C   UNL     1     -16.251  25.081  22.731  1.00  0.00     0.000 C 
BRANCH  21  22
ATOM     22  C   UNL     1     -16.019  23.612  22.332  1.00  0.00    -0.000 C 
BRANCH  22  23
ATOM     23  C   UNL     1     -17.192  22.986  21.546  1.00  0.00    -0.000 C 
BRANCH  23  24
ATOM     24  C   UNL     1     -17.288  23.515  20.105  1.00  0.00    -0.000 C 
BRANCH  24  25
ATOM     25  C   UNL     1     -18.723  23.896  19.701  1.00  0.00    -0.000 C 
BRANCH  25  26
ATOM     26  C   UNL     1     -19.720  24.030  20.871  1.00  0.00    -0.000 C 
BRANCH  26  27
ATOM     27  C   UNL     1     -20.373  25.416  21.019  1.00  0.00    -0.000 C 
BRANCH  27  28
ATOM     28  C   UNL     1     -20.155  26.369  19.830  1.00  0.00    -0.000 C 
BRANCH  28  29
ATOM     29  C   UNL     1     -20.911  27.708  19.956  1.00  0.00    -0.003 C 
ATOM     30  C   UNL     1     -20.253  28.838  19.163  1.00  0.00     0.004 C 
ENDBRANCH  28  29
ENDBRANCH  27  28
ENDBRANCH  26  27
ENDBRANCH  25  26
ENDBRANCH  24  25
ENDBRANCH  23  24
ENDBRANCH  22  23
ENDBRANCH  21  22
ENDBRANCH  20  21
ENDBRANCH  19  20
ENDBRANCH  18  19
ENDBRANCH  17  18
ENDBRANCH   1  17
TORSDOF 26
ENDMDL
MODEL 8
REMARK VINA RESULT:    -3.315      4.549      9.258
REMARK INTER + INTRA:         -12.345
REMARK INTER:                  -7.444
REMARK INTRA:                  -4.902
REMARK UNBOUND:                -3.993
REMARK SMILES CCCCCCCCCCCCCCCCCCCCCCCCCCCC(=O)[O-]
REMARK SMILES IDX 15 1 16 2 17 3 18 4 19 5 20 6 21 7 22 8 23 9 24 10 25 11
REMARK SMILES IDX 26 12 27 13 28 14 29 15 30 16 14 17 13 18 12 19 11 20 10 21
REMARK SMILES IDX 9 22 8 23 7 24 6 25 5 26 4 27 3 28 2 29 1 30
REMARK H PARENT
REMARK Flexibility Score: inf
ROOT
ATOM      1  C   UNL     1     -18.889  28.982  21.306  1.00  0.00     0.000 C 
ENDROOT
BRANCH   1   2
ATOM      2  C   UNL     1     -19.680  29.657  20.173  1.00  0.00     0.000 C 
BRANCH   2   3
ATOM      3  C   UNL     1     -20.392  28.631  19.263  1.00  0.00     0.000 C 
BRANCH   3   4
ATOM      4  C   UNL     1     -21.927  28.673  19.372  1.00  0.00     0.000 C 
BRANCH   4   5
ATOM      5  C   UNL     1     -22.481  28.344  20.772  1.00  0.00     0.000 C 
BRANCH   5   6
ATOM      6  C   UNL     1     -23.677  29.211  21.220  1.00  0.00     0.000 C 
BRANCH   6   7
ATOM      7  C   UNL     1     -23.323  30.370  22.168  1.00  0.00     0.000 C 
BRANCH   7   8
ATOM      8  C   UNL     1     -23.046  31.687  21.423  1.00  0.00     0.000 C 
BRANCH   8   9
ATOM      9  C   UNL     1     -21.577  32.137  21.524  1.00  0.00     0.000 C 
BRANCH   9  10
ATOM     10  C   UNL     1     -21.214  32.869  22.829  1.00  0.00     0.000 C 
BRANCH  10  11
ATOM     11  C   UNL     1     -21.876  34.248  23.006  1.00  0.00     0.000 C 
BRANCH  11  12
ATOM     12  C   UNL     1     -21.561  35.237  21.863  1.00  0.00     0.006 C 
BRANCH  12  13
ATOM     13  C   UNL     1     -22.822  35.918  21.314  1.00  0.00     0.053 C 
BRANCH  13  14
ATOM     14  C   UNL     1     -22.946  37.307  21.856  1.00  0.00     0.041 C 
ATOM     15  O   UNL     1     -23.462  37.502  22.988  1.00  0.00    -0.550 OA
ATOM     16  O   UNL     1     -22.524  38.391  21.095  1.00  0.00    -0.550 OA
ENDBRANCH  13  14
ENDBRANCH  12  13
ENDBRANCH  11  12
ENDBRANCH  10  11
ENDBRANCH   9  10
ENDBRANCH   8   9
ENDBRANCH   7   8
ENDBRANCH   6   7
ENDBRANCH   5   6
ENDBRANCH   4   5
ENDBRANCH   3   4
ENDBRANCH   2   3
ENDBRANCH   1   2
BRANCH   1  17
ATOM     17  C   UNL     1     -18.989  29.749  22.642  1.00  0.00     0.000 C 
BRANCH  17  18
ATOM     18  C   UNL     1     -20.067  29.198  23.596  1.00  0.00     0.000 C 
BRANCH  18  19
ATOM     19  C   UNL     1     -20.109  27.664  23.717  1.00  0.00     0.000 C 
BRANCH  19  20
ATOM     20  C   UNL     1     -21.501  27.070  24.018  1.00  0.00     0.000 C 
BRANCH  20  21
ATOM     21  C   UNL     1     -21.796  25.720  23.338  1.00  0.00     0.000 C 
BRANCH  21  22
ATOM     22  C   UNL     1     -20.898  25.386  22.132  1.00  0.00    -0.000 C 
BRANCH  22  23
ATOM     23  C   UNL     1     -21.567  24.456  21.096  1.00  0.00    -0.000 C 
BRANCH  23  24
ATOM     24  C   UNL     1     -21.423  24.974  19.655  1.00  0.00    -0.000 C 
BRANCH  24  25
ATOM     25  C   UNL     1     -19.960  25.026  19.180  1.00  0.00    -0.000 C 
BRANCH  25  26
ATOM     26  C   UNL     1     -19.215  23.675  19.202  1.00  0.00    -0.000 C 
BRANCH  26  27
ATOM     27  C   UNL     1     -17.812  23.712  19.835  1.00  0.00    -0.000 C 
BRANCH  27  28
ATOM     28  C   UNL     1     -17.739  23.201  21.286  1.00  0.00    -0.000 C 
BRANCH  28  29
ATOM     29  C   UNL     1     -17.250  24.260  22.296  1.00  0.00    -0.003 C 
ATOM     30  C   UNL     1     -17.318  25.684  21.743  1.00  0.00     0.004 C 
ENDBRANCH  28  29
ENDBRANCH  27  28
ENDBRANCH  26  27
ENDBRANCH  25  26
ENDBRANCH  24  25
ENDBRANCH  23  24
ENDBRANCH  22  23
ENDBRANCH  21  22
ENDBRANCH  20  21
ENDBRANCH  19  20
ENDBRANCH  18  19
ENDBRANCH  17  18
ENDBRANCH   1  17
TORSDOF 26
ENDMDL
MODEL 9
REMARK VINA RESULT:    -3.314      1.538      2.925
REMARK INTER + INTRA:         -12.343
REMARK INTER:                  -8.538
REMARK INTRA:                  -3.805
REMARK UNBOUND:                -3.993
REMARK SMILES CCCCCCCCCCCCCCCCCCCCCCCCCCCC(=O)[O-]
REMARK SMILES IDX 15 1 16 2 17 3 18 4 19 5 20 6 21 7 22 8 23 9 24 10 25 11
REMARK SMILES IDX 26 12 27 13 28 14 29 15 30 16 14 17 13 18 12 19 11 20 10 21
REMARK SMILES IDX 9 22 8 23 7 24 6 25 5 26 4 27 3 28 2 29 1 30
REMARK H PARENT
REMARK Flexibility Score: inf
ROOT
ATOM      1  C   UNL     1     -21.240  29.701  19.846  1.00  0.00     0.000 C 
ENDROOT
BRANCH   1   2
ATOM      2  C   UNL     1     -19.978  28.828  19.936  1.00  0.00     0.000 C 
BRANCH   2   3
ATOM      3  C   UNL     1     -19.084  29.213  21.136  1.00  0.00     0.000 C 
BRANCH   3   4
ATOM      4  C   UNL     1     -18.734  28.024  22.049  1.00  0.00     0.000 C 
BRANCH   4   5
ATOM      5  C   UNL     1     -19.052  26.640  21.453  1.00  0.00     0.000 C 
BRANCH   5   6
ATOM      6  C   UNL     1     -20.295  25.944  22.046  1.00  0.00     0.000 C 
BRANCH   6   7
ATOM      7  C   UNL     1     -21.361  25.526  21.019  1.00  0.00     0.000 C 
BRANCH   7   8
ATOM      8  C   UNL     1     -20.801  25.404  19.592  1.00  0.00     0.000 C 
BRANCH   8   9
ATOM      9  C   UNL     1     -20.563  23.945  19.163  1.00  0.00     0.000 C 
BRANCH   9  10
ATOM     10  C   UNL     1     -19.089  23.500  19.175  1.00  0.00     0.000 C 
BRANCH  10  11
ATOM     11  C   UNL     1     -18.491  23.196  17.788  1.00  0.00     0.000 C 
BRANCH  11  12
ATOM     12  C   UNL     1     -19.554  22.977  16.690  1.00  0.00     0.006 C 
BRANCH  12  13
ATOM     13  C   UNL     1     -19.388  23.948  15.513  1.00  0.00     0.053 C 
BRANCH  13  14
ATOM     14  C   UNL     1     -20.107  23.434  14.306  1.00  0.00     0.041 C 
ATOM     15  O   UNL     1     -19.461  22.927  13.352  1.00  0.00    -0.550 OA
ATOM     16  O   UNL     1     -21.489  23.550  14.217  1.00  0.00    -0.550 OA
ENDBRANCH  13  14
ENDBRANCH  12  13
ENDBRANCH  11  12
ENDBRANCH  10  11
ENDBRANCH   9  10
ENDBRANCH   8   9
ENDBRANCH   7   8
ENDBRANCH   6   7
ENDBRANCH   5   6
ENDBRANCH   4   5
ENDBRANCH   3   4
ENDBRANCH   2   3
ENDBRANCH   1   2
BRANCH   1  17
ATOM     17  C   UNL     1     -22.505  28.887  19.497  1.00  0.00     0.000 C 
BRANCH  17  18
ATOM     18  C   UNL     1     -23.818  29.549  19.958  1.00  0.00     0.000 C 
BRANCH  18  19
ATOM     19  C   UNL     1     -23.659  30.942  20.593  1.00  0.00     0.000 C 
BRANCH  19  20
ATOM     20  C   UNL     1     -23.893  30.996  22.118  1.00  0.00     0.000 C 
BRANCH  20  21
ATOM     21  C   UNL     1     -23.417  29.756  22.896  1.00  0.00     0.000 C 
BRANCH  21  22
ATOM     22  C   UNL     1     -21.991  29.852  23.471  1.00  0.00    -0.000 C 
BRANCH  22  23
ATOM     23  C   UNL     1     -21.590  31.279  23.907  1.00  0.00    -0.000 C 
BRANCH  23  24
ATOM     24  C   UNL     1     -20.470  31.872  23.035  1.00  0.00    -0.000 C 
BRANCH  24  25
ATOM     25  C   UNL     1     -20.382  33.405  23.133  1.00  0.00    -0.000 C 
BRANCH  25  26
ATOM     26  C   UNL     1     -21.685  34.110  23.567  1.00  0.00    -0.000 C 
BRANCH  26  27
ATOM     27  C   UNL     1     -21.735  35.623  23.288  1.00  0.00    -0.000 C 
BRANCH  27  28
ATOM     28  C   UNL     1     -22.656  36.039  22.126  1.00  0.00    -0.000 C 
BRANCH  28  29
ATOM     29  C   UNL     1     -23.045  34.875  21.190  1.00  0.00    -0.003 C 
ATOM     30  C   UNL     1     -22.135  34.770  19.966  1.00  0.00     0.004 C 
ENDBRANCH  28  29
ENDBRANCH  27  28
ENDBRANCH  26  27
ENDBRANCH  25  26
ENDBRANCH  24  25
ENDBRANCH  23  24
ENDBRANCH  22  23
ENDBRANCH  21  22
ENDBRANCH  20  21
ENDBRANCH  19  20
ENDBRANCH  18  19
ENDBRANCH  17  18
ENDBRANCH   1  17
TORSDOF 26
ENDMDL
