MODEL 1
REMARK VINA RESULT:    -5.744      0.000      0.000
REMARK INTER + INTRA:          -6.951
REMARK INTER:                  -6.751
REMARK INTRA:                  -0.200
REMARK UNBOUND:                -0.200
REMARK SMILES O=c1c(O)c(-c2ccc(O)cc2)oc2cc(O)cc(O)c12
REMARK SMILES IDX 5 1 3 2 2 3 1 4 21 5 19 6 18 7 16 8 15 9 14 10 13 11 6 12
REMARK SMILES IDX 7 13 8 14 9 15 12 16 11 17 10 18 4 20 20 22 17 24
REMARK H PARENT 10 19 4 21 20 23 17 25
REMARK Flexibility Score: inf
ROOT
ATOM      1  C   UNL     1     -33.742   9.919 -39.080  1.00  0.00     0.180 A 
ATOM      2  C   UNL     1     -32.802   9.410 -39.992  1.00  0.00     0.208 A 
ATOM      3  C   UNL     1     -33.166   9.280 -41.343  1.00  0.00     0.238 A 
ATOM      4  O   UNL     1     -32.304   8.875 -42.165  1.00  0.00    -0.285 OA
ATOM      5  C   UNL     1     -34.470   9.645 -41.759  1.00  0.00     0.111 A 
ATOM      6  C   UNL     1     -34.959   9.517 -43.094  1.00  0.00     0.134 A 
ATOM      7  C   UNL     1     -36.220  10.031 -43.419  1.00  0.00     0.093 A 
ATOM      8  C   UNL     1     -37.036  10.608 -42.443  1.00  0.00     0.123 A 
ATOM      9  C   UNL     1     -36.591  10.684 -41.125  1.00  0.00     0.094 A 
ATOM     10  C   UNL     1     -35.323  10.213 -40.778  1.00  0.00     0.146 A 
ATOM     11  O   UNL     1     -34.933  10.314 -39.513  1.00  0.00    -0.452 OA
ENDROOT
BRANCH   1  12
ATOM     12  C   UNL     1     -33.440  10.062 -37.637  1.00  0.00     0.021 A 
ATOM     13  C   UNL     1     -33.324   8.913 -36.837  1.00  0.00     0.016 A 
ATOM     14  C   UNL     1     -33.018   9.025 -35.477  1.00  0.00     0.047 A 
ATOM     15  C   UNL     1     -32.807  10.286 -34.904  1.00  0.00     0.115 A 
ATOM     16  C   UNL     1     -33.207  11.324 -37.058  1.00  0.00     0.016 A 
ATOM     17  C   UNL     1     -32.901  11.432 -35.699  1.00  0.00     0.047 A 
BRANCH  15  18
ATOM     18  O   UNL     1     -32.503  10.409 -33.551  1.00  0.00    -0.508 OA
ATOM     19  H   UNL     1     -31.708  10.951 -33.233  1.00  0.00     0.293 HD
ENDBRANCH  15  18
ENDBRANCH   1  12
BRANCH   2  20
ATOM     20  O   UNL     1     -31.514   9.077 -39.565  1.00  0.00    -0.502 OA
ATOM     21  H   UNL     1     -31.046   9.570 -38.814  1.00  0.00     0.293 HD
ENDBRANCH   2  20
BRANCH   6  22
ATOM     22  O   UNL     1     -34.262   8.875 -44.122  1.00  0.00    -0.507 OA
ATOM     23  H   UNL     1     -34.693   8.439 -44.923  1.00  0.00     0.293 HD
ENDBRANCH   6  22
BRANCH   8  24
ATOM     24  O   UNL     1     -38.297  11.103 -42.771  1.00  0.00    -0.508 OA
ATOM     25  H   UNL     1     -39.029  11.192 -42.076  1.00  0.00     0.293 HD
ENDBRANCH   8  24
TORSDOF 5
ENDMDL
MODEL 2
REMARK VINA RESULT:    -5.493      0.342      1.106
REMARK INTER + INTRA:          -6.656
REMARK INTER:                  -6.376
REMARK INTRA:                  -0.280
REMARK UNBOUND:                -0.200
REMARK SMILES O=c1c(O)c(-c2ccc(O)cc2)oc2cc(O)cc(O)c12
REMARK SMILES IDX 5 1 3 2 2 3 1 4 21 5 19 6 18 7 16 8 15 9 14 10 13 11 6 12
REMARK SMILES IDX 7 13 8 14 9 15 12 16 11 17 10 18 4 20 20 22 17 24
REMARK H PARENT 10 19 4 21 20 23 17 25
REMARK Flexibility Score: inf
ROOT
ATOM      1  C   UNL     1     -33.928  10.104 -39.117  1.00  0.00     0.180 A 
ATOM      2  C   UNL     1     -33.007   9.569 -40.033  1.00  0.00     0.208 A 
ATOM      3  C   UNL     1     -33.401   9.387 -41.368  1.00  0.00     0.238 A 
ATOM      4  O   UNL     1     -32.557   8.959 -42.196  1.00  0.00    -0.285 OA
ATOM      5  C   UNL     1     -34.718   9.729 -41.766  1.00  0.00     0.111 A 
ATOM      6  C   UNL     1     -35.237   9.549 -43.084  1.00  0.00     0.134 A 
ATOM      7  C   UNL     1     -36.510  10.043 -43.396  1.00  0.00     0.093 A 
ATOM      8  C   UNL     1     -37.307  10.649 -42.422  1.00  0.00     0.123 A 
ATOM      9  C   UNL     1     -36.831  10.776 -41.119  1.00  0.00     0.094 A 
ATOM     10  C   UNL     1     -35.551  10.326 -40.785  1.00  0.00     0.146 A 
ATOM     11  O   UNL     1     -35.132  10.475 -39.535  1.00  0.00    -0.452 OA
ENDROOT
BRANCH   1  12
ATOM     12  C   UNL     1     -33.593  10.301 -37.688  1.00  0.00     0.021 A 
ATOM     13  C   UNL     1     -33.282  11.590 -37.222  1.00  0.00     0.016 A 
ATOM     14  C   UNL     1     -32.985  11.801 -35.872  1.00  0.00     0.047 A 
ATOM     15  C   UNL     1     -33.011  10.732 -34.968  1.00  0.00     0.115 A 
ATOM     16  C   UNL     1     -33.637   9.235 -36.770  1.00  0.00     0.016 A 
ATOM     17  C   UNL     1     -33.340   9.450 -35.421  1.00  0.00     0.047 A 
BRANCH  15  18
ATOM     18  O   UNL     1     -32.716  10.931 -33.622  1.00  0.00    -0.508 OA
ATOM     19  H   UNL     1     -31.781  10.794 -33.258  1.00  0.00     0.293 HD
ENDBRANCH  15  18
ENDBRANCH   1  12
BRANCH   2  20
ATOM     20  O   UNL     1     -31.707   9.260 -39.625  1.00  0.00    -0.502 OA
ATOM     21  H   UNL     1     -31.194   9.830 -38.962  1.00  0.00     0.293 HD
ENDBRANCH   2  20
BRANCH   6  22
ATOM     22  O   UNL     1     -34.561   8.875 -44.104  1.00  0.00    -0.507 OA
ATOM     23  H   UNL     1     -34.708   7.908 -44.350  1.00  0.00     0.293 HD
ENDBRANCH   6  22
BRANCH   8  24
ATOM     24  O   UNL     1     -38.578  11.124 -42.738  1.00  0.00    -0.508 OA
ATOM     25  H   UNL     1     -39.122  10.722 -43.493  1.00  0.00     0.293 HD
ENDBRANCH   8  24
TORSDOF 5
ENDMDL
MODEL 3
REMARK VINA RESULT:    -4.975      1.595      6.577
REMARK INTER + INTRA:          -6.047
REMARK INTER:                  -6.086
REMARK INTRA:                   0.039
REMARK UNBOUND:                -0.200
REMARK SMILES O=c1c(O)c(-c2ccc(O)cc2)oc2cc(O)cc(O)c12
REMARK SMILES IDX 5 1 3 2 2 3 1 4 21 5 19 6 18 7 16 8 15 9 14 10 13 11 6 12
REMARK SMILES IDX 7 13 8 14 9 15 12 16 11 17 10 18 4 20 20 22 17 24
REMARK H PARENT 10 19 4 21 20 23 17 25
REMARK Flexibility Score: inf
ROOT
ATOM      1  C   UNL     1     -33.867  10.386 -39.167  1.00  0.00     0.180 A 
ATOM      2  C   UNL     1     -32.625   9.732 -39.087  1.00  0.00     0.208 A 
ATOM      3  C   UNL     1     -31.889   9.810 -37.894  1.00  0.00     0.238 A 
ATOM      4  O   UNL     1     -30.805   9.178 -37.810  1.00  0.00    -0.285 OA
ATOM      5  C   UNL     1     -32.397  10.555 -36.801  1.00  0.00     0.111 A 
ATOM      6  C   UNL     1     -31.717  10.735 -35.559  1.00  0.00     0.134 A 
ATOM      7  C   UNL     1     -32.371  11.381 -34.502  1.00  0.00     0.093 A 
ATOM      8  C   UNL     1     -33.653  11.912 -34.665  1.00  0.00     0.123 A 
ATOM      9  C   UNL     1     -34.301  11.792 -35.892  1.00  0.00     0.094 A 
ATOM     10  C   UNL     1     -33.689  11.121 -36.954  1.00  0.00     0.146 A 
ATOM     11  O   UNL     1     -34.345  11.021 -38.103  1.00  0.00    -0.452 OA
ENDROOT
BRANCH   1  12
ATOM     12  C   UNL     1     -34.688  10.370 -40.399  1.00  0.00     0.021 A 
ATOM     13  C   UNL     1     -35.024   9.140 -40.990  1.00  0.00     0.016 A 
ATOM     14  C   UNL     1     -35.818   9.101 -42.140  1.00  0.00     0.047 A 
ATOM     15  C   UNL     1     -36.299  10.289 -42.705  1.00  0.00     0.115 A 
ATOM     16  C   UNL     1     -35.192  11.558 -40.960  1.00  0.00     0.016 A 
ATOM     17  C   UNL     1     -35.985  11.515 -42.110  1.00  0.00     0.047 A 
BRANCH  15  18
ATOM     18  O   UNL     1     -37.089  10.262 -43.851  1.00  0.00    -0.508 OA
ATOM     19  H   UNL     1     -37.650  11.059 -44.128  1.00  0.00     0.293 HD
ENDBRANCH  15  18
ENDBRANCH   1  12
BRANCH   2  20
ATOM     20  O   UNL     1     -32.154   8.984 -40.169  1.00  0.00    -0.502 OA
ATOM     21  H   UNL     1     -32.456   8.033 -40.347  1.00  0.00     0.293 HD
ENDBRANCH   2  20
BRANCH   6  22
ATOM     22  O   UNL     1     -30.402  10.326 -35.322  1.00  0.00    -0.507 OA
ATOM     23  H   UNL     1     -29.726  10.846 -34.784  1.00  0.00     0.293 HD
ENDBRANCH   6  22
BRANCH   8  24
ATOM     24  O   UNL     1     -34.290  12.567 -33.613  1.00  0.00    -0.508 OA
ATOM     25  H   UNL     1     -34.192  13.566 -33.474  1.00  0.00     0.293 HD
ENDBRANCH   8  24
TORSDOF 5
ENDMDL
MODEL 4
REMARK VINA RESULT:    -4.888      1.540      6.575
REMARK INTER + INTRA:          -5.945
REMARK INTER:                  -6.267
REMARK INTRA:                   0.321
REMARK UNBOUND:                -0.200
REMARK SMILES O=c1c(O)c(-c2ccc(O)cc2)oc2cc(O)cc(O)c12
REMARK SMILES IDX 5 1 3 2 2 3 1 4 21 5 19 6 18 7 16 8 15 9 14 10 13 11 6 12
REMARK SMILES IDX 7 13 8 14 9 15 12 16 11 17 10 18 4 20 20 22 17 24
REMARK H PARENT 10 19 4 21 20 23 17 25
REMARK Flexibility Score: inf
ROOT
ATOM      1  C   UNL     1     -33.805  10.477 -39.324  1.00  0.00     0.180 A 
ATOM      2  C   UNL     1     -32.592   9.773 -39.224  1.00  0.00     0.208 A 
ATOM      3  C   UNL     1     -31.875   9.820 -38.018  1.00  0.00     0.238 A 
ATOM      4  O   UNL     1     -30.818   9.145 -37.916  1.00  0.00    -0.285 OA
ATOM      5  C   UNL     1     -32.371  10.583 -36.933  1.00  0.00     0.111 A 
ATOM      6  C   UNL     1     -31.707  10.735 -35.678  1.00  0.00     0.134 A 
ATOM      7  C   UNL     1     -32.353  11.406 -34.633  1.00  0.00     0.093 A 
ATOM      8  C   UNL     1     -33.609  11.987 -34.816  1.00  0.00     0.123 A 
ATOM      9  C   UNL     1     -34.240  11.895 -36.056  1.00  0.00     0.094 A 
ATOM     10  C   UNL     1     -33.637  11.201 -37.107  1.00  0.00     0.146 A 
ATOM     11  O   UNL     1     -34.276  11.129 -38.268  1.00  0.00    -0.452 OA
ENDROOT
BRANCH   1  12
ATOM     12  C   UNL     1     -34.605  10.495 -40.571  1.00  0.00     0.021 A 
ATOM     13  C   UNL     1     -34.625   9.358 -41.396  1.00  0.00     0.016 A 
ATOM     14  C   UNL     1     -35.391   9.346 -42.565  1.00  0.00     0.047 A 
ATOM     15  C   UNL     1     -36.159  10.463 -42.916  1.00  0.00     0.115 A 
ATOM     16  C   UNL     1     -35.394  11.607 -40.919  1.00  0.00     0.016 A 
ATOM     17  C   UNL     1     -36.160  11.591 -42.089  1.00  0.00     0.047 A 
BRANCH  15  18
ATOM     18  O   UNL     1     -36.925  10.463 -44.079  1.00  0.00    -0.508 OA
ATOM     19  H   UNL     1     -37.572  11.214 -44.288  1.00  0.00     0.293 HD
ENDBRANCH  15  18
ENDBRANCH   1  12
BRANCH   2  20
ATOM     20  O   UNL     1     -32.132   9.008 -40.299  1.00  0.00    -0.502 OA
ATOM     21  H   UNL     1     -31.146   8.890 -40.501  1.00  0.00     0.293 HD
ENDBRANCH   2  20
BRANCH   6  22
ATOM     22  O   UNL     1     -30.413  10.273 -35.420  1.00  0.00    -0.507 OA
ATOM     23  H   UNL     1     -30.058   9.372 -35.701  1.00  0.00     0.293 HD
ENDBRANCH   6  22
BRANCH   8  24
ATOM     24  O   UNL     1     -34.238  12.666 -33.775  1.00  0.00    -0.508 OA
ATOM     25  H   UNL     1     -33.974  13.612 -33.523  1.00  0.00     0.293 HD
ENDBRANCH   8  24
TORSDOF 5
ENDMDL
MODEL 5
REMARK VINA RESULT:    -4.166      2.237      3.521
REMARK INTER + INTRA:          -5.096
REMARK INTER:                  -5.641
REMARK INTRA:                   0.545
REMARK UNBOUND:                -0.200
REMARK SMILES O=c1c(O)c(-c2ccc(O)cc2)oc2cc(O)cc(O)c12
REMARK SMILES IDX 5 1 3 2 2 3 1 4 21 5 19 6 18 7 16 8 15 9 14 10 13 11 6 12
REMARK SMILES IDX 7 13 8 14 9 15 12 16 11 17 10 18 4 20 20 22 17 24
REMARK H PARENT 10 19 4 21 20 23 17 25
REMARK Flexibility Score: inf
ROOT
ATOM      1  C   UNL     1     -32.838  11.370 -36.271  1.00  0.00     0.180 A 
ATOM      2  C   UNL     1     -31.843  10.471 -36.691  1.00  0.00     0.208 A 
ATOM      3  C   UNL     1     -31.885   9.975 -38.005  1.00  0.00     0.238 A 
ATOM      4  O   UNL     1     -30.962   9.213 -38.393  1.00  0.00    -0.285 OA
ATOM      5  C   UNL     1     -32.930  10.372 -38.874  1.00  0.00     0.111 A 
ATOM      6  C   UNL     1     -33.093   9.901 -40.212  1.00  0.00     0.134 A 
ATOM      7  C   UNL     1     -34.087  10.461 -41.024  1.00  0.00     0.093 A 
ATOM      8  C   UNL     1     -34.966  11.426 -40.526  1.00  0.00     0.123 A 
ATOM      9  C   UNL     1     -34.851  11.849 -39.204  1.00  0.00     0.094 A 
ATOM     10  C   UNL     1     -33.846  11.336 -38.380  1.00  0.00     0.146 A 
ATOM     11  O   UNL     1     -33.766  11.774 -37.130  1.00  0.00    -0.452 OA
ENDROOT
BRANCH   1  12
ATOM     12  C   UNL     1     -32.874  11.916 -34.894  1.00  0.00     0.021 A 
ATOM     13  C   UNL     1     -31.754  11.765 -34.060  1.00  0.00     0.016 A 
ATOM     14  C   UNL     1     -31.759  12.292 -32.766  1.00  0.00     0.047 A 
ATOM     15  C   UNL     1     -32.877  12.993 -32.294  1.00  0.00     0.115 A 
ATOM     16  C   UNL     1     -33.986  12.638 -34.422  1.00  0.00     0.016 A 
ATOM     17  C   UNL     1     -33.988  13.165 -33.127  1.00  0.00     0.047 A 
BRANCH  15  18
ATOM     18  O   UNL     1     -32.894  13.522 -31.006  1.00  0.00    -0.508 OA
ATOM     19  H   UNL     1     -32.968  14.519 -30.844  1.00  0.00     0.293 HD
ENDBRANCH  15  18
ENDBRANCH   1  12
BRANCH   2  20
ATOM     20  O   UNL     1     -30.809  10.110 -35.824  1.00  0.00    -0.502 OA
ATOM     21  H   UNL     1     -29.834  10.285 -36.037  1.00  0.00     0.293 HD
ENDBRANCH   2  20
BRANCH   6  22
ATOM     22  O   UNL     1     -32.330   8.875 -40.777  1.00  0.00    -0.507 OA
ATOM     23  H   UNL     1     -31.678   8.996 -41.536  1.00  0.00     0.293 HD
ENDBRANCH   6  22
BRANCH   8  24
ATOM     24  O   UNL     1     -35.962  11.967 -41.336  1.00  0.00    -0.508 OA
ATOM     25  H   UNL     1     -35.835  12.066 -42.337  1.00  0.00     0.293 HD
ENDBRANCH   8  24
TORSDOF 5
ENDMDL
