MODEL 1
REMARK VINA RESULT:    -4.920      0.000      0.000
REMARK INTER + INTRA:         -10.794
REMARK INTER:                  -8.946
REMARK INTRA:                  -1.847
REMARK UNBOUND:                -1.847
REMARK SMILES CCCCCCCCCCCCCCCC(=O)[O-]
REMARK SMILES IDX 9 1 10 2 11 3 12 4 13 5 14 6 15 7 16 8 17 9 18 10 8 11 7 12
REMARK SMILES IDX 6 13 5 14 4 15 3 16 2 17 1 18
REMARK H PARENT
REMARK Flexibility Score: inf
ROOT
ATOM      1  C   UNL     1     -11.875 -27.730 -34.932  1.00  0.00     0.000 C 
ENDROOT
BRANCH   1   2
ATOM      2  C   UNL     1     -13.293 -27.527 -35.488  1.00  0.00     0.000 C 
BRANCH   2   3
ATOM      3  C   UNL     1     -13.590 -26.056 -35.828  1.00  0.00     0.000 C 
BRANCH   3   4
ATOM      4  C   UNL     1     -12.417 -25.123 -35.487  1.00  0.00     0.000 C 
BRANCH   4   5
ATOM      5  C   UNL     1     -12.620 -23.697 -36.031  1.00  0.00     0.000 C 
BRANCH   5   6
ATOM      6  C   UNL     1     -12.737 -22.651 -34.911  1.00  0.00     0.006 C 
BRANCH   6   7
ATOM      7  C   UNL     1     -12.724 -21.213 -35.444  1.00  0.00     0.053 C 
BRANCH   7   8
ATOM      8  C   UNL     1     -11.432 -20.541 -35.103  1.00  0.00     0.041 C 
ATOM      9  O   UNL     1     -10.612 -20.245 -36.011  1.00  0.00    -0.550 OA
ATOM     10  O   UNL     1     -11.110 -20.286 -33.776  1.00  0.00    -0.550 OA
ENDBRANCH   7   8
ENDBRANCH   6   7
ENDBRANCH   5   6
ENDBRANCH   4   5
ENDBRANCH   3   4
ENDBRANCH   2   3
ENDBRANCH   1   2
BRANCH   1  11
ATOM     11  C   UNL     1     -11.868 -28.484 -33.594  1.00  0.00     0.000 C 
BRANCH  11  12
ATOM     12  C   UNL     1     -13.118 -28.146 -32.768  1.00  0.00    -0.000 C 
BRANCH  12  13
ATOM     13  C   UNL     1     -12.917 -28.374 -31.259  1.00  0.00    -0.000 C 
BRANCH  13  14
ATOM     14  C   UNL     1     -11.472 -28.179 -30.754  1.00  0.00    -0.000 C 
BRANCH  14  15
ATOM     15  C   UNL     1     -11.096 -26.732 -30.386  1.00  0.00    -0.000 C 
BRANCH  15  16
ATOM     16  C   UNL     1     -10.242 -26.044 -31.465  1.00  0.00    -0.000 C 
BRANCH  16  17
ATOM     17  C   UNL     1     -10.854 -24.718 -31.942  1.00  0.00    -0.003 C 
ATOM     18  C   UNL     1     -12.377 -24.685 -31.808  1.00  0.00     0.004 C 
ENDBRANCH  16  17
ENDBRANCH  15  16
ENDBRANCH  14  15
ENDBRANCH  13  14
ENDBRANCH  12  13
ENDBRANCH  11  12
ENDBRANCH   1  11
TORSDOF 14
ENDMDL
MODEL 2
REMARK VINA RESULT:    -4.668      1.402      3.142
REMARK INTER + INTRA:         -10.336
REMARK INTER:                  -8.446
REMARK INTRA:                  -1.890
REMARK UNBOUND:                -1.847
REMARK SMILES CCCCCCCCCCCCCCCC(=O)[O-]
REMARK SMILES IDX 9 1 10 2 11 3 12 4 13 5 14 6 15 7 16 8 17 9 18 10 8 11 7 12
REMARK SMILES IDX 6 13 5 14 4 15 3 16 2 17 1 18
REMARK H PARENT
REMARK Flexibility Score: inf
ROOT
ATOM      1  C   UNL     1     -10.614 -25.455 -32.217  1.00  0.00     0.000 C 
ENDROOT
BRANCH   1   2
ATOM      2  C   UNL     1     -11.514 -24.320 -31.706  1.00  0.00     0.000 C 
BRANCH   2   3
ATOM      3  C   UNL     1     -12.317 -23.650 -32.835  1.00  0.00     0.000 C 
BRANCH   3   4
ATOM      4  C   UNL     1     -12.228 -24.421 -34.161  1.00  0.00     0.000 C 
BRANCH   4   5
ATOM      5  C   UNL     1     -12.647 -23.565 -35.370  1.00  0.00     0.000 C 
BRANCH   5   6
ATOM      6  C   UNL     1     -13.078 -22.147 -34.967  1.00  0.00     0.006 C 
BRANCH   6   7
ATOM      7  C   UNL     1     -12.124 -21.069 -35.494  1.00  0.00     0.053 C 
BRANCH   7   8
ATOM      8  C   UNL     1     -12.886 -19.843 -35.888  1.00  0.00     0.041 C 
ATOM      9  O   UNL     1     -12.509 -19.151 -36.869  1.00  0.00    -0.550 OA
ATOM     10  O   UNL     1     -13.984 -19.437 -35.140  1.00  0.00    -0.550 OA
ENDBRANCH   7   8
ENDBRANCH   6   7
ENDBRANCH   5   6
ENDBRANCH   4   5
ENDBRANCH   3   4
ENDBRANCH   2   3
ENDBRANCH   1   2
BRANCH   1  11
ATOM     11  C   UNL     1     -10.147 -26.391 -31.090  1.00  0.00     0.000 C 
BRANCH  11  12
ATOM     12  C   UNL     1     -11.332 -26.829 -30.216  1.00  0.00    -0.000 C 
BRANCH  12  13
ATOM     13  C   UNL     1     -11.605 -28.341 -30.294  1.00  0.00    -0.000 C 
BRANCH  13  14
ATOM     14  C   UNL     1     -12.860 -28.739 -31.097  1.00  0.00    -0.000 C 
BRANCH  14  15
ATOM     15  C   UNL     1     -13.505 -27.604 -31.912  1.00  0.00    -0.000 C 
BRANCH  15  16
ATOM     16  C   UNL     1     -13.408 -27.829 -33.430  1.00  0.00    -0.000 C 
BRANCH  16  17
ATOM     17  C   UNL     1     -12.098 -28.520 -33.840  1.00  0.00    -0.003 C 
ATOM     18  C   UNL     1     -11.380 -27.802 -34.983  1.00  0.00     0.004 C 
ENDBRANCH  16  17
ENDBRANCH  15  16
ENDBRANCH  14  15
ENDBRANCH  13  14
ENDBRANCH  12  13
ENDBRANCH  11  12
ENDBRANCH   1  11
TORSDOF 14
ENDMDL
MODEL 3
REMARK VINA RESULT:    -4.608      1.321      3.401
REMARK INTER + INTRA:         -10.226
REMARK INTER:                  -8.036
REMARK INTRA:                  -2.190
REMARK UNBOUND:                -1.847
REMARK SMILES CCCCCCCCCCCCCCCC(=O)[O-]
REMARK SMILES IDX 9 1 10 2 11 3 12 4 13 5 14 6 15 7 16 8 17 9 18 10 8 11 7 12
REMARK SMILES IDX 6 13 5 14 4 15 3 16 2 17 1 18
REMARK H PARENT
REMARK Flexibility Score: inf
ROOT
ATOM      1  C   UNL     1     -10.586 -26.096 -31.062  1.00  0.00     0.000 C 
ENDROOT
BRANCH   1   2
ATOM      2  C   UNL     1     -11.789 -25.402 -30.404  1.00  0.00     0.000 C 
BRANCH   2   3
ATOM      3  C   UNL     1     -12.578 -24.523 -31.390  1.00  0.00     0.000 C 
BRANCH   3   4
ATOM      4  C   UNL     1     -11.733 -24.089 -32.599  1.00  0.00     0.000 C 
BRANCH   4   5
ATOM      5  C   UNL     1     -12.253 -22.792 -33.246  1.00  0.00     0.000 C 
BRANCH   5   6
ATOM      6  C   UNL     1     -12.851 -23.030 -34.642  1.00  0.00     0.006 C 
BRANCH   6   7
ATOM      7  C   UNL     1     -12.579 -21.868 -35.605  1.00  0.00     0.053 C 
BRANCH   7   8
ATOM      8  C   UNL     1     -13.134 -20.593 -35.055  1.00  0.00     0.041 C 
ATOM      9  O   UNL     1     -12.378 -19.605 -34.858  1.00  0.00    -0.550 OA
ATOM     10  O   UNL     1     -14.478 -20.509 -34.712  1.00  0.00    -0.550 OA
ENDBRANCH   7   8
ENDBRANCH   6   7
ENDBRANCH   5   6
ENDBRANCH   4   5
ENDBRANCH   3   4
ENDBRANCH   2   3
ENDBRANCH   1   2
BRANCH   1  11
ATOM     11  C   UNL     1     -10.675 -27.628 -30.988  1.00  0.00     0.000 C 
BRANCH  11  12
ATOM     12  C   UNL     1     -11.950 -28.068 -30.253  1.00  0.00    -0.000 C 
BRANCH  12  13
ATOM     13  C   UNL     1     -12.951 -28.789 -31.173  1.00  0.00    -0.000 C 
BRANCH  13  14
ATOM     14  C   UNL     1     -12.789 -28.491 -32.678  1.00  0.00    -0.000 C 
BRANCH  14  15
ATOM     15  C   UNL     1     -13.826 -27.519 -33.269  1.00  0.00    -0.000 C 
BRANCH  15  16
ATOM     16  C   UNL     1     -13.320 -26.802 -34.532  1.00  0.00    -0.000 C 
BRANCH  16  17
ATOM     17  C   UNL     1     -12.045 -27.444 -35.102  1.00  0.00    -0.003 C 
ATOM     18  C   UNL     1     -10.879 -26.460 -35.203  1.00  0.00     0.004 C 
ENDBRANCH  16  17
ENDBRANCH  15  16
ENDBRANCH  14  15
ENDBRANCH  13  14
ENDBRANCH  12  13
ENDBRANCH  11  12
ENDBRANCH   1  11
TORSDOF 14
ENDMDL
MODEL 4
REMARK VINA RESULT:    -4.540      1.101      3.552
REMARK INTER + INTRA:         -10.104
REMARK INTER:                  -8.389
REMARK INTRA:                  -1.714
REMARK UNBOUND:                -1.847
REMARK SMILES CCCCCCCCCCCCCCCC(=O)[O-]
REMARK SMILES IDX 9 1 10 2 11 3 12 4 13 5 14 6 15 7 16 8 17 9 18 10 8 11 7 12
REMARK SMILES IDX 6 13 5 14 4 15 3 16 2 17 1 18
REMARK H PARENT
REMARK Flexibility Score: inf
ROOT
ATOM      1  C   UNL     1     -10.750 -27.512 -30.963  1.00  0.00     0.000 C 
ENDROOT
BRANCH   1   2
ATOM      2  C   UNL     1     -10.415 -26.014 -30.883  1.00  0.00     0.000 C 
BRANCH   2   3
ATOM      3  C   UNL     1     -10.721 -25.269 -32.193  1.00  0.00     0.000 C 
BRANCH   3   4
ATOM      4  C   UNL     1     -12.007 -24.431 -32.108  1.00  0.00     0.000 C 
BRANCH   4   5
ATOM      5  C   UNL     1     -11.735 -22.920 -32.228  1.00  0.00     0.000 C 
BRANCH   5   6
ATOM      6  C   UNL     1     -12.366 -22.305 -33.487  1.00  0.00     0.006 C 
BRANCH   6   7
ATOM      7  C   UNL     1     -11.773 -20.935 -33.834  1.00  0.00     0.053 C 
BRANCH   7   8
ATOM      8  C   UNL     1     -11.858 -20.687 -35.306  1.00  0.00     0.041 C 
ATOM      9  O   UNL     1     -10.820 -20.404 -35.962  1.00  0.00    -0.550 OA
ATOM     10  O   UNL     1     -13.089 -20.719 -35.948  1.00  0.00    -0.550 OA
ENDBRANCH   7   8
ENDBRANCH   6   7
ENDBRANCH   5   6
ENDBRANCH   4   5
ENDBRANCH   3   4
ENDBRANCH   2   3
ENDBRANCH   1   2
BRANCH   1  11
ATOM     11  C   UNL     1     -12.053 -27.866 -30.231  1.00  0.00     0.000 C 
BRANCH  11  12
ATOM     12  C   UNL     1     -12.982 -28.692 -31.133  1.00  0.00    -0.000 C 
BRANCH  12  13
ATOM     13  C   UNL     1     -12.748 -28.428 -32.631  1.00  0.00    -0.000 C 
BRANCH  13  14
ATOM     14  C   UNL     1     -13.758 -27.466 -33.292  1.00  0.00    -0.000 C 
BRANCH  14  15
ATOM     15  C   UNL     1     -13.808 -27.523 -34.829  1.00  0.00    -0.000 C 
BRANCH  15  16
ATOM     16  C   UNL     1     -12.425 -27.348 -35.479  1.00  0.00    -0.000 C 
BRANCH  16  17
ATOM     17  C   UNL     1     -11.965 -25.882 -35.497  1.00  0.00    -0.003 C 
ATOM     18  C   UNL     1     -13.003 -24.943 -36.113  1.00  0.00     0.004 C 
ENDBRANCH  16  17
ENDBRANCH  15  16
ENDBRANCH  14  15
ENDBRANCH  13  14
ENDBRANCH  12  13
ENDBRANCH  11  12
ENDBRANCH   1  11
TORSDOF 14
ENDMDL
MODEL 5
REMARK VINA RESULT:    -4.516      2.123      4.970
REMARK INTER + INTRA:         -10.060
REMARK INTER:                  -8.343
REMARK INTRA:                  -1.717
REMARK UNBOUND:                -1.847
REMARK SMILES CCCCCCCCCCCCCCCC(=O)[O-]
REMARK SMILES IDX 9 1 10 2 11 3 12 4 13 5 14 6 15 7 16 8 17 9 18 10 8 11 7 12
REMARK SMILES IDX 6 13 5 14 4 15 3 16 2 17 1 18
REMARK H PARENT
REMARK Flexibility Score: inf
ROOT
ATOM      1  C   UNL     1     -10.774 -27.412 -30.918  1.00  0.00     0.000 C 
ENDROOT
BRANCH   1   2
ATOM      2  C   UNL     1     -12.042 -28.031 -30.310  1.00  0.00     0.000 C 
BRANCH   2   3
ATOM      3  C   UNL     1     -12.835 -28.872 -31.326  1.00  0.00     0.000 C 
BRANCH   3   4
ATOM      4  C   UNL     1     -12.757 -28.302 -32.752  1.00  0.00     0.000 C 
BRANCH   4   5
ATOM      5  C   UNL     1     -14.037 -27.547 -33.155  1.00  0.00     0.000 C 
BRANCH   5   6
ATOM      6  C   UNL     1     -14.189 -27.416 -34.678  1.00  0.00     0.006 C 
BRANCH   6   7
ATOM      7  C   UNL     1     -12.841 -27.407 -35.407  1.00  0.00     0.053 C 
BRANCH   7   8
ATOM      8  C   UNL     1     -12.523 -26.031 -35.901  1.00  0.00     0.041 C 
ATOM      9  O   UNL     1     -13.442 -25.282 -36.323  1.00  0.00    -0.550 OA
ATOM     10  O   UNL     1     -11.205 -25.594 -35.941  1.00  0.00    -0.550 OA
ENDBRANCH   7   8
ENDBRANCH   6   7
ENDBRANCH   5   6
ENDBRANCH   4   5
ENDBRANCH   3   4
ENDBRANCH   2   3
ENDBRANCH   1   2
BRANCH   1  11
ATOM     11  C   UNL     1     -10.417 -26.058 -30.286  1.00  0.00     0.000 C 
BRANCH  11  12
ATOM     12  C   UNL     1     -10.214 -24.985 -31.366  1.00  0.00    -0.000 C 
BRANCH  12  13
ATOM     13  C   UNL     1     -11.137 -25.180 -32.582  1.00  0.00    -0.000 C 
BRANCH  13  14
ATOM     14  C   UNL     1     -12.252 -24.125 -32.733  1.00  0.00    -0.000 C 
BRANCH  14  15
ATOM     15  C   UNL     1     -11.903 -22.721 -32.208  1.00  0.00    -0.000 C 
BRANCH  15  16
ATOM     16  C   UNL     1     -11.956 -21.643 -33.305  1.00  0.00    -0.000 C 
BRANCH  16  17
ATOM     17  C   UNL     1     -12.760 -22.094 -34.534  1.00  0.00    -0.003 C 
ATOM     18  C   UNL     1     -12.332 -21.381 -35.817  1.00  0.00     0.004 C 
ENDBRANCH  16  17
ENDBRANCH  15  16
ENDBRANCH  14  15
ENDBRANCH  13  14
ENDBRANCH  12  13
ENDBRANCH  11  12
ENDBRANCH   1  11
TORSDOF 14
ENDMDL
MODEL 6
REMARK VINA RESULT:    -4.498      2.005      5.462
REMARK INTER + INTRA:         -10.026
REMARK INTER:                  -8.544
REMARK INTRA:                  -1.482
REMARK UNBOUND:                -1.847
REMARK SMILES CCCCCCCCCCCCCCCC(=O)[O-]
REMARK SMILES IDX 9 1 10 2 11 3 12 4 13 5 14 6 15 7 16 8 17 9 18 10 8 11 7 12
REMARK SMILES IDX 6 13 5 14 4 15 3 16 2 17 1 18
REMARK H PARENT
REMARK Flexibility Score: inf
ROOT
ATOM      1  C   UNL     1     -11.628 -27.915 -34.828  1.00  0.00     0.000 C 
ENDROOT
BRANCH   1   2
ATOM      2  C   UNL     1     -12.240 -28.622 -33.610  1.00  0.00     0.000 C 
BRANCH   2   3
ATOM      3  C   UNL     1     -13.150 -27.697 -32.783  1.00  0.00     0.000 C 
BRANCH   3   4
ATOM      4  C   UNL     1     -12.970 -27.892 -31.269  1.00  0.00     0.000 C 
BRANCH   4   5
ATOM      5  C   UNL     1     -11.517 -28.229 -30.887  1.00  0.00     0.000 C 
BRANCH   5   6
ATOM      6  C   UNL     1     -10.797 -27.052 -30.212  1.00  0.00     0.006 C 
BRANCH   6   7
ATOM      7  C   UNL     1     -10.021 -26.185 -31.210  1.00  0.00     0.053 C 
BRANCH   7   8
ATOM      8  C   UNL     1     -10.574 -24.796 -31.237  1.00  0.00     0.041 C 
ATOM      9  O   UNL     1     -11.787 -24.602 -31.512  1.00  0.00    -0.550 OA
ATOM     10  O   UNL     1      -9.739 -23.710 -31.005  1.00  0.00    -0.550 OA
ENDBRANCH   7   8
ENDBRANCH   6   7
ENDBRANCH   5   6
ENDBRANCH   4   5
ENDBRANCH   3   4
ENDBRANCH   2   3
ENDBRANCH   1   2
BRANCH   1  11
ATOM     11  C   UNL     1     -11.310 -26.437 -34.555  1.00  0.00     0.000 C 
BRANCH  11  12
ATOM     12  C   UNL     1     -11.479 -25.595 -35.829  1.00  0.00    -0.000 C 
BRANCH  12  13
ATOM     13  C   UNL     1     -12.829 -24.860 -35.885  1.00  0.00    -0.000 C 
BRANCH  13  14
ATOM     14  C   UNL     1     -12.739 -23.321 -35.829  1.00  0.00    -0.000 C 
BRANCH  14  15
ATOM     15  C   UNL     1     -12.694 -22.718 -34.413  1.00  0.00    -0.000 C 
BRANCH  15  16
ATOM     16  C   UNL     1     -12.414 -21.205 -34.417  1.00  0.00    -0.000 C 
BRANCH  16  17
ATOM     17  C   UNL     1     -12.010 -20.685 -35.806  1.00  0.00    -0.003 C 
ATOM     18  C   UNL     1     -10.654 -19.979 -35.803  1.00  0.00     0.004 C 
ENDBRANCH  16  17
ENDBRANCH  15  16
ENDBRANCH  14  15
ENDBRANCH  13  14
ENDBRANCH  12  13
ENDBRANCH  11  12
ENDBRANCH   1  11
TORSDOF 14
ENDMDL
MODEL 7
REMARK VINA RESULT:    -4.474      2.138      5.307
REMARK INTER + INTRA:          -9.983
REMARK INTER:                  -8.274
REMARK INTRA:                  -1.708
REMARK UNBOUND:                -1.847
REMARK SMILES CCCCCCCCCCCCCCCC(=O)[O-]
REMARK SMILES IDX 9 1 10 2 11 3 12 4 13 5 14 6 15 7 16 8 17 9 18 10 8 11 7 12
REMARK SMILES IDX 6 13 5 14 4 15 3 16 2 17 1 18
REMARK H PARENT
REMARK Flexibility Score: inf
ROOT
ATOM      1  C   UNL     1     -13.017 -26.002 -31.015  1.00  0.00     0.000 C 
ENDROOT
BRANCH   1   2
ATOM      2  C   UNL     1     -13.112 -27.361 -30.304  1.00  0.00     0.000 C 
BRANCH   2   3
ATOM      3  C   UNL     1     -12.968 -28.547 -31.273  1.00  0.00     0.000 C 
BRANCH   3   4
ATOM      4  C   UNL     1     -13.134 -28.131 -32.743  1.00  0.00     0.000 C 
BRANCH   4   5
ATOM      5  C   UNL     1     -11.984 -28.638 -33.633  1.00  0.00     0.000 C 
BRANCH   5   6
ATOM      6  C   UNL     1     -11.766 -27.757 -34.873  1.00  0.00     0.006 C 
BRANCH   6   7
ATOM      7  C   UNL     1     -12.972 -26.863 -35.180  1.00  0.00     0.053 C 
BRANCH   7   8
ATOM      8  C   UNL     1     -12.546 -25.660 -35.960  1.00  0.00     0.041 C 
ATOM      9  O   UNL     1     -11.343 -25.290 -35.948  1.00  0.00    -0.550 OA
ATOM     10  O   UNL     1     -13.487 -24.918 -36.663  1.00  0.00    -0.550 OA
ENDBRANCH   7   8
ENDBRANCH   6   7
ENDBRANCH   5   6
ENDBRANCH   4   5
ENDBRANCH   3   4
ENDBRANCH   2   3
ENDBRANCH   1   2
BRANCH   1  11
ATOM     11  C   UNL     1     -11.593 -25.424 -30.995  1.00  0.00     0.000 C 
BRANCH  11  12
ATOM     12  C   UNL     1     -11.227 -24.823 -32.360  1.00  0.00    -0.000 C 
BRANCH  12  13
ATOM     13  C   UNL     1     -12.234 -23.761 -32.835  1.00  0.00    -0.000 C 
BRANCH  13  14
ATOM     14  C   UNL     1     -11.851 -22.303 -32.511  1.00  0.00    -0.000 C 
BRANCH  14  15
ATOM     15  C   UNL     1     -11.753 -21.365 -33.728  1.00  0.00    -0.000 C 
BRANCH  15  16
ATOM     16  C   UNL     1     -12.612 -21.833 -34.914  1.00  0.00    -0.000 C 
BRANCH  16  17
ATOM     17  C   UNL     1     -13.469 -20.702 -35.503  1.00  0.00    -0.003 C 
ATOM     18  C   UNL     1     -14.440 -20.103 -34.484  1.00  0.00     0.004 C 
ENDBRANCH  16  17
ENDBRANCH  15  16
ENDBRANCH  14  15
ENDBRANCH  13  14
ENDBRANCH  12  13
ENDBRANCH  11  12
ENDBRANCH   1  11
TORSDOF 14
ENDMDL
MODEL 8
REMARK VINA RESULT:    -4.261      3.100      7.010
REMARK INTER + INTRA:          -9.596
REMARK INTER:                  -8.681
REMARK INTRA:                  -0.915
REMARK UNBOUND:                -1.847
REMARK SMILES CCCCCCCCCCCCCCCC(=O)[O-]
REMARK SMILES IDX 9 1 10 2 11 3 12 4 13 5 14 6 15 7 16 8 17 9 18 10 8 11 7 12
REMARK SMILES IDX 6 13 5 14 4 15 3 16 2 17 1 18
REMARK H PARENT
REMARK Flexibility Score: inf
ROOT
ATOM      1  C   UNL     1     -12.206 -25.088 -35.482  1.00  0.00     0.000 C 
ENDROOT
BRANCH   1   2
ATOM      2  C   UNL     1     -13.346 -26.053 -35.841  1.00  0.00     0.000 C 
BRANCH   2   3
ATOM      3  C   UNL     1     -13.002 -27.519 -35.523  1.00  0.00     0.000 C 
BRANCH   3   4
ATOM      4  C   UNL     1     -11.599 -27.677 -34.916  1.00  0.00     0.000 C 
BRANCH   4   5
ATOM      5  C   UNL     1     -11.633 -28.298 -33.508  1.00  0.00     0.000 C 
BRANCH   5   6
ATOM      6  C   UNL     1     -12.941 -27.994 -32.761  1.00  0.00     0.006 C 
BRANCH   6   7
ATOM      7  C   UNL     1     -13.006 -28.671 -31.387  1.00  0.00     0.053 C 
BRANCH   7   8
ATOM      8  C   UNL     1     -12.096 -27.982 -30.421  1.00  0.00     0.041 C 
ATOM      9  O   UNL     1     -11.128 -28.604 -29.909  1.00  0.00    -0.550 OA
ATOM     10  O   UNL     1     -12.344 -26.667 -30.048  1.00  0.00    -0.550 OA
ENDBRANCH   7   8
ENDBRANCH   6   7
ENDBRANCH   5   6
ENDBRANCH   4   5
ENDBRANCH   3   4
ENDBRANCH   2   3
ENDBRANCH   1   2
BRANCH   1  11
ATOM     11  C   UNL     1     -12.686 -23.888 -34.653  1.00  0.00     0.000 C 
BRANCH  11  12
ATOM     12  C   UNL     1     -12.797 -22.628 -35.525  1.00  0.00    -0.000 C 
BRANCH  12  13
ATOM     13  C   UNL     1     -12.756 -21.328 -34.704  1.00  0.00    -0.000 C 
BRANCH  13  14
ATOM     14  C   UNL     1     -13.433 -20.112 -35.368  1.00  0.00    -0.000 C 
BRANCH  14  15
ATOM     15  C   UNL     1     -12.534 -18.875 -35.546  1.00  0.00    -0.000 C 
BRANCH  15  16
ATOM     16  C   UNL     1     -11.430 -19.086 -36.597  1.00  0.00    -0.000 C 
BRANCH  16  17
ATOM     17  C   UNL     1     -10.021 -18.875 -36.020  1.00  0.00    -0.003 C 
ATOM     18  C   UNL     1      -8.982 -19.812 -36.637  1.00  0.00     0.004 C 
ENDBRANCH  16  17
ENDBRANCH  15  16
ENDBRANCH  14  15
ENDBRANCH  13  14
ENDBRANCH  12  13
ENDBRANCH  11  12
ENDBRANCH   1  11
TORSDOF 14
ENDMDL
MODEL 9
REMARK VINA RESULT:    -4.172      3.049      6.629
REMARK INTER + INTRA:          -9.433
REMARK INTER:                  -7.922
REMARK INTRA:                  -1.511
REMARK UNBOUND:                -1.847
REMARK SMILES CCCCCCCCCCCCCCCC(=O)[O-]
REMARK SMILES IDX 9 1 10 2 11 3 12 4 13 5 14 6 15 7 16 8 17 9 18 10 8 11 7 12
REMARK SMILES IDX 6 13 5 14 4 15 3 16 2 17 1 18
REMARK H PARENT
REMARK Flexibility Score: inf
ROOT
ATOM      1  C   UNL     1     -12.207 -23.720 -33.095  1.00  0.00     0.000 C 
ENDROOT
BRANCH   1   2
ATOM      2  C   UNL     1     -11.991 -24.609 -31.861  1.00  0.00     0.000 C 
BRANCH   2   3
ATOM      3  C   UNL     1     -10.836 -25.608 -32.047  1.00  0.00     0.000 C 
BRANCH   3   4
ATOM      4  C   UNL     1     -11.007 -26.873 -31.189  1.00  0.00     0.000 C 
BRANCH   4   5
ATOM      5  C   UNL     1     -12.479 -27.310 -31.072  1.00  0.00     0.000 C 
BRANCH   5   6
ATOM      6  C   UNL     1     -12.870 -28.354 -32.130  1.00  0.00     0.006 C 
BRANCH   6   7
ATOM      7  C   UNL     1     -13.599 -27.734 -33.327  1.00  0.00     0.053 C 
BRANCH   7   8
ATOM      8  C   UNL     1     -12.829 -27.970 -34.588  1.00  0.00     0.041 C 
ATOM      9  O   UNL     1     -11.602 -28.248 -34.538  1.00  0.00    -0.550 OA
ATOM     10  O   UNL     1     -13.454 -27.833 -35.821  1.00  0.00    -0.550 OA
ENDBRANCH   7   8
ENDBRANCH   6   7
ENDBRANCH   5   6
ENDBRANCH   4   5
ENDBRANCH   3   4
ENDBRANCH   2   3
ENDBRANCH   1   2
BRANCH   1  11
ATOM     11  C   UNL     1     -12.239 -24.524 -34.404  1.00  0.00     0.000 C 
BRANCH  11  12
ATOM     12  C   UNL     1     -12.640 -23.629 -35.586  1.00  0.00    -0.000 C 
BRANCH  12  13
ATOM     13  C   UNL     1     -13.021 -22.203 -35.154  1.00  0.00    -0.000 C 
BRANCH  13  14
ATOM     14  C   UNL     1     -12.230 -21.075 -35.846  1.00  0.00    -0.000 C 
BRANCH  14  15
ATOM     15  C   UNL     1     -12.726 -19.648 -35.549  1.00  0.00    -0.000 C 
BRANCH  15  16
ATOM     16  C   UNL     1     -13.850 -19.613 -34.500  1.00  0.00    -0.000 C 
BRANCH  16  17
ATOM     17  C   UNL     1     -13.430 -18.890 -33.211  1.00  0.00    -0.003 C 
ATOM     18  C   UNL     1     -12.501 -19.732 -32.335  1.00  0.00     0.004 C 
ENDBRANCH  16  17
ENDBRANCH  15  16
ENDBRANCH  14  15
ENDBRANCH  13  14
ENDBRANCH  12  13
ENDBRANCH  11  12
ENDBRANCH   1  11
TORSDOF 14
ENDMDL
