MODEL 1
REMARK VINA RESULT:    -4.827      0.000      0.000
REMARK INTER + INTRA:          -6.126
REMARK INTER:                  -5.814
REMARK INTRA:                  -0.312
REMARK UNBOUND:                -0.312
REMARK SMILES O=c1c(O)c(-c2ccc(O)c(O)c2)oc2cc(O)cc(O)c12
REMARK SMILES IDX 5 1 3 2 2 3 1 4 22 5 20 6 19 7 17 8 16 9 15 10 14 11 6 12
REMARK SMILES IDX 7 13 8 14 9 15 13 16 11 17 10 18 12 20 4 22 21 24 18 26
REMARK H PARENT 10 19 12 21 4 23 21 25 18 27
REMARK Flexibility Score: inf
ROOT
ATOM      1  C   UNL     1      -9.870  14.178  31.796  1.00  0.00     0.180 A 
ATOM      2  C   UNL     1     -10.170  12.865  31.394  1.00  0.00     0.208 A 
ATOM      3  C   UNL     1     -10.556  12.632  30.064  1.00  0.00     0.238 A 
ATOM      4  O   UNL     1     -10.875  11.463  29.724  1.00  0.00    -0.285 OA
ATOM      5  C   UNL     1     -10.621  13.710  29.149  1.00  0.00     0.111 A 
ATOM      6  C   UNL     1     -10.960  13.582  27.769  1.00  0.00     0.134 A 
ATOM      7  C   UNL     1     -11.121  14.734  26.988  1.00  0.00     0.093 A 
ATOM      8  C   UNL     1     -10.891  16.002  27.519  1.00  0.00     0.123 A 
ATOM      9  C   UNL     1     -10.500  16.134  28.852  1.00  0.00     0.094 A 
ATOM     10  C   UNL     1     -10.367  15.007  29.666  1.00  0.00     0.146 A 
ATOM     11  O   UNL     1     -10.005  15.178  30.932  1.00  0.00    -0.452 OA
ENDROOT
BRANCH   1  12
ATOM     12  C   UNL     1      -9.432  14.500  33.174  1.00  0.00     0.025 A 
ATOM     13  C   UNL     1     -10.362  14.700  34.209  1.00  0.00     0.016 A 
ATOM     14  C   UNL     1      -9.925  14.979  35.506  1.00  0.00     0.051 A 
ATOM     15  C   UNL     1      -8.555  15.050  35.791  1.00  0.00     0.157 A 
ATOM     16  C   UNL     1      -8.061  14.551  33.468  1.00  0.00     0.062 A 
ATOM     17  C   UNL     1      -7.618  14.831  34.767  1.00  0.00     0.158 A 
BRANCH  15  18
ATOM     18  O   UNL     1      -8.121  15.332  37.086  1.00  0.00    -0.504 OA
ATOM     19  H   UNL     1      -7.138  15.448  37.303  1.00  0.00     0.293 HD
ENDBRANCH  15  18
BRANCH  17  20
ATOM     20  O   UNL     1      -6.248  14.888  35.019  1.00  0.00    -0.504 OA
ATOM     21  H   UNL     1      -5.650  15.583  34.590  1.00  0.00     0.293 HD
ENDBRANCH  17  20
ENDBRANCH   1  12
BRANCH   2  22
ATOM     22  O   UNL     1     -10.121  11.818  32.318  1.00  0.00    -0.502 OA
ATOM     23  H   UNL     1     -10.258  10.851  32.053  1.00  0.00     0.293 HD
ENDBRANCH   2  22
BRANCH   6  24
ATOM     24  O   UNL     1     -11.123  12.357  27.115  1.00  0.00    -0.507 OA
ATOM     25  H   UNL     1     -11.391  12.254  26.147  1.00  0.00     0.293 HD
ENDBRANCH   6  24
BRANCH   8  26
ATOM     26  O   UNL     1     -11.045  17.125  26.709  1.00  0.00    -0.508 OA
ATOM     27  H   UNL     1     -10.777  18.049  27.027  1.00  0.00     0.293 HD
ENDBRANCH   8  26
TORSDOF 6
ENDMDL
MODEL 2
REMARK VINA RESULT:    -4.496      2.572      6.981
REMARK INTER + INTRA:          -5.728
REMARK INTER:                  -5.522
REMARK INTRA:                  -0.207
REMARK UNBOUND:                -0.312
REMARK SMILES O=c1c(O)c(-c2ccc(O)c(O)c2)oc2cc(O)cc(O)c12
REMARK SMILES IDX 5 1 3 2 2 3 1 4 22 5 20 6 19 7 17 8 16 9 15 10 14 11 6 12
REMARK SMILES IDX 7 13 8 14 9 15 13 16 11 17 10 18 12 20 4 22 21 24 18 26
REMARK H PARENT 10 19 12 21 4 23 21 25 18 27
REMARK Flexibility Score: inf
ROOT
ATOM      1  C   UNL     1      -8.745  15.751  31.898  1.00  0.00     0.180 A 
ATOM      2  C   UNL     1      -9.858  15.026  32.356  1.00  0.00     0.208 A 
ATOM      3  C   UNL     1     -10.033  14.847  33.738  1.00  0.00     0.238 A 
ATOM      4  O   UNL     1     -11.001  14.151  34.140  1.00  0.00    -0.285 OA
ATOM      5  C   UNL     1      -9.104  15.411  34.645  1.00  0.00     0.111 A 
ATOM      6  C   UNL     1      -9.205  15.328  36.066  1.00  0.00     0.134 A 
ATOM      7  C   UNL     1      -8.159  15.810  36.862  1.00  0.00     0.093 A 
ATOM      8  C   UNL     1      -7.048  16.430  36.293  1.00  0.00     0.123 A 
ATOM      9  C   UNL     1      -6.966  16.571  34.907  1.00  0.00     0.094 A 
ATOM     10  C   UNL     1      -7.977  16.067  34.084  1.00  0.00     0.146 A 
ATOM     11  O   UNL     1      -7.855  16.211  32.770  1.00  0.00    -0.452 OA
ENDROOT
BRANCH   1  12
ATOM     12  C   UNL     1      -8.506  16.002  30.458  1.00  0.00     0.025 A 
ATOM     13  C   UNL     1      -9.374  16.809  29.703  1.00  0.00     0.016 A 
ATOM     14  C   UNL     1      -9.116  17.052  28.351  1.00  0.00     0.051 A 
ATOM     15  C   UNL     1      -7.980  16.503  27.739  1.00  0.00     0.157 A 
ATOM     16  C   UNL     1      -7.359  15.473  29.846  1.00  0.00     0.062 A 
ATOM     17  C   UNL     1      -7.096  15.713  28.492  1.00  0.00     0.158 A 
BRANCH  15  18
ATOM     18  O   UNL     1      -7.726  16.745  26.389  1.00  0.00    -0.504 OA
ATOM     19  H   UNL     1      -8.445  17.100  25.769  1.00  0.00     0.293 HD
ENDBRANCH  15  18
BRANCH  17  20
ATOM     20  O   UNL     1      -5.955  15.158  27.913  1.00  0.00    -0.504 OA
ATOM     21  H   UNL     1      -5.462  15.611  27.154  1.00  0.00     0.293 HD
ENDBRANCH  17  20
ENDBRANCH   1  12
BRANCH   2  22
ATOM     22  O   UNL     1     -10.752  14.459  31.444  1.00  0.00    -0.502 OA
ATOM     23  H   UNL     1     -11.346  15.018  30.844  1.00  0.00     0.293 HD
ENDBRANCH   2  22
BRANCH   6  24
ATOM     24  O   UNL     1     -10.314  14.810  36.741  1.00  0.00    -0.507 OA
ATOM     25  H   UNL     1     -11.273  15.063  36.549  1.00  0.00     0.293 HD
ENDBRANCH   6  24
BRANCH   8  26
ATOM     26  O   UNL     1      -6.032  16.913  37.117  1.00  0.00    -0.508 OA
ATOM     27  H   UNL     1      -5.061  16.894  36.827  1.00  0.00     0.293 HD
ENDBRANCH   8  26
TORSDOF 6
ENDMDL
MODEL 3
REMARK VINA RESULT:    -4.412      2.634      3.464
REMARK INTER + INTRA:          -5.626
REMARK INTER:                  -5.384
REMARK INTRA:                  -0.242
REMARK UNBOUND:                -0.312
REMARK SMILES O=c1c(O)c(-c2ccc(O)c(O)c2)oc2cc(O)cc(O)c12
REMARK SMILES IDX 5 1 3 2 2 3 1 4 22 5 20 6 19 7 17 8 16 9 15 10 14 11 6 12
REMARK SMILES IDX 7 13 8 14 9 15 13 16 11 17 10 18 12 20 4 22 21 24 18 26
REMARK H PARENT 10 19 12 21 4 23 21 25 18 27
REMARK Flexibility Score: inf
ROOT
ATOM      1  C   UNL     1      -8.472  15.907  32.572  1.00  0.00     0.180 A 
ATOM      2  C   UNL     1      -9.731  15.973  31.952  1.00  0.00     0.208 A 
ATOM      3  C   UNL     1      -9.806  15.903  30.551  1.00  0.00     0.238 A 
ATOM      4  O   UNL     1     -10.931  16.017  30.000  1.00  0.00    -0.285 OA
ATOM      5  C   UNL     1      -8.623  15.750  29.789  1.00  0.00     0.111 A 
ATOM      6  C   UNL     1      -8.585  15.627  28.368  1.00  0.00     0.134 A 
ATOM      7  C   UNL     1      -7.349  15.612  27.709  1.00  0.00     0.093 A 
ATOM      8  C   UNL     1      -6.152  15.649  28.423  1.00  0.00     0.123 A 
ATOM      9  C   UNL     1      -6.178  15.709  29.817  1.00  0.00     0.094 A 
ATOM     10  C   UNL     1      -7.395  15.762  30.500  1.00  0.00     0.146 A 
ATOM     11  O   UNL     1      -7.375  15.830  31.826  1.00  0.00    -0.452 OA
ENDROOT
BRANCH   1  12
ATOM     12  C   UNL     1      -8.314  15.949  34.043  1.00  0.00     0.025 A 
ATOM     13  C   UNL     1      -7.835  17.099  34.695  1.00  0.00     0.016 A 
ATOM     14  C   UNL     1      -7.716  17.124  36.087  1.00  0.00     0.051 A 
ATOM     15  C   UNL     1      -8.088  16.008  36.848  1.00  0.00     0.157 A 
ATOM     16  C   UNL     1      -8.705  14.842  34.812  1.00  0.00     0.062 A 
ATOM     17  C   UNL     1      -8.588  14.863  36.207  1.00  0.00     0.158 A 
BRANCH  15  18
ATOM     18  O   UNL     1      -7.966  16.035  38.237  1.00  0.00    -0.504 OA
ATOM     19  H   UNL     1      -8.720  16.365  38.829  1.00  0.00     0.293 HD
ENDBRANCH  15  18
BRANCH  17  20
ATOM     20  O   UNL     1      -8.972  13.738  36.937  1.00  0.00    -0.504 OA
ATOM     21  H   UNL     1      -8.809  13.662  37.933  1.00  0.00     0.293 HD
ENDBRANCH  17  20
ENDBRANCH   1  12
BRANCH   2  22
ATOM     22  O   UNL     1     -10.885  16.146  32.721  1.00  0.00    -0.502 OA
ATOM     23  H   UNL     1     -10.878  16.627  33.612  1.00  0.00     0.293 HD
ENDBRANCH   2  22
BRANCH   6  24
ATOM     24  O   UNL     1      -9.721  15.490  27.565  1.00  0.00    -0.507 OA
ATOM     25  H   UNL     1     -10.669  15.618  27.885  1.00  0.00     0.293 HD
ENDBRANCH   6  24
BRANCH   8  26
ATOM     26  O   UNL     1      -4.940  15.616  27.735  1.00  0.00    -0.508 OA
ATOM     27  H   UNL     1      -4.060  15.480  28.219  1.00  0.00     0.293 HD
ENDBRANCH   8  26
TORSDOF 6
ENDMDL
MODEL 4
REMARK VINA RESULT:    -4.207      1.783      3.479
REMARK INTER + INTRA:          -5.379
REMARK INTER:                  -5.055
REMARK INTRA:                  -0.324
REMARK UNBOUND:                -0.312
REMARK SMILES O=c1c(O)c(-c2ccc(O)c(O)c2)oc2cc(O)cc(O)c12
REMARK SMILES IDX 5 1 3 2 2 3 1 4 22 5 20 6 19 7 17 8 16 9 15 10 14 11 6 12
REMARK SMILES IDX 7 13 8 14 9 15 13 16 11 17 10 18 12 20 4 22 21 24 18 26
REMARK H PARENT 10 19 12 21 4 23 21 25 18 27
REMARK Flexibility Score: inf
ROOT
ATOM      1  C   UNL     1      -9.221  14.525  32.709  1.00  0.00     0.180 A 
ATOM      2  C   UNL     1      -9.310  15.249  31.508  1.00  0.00     0.208 A 
ATOM      3  C   UNL     1      -9.807  14.609  30.361  1.00  0.00     0.238 A 
ATOM      4  O   UNL     1      -9.832  15.246  29.276  1.00  0.00    -0.285 OA
ATOM      5  C   UNL     1     -10.226  13.259  30.434  1.00  0.00     0.111 A 
ATOM      6  C   UNL     1     -10.783  12.524  29.345  1.00  0.00     0.134 A 
ATOM      7  C   UNL     1     -11.040  11.155  29.496  1.00  0.00     0.093 A 
ATOM      8  C   UNL     1     -10.823  10.512  30.713  1.00  0.00     0.123 A 
ATOM      9  C   UNL     1     -10.335  11.235  31.802  1.00  0.00     0.094 A 
ATOM     10  C   UNL     1     -10.034  12.592  31.672  1.00  0.00     0.146 A 
ATOM     11  O   UNL     1      -9.560  13.241  32.729  1.00  0.00    -0.452 OA
ENDROOT
BRANCH   1  12
ATOM     12  C   UNL     1      -8.731  15.138  33.965  1.00  0.00     0.025 A 
ATOM     13  C   UNL     1      -9.618  15.697  34.901  1.00  0.00     0.016 A 
ATOM     14  C   UNL     1      -9.136  16.249  36.090  1.00  0.00     0.051 A 
ATOM     15  C   UNL     1      -7.762  16.238  36.368  1.00  0.00     0.157 A 
ATOM     16  C   UNL     1      -7.358  15.111  34.257  1.00  0.00     0.062 A 
ATOM     17  C   UNL     1      -6.870  15.662  35.447  1.00  0.00     0.158 A 
BRANCH  15  18
ATOM     18  O   UNL     1      -7.282  16.791  37.554  1.00  0.00    -0.504 OA
ATOM     19  H   UNL     1      -6.342  17.163  37.624  1.00  0.00     0.293 HD
ENDBRANCH  15  18
BRANCH  17  20
ATOM     20  O   UNL     1      -5.498  15.630  35.697  1.00  0.00    -0.504 OA
ATOM     21  H   UNL     1      -5.056  16.262  36.352  1.00  0.00     0.293 HD
ENDBRANCH  17  20
ENDBRANCH   1  12
BRANCH   2  22
ATOM     22  O   UNL     1      -8.870  16.575  31.452  1.00  0.00    -0.502 OA
ATOM     23  H   UNL     1      -8.425  17.035  32.237  1.00  0.00     0.293 HD
ENDBRANCH   2  22
BRANCH   6  24
ATOM     24  O   UNL     1     -11.125  13.090  28.114  1.00  0.00    -0.507 OA
ATOM     25  H   UNL     1     -11.885  12.777  27.528  1.00  0.00     0.293 HD
ENDBRANCH   6  24
BRANCH   8  26
ATOM     26  O   UNL     1     -11.106   9.152  30.832  1.00  0.00    -0.508 OA
ATOM     27  H   UNL     1     -10.868   8.496  30.097  1.00  0.00     0.293 HD
ENDBRANCH   8  26
TORSDOF 6
ENDMDL
MODEL 5
REMARK VINA RESULT:    -4.056      3.069      3.840
REMARK INTER + INTRA:          -5.198
REMARK INTER:                  -5.472
REMARK INTRA:                   0.275
REMARK UNBOUND:                -0.312
REMARK SMILES O=c1c(O)c(-c2ccc(O)c(O)c2)oc2cc(O)cc(O)c12
REMARK SMILES IDX 5 1 3 2 2 3 1 4 22 5 20 6 19 7 17 8 16 9 15 10 14 11 6 12
REMARK SMILES IDX 7 13 8 14 9 15 13 16 11 17 10 18 12 20 4 22 21 24 18 26
REMARK H PARENT 10 19 12 21 4 23 21 25 18 27
REMARK Flexibility Score: inf
ROOT
ATOM      1  C   UNL     1      -8.225  15.880  31.846  1.00  0.00     0.180 A 
ATOM      2  C   UNL     1      -9.324  15.995  30.978  1.00  0.00     0.208 A 
ATOM      3  C   UNL     1      -9.094  16.275  29.621  1.00  0.00     0.238 A 
ATOM      4  O   UNL     1     -10.085  16.430  28.860  1.00  0.00    -0.285 OA
ATOM      5  C   UNL     1      -7.769  16.421  29.146  1.00  0.00     0.111 A 
ATOM      6  C   UNL     1      -7.418  16.666  27.785  1.00  0.00     0.134 A 
ATOM      7  C   UNL     1      -6.082  16.923  27.452  1.00  0.00     0.093 A 
ATOM      8  C   UNL     1      -5.078  16.880  28.417  1.00  0.00     0.123 A 
ATOM      9  C   UNL     1      -5.402  16.582  29.741  1.00  0.00     0.094 A 
ATOM     10  C   UNL     1      -6.730  16.357  30.111  1.00  0.00     0.146 A 
ATOM     11  O   UNL     1      -6.997  16.088  31.383  1.00  0.00    -0.452 OA
ENDROOT
BRANCH   1  12
ATOM     12  C   UNL     1      -8.386  15.562  33.283  1.00  0.00     0.025 A 
ATOM     13  C   UNL     1      -9.490  14.831  33.751  1.00  0.00     0.016 A 
ATOM     14  C   UNL     1      -9.609  14.521  35.109  1.00  0.00     0.051 A 
ATOM     15  C   UNL     1      -8.620  14.926  36.015  1.00  0.00     0.157 A 
ATOM     16  C   UNL     1      -7.386  15.946  34.192  1.00  0.00     0.062 A 
ATOM     17  C   UNL     1      -7.501  15.639  35.553  1.00  0.00     0.158 A 
BRANCH  15  18
ATOM     18  O   UNL     1      -8.741  14.617  37.369  1.00  0.00    -0.504 OA
ATOM     19  H   UNL     1      -7.930  14.417  37.943  1.00  0.00     0.293 HD
ENDBRANCH  15  18
BRANCH  17  20
ATOM     20  O   UNL     1      -6.496  16.049  36.428  1.00  0.00    -0.504 OA
ATOM     21  H   UNL     1      -5.696  16.584  36.115  1.00  0.00     0.293 HD
ENDBRANCH  17  20
ENDBRANCH   1  12
BRANCH   2  22
ATOM     22  O   UNL     1     -10.626  15.869  31.471  1.00  0.00    -0.502 OA
ATOM     23  H   UNL     1     -11.443  16.073  30.909  1.00  0.00     0.293 HD
ENDBRANCH   2  22
BRANCH   6  24
ATOM     24  O   UNL     1      -8.331  16.641  26.726  1.00  0.00    -0.507 OA
ATOM     25  H   UNL     1      -8.082  16.704  25.751  1.00  0.00     0.293 HD
ENDBRANCH   6  24
BRANCH   8  26
ATOM     26  O   UNL     1      -3.757  17.125  28.047  1.00  0.00    -0.508 OA
ATOM     27  H   UNL     1      -3.347  18.048  28.128  1.00  0.00     0.293 HD
ENDBRANCH   8  26
TORSDOF 6
ENDMDL
MODEL 6
REMARK VINA RESULT:    -3.979      2.184      7.102
REMARK INTER + INTRA:          -5.105
REMARK INTER:                  -5.177
REMARK INTRA:                   0.072
REMARK UNBOUND:                -0.312
REMARK SMILES O=c1c(O)c(-c2ccc(O)c(O)c2)oc2cc(O)cc(O)c12
REMARK SMILES IDX 5 1 3 2 2 3 1 4 22 5 20 6 19 7 17 8 16 9 15 10 14 11 6 12
REMARK SMILES IDX 7 13 8 14 9 15 13 16 11 17 10 18 12 20 4 22 21 24 18 26
REMARK H PARENT 10 19 12 21 4 23 21 25 18 27
REMARK Flexibility Score: inf
ROOT
ATOM      1  C   UNL     1      -8.856  15.597  31.793  1.00  0.00     0.180 A 
ATOM      2  C   UNL     1      -9.938  14.869  32.315  1.00  0.00     0.208 A 
ATOM      3  C   UNL     1     -10.050  14.716  33.707  1.00  0.00     0.238 A 
ATOM      4  O   UNL     1     -10.991  14.018  34.165  1.00  0.00    -0.285 OA
ATOM      5  C   UNL     1      -9.087  15.308  34.559  1.00  0.00     0.111 A 
ATOM      6  C   UNL     1      -9.124  15.252  35.985  1.00  0.00     0.134 A 
ATOM      7  C   UNL     1      -8.049  15.761  36.724  1.00  0.00     0.093 A 
ATOM      8  C   UNL     1      -6.972  16.382  36.094  1.00  0.00     0.123 A 
ATOM      9  C   UNL     1      -6.954  16.496  34.703  1.00  0.00     0.094 A 
ATOM     10  C   UNL     1      -7.994  15.965  33.937  1.00  0.00     0.146 A 
ATOM     11  O   UNL     1      -7.933  16.084  32.616  1.00  0.00    -0.452 OA
ENDROOT
BRANCH   1  12
ATOM     12  C   UNL     1      -8.684  15.822  30.340  1.00  0.00     0.025 A 
ATOM     13  C   UNL     1      -7.455  15.582  29.703  1.00  0.00     0.016 A 
ATOM     14  C   UNL     1      -7.322  15.779  28.326  1.00  0.00     0.051 A 
ATOM     15  C   UNL     1      -8.419  16.205  27.564  1.00  0.00     0.157 A 
ATOM     16  C   UNL     1      -9.785  16.228  29.569  1.00  0.00     0.062 A 
ATOM     17  C   UNL     1      -9.657  16.426  28.189  1.00  0.00     0.158 A 
BRANCH  15  18
ATOM     18  O   UNL     1      -8.283  16.402  26.190  1.00  0.00    -0.504 OA
ATOM     19  H   UNL     1      -7.537  16.971  25.807  1.00  0.00     0.293 HD
ENDBRANCH  15  18
BRANCH  17  20
ATOM     20  O   UNL     1     -10.769  16.843  27.457  1.00  0.00    -0.504 OA
ATOM     21  H   UNL     1     -11.361  16.191  26.960  1.00  0.00     0.293 HD
ENDBRANCH  17  20
ENDBRANCH   1  12
BRANCH   2  22
ATOM     22  O   UNL     1     -10.865  14.274  31.455  1.00  0.00    -0.502 OA
ATOM     23  H   UNL     1     -11.064  14.640  30.531  1.00  0.00     0.293 HD
ENDBRANCH   2  22
BRANCH   6  24
ATOM     24  O   UNL     1     -10.196  14.736  36.719  1.00  0.00    -0.507 OA
ATOM     25  H   UNL     1     -11.028  14.333  36.314  1.00  0.00     0.293 HD
ENDBRANCH   6  24
BRANCH   8  26
ATOM     26  O   UNL     1      -5.926  16.892  36.862  1.00  0.00    -0.508 OA
ATOM     27  H   UNL     1      -5.697  17.879  36.856  1.00  0.00     0.293 HD
ENDBRANCH   8  26
TORSDOF 6
ENDMDL
MODEL 7
REMARK VINA RESULT:    -3.442      4.996      6.401
REMARK INTER + INTRA:          -4.458
REMARK INTER:                  -4.910
REMARK INTRA:                   0.452
REMARK UNBOUND:                -0.312
REMARK SMILES O=c1c(O)c(-c2ccc(O)c(O)c2)oc2cc(O)cc(O)c12
REMARK SMILES IDX 5 1 3 2 2 3 1 4 22 5 20 6 19 7 17 8 16 9 15 10 14 11 6 12
REMARK SMILES IDX 7 13 8 14 9 15 13 16 11 17 10 18 12 20 4 22 21 24 18 26
REMARK H PARENT 10 19 12 21 4 23 21 25 18 27
REMARK Flexibility Score: inf
ROOT
ATOM      1  C   UNL     1      -6.199  16.504  29.053  1.00  0.00     0.180 A 
ATOM      2  C   UNL     1      -6.809  16.572  30.317  1.00  0.00     0.208 A 
ATOM      3  C   UNL     1      -8.194  16.364  30.418  1.00  0.00     0.238 A 
ATOM      4  O   UNL     1      -8.742  16.479  31.546  1.00  0.00    -0.285 OA
ATOM      5  C   UNL     1      -8.949  16.073  29.257  1.00  0.00     0.111 A 
ATOM      6  C   UNL     1     -10.351  15.804  29.248  1.00  0.00     0.134 A 
ATOM      7  C   UNL     1     -11.018  15.659  28.026  1.00  0.00     0.093 A 
ATOM      8  C   UNL     1     -10.325  15.706  26.817  1.00  0.00     0.123 A 
ATOM      9  C   UNL     1      -8.945  15.909  26.817  1.00  0.00     0.094 A 
ATOM     10  C   UNL     1      -8.257  16.094  28.018  1.00  0.00     0.146 A 
ATOM     11  O   UNL     1      -6.945  16.295  27.974  1.00  0.00    -0.452 OA
ENDROOT
BRANCH   1  12
ATOM     12  C   UNL     1      -4.741  16.688  28.869  1.00  0.00     0.025 A 
ATOM     13  C   UNL     1      -3.876  16.811  29.969  1.00  0.00     0.016 A 
ATOM     14  C   UNL     1      -2.500  16.960  29.773  1.00  0.00     0.051 A 
ATOM     15  C   UNL     1      -1.969  16.974  28.476  1.00  0.00     0.157 A 
ATOM     16  C   UNL     1      -4.202  16.681  27.573  1.00  0.00     0.062 A 
ATOM     17  C   UNL     1      -2.825  16.830  27.371  1.00  0.00     0.158 A 
BRANCH  15  18
ATOM     18  O   UNL     1      -0.597  17.125  28.282  1.00  0.00    -0.504 OA
ATOM     19  H   UNL     1      -0.225  17.606  27.471  1.00  0.00     0.293 HD
ENDBRANCH  15  18
BRANCH  17  20
ATOM     20  O   UNL     1      -2.327  16.833  26.069  1.00  0.00    -0.504 OA
ATOM     21  H   UNL     1      -1.698  16.115  25.731  1.00  0.00     0.293 HD
ENDBRANCH  17  20
ENDBRANCH   1  12
BRANCH   2  22
ATOM     22  O   UNL     1      -6.049  16.882  31.448  1.00  0.00    -0.502 OA
ATOM     23  H   UNL     1      -6.385  16.725  32.391  1.00  0.00     0.293 HD
ENDBRANCH   2  22
BRANCH   6  24
ATOM     24  O   UNL     1     -11.123  15.645  30.403  1.00  0.00    -0.507 OA
ATOM     25  H   UNL     1     -11.927  16.207  30.638  1.00  0.00     0.293 HD
ENDBRANCH   6  24
BRANCH   8  26
ATOM     26  O   UNL     1     -11.019  15.542  25.620  1.00  0.00    -0.508 OA
ATOM     27  H   UNL     1     -11.810  16.129  25.381  1.00  0.00     0.293 HD
ENDBRANCH   8  26
TORSDOF 6
ENDMDL
MODEL 8
REMARK VINA RESULT:    -2.772      4.719      7.907
REMARK INTER + INTRA:          -3.651
REMARK INTER:                  -4.195
REMARK INTRA:                   0.543
REMARK UNBOUND:                -0.312
REMARK SMILES O=c1c(O)c(-c2ccc(O)c(O)c2)oc2cc(O)cc(O)c12
REMARK SMILES IDX 5 1 3 2 2 3 1 4 22 5 20 6 19 7 17 8 16 9 15 10 14 11 6 12
REMARK SMILES IDX 7 13 8 14 9 15 13 16 11 17 10 18 12 20 4 22 21 24 18 26
REMARK H PARENT 10 19 12 21 4 23 21 25 18 27
REMARK Flexibility Score: inf
ROOT
ATOM      1  C   UNL     1      -5.828  16.963  32.153  1.00  0.00     0.180 A 
ATOM      2  C   UNL     1      -4.942  17.001  33.243  1.00  0.00     0.208 A 
ATOM      3  C   UNL     1      -5.462  16.953  34.547  1.00  0.00     0.238 A 
ATOM      4  O   UNL     1      -4.667  17.042  35.518  1.00  0.00    -0.285 OA
ATOM      5  C   UNL     1      -6.860  16.850  34.744  1.00  0.00     0.111 A 
ATOM      6  C   UNL     1      -7.493  16.753  36.019  1.00  0.00     0.134 A 
ATOM      7  C   UNL     1      -8.891  16.787  36.100  1.00  0.00     0.093 A 
ATOM      8  C   UNL     1      -9.678  16.849  34.951  1.00  0.00     0.123 A 
ATOM      9  C   UNL     1      -9.069  16.883  33.696  1.00  0.00     0.094 A 
ATOM     10  C   UNL     1      -7.677  16.887  33.584  1.00  0.00     0.146 A 
ATOM     11  O   UNL     1      -7.138  16.933  32.372  1.00  0.00    -0.452 OA
ENDROOT
BRANCH   1  12
ATOM     12  C   UNL     1      -5.355  16.984  30.750  1.00  0.00     0.025 A 
ATOM     13  C   UNL     1      -6.256  17.061  29.675  1.00  0.00     0.016 A 
ATOM     14  C   UNL     1      -5.785  17.104  28.360  1.00  0.00     0.051 A 
ATOM     15  C   UNL     1      -4.408  17.084  28.101  1.00  0.00     0.157 A 
ATOM     16  C   UNL     1      -3.976  16.986  30.487  1.00  0.00     0.062 A 
ATOM     17  C   UNL     1      -3.499  17.029  29.171  1.00  0.00     0.158 A 
BRANCH  15  18
ATOM     18  O   UNL     1      -3.941  17.124  26.788  1.00  0.00    -0.504 OA
ATOM     19  H   UNL     1      -4.029  17.959  26.219  1.00  0.00     0.293 HD
ENDBRANCH  15  18
BRANCH  17  20
ATOM     20  O   UNL     1      -2.123  17.014  28.947  1.00  0.00    -0.504 OA
ATOM     21  H   UNL     1      -1.466  16.712  29.655  1.00  0.00     0.293 HD
ENDBRANCH  17  20
ENDBRANCH   1  12
BRANCH   2  22
ATOM     22  O   UNL     1      -3.567  17.125  33.027  1.00  0.00    -0.502 OA
ATOM     23  H   UNL     1      -2.917  16.369  33.206  1.00  0.00     0.293 HD
ENDBRANCH   2  22
BRANCH   6  24
ATOM     24  O   UNL     1      -6.803  16.595  37.224  1.00  0.00    -0.507 OA
ATOM     25  H   UNL     1      -6.303  15.761  37.495  1.00  0.00     0.293 HD
ENDBRANCH   6  24
BRANCH   8  26
ATOM     26  O   UNL     1     -11.067  16.865  35.068  1.00  0.00    -0.508 OA
ATOM     27  H   UNL     1     -11.615  17.657  34.754  1.00  0.00     0.293 HD
ENDBRANCH   8  26
TORSDOF 6
ENDMDL
MODEL 9
REMARK VINA RESULT:    -2.759     15.529     16.381
REMARK INTER + INTRA:          -3.635
REMARK INTER:                  -4.106
REMARK INTRA:                   0.471
REMARK UNBOUND:                -0.312
REMARK SMILES O=c1c(O)c(-c2ccc(O)c(O)c2)oc2cc(O)cc(O)c12
REMARK SMILES IDX 5 1 3 2 2 3 1 4 22 5 20 6 19 7 17 8 16 9 15 10 14 11 6 12
REMARK SMILES IDX 7 13 8 14 9 15 13 16 11 17 10 18 12 20 4 22 21 24 18 26
REMARK H PARENT 10 19 12 21 4 23 21 25 18 27
REMARK Flexibility Score: inf
ROOT
ATOM      1  C   UNL     1       4.183  17.015  25.085  1.00  0.00     0.180 A 
ATOM      2  C   UNL     1       3.166  17.001  24.115  1.00  0.00     0.208 A 
ATOM      3  C   UNL     1       3.520  16.934  22.757  1.00  0.00     0.238 A 
ATOM      4  O   UNL     1       2.607  16.976  21.892  1.00  0.00    -0.285 OA
ATOM      5  C   UNL     1       4.885  16.865  22.388  1.00  0.00     0.111 A 
ATOM      6  C   UNL     1       5.356  16.754  21.045  1.00  0.00     0.134 A 
ATOM      7  C   UNL     1       6.731  16.826  20.788  1.00  0.00     0.093 A 
ATOM      8  C   UNL     1       7.653  16.939  21.827  1.00  0.00     0.123 A 
ATOM      9  C   UNL     1       7.206  16.989  23.148  1.00  0.00     0.094 A 
ATOM     10  C   UNL     1       5.839  16.956  23.434  1.00  0.00     0.146 A 
ATOM     11  O   UNL     1       5.456  17.017  24.703  1.00  0.00    -0.452 OA
ENDROOT
BRANCH   1  12
ATOM     12  C   UNL     1       3.888  17.059  26.535  1.00  0.00     0.025 A 
ATOM     13  C   UNL     1       2.567  17.057  27.014  1.00  0.00     0.016 A 
ATOM     14  C   UNL     1       2.313  17.075  28.387  1.00  0.00     0.051 A 
ATOM     15  C   UNL     1       3.374  17.082  29.303  1.00  0.00     0.157 A 
ATOM     16  C   UNL     1       4.948  17.044  27.456  1.00  0.00     0.062 A 
ATOM     17  C   UNL     1       4.698  17.063  28.834  1.00  0.00     0.158 A 
BRANCH  15  18
ATOM     18  O   UNL     1       3.118  17.102  30.673  1.00  0.00    -0.504 OA
ATOM     19  H   UNL     1       2.338  17.622  31.060  1.00  0.00     0.293 HD
ENDBRANCH  15  18
BRANCH  17  20
ATOM     20  O   UNL     1       5.776  17.062  29.718  1.00  0.00    -0.504 OA
ATOM     21  H   UNL     1       6.618  17.594  29.541  1.00  0.00     0.293 HD
ENDBRANCH  17  20
ENDBRANCH   1  12
BRANCH   2  22
ATOM     22  O   UNL     1       1.826  17.091  24.500  1.00  0.00    -0.502 OA
ATOM     23  H   UNL     1       1.308  17.961  24.471  1.00  0.00     0.293 HD
ENDBRANCH   2  22
BRANCH   6  24
ATOM     24  O   UNL     1       4.525  16.546  19.941  1.00  0.00    -0.507 OA
ATOM     25  H   UNL     1       4.849  16.430  18.992  1.00  0.00     0.293 HD
ENDBRANCH   6  24
BRANCH   8  26
ATOM     26  O   UNL     1       9.015  16.992  21.535  1.00  0.00    -0.508 OA
ATOM     27  H   UNL     1       9.499  16.204  21.121  1.00  0.00     0.293 HD
ENDBRANCH   8  26
TORSDOF 6
ENDMDL
