MODEL 1
REMARK VINA RESULT:    -6.078      0.000      0.000
REMARK INTER + INTRA:         -10.340
REMARK INTER:                  -9.631
REMARK INTRA:                  -0.708
REMARK UNBOUND:                -0.708
REMARK SMILES CCCCCCCCCCCC(=O)[O-]
REMARK SMILES IDX 7 1 8 2 9 3 10 4 11 5 12 6 13 7 14 8 6 9 5 10 4 11 3 12 2 13
REMARK SMILES IDX 1 14
REMARK H PARENT
REMARK Flexibility Score: inf
ROOT
ATOM      1  C   UNL     1      28.781  -0.907  39.491  1.00  0.00     0.000 C 
ENDROOT
BRANCH   1   2
ATOM      2  C   UNL     1      29.192  -0.907  40.972  1.00  0.00     0.000 C 
BRANCH   2   3
ATOM      3  C   UNL     1      28.020  -1.257  41.907  1.00  0.00     0.000 C 
BRANCH   3   4
ATOM      4  C   UNL     1      28.190  -0.661  43.314  1.00  0.00     0.006 C 
BRANCH   4   5
ATOM      5  C   UNL     1      28.692  -1.693  44.333  1.00  0.00     0.053 C 
BRANCH   5   6
ATOM      6  C   UNL     1      30.010  -1.268  44.898  1.00  0.00     0.041 C 
ATOM      7  O   UNL     1      30.854  -0.686  44.168  1.00  0.00    -0.550 OA
ATOM      8  O   UNL     1      30.326  -1.557  46.220  1.00  0.00    -0.550 OA
ENDBRANCH   5   6
ENDBRANCH   4   5
ENDBRANCH   3   4
ENDBRANCH   2   3
ENDBRANCH   1   2
BRANCH   1   9
ATOM      9  C   UNL     1      28.745   0.507  38.888  1.00  0.00     0.000 C 
BRANCH   9  10
ATOM     10  C   UNL     1      29.684   0.668  37.680  1.00  0.00    -0.000 C 
BRANCH  10  11
ATOM     11  C   UNL     1      31.177   0.441  37.979  1.00  0.00    -0.000 C 
BRANCH  11  12
ATOM     12  C   UNL     1      31.914   1.736  38.363  1.00  0.00    -0.000 C 
BRANCH  12  13
ATOM     13  C   UNL     1      32.125   1.865  39.880  1.00  0.00    -0.003 C 
ATOM     14  C   UNL     1      32.116   0.514  40.597  1.00  0.00     0.004 C 
ENDBRANCH  12  13
ENDBRANCH  11  12
ENDBRANCH  10  11
ENDBRANCH   9  10
ENDBRANCH   1   9
TORSDOF 10
ENDMDL
MODEL 2
REMARK VINA RESULT:    -5.995      2.691      5.829
REMARK INTER + INTRA:         -10.207
REMARK INTER:                  -9.514
REMARK INTRA:                  -0.694
REMARK UNBOUND:                -0.708
REMARK SMILES CCCCCCCCCCCC(=O)[O-]
REMARK SMILES IDX 7 1 8 2 9 3 10 4 11 5 12 6 13 7 14 8 6 9 5 10 4 11 3 12 2 13
REMARK SMILES IDX 1 14
REMARK H PARENT
REMARK Flexibility Score: inf
ROOT
ATOM      1  C   UNL     1      28.407  -0.286  41.614  1.00  0.00     0.000 C 
ENDROOT
BRANCH   1   2
ATOM      2  C   UNL     1      28.443  -0.459  40.088  1.00  0.00     0.000 C 
BRANCH   2   3
ATOM      3  C   UNL     1      29.866  -0.708  39.558  1.00  0.00     0.000 C 
BRANCH   3   4
ATOM      4  C   UNL     1      30.937  -0.557  40.650  1.00  0.00     0.006 C 
BRANCH   4   5
ATOM      5  C   UNL     1      32.125   0.303  40.196  1.00  0.00     0.053 C 
BRANCH   5   6
ATOM      6  C   UNL     1      31.645   1.477  39.403  1.00  0.00     0.041 C 
ATOM      7  O   UNL     1      31.781   1.494  38.152  1.00  0.00    -0.550 OA
ATOM      8  O   UNL     1      31.090   2.574  40.050  1.00  0.00    -0.550 OA
ENDBRANCH   5   6
ENDBRANCH   4   5
ENDBRANCH   3   4
ENDBRANCH   2   3
ENDBRANCH   1   2
BRANCH   1   9
ATOM      9  C   UNL     1      27.989  -1.573  42.346  1.00  0.00     0.000 C 
BRANCH   9  10
ATOM     10  C   UNL     1      28.654  -1.722  43.726  1.00  0.00    -0.000 C 
BRANCH  10  11
ATOM     11  C   UNL     1      29.591  -0.567  44.125  1.00  0.00    -0.000 C 
BRANCH  11  12
ATOM     12  C   UNL     1      30.589  -0.960  45.228  1.00  0.00    -0.000 C 
BRANCH  12  13
ATOM     13  C   UNL     1      30.050  -2.073  46.139  1.00  0.00    -0.003 C 
ATOM     14  C   UNL     1      30.400  -1.856  47.612  1.00  0.00     0.004 C 
ENDBRANCH  12  13
ENDBRANCH  11  12
ENDBRANCH  10  11
ENDBRANCH   9  10
ENDBRANCH   1   9
TORSDOF 10
ENDMDL
MODEL 3
REMARK VINA RESULT:    -5.971      2.885      6.113
REMARK INTER + INTRA:         -10.169
REMARK INTER:                  -9.361
REMARK INTRA:                  -0.808
REMARK UNBOUND:                -0.708
REMARK SMILES CCCCCCCCCCCC(=O)[O-]
REMARK SMILES IDX 7 1 8 2 9 3 10 4 11 5 12 6 13 7 14 8 6 9 5 10 4 11 3 12 2 13
REMARK SMILES IDX 1 14
REMARK H PARENT
REMARK Flexibility Score: inf
ROOT
ATOM      1  C   UNL     1      30.120  -0.134  41.630  1.00  0.00     0.000 C 
ENDROOT
BRANCH   1   2
ATOM      2  C   UNL     1      31.379  -0.946  41.289  1.00  0.00     0.000 C 
BRANCH   2   3
ATOM      3  C   UNL     1      32.029  -0.497  39.969  1.00  0.00     0.000 C 
BRANCH   3   4
ATOM      4  C   UNL     1      31.590   0.914  39.545  1.00  0.00     0.006 C 
BRANCH   4   5
ATOM      5  C   UNL     1      31.054   0.958  38.107  1.00  0.00     0.053 C 
BRANCH   5   6
ATOM      6  C   UNL     1      29.579   0.708  38.093  1.00  0.00     0.041 C 
ATOM      7  O   UNL     1      29.097  -0.193  37.358  1.00  0.00    -0.550 OA
ATOM      8  O   UNL     1      28.732   1.501  38.856  1.00  0.00    -0.550 OA
ENDBRANCH   5   6
ENDBRANCH   4   5
ENDBRANCH   3   4
ENDBRANCH   2   3
ENDBRANCH   1   2
BRANCH   1   9
ATOM      9  C   UNL     1      28.826  -0.944  41.443  1.00  0.00     0.000 C 
BRANCH   9  10
ATOM     10  C   UNL     1      28.055  -1.155  42.758  1.00  0.00    -0.000 C 
BRANCH  10  11
ATOM     11  C   UNL     1      28.777  -0.656  44.024  1.00  0.00    -0.000 C 
BRANCH  11  12
ATOM     12  C   UNL     1      29.433  -1.792  44.827  1.00  0.00    -0.000 C 
BRANCH  12  13
ATOM     13  C   UNL     1      30.478  -1.278  45.828  1.00  0.00    -0.003 C 
ATOM     14  C   UNL     1      30.310  -1.880  47.223  1.00  0.00     0.004 C 
ENDBRANCH  12  13
ENDBRANCH  11  12
ENDBRANCH  10  11
ENDBRANCH   9  10
ENDBRANCH   1   9
TORSDOF 10
ENDMDL
MODEL 4
REMARK VINA RESULT:    -5.858      0.965      2.347
REMARK INTER + INTRA:          -9.991
REMARK INTER:                  -9.190
REMARK INTRA:                  -0.801
REMARK UNBOUND:                -0.708
REMARK SMILES CCCCCCCCCCCC(=O)[O-]
REMARK SMILES IDX 7 1 8 2 9 3 10 4 11 5 12 6 13 7 14 8 6 9 5 10 4 11 3 12 2 13
REMARK SMILES IDX 1 14
REMARK H PARENT
REMARK Flexibility Score: inf
ROOT
ATOM      1  C   UNL     1      29.859  -0.233  41.663  1.00  0.00     0.000 C 
ENDROOT
BRANCH   1   2
ATOM      2  C   UNL     1      28.658  -1.127  41.319  1.00  0.00     0.000 C 
BRANCH   2   3
ATOM      3  C   UNL     1      27.981  -1.710  42.572  1.00  0.00     0.000 C 
BRANCH   3   4
ATOM      4  C   UNL     1      28.452  -1.029  43.867  1.00  0.00     0.006 C 
BRANCH   4   5
ATOM      5  C   UNL     1      28.880  -2.039  44.941  1.00  0.00     0.053 C 
BRANCH   5   6
ATOM      6  C   UNL     1      30.118  -1.567  45.636  1.00  0.00     0.041 C 
ATOM      7  O   UNL     1      30.311  -1.850  46.847  1.00  0.00    -0.550 OA
ATOM      8  O   UNL     1      31.036  -0.774  44.960  1.00  0.00    -0.550 OA
ENDBRANCH   5   6
ENDBRANCH   4   5
ENDBRANCH   3   4
ENDBRANCH   2   3
ENDBRANCH   1   2
BRANCH   1   9
ATOM      9  C   UNL     1      31.204  -0.882  41.295  1.00  0.00     0.000 C 
BRANCH   9  10
ATOM     10  C   UNL     1      32.113   0.047  40.471  1.00  0.00    -0.000 C 
BRANCH  10  11
ATOM     11  C   UNL     1      32.017  -0.133  38.945  1.00  0.00    -0.000 C 
BRANCH  11  12
ATOM     12  C   UNL     1      31.441   1.102  38.231  1.00  0.00    -0.000 C 
BRANCH  12  13
ATOM     13  C   UNL     1      30.151   0.787  37.459  1.00  0.00    -0.003 C 
ATOM     14  C   UNL     1      28.935   0.634  38.374  1.00  0.00     0.004 C 
ENDBRANCH  12  13
ENDBRANCH  11  12
ENDBRANCH  10  11
ENDBRANCH   9  10
ENDBRANCH   1   9
TORSDOF 10
ENDMDL
MODEL 5
REMARK VINA RESULT:    -4.950      1.273      3.146
REMARK INTER + INTRA:          -8.552
REMARK INTER:                  -7.383
REMARK INTRA:                  -1.169
REMARK UNBOUND:                -0.708
REMARK SMILES CCCCCCCCCCCC(=O)[O-]
REMARK SMILES IDX 7 1 8 2 9 3 10 4 11 5 12 6 13 7 14 8 6 9 5 10 4 11 3 12 2 13
REMARK SMILES IDX 1 14
REMARK H PARENT
REMARK Flexibility Score: inf
ROOT
ATOM      1  C   UNL     1      31.441   1.614  39.695  1.00  0.00     0.000 C 
ENDROOT
BRANCH   1   2
ATOM      2  C   UNL     1      31.346   1.007  41.104  1.00  0.00     0.000 C 
BRANCH   2   3
ATOM      3  C   UNL     1      31.655  -0.500  41.117  1.00  0.00     0.000 C 
BRANCH   3   4
ATOM      4  C   UNL     1      30.950  -1.237  42.266  1.00  0.00     0.006 C 
BRANCH   4   5
ATOM      5  C   UNL     1      30.238  -0.280  43.231  1.00  0.00     0.053 C 
BRANCH   5   6
ATOM      6  C   UNL     1      29.815  -1.006  44.469  1.00  0.00     0.041 C 
ATOM      7  O   UNL     1      28.719  -1.624  44.497  1.00  0.00    -0.550 OA
ATOM      8  O   UNL     1      30.610  -0.961  45.607  1.00  0.00    -0.550 OA
ENDBRANCH   5   6
ENDBRANCH   4   5
ENDBRANCH   3   4
ENDBRANCH   2   3
ENDBRANCH   1   2
BRANCH   1   9
ATOM      9  C   UNL     1      31.326   0.554  38.587  1.00  0.00     0.000 C 
BRANCH   9  10
ATOM     10  C   UNL     1      30.112   0.778  37.667  1.00  0.00    -0.000 C 
BRANCH  10  11
ATOM     11  C   UNL     1      28.745   0.482  38.310  1.00  0.00    -0.000 C 
BRANCH  11  12
ATOM     12  C   UNL     1      28.717  -0.855  39.070  1.00  0.00    -0.000 C 
BRANCH  12  13
ATOM     13  C   UNL     1      28.108  -0.721  40.474  1.00  0.00    -0.003 C 
ATOM     14  C   UNL     1      27.563  -2.044  41.013  1.00  0.00     0.004 C 
ENDBRANCH  12  13
ENDBRANCH  11  12
ENDBRANCH  10  11
ENDBRANCH   9  10
ENDBRANCH   1   9
TORSDOF 10
ENDMDL
MODEL 6
REMARK VINA RESULT:    -4.747      2.606      5.699
REMARK INTER + INTRA:          -8.231
REMARK INTER:                  -7.262
REMARK INTRA:                  -0.969
REMARK UNBOUND:                -0.708
REMARK SMILES CCCCCCCCCCCC(=O)[O-]
REMARK SMILES IDX 7 1 8 2 9 3 10 4 11 5 12 6 13 7 14 8 6 9 5 10 4 11 3 12 2 13
REMARK SMILES IDX 1 14
REMARK H PARENT
REMARK Flexibility Score: inf
ROOT
ATOM      1  C   UNL     1      31.892   1.267  40.576  1.00  0.00     0.000 C 
ENDROOT
BRANCH   1   2
ATOM      2  C   UNL     1      32.093   1.921  39.200  1.00  0.00     0.000 C 
BRANCH   2   3
ATOM      3  C   UNL     1      31.873   0.933  38.042  1.00  0.00     0.000 C 
BRANCH   3   4
ATOM      4  C   UNL     1      30.584   1.223  37.256  1.00  0.00     0.006 C 
BRANCH   4   5
ATOM      5  C   UNL     1      29.571   0.073  37.341  1.00  0.00     0.053 C 
BRANCH   5   6
ATOM      6  C   UNL     1      28.837   0.120  38.643  1.00  0.00     0.041 C 
ATOM      7  O   UNL     1      28.619   1.224  39.208  1.00  0.00    -0.550 OA
ATOM      8  O   UNL     1      28.434  -1.058  39.258  1.00  0.00    -0.550 OA
ENDBRANCH   5   6
ENDBRANCH   4   5
ENDBRANCH   3   4
ENDBRANCH   2   3
ENDBRANCH   1   2
BRANCH   1   9
ATOM      9  C   UNL     1      32.124  -0.253  40.547  1.00  0.00     0.000 C 
BRANCH   9  10
ATOM     10  C   UNL     1      31.007  -1.043  41.252  1.00  0.00    -0.000 C 
BRANCH  10  11
ATOM     11  C   UNL     1      30.192  -0.241  42.284  1.00  0.00    -0.000 C 
BRANCH  11  12
ATOM     12  C   UNL     1      30.143  -0.918  43.665  1.00  0.00    -0.000 C 
BRANCH  12  13
ATOM     13  C   UNL     1      28.724  -1.361  44.052  1.00  0.00    -0.003 C 
ATOM     14  C   UNL     1      27.638  -0.648  43.244  1.00  0.00     0.004 C 
ENDBRANCH  12  13
ENDBRANCH  11  12
ENDBRANCH  10  11
ENDBRANCH   9  10
ENDBRANCH   1   9
TORSDOF 10
ENDMDL
MODEL 7
REMARK VINA RESULT:    -4.682      2.377      5.863
REMARK INTER + INTRA:          -8.127
REMARK INTER:                  -7.748
REMARK INTRA:                  -0.380
REMARK UNBOUND:                -0.708
REMARK SMILES CCCCCCCCCCCC(=O)[O-]
REMARK SMILES IDX 7 1 8 2 9 3 10 4 11 5 12 6 13 7 14 8 6 9 5 10 4 11 3 12 2 13
REMARK SMILES IDX 1 14
REMARK H PARENT
REMARK Flexibility Score: inf
ROOT
ATOM      1  C   UNL     1      32.095   0.210  40.801  1.00  0.00     0.000 C 
ENDROOT
BRANCH   1   2
ATOM      2  C   UNL     1      32.089  -0.130  39.303  1.00  0.00     0.000 C 
BRANCH   2   3
ATOM      3  C   UNL     1      31.523   1.014  38.444  1.00  0.00     0.000 C 
BRANCH   3   4
ATOM      4  C   UNL     1      30.165   0.663  37.814  1.00  0.00     0.006 C 
BRANCH   4   5
ATOM      5  C   UNL     1      28.997   0.846  38.793  1.00  0.00     0.053 C 
BRANCH   5   6
ATOM      6  C   UNL     1      28.572  -0.476  39.350  1.00  0.00     0.041 C 
ATOM      7  O   UNL     1      28.644  -1.514  38.641  1.00  0.00    -0.550 OA
ATOM      8  O   UNL     1      28.051  -0.554  40.635  1.00  0.00    -0.550 OA
ENDBRANCH   5   6
ENDBRANCH   4   5
ENDBRANCH   3   4
ENDBRANCH   2   3
ENDBRANCH   1   2
BRANCH   1   9
ATOM      9  C   UNL     1      31.260  -0.778  41.634  1.00  0.00     0.000 C 
BRANCH   9  10
ATOM     10  C   UNL     1      30.341  -0.078  42.651  1.00  0.00    -0.000 C 
BRANCH  10  11
ATOM     11  C   UNL     1      29.691  -1.008  43.691  1.00  0.00    -0.000 C 
BRANCH  11  12
ATOM     12  C   UNL     1      30.460  -1.047  45.023  1.00  0.00    -0.000 C 
BRANCH  12  13
ATOM     13  C   UNL     1      29.926  -2.125  45.979  1.00  0.00    -0.003 C 
ATOM     14  C   UNL     1      30.351  -1.894  47.430  1.00  0.00     0.004 C 
ENDBRANCH  12  13
ENDBRANCH  11  12
ENDBRANCH  10  11
ENDBRANCH   9  10
ENDBRANCH   1   9
TORSDOF 10
ENDMDL
