MODEL 1
REMARK VINA RESULT:    -0.924      0.000      0.000
REMARK INTER + INTRA:          -8.640
REMARK INTER:                  -2.328
REMARK INTRA:                  -6.312
REMARK UNBOUND:                -6.312
REMARK SMILES CCCCCCCCCCCCCCCCCCCCCCCCCCCC(=O)[O-]
REMARK SMILES IDX 15 1 16 2 17 3 18 4 19 5 20 6 21 7 22 8 23 9 24 10 25 11
REMARK SMILES IDX 26 12 27 13 28 14 29 15 30 16 14 17 13 18 12 19 11 20 10 21
REMARK SMILES IDX 9 22 8 23 7 24 6 25 5 26 4 27 3 28 2 29 1 30
REMARK H PARENT
REMARK Flexibility Score: inf
ROOT
ATOM      1  C   UNL     1     142.687  41.593 -10.580  1.00  0.00     0.000 C 
ENDROOT
BRANCH   1   2
ATOM      2  C   UNL     1     143.353  40.254 -10.225  1.00  0.00     0.000 C 
BRANCH   2   3
ATOM      3  C   UNL     1     142.573  39.363  -9.238  1.00  0.00     0.000 C 
BRANCH   3   4
ATOM      4  C   UNL     1     143.424  38.791  -8.085  1.00  0.00     0.000 C 
BRANCH   4   5
ATOM      5  C   UNL     1     144.323  37.616  -8.516  1.00  0.00     0.000 C 
BRANCH   5   6
ATOM      6  C   UNL     1     145.704  37.651  -7.840  1.00  0.00     0.000 C 
BRANCH   6   7
ATOM      7  C   UNL     1     146.848  37.934  -8.825  1.00  0.00     0.000 C 
BRANCH   7   8
ATOM      8  C   UNL     1     146.703  39.341  -9.423  1.00  0.00     0.000 C 
BRANCH   8   9
ATOM      9  C   UNL     1     147.891  40.258  -9.094  1.00  0.00     0.000 C 
BRANCH   9  10
ATOM     10  C   UNL     1     147.499  41.423  -8.166  1.00  0.00     0.000 C 
BRANCH  10  11
ATOM     11  C   UNL     1     145.983  41.510  -7.932  1.00  0.00     0.000 C 
BRANCH  11  12
ATOM     12  C   UNL     1     145.614  41.568  -6.442  1.00  0.00     0.006 C 
BRANCH  12  13
ATOM     13  C   UNL     1     146.367  40.499  -5.644  1.00  0.00     0.053 C 
BRANCH  13  14
ATOM     14  C   UNL     1     145.523  40.000  -4.513  1.00  0.00     0.041 C 
ATOM     15  O   UNL     1     145.727  40.412  -3.340  1.00  0.00    -0.550 OA
ATOM     16  O   UNL     1     144.544  39.044  -4.745  1.00  0.00    -0.550 OA
ENDBRANCH  13  14
ENDBRANCH  12  13
ENDBRANCH  11  12
ENDBRANCH  10  11
ENDBRANCH   9  10
ENDBRANCH   8   9
ENDBRANCH   7   8
ENDBRANCH   6   7
ENDBRANCH   5   6
ENDBRANCH   4   5
ENDBRANCH   3   4
ENDBRANCH   2   3
ENDBRANCH   1   2
BRANCH   1  17
ATOM     17  C   UNL     1     142.003  41.642 -11.960  1.00  0.00     0.000 C 
BRANCH  17  18
ATOM     18  C   UNL     1     142.323  40.431 -12.863  1.00  0.00     0.000 C 
BRANCH  18  19
ATOM     19  C   UNL     1     141.104  39.524 -13.087  1.00  0.00     0.000 C 
BRANCH  19  20
ATOM     20  C   UNL     1     141.348  38.117 -12.520  1.00  0.00     0.000 C 
BRANCH  20  21
ATOM     21  C   UNL     1     142.637  37.469 -13.062  1.00  0.00     0.000 C 
BRANCH  21  22
ATOM     22  C   UNL     1     143.583  36.904 -11.987  1.00  0.00    -0.000 C 
BRANCH  22  23
ATOM     23  C   UNL     1     145.056  37.327 -12.132  1.00  0.00    -0.000 C 
BRANCH  23  24
ATOM     24  C   UNL     1     145.301  38.352 -13.263  1.00  0.00    -0.000 C 
BRANCH  24  25
ATOM     25  C   UNL     1     146.409  39.374 -12.953  1.00  0.00    -0.000 C 
BRANCH  25  26
ATOM     26  C   UNL     1     146.029  40.800 -13.386  1.00  0.00    -0.000 C 
BRANCH  26  27
ATOM     27  C   UNL     1     146.004  41.786 -12.207  1.00  0.00    -0.000 C 
BRANCH  27  28
ATOM     28  C   UNL     1     147.288  42.638 -12.096  1.00  0.00    -0.000 C 
BRANCH  28  29
ATOM     29  C   UNL     1     147.162  43.742 -11.039  1.00  0.00    -0.003 C 
ATOM     30  C   UNL     1     145.704  43.966 -10.642  1.00  0.00     0.004 C 
ENDBRANCH  28  29
ENDBRANCH  27  28
ENDBRANCH  26  27
ENDBRANCH  25  26
ENDBRANCH  24  25
ENDBRANCH  23  24
ENDBRANCH  22  23
ENDBRANCH  21  22
ENDBRANCH  20  21
ENDBRANCH  19  20
ENDBRANCH  18  19
ENDBRANCH  17  18
ENDBRANCH   1  17
TORSDOF 26
ENDMDL
MODEL 2
REMARK VINA RESULT:    -0.915      1.575      4.028
REMARK INTER + INTRA:          -8.618
REMARK INTER:                  -2.636
REMARK INTRA:                  -5.982
REMARK UNBOUND:                -6.312
REMARK SMILES CCCCCCCCCCCCCCCCCCCCCCCCCCCC(=O)[O-]
REMARK SMILES IDX 15 1 16 2 17 3 18 4 19 5 20 6 21 7 22 8 23 9 24 10 25 11
REMARK SMILES IDX 26 12 27 13 28 14 29 15 30 16 14 17 13 18 12 19 11 20 10 21
REMARK SMILES IDX 9 22 8 23 7 24 6 25 5 26 4 27 3 28 2 29 1 30
REMARK H PARENT
REMARK Flexibility Score: inf
ROOT
ATOM      1  C   UNL     1     143.354  41.596 -10.836  1.00  0.00     0.000 C 
ENDROOT
BRANCH   1   2
ATOM      2  C   UNL     1     144.032  41.783  -9.469  1.00  0.00     0.000 C 
BRANCH   2   3
ATOM      3  C   UNL     1     145.223  42.761  -9.444  1.00  0.00     0.000 C 
BRANCH   3   4
ATOM      4  C   UNL     1     146.576  42.112  -9.088  1.00  0.00     0.000 C 
BRANCH   4   5
ATOM      5  C   UNL     1     146.442  40.669  -8.563  1.00  0.00     0.000 C 
BRANCH   5   6
ATOM      6  C   UNL     1     147.753  39.875  -8.677  1.00  0.00     0.000 C 
BRANCH   6   7
ATOM      7  C   UNL     1     147.590  38.391  -8.316  1.00  0.00     0.000 C 
BRANCH   7   8
ATOM      8  C   UNL     1     146.777  38.242  -7.021  1.00  0.00     0.000 C 
BRANCH   8   9
ATOM      9  C   UNL     1     145.609  37.253  -7.156  1.00  0.00     0.000 C 
BRANCH   9  10
ATOM     10  C   UNL     1     144.354  37.713  -6.392  1.00  0.00     0.000 C 
BRANCH  10  11
ATOM     11  C   UNL     1     143.733  38.988  -6.986  1.00  0.00     0.000 C 
BRANCH  11  12
ATOM     12  C   UNL     1     143.698  40.152  -5.985  1.00  0.00     0.006 C 
BRANCH  12  13
ATOM     13  C   UNL     1     144.309  39.746  -4.641  1.00  0.00     0.053 C 
BRANCH  13  14
ATOM     14  C   UNL     1     145.401  40.693  -4.256  1.00  0.00     0.041 C 
ATOM     15  O   UNL     1     146.157  41.182  -5.137  1.00  0.00    -0.550 OA
ATOM     16  O   UNL     1     145.618  40.999  -2.918  1.00  0.00    -0.550 OA
ENDBRANCH  13  14
ENDBRANCH  12  13
ENDBRANCH  11  12
ENDBRANCH  10  11
ENDBRANCH   9  10
ENDBRANCH   8   9
ENDBRANCH   7   8
ENDBRANCH   6   7
ENDBRANCH   5   6
ENDBRANCH   4   5
ENDBRANCH   3   4
ENDBRANCH   2   3
ENDBRANCH   1   2
BRANCH   1  17
ATOM     17  C   UNL     1     144.251  41.877 -12.058  1.00  0.00     0.000 C 
BRANCH  17  18
ATOM     18  C   UNL     1     144.172  40.796 -13.157  1.00  0.00     0.000 C 
BRANCH  18  19
ATOM     19  C   UNL     1     145.527  40.120 -13.417  1.00  0.00     0.000 C 
BRANCH  19  20
ATOM     20  C   UNL     1     146.212  39.729 -12.098  1.00  0.00     0.000 C 
BRANCH  20  21
ATOM     21  C   UNL     1     146.575  38.233 -12.033  1.00  0.00     0.000 C 
BRANCH  21  22
ATOM     22  C   UNL     1     145.618  37.368 -11.191  1.00  0.00    -0.000 C 
BRANCH  22  23
ATOM     23  C   UNL     1     144.496  38.146 -10.480  1.00  0.00    -0.000 C 
BRANCH  23  24
ATOM     24  C   UNL     1     143.076  37.639 -10.818  1.00  0.00    -0.000 C 
BRANCH  24  25
ATOM     25  C   UNL     1     142.984  36.876 -12.151  1.00  0.00    -0.000 C 
BRANCH  25  26
ATOM     26  C   UNL     1     142.143  37.625 -13.198  1.00  0.00    -0.000 C 
BRANCH  26  27
ATOM     27  C   UNL     1     141.285  38.739 -12.577  1.00  0.00    -0.000 C 
BRANCH  27  28
ATOM     28  C   UNL     1     140.573  39.619 -13.630  1.00  0.00    -0.000 C 
BRANCH  28  29
ATOM     29  C   UNL     1     140.508  41.091 -13.205  1.00  0.00    -0.003 C 
ATOM     30  C   UNL     1     139.448  41.312 -12.127  1.00  0.00     0.004 C 
ENDBRANCH  28  29
ENDBRANCH  27  28
ENDBRANCH  26  27
ENDBRANCH  25  26
ENDBRANCH  24  25
ENDBRANCH  23  24
ENDBRANCH  22  23
ENDBRANCH  21  22
ENDBRANCH  20  21
ENDBRANCH  19  20
ENDBRANCH  18  19
ENDBRANCH  17  18
ENDBRANCH   1  17
TORSDOF 26
ENDMDL
MODEL 3
REMARK VINA RESULT:    -0.908      2.017      4.042
REMARK INTER + INTRA:          -8.600
REMARK INTER:                  -2.246
REMARK INTRA:                  -6.354
REMARK UNBOUND:                -6.312
REMARK SMILES CCCCCCCCCCCCCCCCCCCCCCCCCCCC(=O)[O-]
REMARK SMILES IDX 15 1 16 2 17 3 18 4 19 5 20 6 21 7 22 8 23 9 24 10 25 11
REMARK SMILES IDX 26 12 27 13 28 14 29 15 30 16 14 17 13 18 12 19 11 20 10 21
REMARK SMILES IDX 9 22 8 23 7 24 6 25 5 26 4 27 3 28 2 29 1 30
REMARK H PARENT
REMARK Flexibility Score: inf
ROOT
ATOM      1  C   UNL     1     143.585  41.473  -9.689  1.00  0.00     0.000 C 
ENDROOT
BRANCH   1   2
ATOM      2  C   UNL     1     144.271  42.307 -10.782  1.00  0.00     0.000 C 
BRANCH   2   3
ATOM      3  C   UNL     1     145.729  41.920 -11.099  1.00  0.00     0.000 C 
BRANCH   3   4
ATOM      4  C   UNL     1     146.789  42.803 -10.407  1.00  0.00     0.000 C 
BRANCH   4   5
ATOM      5  C   UNL     1     147.947  41.995  -9.790  1.00  0.00     0.000 C 
BRANCH   5   6
ATOM      6  C   UNL     1     147.729  40.477  -9.895  1.00  0.00     0.000 C 
BRANCH   6   7
ATOM      7  C   UNL     1     147.697  39.778  -8.528  1.00  0.00     0.000 C 
BRANCH   7   8
ATOM      8  C   UNL     1     146.364  40.056  -7.816  1.00  0.00     0.000 C 
BRANCH   8   9
ATOM      9  C   UNL     1     146.540  40.418  -6.333  1.00  0.00     0.000 C 
BRANCH   9  10
ATOM     10  C   UNL     1     145.704  41.644  -5.921  1.00  0.00     0.000 C 
BRANCH  10  11
ATOM     11  C   UNL     1     145.808  42.798  -6.930  1.00  0.00     0.000 C 
BRANCH  11  12
ATOM     12  C   UNL     1     144.623  43.773  -6.842  1.00  0.00     0.006 C 
BRANCH  12  13
ATOM     13  C   UNL     1     143.350  43.056  -6.382  1.00  0.00     0.053 C 
BRANCH  13  14
ATOM     14  C   UNL     1     142.721  43.789  -5.240  1.00  0.00     0.041 C 
ATOM     15  O   UNL     1     143.278  43.803  -4.111  1.00  0.00    -0.550 OA
ATOM     16  O   UNL     1     141.494  44.417  -5.408  1.00  0.00    -0.550 OA
ENDBRANCH  13  14
ENDBRANCH  12  13
ENDBRANCH  11  12
ENDBRANCH  10  11
ENDBRANCH   9  10
ENDBRANCH   8   9
ENDBRANCH   7   8
ENDBRANCH   6   7
ENDBRANCH   5   6
ENDBRANCH   4   5
ENDBRANCH   3   4
ENDBRANCH   2   3
ENDBRANCH   1   2
BRANCH   1  17
ATOM     17  C   UNL     1     142.285  40.764 -10.120  1.00  0.00     0.000 C 
BRANCH  17  18
ATOM     18  C   UNL     1     142.017  40.814 -11.640  1.00  0.00     0.000 C 
BRANCH  18  19
ATOM     19  C   UNL     1     141.142  39.648 -12.122  1.00  0.00     0.000 C 
BRANCH  19  20
ATOM     20  C   UNL     1     141.205  38.466 -11.142  1.00  0.00     0.000 C 
BRANCH  20  21
ATOM     21  C   UNL     1     141.561  37.135 -11.832  1.00  0.00     0.000 C 
BRANCH  21  22
ATOM     22  C   UNL     1     142.456  37.268 -13.078  1.00  0.00    -0.000 C 
BRANCH  22  23
ATOM     23  C   UNL     1     143.955  37.021 -12.828  1.00  0.00    -0.000 C 
BRANCH  23  24
ATOM     24  C   UNL     1     144.723  38.278 -12.358  1.00  0.00    -0.000 C 
BRANCH  24  25
ATOM     25  C   UNL     1     145.039  38.292 -10.852  1.00  0.00    -0.000 C 
BRANCH  25  26
ATOM     26  C   UNL     1     145.071  36.879 -10.246  1.00  0.00    -0.000 C 
BRANCH  26  27
ATOM     27  C   UNL     1     144.747  36.876  -8.744  1.00  0.00    -0.000 C 
BRANCH  27  28
ATOM     28  C   UNL     1     143.468  37.670  -8.394  1.00  0.00    -0.000 C 
BRANCH  28  29
ATOM     29  C   UNL     1     143.389  38.014  -6.902  1.00  0.00    -0.003 C 
ATOM     30  C   UNL     1     142.810  39.410  -6.683  1.00  0.00     0.004 C 
ENDBRANCH  28  29
ENDBRANCH  27  28
ENDBRANCH  26  27
ENDBRANCH  25  26
ENDBRANCH  24  25
ENDBRANCH  23  24
ENDBRANCH  22  23
ENDBRANCH  21  22
ENDBRANCH  20  21
ENDBRANCH  19  20
ENDBRANCH  18  19
ENDBRANCH  17  18
ENDBRANCH   1  17
TORSDOF 26
ENDMDL
MODEL 4
REMARK VINA RESULT:    -0.903      1.636      3.685
REMARK INTER + INTRA:          -8.588
REMARK INTER:                  -2.710
REMARK INTRA:                  -5.877
REMARK UNBOUND:                -6.312
REMARK SMILES CCCCCCCCCCCCCCCCCCCCCCCCCCCC(=O)[O-]
REMARK SMILES IDX 15 1 16 2 17 3 18 4 19 5 20 6 21 7 22 8 23 9 24 10 25 11
REMARK SMILES IDX 26 12 27 13 28 14 29 15 30 16 14 17 13 18 12 19 11 20 10 21
REMARK SMILES IDX 9 22 8 23 7 24 6 25 5 26 4 27 3 28 2 29 1 30
REMARK H PARENT
REMARK Flexibility Score: inf
ROOT
ATOM      1  C   UNL     1     143.622  39.426  -8.028  1.00  0.00     0.000 C 
ENDROOT
BRANCH   1   2
ATOM      2  C   UNL     1     143.014  40.813  -7.764  1.00  0.00     0.000 C 
BRANCH   2   3
ATOM      3  C   UNL     1     144.027  41.938  -7.470  1.00  0.00     0.000 C 
BRANCH   3   4
ATOM      4  C   UNL     1     144.705  42.531  -8.723  1.00  0.00     0.000 C 
BRANCH   4   5
ATOM      5  C   UNL     1     146.244  42.448  -8.679  1.00  0.00     0.000 C 
BRANCH   5   6
ATOM      6  C   UNL     1     146.823  41.607  -9.828  1.00  0.00     0.000 C 
BRANCH   6   7
ATOM      7  C   UNL     1     147.822  40.543  -9.350  1.00  0.00     0.000 C 
BRANCH   7   8
ATOM      8  C   UNL     1     147.561  40.186  -7.879  1.00  0.00     0.000 C 
BRANCH   8   9
ATOM      9  C   UNL     1     147.306  38.687  -7.661  1.00  0.00     0.000 C 
BRANCH   9  10
ATOM     10  C   UNL     1     146.416  38.411  -6.435  1.00  0.00     0.000 C 
BRANCH  10  11
ATOM     11  C   UNL     1     146.461  39.548  -5.401  1.00  0.00     0.000 C 
BRANCH  11  12
ATOM     12  C   UNL     1     145.490  39.326  -4.232  1.00  0.00     0.006 C 
BRANCH  12  13
ATOM     13  C   UNL     1     144.302  40.291  -4.309  1.00  0.00     0.053 C 
BRANCH  13  14
ATOM     14  C   UNL     1     144.606  41.554  -3.566  1.00  0.00     0.041 C 
ATOM     15  O   UNL     1     144.037  42.630  -3.886  1.00  0.00    -0.550 OA
ATOM     16  O   UNL     1     145.556  41.554  -2.553  1.00  0.00    -0.550 OA
ENDBRANCH  13  14
ENDBRANCH  12  13
ENDBRANCH  11  12
ENDBRANCH  10  11
ENDBRANCH   9  10
ENDBRANCH   8   9
ENDBRANCH   7   8
ENDBRANCH   6   7
ENDBRANCH   5   6
ENDBRANCH   4   5
ENDBRANCH   3   4
ENDBRANCH   2   3
ENDBRANCH   1   2
BRANCH   1  17
ATOM     17  C   UNL     1     142.611  38.262  -8.069  1.00  0.00     0.000 C 
BRANCH  17  18
ATOM     18  C   UNL     1     141.738  38.234  -9.342  1.00  0.00     0.000 C 
BRANCH  18  19
ATOM     19  C   UNL     1     141.835  36.898 -10.094  1.00  0.00     0.000 C 
BRANCH  19  20
ATOM     20  C   UNL     1     141.343  37.041 -11.543  1.00  0.00     0.000 C 
BRANCH  20  21
ATOM     21  C   UNL     1     142.474  36.875 -12.577  1.00  0.00     0.000 C 
BRANCH  21  22
ATOM     22  C   UNL     1     142.280  37.664 -13.885  1.00  0.00    -0.000 C 
BRANCH  22  23
ATOM     23  C   UNL     1     141.456  38.957 -13.747  1.00  0.00    -0.000 C 
BRANCH  23  24
ATOM     24  C   UNL     1     142.317  40.231 -13.603  1.00  0.00    -0.000 C 
BRANCH  24  25
ATOM     25  C   UNL     1     142.466  40.726 -12.153  1.00  0.00    -0.000 C 
BRANCH  25  26
ATOM     26  C   UNL     1     143.860  40.433 -11.573  1.00  0.00    -0.000 C 
BRANCH  26  27
ATOM     27  C   UNL     1     144.858  39.967 -12.645  1.00  0.00    -0.000 C 
BRANCH  27  28
ATOM     28  C   UNL     1     145.802  38.847 -12.153  1.00  0.00    -0.000 C 
BRANCH  28  29
ATOM     29  C   UNL     1     145.249  38.124 -10.918  1.00  0.00    -0.003 C 
ATOM     30  C   UNL     1     146.159  36.972 -10.496  1.00  0.00     0.004 C 
ENDBRANCH  28  29
ENDBRANCH  27  28
ENDBRANCH  26  27
ENDBRANCH  25  26
ENDBRANCH  24  25
ENDBRANCH  23  24
ENDBRANCH  22  23
ENDBRANCH  21  22
ENDBRANCH  20  21
ENDBRANCH  19  20
ENDBRANCH  18  19
ENDBRANCH  17  18
ENDBRANCH   1  17
TORSDOF 26
ENDMDL
MODEL 5
REMARK VINA RESULT:    -0.880      2.859      5.989
REMARK INTER + INTRA:          -8.530
REMARK INTER:                  -2.219
REMARK INTRA:                  -6.311
REMARK UNBOUND:                -6.312
REMARK SMILES CCCCCCCCCCCCCCCCCCCCCCCCCCCC(=O)[O-]
REMARK SMILES IDX 15 1 16 2 17 3 18 4 19 5 20 6 21 7 22 8 23 9 24 10 25 11
REMARK SMILES IDX 26 12 27 13 28 14 29 15 30 16 14 17 13 18 12 19 11 20 10 21
REMARK SMILES IDX 9 22 8 23 7 24 6 25 5 26 4 27 3 28 2 29 1 30
REMARK H PARENT
REMARK Flexibility Score: inf
ROOT
ATOM      1  C   UNL     1     142.319  41.756  -7.705  1.00  0.00     0.000 C 
ENDROOT
BRANCH   1   2
ATOM      2  C   UNL     1     143.515  42.365  -8.455  1.00  0.00     0.000 C 
BRANCH   2   3
ATOM      3  C   UNL     1     143.681  41.916  -9.920  1.00  0.00     0.000 C 
BRANCH   3   4
ATOM      4  C   UNL     1     144.379  40.551 -10.095  1.00  0.00     0.000 C 
BRANCH   4   5
ATOM      5  C   UNL     1     144.805  40.266 -11.549  1.00  0.00     0.000 C 
BRANCH   5   6
ATOM      6  C   UNL     1     144.365  38.874 -12.030  1.00  0.00     0.000 C 
BRANCH   6   7
ATOM      7  C   UNL     1     144.689  37.760 -11.024  1.00  0.00     0.000 C 
BRANCH   7   8
ATOM      8  C   UNL     1     143.399  37.067 -10.559  1.00  0.00     0.000 C 
BRANCH   8   9
ATOM      9  C   UNL     1     143.095  37.301  -9.071  1.00  0.00     0.000 C 
BRANCH   9  10
ATOM     10  C   UNL     1     141.854  38.187  -8.855  1.00  0.00     0.000 C 
BRANCH  10  11
ATOM     11  C   UNL     1     140.974  38.292 -10.110  1.00  0.00     0.000 C 
BRANCH  11  12
ATOM     12  C   UNL     1     140.757  39.743 -10.564  1.00  0.00     0.006 C 
BRANCH  12  13
ATOM     13  C   UNL     1     140.903  39.876 -12.083  1.00  0.00     0.053 C 
BRANCH  13  14
ATOM     14  C   UNL     1     141.165  41.300 -12.461  1.00  0.00     0.041 C 
ATOM     15  O   UNL     1     142.003  41.574 -13.360  1.00  0.00    -0.550 OA
ATOM     16  O   UNL     1     140.521  42.328 -11.786  1.00  0.00    -0.550 OA
ENDBRANCH  13  14
ENDBRANCH  12  13
ENDBRANCH  11  12
ENDBRANCH  10  11
ENDBRANCH   9  10
ENDBRANCH   8   9
ENDBRANCH   7   8
ENDBRANCH   6   7
ENDBRANCH   5   6
ENDBRANCH   4   5
ENDBRANCH   3   4
ENDBRANCH   2   3
ENDBRANCH   1   2
BRANCH   1  17
ATOM     17  C   UNL     1     142.679  40.918  -6.462  1.00  0.00     0.000 C 
BRANCH  17  18
ATOM     18  C   UNL     1     144.090  40.292  -6.515  1.00  0.00     0.000 C 
BRANCH  18  19
ATOM     19  C   UNL     1     144.962  40.704  -5.319  1.00  0.00     0.000 C 
BRANCH  19  20
ATOM     20  C   UNL     1     145.941  39.583  -4.936  1.00  0.00     0.000 C 
BRANCH  20  21
ATOM     21  C   UNL     1     145.562  38.222  -5.550  1.00  0.00     0.000 C 
BRANCH  21  22
ATOM     22  C   UNL     1     146.635  37.598  -6.462  1.00  0.00    -0.000 C 
BRANCH  22  23
ATOM     23  C   UNL     1     146.509  37.958  -7.953  1.00  0.00    -0.000 C 
BRANCH  23  24
ATOM     24  C   UNL     1     147.821  38.479  -8.581  1.00  0.00    -0.000 C 
BRANCH  24  25
ATOM     25  C   UNL     1     147.792  39.975  -8.941  1.00  0.00    -0.000 C 
BRANCH  25  26
ATOM     26  C   UNL     1     147.986  40.879  -7.712  1.00  0.00    -0.000 C 
BRANCH  26  27
ATOM     27  C   UNL     1     147.238  42.215  -7.840  1.00  0.00    -0.000 C 
BRANCH  27  28
ATOM     28  C   UNL     1     147.188  42.749  -9.289  1.00  0.00    -0.000 C 
BRANCH  28  29
ATOM     29  C   UNL     1     146.997  44.270  -9.340  1.00  0.00    -0.003 C 
ATOM     30  C   UNL     1     146.156  44.685 -10.546  1.00  0.00     0.004 C 
ENDBRANCH  28  29
ENDBRANCH  27  28
ENDBRANCH  26  27
ENDBRANCH  25  26
ENDBRANCH  24  25
ENDBRANCH  23  24
ENDBRANCH  22  23
ENDBRANCH  21  22
ENDBRANCH  20  21
ENDBRANCH  19  20
ENDBRANCH  18  19
ENDBRANCH  17  18
ENDBRANCH   1  17
TORSDOF 26
ENDMDL
MODEL 6
REMARK VINA RESULT:    -0.877      2.930      6.443
REMARK INTER + INTRA:          -8.521
REMARK INTER:                  -2.385
REMARK INTRA:                  -6.136
REMARK UNBOUND:                -6.312
REMARK SMILES CCCCCCCCCCCCCCCCCCCCCCCCCCCC(=O)[O-]
REMARK SMILES IDX 15 1 16 2 17 3 18 4 19 5 20 6 21 7 22 8 23 9 24 10 25 11
REMARK SMILES IDX 26 12 27 13 28 14 29 15 30 16 14 17 13 18 12 19 11 20 10 21
REMARK SMILES IDX 9 22 8 23 7 24 6 25 5 26 4 27 3 28 2 29 1 30
REMARK H PARENT
REMARK Flexibility Score: inf
ROOT
ATOM      1  C   UNL     1     143.285  40.810  -8.091  1.00  0.00     0.000 C 
ENDROOT
BRANCH   1   2
ATOM      2  C   UNL     1     142.109  41.200  -9.000  1.00  0.00     0.000 C 
BRANCH   2   3
ATOM      3  C   UNL     1     141.892  40.297 -10.231  1.00  0.00     0.000 C 
BRANCH   3   4
ATOM      4  C   UNL     1     140.669  39.362 -10.131  1.00  0.00     0.000 C 
BRANCH   4   5
ATOM      5  C   UNL     1     140.988  37.899 -10.495  1.00  0.00     0.000 C 
BRANCH   5   6
ATOM      6  C   UNL     1     142.459  37.698 -10.894  1.00  0.00     0.000 C 
BRANCH   6   7
ATOM      7  C   UNL     1     142.626  36.875 -12.180  1.00  0.00     0.000 C 
BRANCH   7   8
ATOM      8  C   UNL     1     142.152  37.683 -13.398  1.00  0.00     0.000 C 
BRANCH   8   9
ATOM      9  C   UNL     1     143.005  38.934 -13.657  1.00  0.00     0.000 C 
BRANCH   9  10
ATOM     10  C   UNL     1     142.152  40.202 -13.848  1.00  0.00     0.000 C 
BRANCH  10  11
ATOM     11  C   UNL     1     140.657  39.890 -14.021  1.00  0.00     0.000 C 
BRANCH  11  12
ATOM     12  C   UNL     1     139.751  40.942 -13.364  1.00  0.00     0.006 C 
BRANCH  12  13
ATOM     13  C   UNL     1     140.535  42.212 -13.022  1.00  0.00     0.053 C 
BRANCH  13  14
ATOM     14  C   UNL     1     139.813  43.008 -11.981  1.00  0.00     0.041 C 
ATOM     15  O   UNL     1     139.138  42.425 -11.092  1.00  0.00    -0.550 OA
ATOM     16  O   UNL     1     139.843  44.396 -12.022  1.00  0.00    -0.550 OA
ENDBRANCH  13  14
ENDBRANCH  12  13
ENDBRANCH  11  12
ENDBRANCH  10  11
ENDBRANCH   9  10
ENDBRANCH   8   9
ENDBRANCH   7   8
ENDBRANCH   6   7
ENDBRANCH   5   6
ENDBRANCH   4   5
ENDBRANCH   3   4
ENDBRANCH   2   3
ENDBRANCH   1   2
BRANCH   1  17
ATOM     17  C   UNL     1     142.968  39.738  -7.028  1.00  0.00     0.000 C 
BRANCH  17  18
ATOM     18  C   UNL     1     143.472  38.325  -7.392  1.00  0.00     0.000 C 
BRANCH  18  19
ATOM     19  C   UNL     1     144.631  37.864  -6.496  1.00  0.00     0.000 C 
BRANCH  19  20
ATOM     20  C   UNL     1     144.919  38.893  -5.390  1.00  0.00     0.000 C 
BRANCH  20  21
ATOM     21  C   UNL     1     146.303  39.554  -5.534  1.00  0.00     0.000 C 
BRANCH  21  22
ATOM     22  C   UNL     1     146.285  40.979  -6.118  1.00  0.00    -0.000 C 
BRANCH  22  23
ATOM     23  C   UNL     1     147.049  41.145  -7.444  1.00  0.00    -0.000 C 
BRANCH  23  24
ATOM     24  C   UNL     1     147.812  39.877  -7.887  1.00  0.00    -0.000 C 
BRANCH  24  25
ATOM     25  C   UNL     1     147.670  39.550  -9.384  1.00  0.00    -0.000 C 
BRANCH  25  26
ATOM     26  C   UNL     1     146.378  38.777  -9.696  1.00  0.00    -0.000 C 
BRANCH  26  27
ATOM     27  C   UNL     1     145.464  39.528 -10.677  1.00  0.00    -0.000 C 
BRANCH  27  28
ATOM     28  C   UNL     1     146.017  40.912 -11.087  1.00  0.00    -0.000 C 
BRANCH  28  29
ATOM     29  C   UNL     1     145.004  41.720 -11.907  1.00  0.00    -0.003 C 
ATOM     30  C   UNL     1     144.536  42.959 -11.146  1.00  0.00     0.004 C 
ENDBRANCH  28  29
ENDBRANCH  27  28
ENDBRANCH  26  27
ENDBRANCH  25  26
ENDBRANCH  24  25
ENDBRANCH  23  24
ENDBRANCH  22  23
ENDBRANCH  21  22
ENDBRANCH  20  21
ENDBRANCH  19  20
ENDBRANCH  18  19
ENDBRANCH  17  18
ENDBRANCH   1  17
TORSDOF 26
ENDMDL
MODEL 7
REMARK VINA RESULT:    -0.872      2.240      6.309
REMARK INTER + INTRA:          -8.510
REMARK INTER:                  -2.619
REMARK INTRA:                  -5.891
REMARK UNBOUND:                -6.312
REMARK SMILES CCCCCCCCCCCCCCCCCCCCCCCCCCCC(=O)[O-]
REMARK SMILES IDX 15 1 16 2 17 3 18 4 19 5 20 6 21 7 22 8 23 9 24 10 25 11
REMARK SMILES IDX 26 12 27 13 28 14 29 15 30 16 14 17 13 18 12 19 11 20 10 21
REMARK SMILES IDX 9 22 8 23 7 24 6 25 5 26 4 27 3 28 2 29 1 30
REMARK H PARENT
REMARK Flexibility Score: inf
ROOT
ATOM      1  C   UNL     1     144.105  41.169  -8.600  1.00  0.00     0.000 C 
ENDROOT
BRANCH   1   2
ATOM      2  C   UNL     1     143.927  40.064  -9.653  1.00  0.00     0.000 C 
BRANCH   2   3
ATOM      3  C   UNL     1     144.225  38.630  -9.171  1.00  0.00     0.000 C 
BRANCH   3   4
ATOM      4  C   UNL     1     144.732  37.677 -10.273  1.00  0.00     0.000 C 
BRANCH   4   5
ATOM      5  C   UNL     1     145.388  38.411 -11.459  1.00  0.00     0.000 C 
BRANCH   5   6
ATOM      6  C   UNL     1     144.676  38.132 -12.793  1.00  0.00     0.000 C 
BRANCH   6   7
ATOM      7  C   UNL     1     143.689  39.240 -13.190  1.00  0.00     0.000 C 
BRANCH   7   8
ATOM      8  C   UNL     1     142.244  38.727 -13.100  1.00  0.00     0.000 C 
BRANCH   8   9
ATOM      9  C   UNL     1     142.159  37.216 -12.834  1.00  0.00     0.000 C 
BRANCH   9  10
ATOM     10  C   UNL     1     141.325  36.882 -11.583  1.00  0.00     0.000 C 
BRANCH  10  11
ATOM     11  C   UNL     1     140.968  38.129 -10.759  1.00  0.00     0.000 C 
BRANCH  11  12
ATOM     12  C   UNL     1     140.139  37.798  -9.509  1.00  0.00     0.006 C 
BRANCH  12  13
ATOM     13  C   UNL     1     141.039  37.384  -8.341  1.00  0.00     0.053 C 
BRANCH  13  14
ATOM     14  C   UNL     1     140.774  38.246  -7.147  1.00  0.00     0.041 C 
ATOM     15  O   UNL     1     141.566  39.180  -6.850  1.00  0.00    -0.550 OA
ATOM     16  O   UNL     1     139.680  37.988  -6.331  1.00  0.00    -0.550 OA
ENDBRANCH  13  14
ENDBRANCH  12  13
ENDBRANCH  11  12
ENDBRANCH  10  11
ENDBRANCH   9  10
ENDBRANCH   8   9
ENDBRANCH   7   8
ENDBRANCH   6   7
ENDBRANCH   5   6
ENDBRANCH   4   5
ENDBRANCH   3   4
ENDBRANCH   2   3
ENDBRANCH   1   2
BRANCH   1  17
ATOM     17  C   UNL     1     145.534  41.734  -8.476  1.00  0.00     0.000 C 
BRANCH  17  18
ATOM     18  C   UNL     1     146.395  41.549  -9.744  1.00  0.00     0.000 C 
BRANCH  18  19
ATOM     19  C   UNL     1     147.652  40.705  -9.485  1.00  0.00     0.000 C 
BRANCH  19  20
ATOM     20  C   UNL     1     147.650  40.132  -8.059  1.00  0.00     0.000 C 
BRANCH  20  21
ATOM     21  C   UNL     1     147.711  38.593  -8.032  1.00  0.00     0.000 C 
BRANCH  21  22
ATOM     22  C   UNL     1     146.819  37.925  -6.969  1.00  0.00    -0.000 C 
BRANCH  22  23
ATOM     23  C   UNL     1     146.411  38.838  -5.798  1.00  0.00    -0.000 C 
BRANCH  23  24
ATOM     24  C   UNL     1     144.883  39.016  -5.652  1.00  0.00    -0.000 C 
BRANCH  24  25
ATOM     25  C   UNL     1     144.472  40.042  -4.582  1.00  0.00    -0.000 C 
BRANCH  25  26
ATOM     26  C   UNL     1     145.181  41.395  -4.763  1.00  0.00    -0.000 C 
BRANCH  26  27
ATOM     27  C   UNL     1     144.203  42.533  -5.097  1.00  0.00    -0.000 C 
BRANCH  27  28
ATOM     28  C   UNL     1     142.731  42.067  -5.178  1.00  0.00    -0.000 C 
BRANCH  28  29
ATOM     29  C   UNL     1     141.902  42.933  -6.135  1.00  0.00    -0.003 C 
ATOM     30  C   UNL     1     142.732  44.081  -6.705  1.00  0.00     0.004 C 
ENDBRANCH  28  29
ENDBRANCH  27  28
ENDBRANCH  26  27
ENDBRANCH  25  26
ENDBRANCH  24  25
ENDBRANCH  23  24
ENDBRANCH  22  23
ENDBRANCH  21  22
ENDBRANCH  20  21
ENDBRANCH  19  20
ENDBRANCH  18  19
ENDBRANCH  17  18
ENDBRANCH   1  17
TORSDOF 26
ENDMDL
MODEL 8
REMARK VINA RESULT:    -0.809      2.373      5.396
REMARK INTER + INTRA:          -8.351
REMARK INTER:                  -2.207
REMARK INTRA:                  -6.144
REMARK UNBOUND:                -6.312
REMARK SMILES CCCCCCCCCCCCCCCCCCCCCCCCCCCC(=O)[O-]
REMARK SMILES IDX 15 1 16 2 17 3 18 4 19 5 20 6 21 7 22 8 23 9 24 10 25 11
REMARK SMILES IDX 26 12 27 13 28 14 29 15 30 16 14 17 13 18 12 19 11 20 10 21
REMARK SMILES IDX 9 22 8 23 7 24 6 25 5 26 4 27 3 28 2 29 1 30
REMARK H PARENT
REMARK Flexibility Score: inf
ROOT
ATOM      1  C   UNL     1     143.926  41.596  -9.227  1.00  0.00     0.000 C 
ENDROOT
BRANCH   1   2
ATOM      2  C   UNL     1     144.118  40.138  -8.781  1.00  0.00     0.000 C 
BRANCH   2   3
ATOM      3  C   UNL     1     142.822  39.342  -8.530  1.00  0.00     0.000 C 
BRANCH   3   4
ATOM      4  C   UNL     1     142.942  37.826  -8.788  1.00  0.00     0.000 C 
BRANCH   4   5
ATOM      5  C   UNL     1     141.769  37.252  -9.607  1.00  0.00     0.000 C 
BRANCH   5   6
ATOM      6  C   UNL     1     142.139  37.015 -11.081  1.00  0.00     0.000 C 
BRANCH   6   7
ATOM      7  C   UNL     1     141.401  37.956 -12.044  1.00  0.00     0.000 C 
BRANCH   7   8
ATOM      8  C   UNL     1     142.380  38.971 -12.656  1.00  0.00     0.000 C 
BRANCH   8   9
ATOM      9  C   UNL     1     142.086  40.418 -12.233  1.00  0.00     0.000 C 
BRANCH   9  10
ATOM     10  C   UNL     1     140.693  40.576 -11.594  1.00  0.00     0.000 C 
BRANCH  10  11
ATOM     11  C   UNL     1     140.658  41.665 -10.510  1.00  0.00     0.000 C 
BRANCH  11  12
ATOM     12  C   UNL     1     139.555  41.430  -9.468  1.00  0.00     0.006 C 
BRANCH  12  13
ATOM     13  C   UNL     1     139.268  39.935  -9.293  1.00  0.00     0.053 C 
BRANCH  13  14
ATOM     14  C   UNL     1     138.923  39.632  -7.869  1.00  0.00     0.041 C 
ATOM     15  O   UNL     1     139.529  38.718  -7.251  1.00  0.00    -0.550 OA
ATOM     16  O   UNL     1     137.898  40.325  -7.239  1.00  0.00    -0.550 OA
ENDBRANCH  13  14
ENDBRANCH  12  13
ENDBRANCH  11  12
ENDBRANCH  10  11
ENDBRANCH   9  10
ENDBRANCH   8   9
ENDBRANCH   7   8
ENDBRANCH   6   7
ENDBRANCH   5   6
ENDBRANCH   4   5
ENDBRANCH   3   4
ENDBRANCH   2   3
ENDBRANCH   1   2
BRANCH   1  17
ATOM     17  C   UNL     1     144.407  42.660  -8.221  1.00  0.00     0.000 C 
BRANCH  17  18
ATOM     18  C   UNL     1     145.288  42.097  -7.085  1.00  0.00     0.000 C 
BRANCH  18  19
ATOM     19  C   UNL     1     146.789  42.260  -7.368  1.00  0.00     0.000 C 
BRANCH  19  20
ATOM     20  C   UNL     1     147.552  40.959  -7.074  1.00  0.00     0.000 C 
BRANCH  20  21
ATOM     21  C   UNL     1     147.894  40.165  -8.349  1.00  0.00     0.000 C 
BRANCH  21  22
ATOM     22  C   UNL     1     147.547  38.666  -8.295  1.00  0.00    -0.000 C 
BRANCH  22  23
ATOM     23  C   UNL     1     147.621  37.934  -9.647  1.00  0.00    -0.000 C 
BRANCH  23  24
ATOM     24  C   UNL     1     146.290  37.274 -10.072  1.00  0.00    -0.000 C 
BRANCH  24  25
ATOM     25  C   UNL     1     145.654  37.897 -11.328  1.00  0.00    -0.000 C 
BRANCH  25  26
ATOM     26  C   UNL     1     146.565  38.947 -11.987  1.00  0.00    -0.000 C 
BRANCH  26  27
ATOM     27  C   UNL     1     145.884  40.319 -12.114  1.00  0.00    -0.000 C 
BRANCH  27  28
ATOM     28  C   UNL     1     146.730  41.475 -11.536  1.00  0.00    -0.000 C 
BRANCH  28  29
ATOM     29  C   UNL     1     146.198  42.850 -11.959  1.00  0.00    -0.003 C 
ATOM     30  C   UNL     1     144.854  42.729 -12.675  1.00  0.00     0.004 C 
ENDBRANCH  28  29
ENDBRANCH  27  28
ENDBRANCH  26  27
ENDBRANCH  25  26
ENDBRANCH  24  25
ENDBRANCH  23  24
ENDBRANCH  22  23
ENDBRANCH  21  22
ENDBRANCH  20  21
ENDBRANCH  19  20
ENDBRANCH  18  19
ENDBRANCH  17  18
ENDBRANCH   1  17
TORSDOF 26
ENDMDL
MODEL 9
REMARK VINA RESULT:    -0.806      1.866      3.784
REMARK INTER + INTRA:          -8.343
REMARK INTER:                  -2.129
REMARK INTRA:                  -6.214
REMARK UNBOUND:                -6.312
REMARK SMILES CCCCCCCCCCCCCCCCCCCCCCCCCCCC(=O)[O-]
REMARK SMILES IDX 15 1 16 2 17 3 18 4 19 5 20 6 21 7 22 8 23 9 24 10 25 11
REMARK SMILES IDX 26 12 27 13 28 14 29 15 30 16 14 17 13 18 12 19 11 20 10 21
REMARK SMILES IDX 9 22 8 23 7 24 6 25 5 26 4 27 3 28 2 29 1 30
REMARK H PARENT
REMARK Flexibility Score: inf
ROOT
ATOM      1  C   UNL     1     143.533  41.248  -9.000  1.00  0.00     0.000 C 
ENDROOT
BRANCH   1   2
ATOM      2  C   UNL     1     144.186  42.550  -8.512  1.00  0.00     0.000 C 
BRANCH   2   3
ATOM      3  C   UNL     1     145.728  42.567  -8.523  1.00  0.00     0.000 C 
BRANCH   3   4
ATOM      4  C   UNL     1     146.370  41.627  -9.564  1.00  0.00     0.000 C 
BRANCH   4   5
ATOM      5  C   UNL     1     147.536  40.793  -8.997  1.00  0.00     0.000 C 
BRANCH   5   6
ATOM      6  C   UNL     1     147.944  39.639  -9.928  1.00  0.00     0.000 C 
BRANCH   6   7
ATOM      7  C   UNL     1     147.828  38.260  -9.262  1.00  0.00     0.000 C 
BRANCH   7   8
ATOM      8  C   UNL     1     147.180  38.388  -7.875  1.00  0.00     0.000 C 
BRANCH   8   9
ATOM      9  C   UNL     1     145.859  37.614  -7.755  1.00  0.00     0.000 C 
BRANCH   9  10
ATOM     10  C   UNL     1     144.774  38.410  -7.004  1.00  0.00     0.000 C 
BRANCH  10  11
ATOM     11  C   UNL     1     145.345  39.616  -6.242  1.00  0.00     0.000 C 
BRANCH  11  12
ATOM     12  C   UNL     1     144.440  40.071  -5.088  1.00  0.00     0.006 C 
BRANCH  12  13
ATOM     13  C   UNL     1     143.181  39.204  -4.996  1.00  0.00     0.053 C 
BRANCH  13  14
ATOM     14  C   UNL     1     141.955  40.041  -5.184  1.00  0.00     0.041 C 
ATOM     15  O   UNL     1     140.865  39.696  -4.656  1.00  0.00    -0.550 OA
ATOM     16  O   UNL     1     142.003  41.176  -5.983  1.00  0.00    -0.550 OA
ENDBRANCH  13  14
ENDBRANCH  12  13
ENDBRANCH  11  12
ENDBRANCH  10  11
ENDBRANCH   9  10
ENDBRANCH   8   9
ENDBRANCH   7   8
ENDBRANCH   6   7
ENDBRANCH   5   6
ENDBRANCH   4   5
ENDBRANCH   3   4
ENDBRANCH   2   3
ENDBRANCH   1   2
BRANCH   1  17
ATOM     17  C   UNL     1     142.223  41.426  -9.793  1.00  0.00     0.000 C 
BRANCH  17  18
ATOM     18  C   UNL     1     141.057  40.550  -9.284  1.00  0.00     0.000 C 
BRANCH  18  19
ATOM     19  C   UNL     1     141.115  39.117  -9.832  1.00  0.00     0.000 C 
BRANCH  19  20
ATOM     20  C   UNL     1     141.554  38.125  -8.742  1.00  0.00     0.000 C 
BRANCH  20  21
ATOM     21  C   UNL     1     142.287  36.896  -9.313  1.00  0.00     0.000 C 
BRANCH  21  22
ATOM     22  C   UNL     1     142.519  36.925 -10.834  1.00  0.00    -0.000 C 
BRANCH  22  23
ATOM     23  C   UNL     1     143.988  37.094 -11.263  1.00  0.00    -0.000 C 
BRANCH  23  24
ATOM     24  C   UNL     1     144.550  38.511 -11.013  1.00  0.00    -0.000 C 
BRANCH  24  25
ATOM     25  C   UNL     1     145.190  39.159 -12.254  1.00  0.00    -0.000 C 
BRANCH  25  26
ATOM     26  C   UNL     1     144.526  40.496 -12.627  1.00  0.00    -0.000 C 
BRANCH  26  27
ATOM     27  C   UNL     1     143.528  40.353 -13.787  1.00  0.00    -0.000 C 
BRANCH  27  28
ATOM     28  C   UNL     1     142.140  40.956 -13.474  1.00  0.00    -0.000 C 
BRANCH  28  29
ATOM     29  C   UNL     1     141.026  39.903 -13.527  1.00  0.00    -0.003 C 
ATOM     30  C   UNL     1     141.563  38.549 -13.984  1.00  0.00     0.004 C 
ENDBRANCH  28  29
ENDBRANCH  27  28
ENDBRANCH  26  27
ENDBRANCH  25  26
ENDBRANCH  24  25
ENDBRANCH  23  24
ENDBRANCH  22  23
ENDBRANCH  21  22
ENDBRANCH  20  21
ENDBRANCH  19  20
ENDBRANCH  18  19
ENDBRANCH  17  18
ENDBRANCH   1  17
TORSDOF 26
ENDMDL
