MODEL 1
REMARK VINA RESULT:    -6.986      0.000      0.000
REMARK INTER + INTRA:          -8.476
REMARK INTER:                  -8.211
REMARK INTRA:                  -0.265
REMARK UNBOUND:                -0.265
REMARK SMILES O=c1cc(-c2ccc(O)c(O)c2)oc2cc(O)cc(O)c12
REMARK SMILES IDX 4 1 3 2 2 3 1 4 21 5 19 6 18 7 16 8 15 9 14 10 13 11 5 12
REMARK SMILES IDX 6 13 7 14 8 15 12 16 10 17 9 18 11 20 20 22 17 24
REMARK H PARENT 9 19 11 21 20 23 17 25
REMARK Flexibility Score: inf
ROOT
ATOM      1  C   UNL     1      30.581 -92.264  37.252  1.00  0.00     0.138 A 
ATOM      2  C   UNL     1      29.353 -92.869  36.936  1.00  0.00     0.100 A 
ATOM      3  C   UNL     1      29.208 -94.248  37.093  1.00  0.00     0.197 A 
ATOM      4  O   UNL     1      28.101 -94.782  36.807  1.00  0.00    -0.289 OA
ATOM      5  C   UNL     1      30.291 -95.012  37.569  1.00  0.00     0.107 A 
ATOM      6  C   UNL     1      30.228 -96.414  37.755  1.00  0.00     0.134 A 
ATOM      7  C   UNL     1      31.350 -97.102  38.240  1.00  0.00     0.093 A 
ATOM      8  C   UNL     1      32.531 -96.418  38.540  1.00  0.00     0.123 A 
ATOM      9  C   UNL     1      32.599 -95.032  38.357  1.00  0.00     0.094 A 
ATOM     10  C   UNL     1      31.492 -94.329  37.875  1.00  0.00     0.146 A 
ATOM     11  O   UNL     1      31.581 -93.013  37.709  1.00  0.00    -0.456 OA
ENDROOT
BRANCH   1  12
ATOM     12  C   UNL     1      30.793 -90.801  37.106  1.00  0.00     0.021 A 
ATOM     13  C   UNL     1      31.719 -90.276  36.183  1.00  0.00     0.016 A 
ATOM     14  C   UNL     1      31.906 -88.895  36.075  1.00  0.00     0.051 A 
ATOM     15  C   UNL     1      31.181 -88.018  36.891  1.00  0.00     0.157 A 
ATOM     16  C   UNL     1      30.080 -89.912  37.931  1.00  0.00     0.062 A 
ATOM     17  C   UNL     1      30.268 -88.527  37.822  1.00  0.00     0.158 A 
BRANCH  15  18
ATOM     18  O   UNL     1      31.365 -86.640  36.785  1.00  0.00    -0.504 OA
ATOM     19  H   UNL     1      31.249 -86.027  37.583  1.00  0.00     0.293 HD
ENDBRANCH  15  18
BRANCH  17  20
ATOM     20  O   UNL     1      29.551 -87.652  38.635  1.00  0.00    -0.504 OA
ATOM     21  H   UNL     1      28.923 -87.991  39.354  1.00  0.00     0.293 HD
ENDBRANCH  17  20
ENDBRANCH   1  12
BRANCH   6  22
ATOM     22  O   UNL     1      29.062 -97.124  37.465  1.00  0.00    -0.507 OA
ATOM     23  H   UNL     1      28.176 -96.896  37.901  1.00  0.00     0.293 HD
ENDBRANCH   6  22
BRANCH   8  24
ATOM     24  O   UNL     1      33.631 -97.125  39.019  1.00  0.00    -0.508 OA
ATOM     25  H   UNL     1      34.446 -96.650  39.389  1.00  0.00     0.293 HD
ENDBRANCH   8  24
TORSDOF 5
ENDMDL
MODEL 2
REMARK VINA RESULT:    -6.177      1.250      2.716
REMARK INTER + INTRA:          -7.525
REMARK INTER:                  -7.229
REMARK INTRA:                  -0.296
REMARK UNBOUND:                -0.265
REMARK SMILES O=c1cc(-c2ccc(O)c(O)c2)oc2cc(O)cc(O)c12
REMARK SMILES IDX 4 1 3 2 2 3 1 4 21 5 19 6 18 7 16 8 15 9 14 10 13 11 5 12
REMARK SMILES IDX 6 13 7 14 8 15 12 16 10 17 9 18 11 20 20 22 17 24
REMARK H PARENT 9 19 11 21 20 23 17 25
REMARK Flexibility Score: inf
ROOT
ATOM      1  C   UNL     1      30.765 -92.167  37.323  1.00  0.00     0.138 A 
ATOM      2  C   UNL     1      31.913 -92.879  37.710  1.00  0.00     0.100 A 
ATOM      3  C   UNL     1      31.835 -94.260  37.893  1.00  0.00     0.197 A 
ATOM      4  O   UNL     1      32.872 -94.889  38.239  1.00  0.00    -0.289 OA
ATOM      5  C   UNL     1      30.610 -94.921  37.683  1.00  0.00     0.107 A 
ATOM      6  C   UNL     1      30.445 -96.318  37.847  1.00  0.00     0.134 A 
ATOM      7  C   UNL     1      29.192 -96.902  37.612  1.00  0.00     0.093 A 
ATOM      8  C   UNL     1      28.103 -96.120  37.219  1.00  0.00     0.123 A 
ATOM      9  C   UNL     1      28.260 -94.739  37.055  1.00  0.00     0.094 A 
ATOM     10  C   UNL     1      29.501 -94.138  37.284  1.00  0.00     0.146 A 
ATOM     11  O   UNL     1      29.625 -92.824  37.123  1.00  0.00    -0.456 OA
ENDROOT
BRANCH   1  12
ATOM     12  C   UNL     1      30.788 -90.697  37.112  1.00  0.00     0.021 A 
ATOM     13  C   UNL     1      31.865 -90.059  36.466  1.00  0.00     0.016 A 
ATOM     14  C   UNL     1      31.865 -88.673  36.290  1.00  0.00     0.051 A 
ATOM     15  C   UNL     1      30.797 -87.901  36.763  1.00  0.00     0.157 A 
ATOM     16  C   UNL     1      29.726 -89.911  37.595  1.00  0.00     0.062 A 
ATOM     17  C   UNL     1      29.727 -88.520  37.418  1.00  0.00     0.158 A 
BRANCH  15  18
ATOM     18  O   UNL     1      30.795 -86.518  36.588  1.00  0.00    -0.504 OA
ATOM     19  H   UNL     1      31.654 -85.981  36.597  1.00  0.00     0.293 HD
ENDBRANCH  15  18
BRANCH  17  20
ATOM     20  O   UNL     1      28.667 -87.749  37.890  1.00  0.00    -0.504 OA
ATOM     21  H   UNL     1      28.780 -86.765  38.102  1.00  0.00     0.293 HD
ENDBRANCH  17  20
ENDBRANCH   1  12
BRANCH   6  22
ATOM     22  O   UNL     1      31.513 -97.125  38.239  1.00  0.00    -0.507 OA
ATOM     23  H   UNL     1      31.819 -97.914  37.680  1.00  0.00     0.293 HD
ENDBRANCH   6  22
BRANCH   8  24
ATOM     24  O   UNL     1      26.869 -96.724  36.992  1.00  0.00    -0.508 OA
ATOM     25  H   UNL     1      26.109 -96.227  36.544  1.00  0.00     0.293 HD
ENDBRANCH   8  24
TORSDOF 5
ENDMDL
MODEL 3
REMARK VINA RESULT:    -5.685      9.282     10.895
REMARK INTER + INTRA:          -6.947
REMARK INTER:                  -6.668
REMARK INTRA:                  -0.279
REMARK UNBOUND:                -0.265
REMARK SMILES O=c1cc(-c2ccc(O)c(O)c2)oc2cc(O)cc(O)c12
REMARK SMILES IDX 4 1 3 2 2 3 1 4 21 5 19 6 18 7 16 8 15 9 14 10 13 11 5 12
REMARK SMILES IDX 6 13 7 14 8 15 12 16 10 17 9 18 11 20 20 22 17 24
REMARK H PARENT 9 19 11 21 20 23 17 25
REMARK Flexibility Score: inf
ROOT
ATOM      1  C   UNL     1      37.118 -95.533  30.754  1.00  0.00     0.138 A 
ATOM      2  C   UNL     1      37.753 -96.207  29.698  1.00  0.00     0.100 A 
ATOM      3  C   UNL     1      37.079 -96.379  28.489  1.00  0.00     0.197 A 
ATOM      4  O   UNL     1      37.658 -96.985  27.546  1.00  0.00    -0.289 OA
ATOM      5  C   UNL     1      35.774 -95.869  28.342  1.00  0.00     0.107 A 
ATOM      6  C   UNL     1      35.020 -96.000  27.151  1.00  0.00     0.134 A 
ATOM      7  C   UNL     1      33.728 -95.458  27.083  1.00  0.00     0.093 A 
ATOM      8  C   UNL     1      33.176 -94.792  28.180  1.00  0.00     0.123 A 
ATOM      9  C   UNL     1      33.916 -94.659  29.360  1.00  0.00     0.094 A 
ATOM     10  C   UNL     1      35.206 -95.192  29.447  1.00  0.00     0.146 A 
ATOM     11  O   UNL     1      35.888 -95.055  30.579  1.00  0.00    -0.456 OA
ENDROOT
BRANCH   1  12
ATOM     12  C   UNL     1      37.787 -95.320  32.063  1.00  0.00     0.021 A 
ATOM     13  C   UNL     1      39.011 -94.629  32.164  1.00  0.00     0.016 A 
ATOM     14  C   UNL     1      39.624 -94.452  33.407  1.00  0.00     0.051 A 
ATOM     15  C   UNL     1      39.032 -94.969  34.567  1.00  0.00     0.157 A 
ATOM     16  C   UNL     1      37.208 -95.846  33.231  1.00  0.00     0.062 A 
ATOM     17  C   UNL     1      37.823 -95.668  34.478  1.00  0.00     0.158 A 
BRANCH  15  18
ATOM     18  O   UNL     1      39.640 -94.793  35.808  1.00  0.00    -0.504 OA
ATOM     19  H   UNL     1      40.583 -94.431  35.890  1.00  0.00     0.293 HD
ENDBRANCH  15  18
BRANCH  17  20
ATOM     20  O   UNL     1      37.238 -96.184  35.633  1.00  0.00    -0.504 OA
ATOM     21  H   UNL     1      36.840 -95.578  36.342  1.00  0.00     0.293 HD
ENDBRANCH  17  20
ENDBRANCH   1  12
BRANCH   6  22
ATOM     22  O   UNL     1      35.544 -96.660  26.039  1.00  0.00    -0.507 OA
ATOM     23  H   UNL     1      34.948 -97.036  25.311  1.00  0.00     0.293 HD
ENDBRANCH   6  22
BRANCH   8  24
ATOM     24  O   UNL     1      31.891 -94.263  28.086  1.00  0.00    -0.508 OA
ATOM     25  H   UNL     1      31.267 -94.242  28.885  1.00  0.00     0.293 HD
ENDBRANCH   8  24
TORSDOF 5
ENDMDL
MODEL 4
REMARK VINA RESULT:    -5.670     15.039     17.243
REMARK INTER + INTRA:          -6.929
REMARK INTER:                  -6.639
REMARK INTRA:                  -0.291
REMARK UNBOUND:                -0.265
REMARK SMILES O=c1cc(-c2ccc(O)c(O)c2)oc2cc(O)cc(O)c12
REMARK SMILES IDX 4 1 3 2 2 3 1 4 21 5 19 6 18 7 16 8 15 9 14 10 13 11 5 12
REMARK SMILES IDX 6 13 7 14 8 15 12 16 10 17 9 18 11 20 20 22 17 24
REMARK H PARENT 9 19 11 21 20 23 17 25
REMARK Flexibility Score: inf
ROOT
ATOM      1  C   UNL     1      37.106 -77.542  34.204  1.00  0.00     0.138 A 
ATOM      2  C   UNL     1      37.375 -77.345  35.570  1.00  0.00     0.100 A 
ATOM      3  C   UNL     1      36.333 -77.437  36.494  1.00  0.00     0.197 A 
ATOM      4  O   UNL     1      36.585 -77.260  37.717  1.00  0.00    -0.289 OA
ATOM      5  C   UNL     1      35.030 -77.731  36.047  1.00  0.00     0.107 A 
ATOM      6  C   UNL     1      33.919 -77.841  36.917  1.00  0.00     0.134 A 
ATOM      7  C   UNL     1      32.653 -78.142  36.393  1.00  0.00     0.093 A 
ATOM      8  C   UNL     1      32.477 -78.334  35.020  1.00  0.00     0.123 A 
ATOM      9  C   UNL     1      33.572 -78.226  34.156  1.00  0.00     0.094 A 
ATOM     10  C   UNL     1      34.841 -77.926  34.658  1.00  0.00     0.146 A 
ATOM     11  O   UNL     1      35.865 -77.827  33.817  1.00  0.00    -0.456 OA
ENDROOT
BRANCH   1  12
ATOM     12  C   UNL     1      38.174 -77.458  33.176  1.00  0.00     0.021 A 
ATOM     13  C   UNL     1      37.874 -77.275  31.811  1.00  0.00     0.016 A 
ATOM     14  C   UNL     1      38.899 -77.210  30.864  1.00  0.00     0.051 A 
ATOM     15  C   UNL     1      40.237 -77.335  31.259  1.00  0.00     0.157 A 
ATOM     16  C   UNL     1      39.519 -77.595  33.561  1.00  0.00     0.062 A 
ATOM     17  C   UNL     1      40.547 -77.530  32.610  1.00  0.00     0.158 A 
BRANCH  15  18
ATOM     18  O   UNL     1      41.260 -77.269  30.316  1.00  0.00    -0.504 OA
ATOM     19  H   UNL     1      42.063 -76.665  30.447  1.00  0.00     0.293 HD
ENDBRANCH  15  18
BRANCH  17  20
ATOM     20  O   UNL     1      41.879 -77.657  33.000  1.00  0.00    -0.504 OA
ATOM     21  H   UNL     1      42.635 -77.608  32.329  1.00  0.00     0.293 HD
ENDBRANCH  17  20
ENDBRANCH   1  12
BRANCH   6  22
ATOM     22  O   UNL     1      34.064 -77.656  38.292  1.00  0.00    -0.507 OA
ATOM     23  H   UNL     1      33.601 -76.897  38.780  1.00  0.00     0.293 HD
ENDBRANCH   6  22
BRANCH   8  24
ATOM     24  O   UNL     1      31.210 -78.632  34.526  1.00  0.00    -0.508 OA
ATOM     25  H   UNL     1      30.636 -79.357  34.940  1.00  0.00     0.293 HD
ENDBRANCH   8  24
TORSDOF 5
ENDMDL
MODEL 5
REMARK VINA RESULT:    -5.647     15.337     17.624
REMARK INTER + INTRA:          -6.902
REMARK INTER:                  -6.585
REMARK INTRA:                  -0.318
REMARK UNBOUND:                -0.265
REMARK SMILES O=c1cc(-c2ccc(O)c(O)c2)oc2cc(O)cc(O)c12
REMARK SMILES IDX 4 1 3 2 2 3 1 4 21 5 19 6 18 7 16 8 15 9 14 10 13 11 5 12
REMARK SMILES IDX 6 13 7 14 8 15 12 16 10 17 9 18 11 20 20 22 17 24
REMARK H PARENT 9 19 11 21 20 23 17 25
REMARK Flexibility Score: inf
ROOT
ATOM      1  C   UNL     1      36.309 -77.498  33.522  1.00  0.00     0.138 A 
ATOM      2  C   UNL     1      35.945 -77.257  32.186  1.00  0.00     0.100 A 
ATOM      3  C   UNL     1      36.939 -77.127  31.217  1.00  0.00     0.197 A 
ATOM      4  O   UNL     1      36.602 -76.911  30.021  1.00  0.00    -0.289 OA
ATOM      5  C   UNL     1      38.293 -77.245  31.588  1.00  0.00     0.107 A 
ATOM      6  C   UNL     1      39.362 -77.125  30.669  1.00  0.00     0.134 A 
ATOM      7  C   UNL     1      40.684 -77.261  31.118  1.00  0.00     0.093 A 
ATOM      8  C   UNL     1      40.957 -77.513  32.465  1.00  0.00     0.123 A 
ATOM      9  C   UNL     1      39.904 -77.632  33.379  1.00  0.00     0.094 A 
ATOM     10  C   UNL     1      38.580 -77.499  32.950  1.00  0.00     0.146 A 
ATOM     11  O   UNL     1      37.597 -77.614  33.838  1.00  0.00    -0.456 OA
ENDROOT
BRANCH   1  12
ATOM     12  C   UNL     1      35.294 -77.647  34.596  1.00  0.00     0.021 A 
ATOM     13  C   UNL     1      33.927 -77.402  34.361  1.00  0.00     0.016 A 
ATOM     14  C   UNL     1      32.995 -77.540  35.393  1.00  0.00     0.051 A 
ATOM     15  C   UNL     1      33.412 -77.915  36.676  1.00  0.00     0.157 A 
ATOM     16  C   UNL     1      35.705 -78.010  35.891  1.00  0.00     0.062 A 
ATOM     17  C   UNL     1      34.769 -78.148  36.926  1.00  0.00     0.158 A 
BRANCH  15  18
ATOM     18  O   UNL     1      32.485 -78.054  37.707  1.00  0.00    -0.504 OA
ATOM     19  H   UNL     1      31.995 -78.926  37.866  1.00  0.00     0.293 HD
ENDBRANCH  15  18
BRANCH  17  20
ATOM     20  O   UNL     1      35.182 -78.518  38.205  1.00  0.00    -0.504 OA
ATOM     21  H   UNL     1      35.538 -79.446  38.399  1.00  0.00     0.293 HD
ENDBRANCH  17  20
ENDBRANCH   1  12
BRANCH   6  22
ATOM     22  O   UNL     1      39.122 -76.875  29.317  1.00  0.00    -0.507 OA
ATOM     23  H   UNL     1      39.127 -75.935  28.940  1.00  0.00     0.293 HD
ENDBRANCH   6  22
BRANCH   8  24
ATOM     24  O   UNL     1      42.278 -77.644  32.885  1.00  0.00    -0.508 OA
ATOM     25  H   UNL     1      42.971 -76.933  32.684  1.00  0.00     0.293 HD
ENDBRANCH   8  24
TORSDOF 5
ENDMDL
MODEL 6
REMARK VINA RESULT:    -5.613      8.946     11.111
REMARK INTER + INTRA:          -6.862
REMARK INTER:                  -6.546
REMARK INTRA:                  -0.317
REMARK UNBOUND:                -0.265
REMARK SMILES O=c1cc(-c2ccc(O)c(O)c2)oc2cc(O)cc(O)c12
REMARK SMILES IDX 4 1 3 2 2 3 1 4 21 5 19 6 18 7 16 8 15 9 14 10 13 11 5 12
REMARK SMILES IDX 6 13 7 14 8 15 12 16 10 17 9 18 11 20 20 22 17 24
REMARK H PARENT 9 19 11 21 20 23 17 25
REMARK Flexibility Score: inf
ROOT
ATOM      1  C   UNL     1      40.255 -95.330  35.472  1.00  0.00     0.138 A 
ATOM      2  C   UNL     1      41.390 -95.521  34.664  1.00  0.00     0.100 A 
ATOM      3  C   UNL     1      41.247 -95.555  33.277  1.00  0.00     0.197 A 
ATOM      4  O   UNL     1      42.271 -95.726  32.561  1.00  0.00    -0.289 OA
ATOM      5  C   UNL     1      39.970 -95.392  32.705  1.00  0.00     0.107 A 
ATOM      6  C   UNL     1      39.737 -95.415  31.309  1.00  0.00     0.134 A 
ATOM      7  C   UNL     1      38.435 -95.239  30.818  1.00  0.00     0.093 A 
ATOM      8  C   UNL     1      37.364 -95.043  31.693  1.00  0.00     0.123 A 
ATOM      9  C   UNL     1      37.588 -95.020  33.074  1.00  0.00     0.094 A 
ATOM     10  C   UNL     1      38.878 -95.194  33.583  1.00  0.00     0.146 A 
ATOM     11  O   UNL     1      39.065 -95.170  34.899  1.00  0.00    -0.456 OA
ENDROOT
BRANCH   1  12
ATOM     12  C   UNL     1      40.347 -95.284  36.953  1.00  0.00     0.021 A 
ATOM     13  C   UNL     1      41.507 -95.699  37.636  1.00  0.00     0.016 A 
ATOM     14  C   UNL     1      41.562 -95.654  39.032  1.00  0.00     0.051 A 
ATOM     15  C   UNL     1      40.459 -95.204  39.768  1.00  0.00     0.157 A 
ATOM     16  C   UNL     1      39.240 -94.845  37.702  1.00  0.00     0.062 A 
ATOM     17  C   UNL     1      39.296 -94.801  39.102  1.00  0.00     0.158 A 
BRANCH  15  18
ATOM     18  O   UNL     1      40.511 -95.158  41.160  1.00  0.00    -0.504 OA
ATOM     19  H   UNL     1      41.377 -95.312  41.663  1.00  0.00     0.293 HD
ENDBRANCH  15  18
BRANCH  17  20
ATOM     20  O   UNL     1      38.199 -94.356  39.838  1.00  0.00    -0.504 OA
ATOM     21  H   UNL     1      37.649 -94.989  40.405  1.00  0.00     0.293 HD
ENDBRANCH  17  20
ENDBRANCH   1  12
BRANCH   6  22
ATOM     22  O   UNL     1      40.787 -95.607  30.410  1.00  0.00    -0.507 OA
ATOM     23  H   UNL     1      41.085 -96.534  30.129  1.00  0.00     0.293 HD
ENDBRANCH   6  22
BRANCH   8  24
ATOM     24  O   UNL     1      36.081 -94.872  31.180  1.00  0.00    -0.508 OA
ATOM     25  H   UNL     1      35.347 -95.550  31.349  1.00  0.00     0.293 HD
ENDBRANCH   8  24
TORSDOF 5
ENDMDL
MODEL 7
REMARK VINA RESULT:    -5.582      9.851     11.173
REMARK INTER + INTRA:          -6.826
REMARK INTER:                  -6.509
REMARK INTRA:                  -0.318
REMARK UNBOUND:                -0.265
REMARK SMILES O=c1cc(-c2ccc(O)c(O)c2)oc2cc(O)cc(O)c12
REMARK SMILES IDX 4 1 3 2 2 3 1 4 21 5 19 6 18 7 16 8 15 9 14 10 13 11 5 12
REMARK SMILES IDX 6 13 7 14 8 15 12 16 10 17 9 18 11 20 20 22 17 24
REMARK H PARENT 9 19 11 21 20 23 17 25
REMARK Flexibility Score: inf
ROOT
ATOM      1  C   UNL     1      35.949 -95.641  28.975  1.00  0.00     0.138 A 
ATOM      2  C   UNL     1      37.111 -95.996  28.268  1.00  0.00     0.100 A 
ATOM      3  C   UNL     1      38.344 -95.978  28.921  1.00  0.00     0.197 A 
ATOM      4  O   UNL     1      39.381 -96.298  28.278  1.00  0.00    -0.289 OA
ATOM      5  C   UNL     1      38.406 -95.609  30.279  1.00  0.00     0.107 A 
ATOM      6  C   UNL     1      39.615 -95.563  31.015  1.00  0.00     0.134 A 
ATOM      7  C   UNL     1      39.592 -95.192  32.367  1.00  0.00     0.093 A 
ATOM      8  C   UNL     1      38.388 -94.865  32.996  1.00  0.00     0.123 A 
ATOM      9  C   UNL     1      37.190 -94.908  32.274  1.00  0.00     0.094 A 
ATOM     10  C   UNL     1      37.192 -95.276  30.925  1.00  0.00     0.146 A 
ATOM     11  O   UNL     1      36.042 -95.308  30.260  1.00  0.00    -0.456 OA
ENDROOT
BRANCH   1  12
ATOM     12  C   UNL     1      34.610 -95.644  28.333  1.00  0.00     0.021 A 
ATOM     13  C   UNL     1      34.456 -95.815  26.943  1.00  0.00     0.016 A 
ATOM     14  C   UNL     1      33.185 -95.803  26.364  1.00  0.00     0.051 A 
ATOM     15  C   UNL     1      32.048 -95.612  27.160  1.00  0.00     0.157 A 
ATOM     16  C   UNL     1      33.464 -95.440  29.121  1.00  0.00     0.062 A 
ATOM     17  C   UNL     1      32.188 -95.428  28.540  1.00  0.00     0.158 A 
BRANCH  15  18
ATOM     18  O   UNL     1      30.778 -95.600  26.585  1.00  0.00    -0.504 OA
ATOM     19  H   UNL     1      30.555 -94.993  25.806  1.00  0.00     0.293 HD
ENDBRANCH  15  18
BRANCH  17  20
ATOM     20  O   UNL     1      31.055 -95.236  29.329  1.00  0.00    -0.504 OA
ATOM     21  H   UNL     1      30.313 -95.924  29.368  1.00  0.00     0.293 HD
ENDBRANCH  17  20
ENDBRANCH   1  12
BRANCH   6  22
ATOM     22  O   UNL     1      40.833 -95.885  30.414  1.00  0.00    -0.507 OA
ATOM     23  H   UNL     1      41.325 -96.744  30.633  1.00  0.00     0.293 HD
ENDBRANCH   6  22
BRANCH   8  24
ATOM     24  O   UNL     1      38.393 -94.499  34.340  1.00  0.00    -0.508 OA
ATOM     25  H   UNL     1      39.257 -94.403  34.860  1.00  0.00     0.293 HD
ENDBRANCH   8  24
TORSDOF 5
ENDMDL
MODEL 8
REMARK VINA RESULT:    -5.421      9.497     11.368
REMARK INTER + INTRA:          -6.636
REMARK INTER:                  -6.318
REMARK INTRA:                  -0.318
REMARK UNBOUND:                -0.265
REMARK SMILES O=c1cc(-c2ccc(O)c(O)c2)oc2cc(O)cc(O)c12
REMARK SMILES IDX 4 1 3 2 2 3 1 4 21 5 19 6 18 7 16 8 15 9 14 10 13 11 5 12
REMARK SMILES IDX 6 13 7 14 8 15 12 16 10 17 9 18 11 20 20 22 17 24
REMARK H PARENT 9 19 11 21 20 23 17 25
REMARK Flexibility Score: inf
ROOT
ATOM      1  C   UNL     1      39.477 -95.400  32.301  1.00  0.00     0.138 A 
ATOM      2  C   UNL     1      40.197 -95.635  31.118  1.00  0.00     0.100 A 
ATOM      3  C   UNL     1      39.509 -95.760  29.910  1.00  0.00     0.197 A 
ATOM      4  O   UNL     1      40.164 -95.970  28.853  1.00  0.00    -0.289 OA
ATOM      5  C   UNL     1      38.105 -95.644  29.893  1.00  0.00     0.107 A 
ATOM      6  C   UNL     1      37.332 -95.759  28.713  1.00  0.00     0.134 A 
ATOM      7  C   UNL     1      35.938 -95.625  28.780  1.00  0.00     0.093 A 
ATOM      8  C   UNL     1      35.302 -95.380  30.000  1.00  0.00     0.123 A 
ATOM      9  C   UNL     1      36.062 -95.266  31.170  1.00  0.00     0.094 A 
ATOM     10  C   UNL     1      37.453 -95.397  31.124  1.00  0.00     0.146 A 
ATOM     11  O   UNL     1      38.152 -95.286  32.249  1.00  0.00    -0.456 OA
ENDROOT
BRANCH   1  12
ATOM     12  C   UNL     1      40.155 -95.257  33.615  1.00  0.00     0.021 A 
ATOM     13  C   UNL     1      41.550 -95.399  33.747  1.00  0.00     0.016 A 
ATOM     14  C   UNL     1      42.160 -95.269  34.997  1.00  0.00     0.051 A 
ATOM     15  C   UNL     1      41.389 -95.005  36.136  1.00  0.00     0.157 A 
ATOM     16  C   UNL     1      39.387 -95.005  34.766  1.00  0.00     0.062 A 
ATOM     17  C   UNL     1      40.000 -94.875  36.021  1.00  0.00     0.158 A 
BRANCH  15  18
ATOM     18  O   UNL     1      41.995 -94.875  37.384  1.00  0.00    -0.504 OA
ATOM     19  H   UNL     1      41.455 -94.665  38.216  1.00  0.00     0.293 HD
ENDBRANCH  15  18
BRANCH  17  20
ATOM     20  O   UNL     1      39.235 -94.616  37.156  1.00  0.00    -0.504 OA
ATOM     21  H   UNL     1      38.343 -95.072  37.310  1.00  0.00     0.293 HD
ENDBRANCH  17  20
ENDBRANCH   1  12
BRANCH   6  22
ATOM     22  O   UNL     1      37.938 -96.002  27.480  1.00  0.00    -0.507 OA
ATOM     23  H   UNL     1      37.462 -95.813  26.605  1.00  0.00     0.293 HD
ENDBRANCH   6  22
BRANCH   8  24
ATOM     24  O   UNL     1      33.917 -95.252  30.039  1.00  0.00    -0.508 OA
ATOM     25  H   UNL     1      33.409 -94.762  29.311  1.00  0.00     0.293 HD
ENDBRANCH   8  24
TORSDOF 5
ENDMDL
MODEL 9
REMARK VINA RESULT:    -5.397     14.796     16.192
REMARK INTER + INTRA:          -6.608
REMARK INTER:                  -6.296
REMARK INTRA:                  -0.313
REMARK UNBOUND:                -0.265
REMARK SMILES O=c1cc(-c2ccc(O)c(O)c2)oc2cc(O)cc(O)c12
REMARK SMILES IDX 4 1 3 2 2 3 1 4 21 5 19 6 18 7 16 8 15 9 14 10 13 11 5 12
REMARK SMILES IDX 6 13 7 14 8 15 12 16 10 17 9 18 11 20 20 22 17 24
REMARK H PARENT 9 19 11 21 20 23 17 25
REMARK Flexibility Score: inf
ROOT
ATOM      1  C   UNL     1      36.602 -78.218  37.074  1.00  0.00     0.138 A 
ATOM      2  C   UNL     1      37.758 -77.651  36.511  1.00  0.00     0.100 A 
ATOM      3  C   UNL     1      38.960 -77.700  37.218  1.00  0.00     0.197 A 
ATOM      4  O   UNL     1      39.993 -77.188  36.704  1.00  0.00    -0.289 OA
ATOM      5  C   UNL     1      39.000 -78.322  38.481  1.00  0.00     0.107 A 
ATOM      6  C   UNL     1      40.176 -78.415  39.263  1.00  0.00     0.134 A 
ATOM      7  C   UNL     1      40.134 -79.056  40.509  1.00  0.00     0.093 A 
ATOM      8  C   UNL     1      38.942 -79.604  40.989  1.00  0.00     0.123 A 
ATOM      9  C   UNL     1      37.776 -79.516  40.220  1.00  0.00     0.094 A 
ATOM     10  C   UNL     1      37.797 -78.880  38.976  1.00  0.00     0.146 A 
ATOM     11  O   UNL     1      36.676 -78.807  38.265  1.00  0.00    -0.456 OA
ENDROOT
BRANCH   1  12
ATOM     12  C   UNL     1      35.296 -78.197  36.368  1.00  0.00     0.021 A 
ATOM     13  C   UNL     1      35.209 -77.971  34.980  1.00  0.00     0.016 A 
ATOM     14  C   UNL     1      33.965 -77.946  34.344  1.00  0.00     0.051 A 
ATOM     15  C   UNL     1      32.790 -78.137  35.081  1.00  0.00     0.157 A 
ATOM     16  C   UNL     1      34.109 -78.374  37.102  1.00  0.00     0.062 A 
ATOM     17  C   UNL     1      32.862 -78.349  36.462  1.00  0.00     0.158 A 
BRANCH  15  18
ATOM     18  O   UNL     1      31.548 -78.113  34.448  1.00  0.00    -0.504 OA
ATOM     19  H   UNL     1      31.089 -77.240  34.216  1.00  0.00     0.293 HD
ENDBRANCH  15  18
BRANCH  17  20
ATOM     20  O   UNL     1      31.691 -78.536  37.194  1.00  0.00    -0.504 OA
ATOM     21  H   UNL     1      31.520 -78.036  38.059  1.00  0.00     0.293 HD
ENDBRANCH  17  20
ENDBRANCH   1  12
BRANCH   6  22
ATOM     22  O   UNL     1      41.382 -77.877  38.811  1.00  0.00    -0.507 OA
ATOM     23  H   UNL     1      42.227 -78.434  38.757  1.00  0.00     0.293 HD
ENDBRANCH   6  22
BRANCH   8  24
ATOM     24  O   UNL     1      38.927 -80.235  42.230  1.00  0.00    -0.508 OA
ATOM     25  H   UNL     1      38.751 -81.230  42.317  1.00  0.00     0.293 HD
ENDBRANCH   8  24
TORSDOF 5
ENDMDL
