MODEL 1
REMARK VINA RESULT:    -2.126      0.000      0.000
REMARK INTER + INTRA:          -2.747
REMARK INTER:                  -2.499
REMARK INTRA:                  -0.248
REMARK UNBOUND:                -0.248
REMARK SMILES O=c1c(O)c(-c2ccc(O)cc2)oc2cc(O)cc(O)c12
REMARK SMILES IDX 5 1 3 2 2 3 1 4 21 5 19 6 18 7 16 8 15 9 14 10 13 11 6 12
REMARK SMILES IDX 7 13 8 14 9 15 12 16 11 17 10 18 4 20 20 22 17 24
REMARK H PARENT 10 19 4 21 20 23 17 25
REMARK Flexibility Score: inf
ROOT
ATOM      1  C   UNL     1      29.684  38.054  27.111  1.00  0.00     0.180 A 
ATOM      2  C   UNL     1      28.356  38.281  26.701  1.00  0.00     0.208 A 
ATOM      3  C   UNL     1      27.601  37.198  26.219  1.00  0.00     0.238 A 
ATOM      4  O   UNL     1      26.408  37.387  25.859  1.00  0.00    -0.285 OA
ATOM      5  C   UNL     1      28.191  35.919  26.138  1.00  0.00     0.111 A 
ATOM      6  C   UNL     1      27.500  34.779  25.661  1.00  0.00     0.134 A 
ATOM      7  C   UNL     1      28.159  33.541  25.602  1.00  0.00     0.093 A 
ATOM      8  C   UNL     1      29.490  33.423  26.007  1.00  0.00     0.123 A 
ATOM      9  C   UNL     1      30.178  34.547  26.480  1.00  0.00     0.094 A 
ATOM     10  C   UNL     1      29.537  35.788  26.549  1.00  0.00     0.146 A 
ATOM     11  O   UNL     1      30.211  36.837  27.005  1.00  0.00    -0.452 OA
ENDROOT
BRANCH   1  12
ATOM     12  C   UNL     1      30.538  39.139  27.647  1.00  0.00     0.021 A 
ATOM     13  C   UNL     1      31.588  39.645  26.863  1.00  0.00     0.016 A 
ATOM     14  C   UNL     1      32.419  40.653  27.358  1.00  0.00     0.047 A 
ATOM     15  C   UNL     1      32.224  41.157  28.647  1.00  0.00     0.115 A 
ATOM     16  C   UNL     1      30.358  39.636  28.952  1.00  0.00     0.016 A 
ATOM     17  C   UNL     1      31.193  40.644  29.444  1.00  0.00     0.047 A 
BRANCH  15  18
ATOM     18  O   UNL     1      33.060  42.163  29.128  1.00  0.00    -0.508 OA
ATOM     19  H   UNL     1      33.168  42.333  30.121  1.00  0.00     0.293 HD
ENDBRANCH  15  18
ENDBRANCH   1  12
BRANCH   2  20
ATOM     20  O   UNL     1      27.813  39.566  26.746  1.00  0.00    -0.502 OA
ATOM     21  H   UNL     1      26.874  39.747  27.082  1.00  0.00     0.293 HD
ENDBRANCH   2  20
BRANCH   6  22
ATOM     22  O   UNL     1      26.170  34.865  25.248  1.00  0.00    -0.507 OA
ATOM     23  H   UNL     1      25.849  35.604  24.633  1.00  0.00     0.293 HD
ENDBRANCH   6  22
BRANCH   8  24
ATOM     24  O   UNL     1      30.122  32.184  25.937  1.00  0.00    -0.508 OA
ATOM     25  H   UNL     1      29.592  31.320  25.898  1.00  0.00     0.293 HD
ENDBRANCH   8  24
TORSDOF 5
ENDMDL
MODEL 2
REMARK VINA RESULT:    -0.940      3.111      5.271
REMARK INTER + INTRA:          -1.352
REMARK INTER:                  -1.141
REMARK INTRA:                  -0.211
REMARK UNBOUND:                -0.248
REMARK SMILES O=c1c(O)c(-c2ccc(O)cc2)oc2cc(O)cc(O)c12
REMARK SMILES IDX 5 1 3 2 2 3 1 4 21 5 19 6 18 7 16 8 15 9 14 10 13 11 6 12
REMARK SMILES IDX 7 13 8 14 9 15 12 16 11 17 10 18 4 20 20 22 17 24
REMARK H PARENT 10 19 4 21 20 23 17 25
REMARK Flexibility Score: inf
ROOT
ATOM      1  C   UNL     1      29.848  37.214  27.127  1.00  0.00     0.180 A 
ATOM      2  C   UNL     1      28.575  37.522  27.645  1.00  0.00     0.208 A 
ATOM      3  C   UNL     1      27.796  38.495  26.997  1.00  0.00     0.238 A 
ATOM      4  O   UNL     1      26.651  38.771  27.444  1.00  0.00    -0.285 OA
ATOM      5  C   UNL     1      28.309  39.154  25.860  1.00  0.00     0.111 A 
ATOM      6  C   UNL     1      27.591  40.147  25.152  1.00  0.00     0.134 A 
ATOM      7  C   UNL     1      28.173  40.764  24.034  1.00  0.00     0.093 A 
ATOM      8  C   UNL     1      29.456  40.408  23.613  1.00  0.00     0.123 A 
ATOM      9  C   UNL     1      30.171  39.427  24.308  1.00  0.00     0.094 A 
ATOM     10  C   UNL     1      29.607  38.799  25.423  1.00  0.00     0.146 A 
ATOM     11  O   UNL     1      30.305  37.868  26.062  1.00  0.00    -0.452 OA
ENDROOT
BRANCH   1  12
ATOM     12  C   UNL     1      30.721  36.188  27.743  1.00  0.00     0.021 A 
ATOM     13  C   UNL     1      30.391  34.830  27.609  1.00  0.00     0.016 A 
ATOM     14  C   UNL     1      31.190  33.846  28.200  1.00  0.00     0.047 A 
ATOM     15  C   UNL     1      32.316  34.207  28.945  1.00  0.00     0.115 A 
ATOM     16  C   UNL     1      31.845  36.547  28.510  1.00  0.00     0.016 A 
ATOM     17  C   UNL     1      32.641  35.560  29.100  1.00  0.00     0.047 A 
BRANCH  15  18
ATOM     18  O   UNL     1      33.103  33.216  29.528  1.00  0.00    -0.508 OA
ATOM     19  H   UNL     1      34.102  33.169  29.365  1.00  0.00     0.293 HD
ENDBRANCH  15  18
ENDBRANCH   1  12
BRANCH   2  20
ATOM     20  O   UNL     1      28.111  36.891  28.801  1.00  0.00    -0.502 OA
ATOM     21  H   UNL     1      28.545  37.029  29.706  1.00  0.00     0.293 HD
ENDBRANCH   2  20
BRANCH   6  22
ATOM     22  O   UNL     1      26.307  40.525  25.548  1.00  0.00    -0.507 OA
ATOM     23  H   UNL     1      26.070  41.493  25.733  1.00  0.00     0.293 HD
ENDBRANCH   6  22
BRANCH   8  24
ATOM     24  O   UNL     1      30.013  41.036  22.501  1.00  0.00    -0.508 OA
ATOM     25  H   UNL     1      29.656  41.921  22.159  1.00  0.00     0.293 HD
ENDBRANCH   8  24
TORSDOF 5
ENDMDL
MODEL 3
REMARK VINA RESULT:    -0.776      3.076      5.309
REMARK INTER + INTRA:          -1.161
REMARK INTER:                  -0.944
REMARK INTRA:                  -0.216
REMARK UNBOUND:                -0.248
REMARK SMILES O=c1c(O)c(-c2ccc(O)cc2)oc2cc(O)cc(O)c12
REMARK SMILES IDX 5 1 3 2 2 3 1 4 21 5 19 6 18 7 16 8 15 9 14 10 13 11 6 12
REMARK SMILES IDX 7 13 8 14 9 15 12 16 11 17 10 18 4 20 20 22 17 24
REMARK H PARENT 10 19 4 21 20 23 17 25
REMARK Flexibility Score: inf
ROOT
ATOM      1  C   UNL     1      29.821  37.630  26.361  1.00  0.00     0.180 A 
ATOM      2  C   UNL     1      28.497  37.152  26.419  1.00  0.00     0.208 A 
ATOM      3  C   UNL     1      27.778  37.291  27.618  1.00  0.00     0.238 A 
ATOM      4  O   UNL     1      26.589  36.877  27.679  1.00  0.00    -0.285 OA
ATOM      5  C   UNL     1      28.399  37.882  28.738  1.00  0.00     0.111 A 
ATOM      6  C   UNL     1      27.746  38.055  29.982  1.00  0.00     0.134 A 
ATOM      7  C   UNL     1      28.435  38.645  31.053  1.00  0.00     0.093 A 
ATOM      8  C   UNL     1      29.759  39.063  30.904  1.00  0.00     0.123 A 
ATOM      9  C   UNL     1      30.409  38.895  29.677  1.00  0.00     0.094 A 
ATOM     10  C   UNL     1      29.739  38.312  28.597  1.00  0.00     0.146 A 
ATOM     11  O   UNL     1      30.378  38.168  27.442  1.00  0.00    -0.452 OA
ENDROOT
BRANCH   1  12
ATOM     12  C   UNL     1      30.637  37.538  25.129  1.00  0.00     0.021 A 
ATOM     13  C   UNL     1      30.346  38.378  24.042  1.00  0.00     0.016 A 
ATOM     14  C   UNL     1      31.090  38.292  22.862  1.00  0.00     0.047 A 
ATOM     15  C   UNL     1      32.123  37.357  22.746  1.00  0.00     0.115 A 
ATOM     16  C   UNL     1      31.666  36.585  25.000  1.00  0.00     0.016 A 
ATOM     17  C   UNL     1      32.407  36.502  23.818  1.00  0.00     0.047 A 
BRANCH  15  18
ATOM     18  O   UNL     1      32.857  37.284  21.564  1.00  0.00    -0.508 OA
ATOM     19  H   UNL     1      32.460  36.891  20.718  1.00  0.00     0.293 HD
ENDBRANCH  15  18
ENDBRANCH   1  12
BRANCH   2  20
ATOM     20  O   UNL     1      27.923  36.526  25.311  1.00  0.00    -0.502 OA
ATOM     21  H   UNL     1      27.783  35.523  25.267  1.00  0.00     0.293 HD
ENDBRANCH   2  20
BRANCH   6  22
ATOM     22  O   UNL     1      26.423  37.647  30.163  1.00  0.00    -0.507 OA
ATOM     23  H   UNL     1      25.808  38.111  30.821  1.00  0.00     0.293 HD
ENDBRANCH   6  22
BRANCH   8  24
ATOM     24  O   UNL     1      30.420  39.645  31.984  1.00  0.00    -0.508 OA
ATOM     25  H   UNL     1      30.553  39.145  32.855  1.00  0.00     0.293 HD
ENDBRANCH   8  24
TORSDOF 5
ENDMDL
MODEL 4
REMARK VINA RESULT:     0.635      1.172      2.912
REMARK INTER + INTRA:           0.498
REMARK INTER:                   0.778
REMARK INTRA:                  -0.279
REMARK UNBOUND:                -0.248
REMARK SMILES O=c1c(O)c(-c2ccc(O)cc2)oc2cc(O)cc(O)c12
REMARK SMILES IDX 5 1 3 2 2 3 1 4 21 5 19 6 18 7 16 8 15 9 14 10 13 11 6 12
REMARK SMILES IDX 7 13 8 14 9 15 12 16 11 17 10 18 4 20 20 22 17 24
REMARK H PARENT 10 19 4 21 20 23 17 25
REMARK Flexibility Score: inf
ROOT
ATOM      1  C   UNL     1      30.480  37.425  27.462  1.00  0.00     0.180 A 
ATOM      2  C   UNL     1      31.155  36.232  27.785  1.00  0.00     0.208 A 
ATOM      3  C   UNL     1      30.619  35.010  27.347  1.00  0.00     0.238 A 
ATOM      4  O   UNL     1      31.219  33.936  27.622  1.00  0.00    -0.285 OA
ATOM      5  C   UNL     1      29.413  35.000  26.615  1.00  0.00     0.111 A 
ATOM      6  C   UNL     1      28.806  33.813  26.141  1.00  0.00     0.134 A 
ATOM      7  C   UNL     1      27.600  33.885  25.426  1.00  0.00     0.093 A 
ATOM      8  C   UNL     1      26.993  35.118  25.179  1.00  0.00     0.123 A 
ATOM      9  C   UNL     1      27.588  36.295  25.644  1.00  0.00     0.094 A 
ATOM     10  C   UNL     1      28.791  36.244  26.356  1.00  0.00     0.146 A 
ATOM     11  O   UNL     1      29.337  37.376  26.783  1.00  0.00    -0.452 OA
ENDROOT
BRANCH   1  12
ATOM     12  C   UNL     1      30.991  38.755  27.870  1.00  0.00     0.021 A 
ATOM     13  C   UNL     1      31.978  39.384  27.095  1.00  0.00     0.016 A 
ATOM     14  C   UNL     1      32.490  40.628  27.475  1.00  0.00     0.047 A 
ATOM     15  C   UNL     1      32.034  41.251  28.640  1.00  0.00     0.115 A 
ATOM     16  C   UNL     1      30.549  39.377  29.053  1.00  0.00     0.016 A 
ATOM     17  C   UNL     1      31.064  40.621  29.430  1.00  0.00     0.047 A 
BRANCH  15  18
ATOM     18  O   UNL     1      32.552  42.492  29.006  1.00  0.00    -0.508 OA
ATOM     19  H   UNL     1      31.953  43.298  29.139  1.00  0.00     0.293 HD
ENDBRANCH  15  18
ENDBRANCH   1  12
BRANCH   2  20
ATOM     20  O   UNL     1      32.320  36.266  28.554  1.00  0.00    -0.502 OA
ATOM     21  H   UNL     1      33.005  35.520  28.534  1.00  0.00     0.293 HD
ENDBRANCH   2  20
BRANCH   6  22
ATOM     22  O   UNL     1      29.388  32.566  26.373  1.00  0.00    -0.507 OA
ATOM     23  H   UNL     1      29.144  31.752  25.820  1.00  0.00     0.293 HD
ENDBRANCH   6  22
BRANCH   8  24
ATOM     24  O   UNL     1      25.795  35.162  24.468  1.00  0.00    -0.508 OA
ATOM     25  H   UNL     1      25.665  35.797  23.688  1.00  0.00     0.293 HD
ENDBRANCH   8  24
TORSDOF 5
ENDMDL
MODEL 5
REMARK VINA RESULT:     0.723      1.485      3.320
REMARK INTER + INTRA:           0.602
REMARK INTER:                   0.666
REMARK INTRA:                  -0.064
REMARK UNBOUND:                -0.248
REMARK SMILES O=c1c(O)c(-c2ccc(O)cc2)oc2cc(O)cc(O)c12
REMARK SMILES IDX 5 1 3 2 2 3 1 4 21 5 19 6 18 7 16 8 15 9 14 10 13 11 6 12
REMARK SMILES IDX 7 13 8 14 9 15 12 16 11 17 10 18 4 20 20 22 17 24
REMARK H PARENT 10 19 4 21 20 23 17 25
REMARK Flexibility Score: inf
ROOT
ATOM      1  C   UNL     1      30.146  38.447  27.473  1.00  0.00     0.180 A 
ATOM      2  C   UNL     1      30.630  37.205  27.019  1.00  0.00     0.208 A 
ATOM      3  C   UNL     1      29.716  36.257  26.531  1.00  0.00     0.238 A 
ATOM      4  O   UNL     1      30.139  35.146  26.112  1.00  0.00    -0.285 OA
ATOM      5  C   UNL     1      28.338  36.559  26.523  1.00  0.00     0.111 A 
ATOM      6  C   UNL     1      27.352  35.659  26.051  1.00  0.00     0.134 A 
ATOM      7  C   UNL     1      25.999  36.029  26.084  1.00  0.00     0.093 A 
ATOM      8  C   UNL     1      25.615  37.277  26.578  1.00  0.00     0.123 A 
ATOM      9  C   UNL     1      26.584  38.171  27.046  1.00  0.00     0.094 A 
ATOM     10  C   UNL     1      27.938  37.821  27.019  1.00  0.00     0.146 A 
ATOM     11  O   UNL     1      28.838  38.689  27.464  1.00  0.00    -0.452 OA
ENDROOT
BRANCH   1  12
ATOM     12  C   UNL     1      31.048  39.504  27.985  1.00  0.00     0.021 A 
ATOM     13  C   UNL     1      30.803  40.071  29.246  1.00  0.00     0.016 A 
ATOM     14  C   UNL     1      31.629  41.085  29.739  1.00  0.00     0.047 A 
ATOM     15  C   UNL     1      32.698  41.558  28.972  1.00  0.00     0.115 A 
ATOM     16  C   UNL     1      32.114  39.997  27.209  1.00  0.00     0.016 A 
ATOM     17  C   UNL     1      32.937  41.013  27.705  1.00  0.00     0.047 A 
BRANCH  15  18
ATOM     18  O   UNL     1      33.513  42.569  29.476  1.00  0.00    -0.508 OA
ATOM     19  H   UNL     1      33.295  43.548  29.329  1.00  0.00     0.293 HD
ENDBRANCH  15  18
ENDBRANCH   1  12
BRANCH   2  20
ATOM     20  O   UNL     1      31.994  36.913  27.084  1.00  0.00    -0.502 OA
ATOM     21  H   UNL     1      32.666  37.310  26.438  1.00  0.00     0.293 HD
ENDBRANCH   2  20
BRANCH   6  22
ATOM     22  O   UNL     1      27.705  34.404  25.551  1.00  0.00    -0.507 OA
ATOM     23  H   UNL     1      28.263  33.753  26.091  1.00  0.00     0.293 HD
ENDBRANCH   6  22
BRANCH   8  24
ATOM     24  O   UNL     1      24.264  37.620  26.602  1.00  0.00    -0.508 OA
ATOM     25  H   UNL     1      23.872  38.176  27.353  1.00  0.00     0.293 HD
ENDBRANCH   8  24
TORSDOF 5
ENDMDL
