MODEL 1
REMARK VINA RESULT:    28.432      0.000      0.000
REMARK INTER + INTRA:          33.799
REMARK INTER:                  34.249
REMARK INTRA:                  -0.450
REMARK UNBOUND:                -0.450
REMARK SMILES O=c1c(O)c(-c2ccc(O)cc2O)oc2cc(O)cc(O)c12
REMARK SMILES IDX 5 1 3 2 2 3 1 4 22 5 20 6 19 7 17 8 16 9 15 10 14 11 6 12
REMARK SMILES IDX 8 13 7 14 9 15 11 16 12 17 10 18 13 20 4 22 21 24 18 26
REMARK H PARENT 10 19 13 21 4 23 21 25 18 27
REMARK Flexibility Score: inf
ROOT
ATOM      1  C   UNL     1      20.041 -12.486 -15.486  1.00  0.00     0.184 A 
ATOM      2  C   UNL     1      21.221 -12.125 -14.814  1.00  0.00     0.208 A 
ATOM      3  C   UNL     1      22.378 -11.862 -15.563  1.00  0.00     0.238 A 
ATOM      4  O   UNL     1      23.446 -11.596 -14.951  1.00  0.00    -0.285 OA
ATOM      5  C   UNL     1      22.337 -11.943 -16.976  1.00  0.00     0.111 A 
ATOM      6  C   UNL     1      23.439 -11.658 -17.837  1.00  0.00     0.134 A 
ATOM      7  C   UNL     1      23.319 -11.895 -19.212  1.00  0.00     0.093 A 
ATOM      8  C   UNL     1      22.117 -12.344 -19.764  1.00  0.00     0.123 A 
ATOM      9  C   UNL     1      21.018 -12.568 -18.939  1.00  0.00     0.094 A 
ATOM     10  C   UNL     1      21.117 -12.376 -17.559  1.00  0.00     0.146 A 
ATOM     11  O   UNL     1      20.048 -12.613 -16.807  1.00  0.00    -0.451 OA
ENDROOT
BRANCH   1  12
ATOM     12  C   UNL     1      18.778 -12.753 -14.760  1.00  0.00     0.063 A 
ATOM     13  C   UNL     1      16.701 -11.952 -13.773  1.00  0.00     0.047 A 
ATOM     14  C   UNL     1      17.906 -11.698 -14.434  1.00  0.00     0.020 A 
ATOM     15  C   UNL     1      16.346 -13.264 -13.436  1.00  0.00     0.119 A 
ATOM     16  C   UNL     1      17.200 -14.320 -13.768  1.00  0.00     0.093 A 
ATOM     17  C   UNL     1      18.412 -14.074 -14.430  1.00  0.00     0.130 A 
BRANCH  15  18
ATOM     18  O   UNL     1      15.148 -13.528 -12.778  1.00  0.00    -0.508 OA
ATOM     19  H   UNL     1      14.277 -13.630 -13.285  1.00  0.00     0.293 HD
ENDBRANCH  15  18
BRANCH  17  20
ATOM     20  O   UNL     1      19.256 -15.137 -14.748  1.00  0.00    -0.507 OA
ATOM     21  H   UNL     1      19.394 -15.916 -14.114  1.00  0.00     0.293 HD
ENDBRANCH  17  20
ENDBRANCH   1  12
BRANCH   2  22
ATOM     22  O   UNL     1      21.242 -12.065 -13.417  1.00  0.00    -0.502 OA
ATOM     23  H   UNL     1      21.830 -12.667 -12.856  1.00  0.00     0.293 HD
ENDBRANCH   2  22
BRANCH   6  24
ATOM     24  O   UNL     1      24.653 -11.121 -17.400  1.00  0.00    -0.507 OA
ATOM     25  H   UNL     1      25.319 -11.604 -16.816  1.00  0.00     0.293 HD
ENDBRANCH   6  24
BRANCH   8  26
ATOM     26  O   UNL     1      22.003 -12.562 -21.136  1.00  0.00    -0.508 OA
ATOM     27  H   UNL     1      22.754 -12.982 -21.670  1.00  0.00     0.293 HD
ENDBRANCH   8  26
TORSDOF 6
ENDMDL
MODEL 2
REMARK VINA RESULT:    28.790     10.546     12.307
REMARK INTER + INTRA:          34.230
REMARK INTER:                  34.115
REMARK INTRA:                   0.115
REMARK UNBOUND:                -0.450
REMARK SMILES O=c1c(O)c(-c2ccc(O)cc2O)oc2cc(O)cc(O)c12
REMARK SMILES IDX 5 1 3 2 2 3 1 4 22 5 20 6 19 7 17 8 16 9 15 10 14 11 6 12
REMARK SMILES IDX 8 13 7 14 9 15 11 16 12 17 10 18 13 20 4 22 21 24 18 26
REMARK H PARENT 10 19 13 21 4 23 21 25 18 27
REMARK Flexibility Score: inf
ROOT
ATOM      1  C   UNL     1      28.731 -13.995 -23.055  1.00  0.00     0.184 A 
ATOM      2  C   UNL     1      28.733 -14.774 -21.886  1.00  0.00     0.208 A 
ATOM      3  C   UNL     1      29.072 -16.133 -21.974  1.00  0.00     0.238 A 
ATOM      4  O   UNL     1      29.015 -16.839 -20.933  1.00  0.00    -0.285 OA
ATOM      5  C   UNL     1      29.424 -16.692 -23.227  1.00  0.00     0.111 A 
ATOM      6  C   UNL     1      29.823 -18.048 -23.427  1.00  0.00     0.134 A 
ATOM      7  C   UNL     1      30.025 -18.523 -24.729  1.00  0.00     0.093 A 
ATOM      8  C   UNL     1      29.907 -17.674 -25.832  1.00  0.00     0.123 A 
ATOM      9  C   UNL     1      29.575 -16.335 -25.642  1.00  0.00     0.094 A 
ATOM     10  C   UNL     1      29.331 -15.841 -24.359  1.00  0.00     0.146 A 
ATOM     11  O   UNL     1      29.007 -14.560 -24.224  1.00  0.00    -0.451 OA
ENDROOT
BRANCH   1  12
ATOM     12  C   UNL     1      28.407 -12.549 -23.030  1.00  0.00     0.063 A 
ATOM     13  C   UNL     1      28.467 -10.393 -21.901  1.00  0.00     0.047 A 
ATOM     14  C   UNL     1      28.747 -11.762 -21.915  1.00  0.00     0.020 A 
ATOM     15  C   UNL     1      27.854  -9.789 -23.005  1.00  0.00     0.119 A 
ATOM     16  C   UNL     1      27.525 -10.561 -24.124  1.00  0.00     0.093 A 
ATOM     17  C   UNL     1      27.801 -11.936 -24.145  1.00  0.00     0.130 A 
BRANCH  15  18
ATOM     18  O   UNL     1      27.571  -8.426 -23.003  1.00  0.00    -0.508 OA
ATOM     19  H   UNL     1      27.032  -7.995 -23.745  1.00  0.00     0.293 HD
ENDBRANCH  15  18
BRANCH  17  20
ATOM     20  O   UNL     1      27.460 -12.695 -25.265  1.00  0.00    -0.507 OA
ATOM     21  H   UNL     1      26.495 -12.817 -25.552  1.00  0.00     0.293 HD
ENDBRANCH  17  20
ENDBRANCH   1  12
BRANCH   2  22
ATOM     22  O   UNL     1      28.368 -14.205 -20.663  1.00  0.00    -0.502 OA
ATOM     23  H   UNL     1      27.610 -13.540 -20.577  1.00  0.00     0.293 HD
ENDBRANCH   2  22
BRANCH   6  24
ATOM     24  O   UNL     1      30.059 -18.954 -22.389  1.00  0.00    -0.507 OA
ATOM     25  H   UNL     1      29.368 -19.581 -22.005  1.00  0.00     0.293 HD
ENDBRANCH   6  24
BRANCH   8  26
ATOM     26  O   UNL     1      30.125 -18.152 -27.122  1.00  0.00    -0.508 OA
ATOM     27  H   UNL     1      31.061 -18.271 -27.493  1.00  0.00     0.293 HD
ENDBRANCH   8  26
TORSDOF 6
ENDMDL
MODEL 3
REMARK VINA RESULT:    29.950      1.197      2.797
REMARK INTER + INTRA:          35.628
REMARK INTER:                  35.915
REMARK INTRA:                  -0.287
REMARK UNBOUND:                -0.450
REMARK SMILES O=c1c(O)c(-c2ccc(O)cc2O)oc2cc(O)cc(O)c12
REMARK SMILES IDX 5 1 3 2 2 3 1 4 22 5 20 6 19 7 17 8 16 9 15 10 14 11 6 12
REMARK SMILES IDX 8 13 7 14 9 15 11 16 12 17 10 18 13 20 4 22 21 24 18 26
REMARK H PARENT 10 19 13 21 4 23 21 25 18 27
REMARK Flexibility Score: inf
ROOT
ATOM      1  C   UNL     1      19.838 -12.602 -16.094  1.00  0.00     0.184 A 
ATOM      2  C   UNL     1      19.696 -13.064 -17.413  1.00  0.00     0.208 A 
ATOM      3  C   UNL     1      20.761 -12.899 -18.311  1.00  0.00     0.238 A 
ATOM      4  O   UNL     1      20.605 -13.263 -19.506  1.00  0.00    -0.285 OA
ATOM      5  C   UNL     1      21.963 -12.292 -17.875  1.00  0.00     0.111 A 
ATOM      6  C   UNL     1      23.122 -12.110 -18.689  1.00  0.00     0.134 A 
ATOM      7  C   UNL     1      24.209 -11.382 -18.188  1.00  0.00     0.093 A 
ATOM      8  C   UNL     1      24.205 -10.888 -16.882  1.00  0.00     0.123 A 
ATOM      9  C   UNL     1      23.103 -11.111 -16.061  1.00  0.00     0.094 A 
ATOM     10  C   UNL     1      21.989 -11.802 -16.543  1.00  0.00     0.146 A 
ATOM     11  O   UNL     1      20.955 -11.983 -15.729  1.00  0.00    -0.451 OA
ENDROOT
BRANCH   1  12
ATOM     12  C   UNL     1      18.764 -12.767 -15.087  1.00  0.00     0.063 A 
ATOM     13  C   UNL     1      16.955 -11.824 -13.758  1.00  0.00     0.047 A 
ATOM     14  C   UNL     1      17.987 -11.664 -14.686  1.00  0.00     0.020 A 
ATOM     15  C   UNL     1      16.679 -13.088 -13.223  1.00  0.00     0.119 A 
ATOM     16  C   UNL     1      17.436 -14.192 -13.626  1.00  0.00     0.093 A 
ATOM     17  C   UNL     1      18.475 -14.040 -14.556  1.00  0.00     0.130 A 
BRANCH  15  18
ATOM     18  O   UNL     1      15.653 -13.258 -12.298  1.00  0.00    -0.508 OA
ATOM     19  H   UNL     1      15.680 -12.812 -11.388  1.00  0.00     0.293 HD
ENDBRANCH  15  18
BRANCH  17  20
ATOM     20  O   UNL     1      19.227 -15.149 -14.943  1.00  0.00    -0.507 OA
ATOM     21  H   UNL     1      19.148 -15.549 -15.872  1.00  0.00     0.293 HD
ENDBRANCH  17  20
ENDBRANCH   1  12
BRANCH   2  22
ATOM     22  O   UNL     1      18.494 -13.648 -17.825  1.00  0.00    -0.502 OA
ATOM     23  H   UNL     1      18.449 -14.329 -18.572  1.00  0.00     0.293 HD
ENDBRANCH   2  22
BRANCH   6  24
ATOM     24  O   UNL     1      23.265 -12.641 -19.974  1.00  0.00    -0.507 OA
ATOM     25  H   UNL     1      23.240 -12.100 -20.825  1.00  0.00     0.293 HD
ENDBRANCH   6  24
BRANCH   8  26
ATOM     26  O   UNL     1      25.298 -10.178 -16.388  1.00  0.00    -0.508 OA
ATOM     27  H   UNL     1      26.165 -10.642 -16.142  1.00  0.00     0.293 HD
ENDBRANCH   8  26
TORSDOF 6
ENDMDL
