MODEL 1
REMARK VINA RESULT:    -7.932      0.000      0.000
REMARK INTER + INTRA:         -10.128
REMARK INTER:                  -9.787
REMARK INTRA:                  -0.341
REMARK UNBOUND:                -0.341
REMARK SMILES Oc1cc(O)c2cc(O)c(-c3cc(O)c(O)c(O)c3)[o+]c2c1
REMARK SMILES IDX 10 1 20 2 21 3 22 4 2 5 3 6 4 7 6 8 7 9 8 10 11 11 12 12
REMARK SMILES IDX 13 13 19 14 15 15 17 16 14 17 16 19 18 21 9 23 1 25 5 27
REMARK H PARENT 14 18 16 20 18 22 9 24 1 26 5 28
REMARK Flexibility Score: inf
ROOT
ATOM      1  C   UNL     1       9.430 -23.874  35.276  1.00  0.00     0.402 A 
ATOM      2  O   UNL     1       8.538 -24.313  34.391  1.00  0.00    -0.202 OA
ATOM      3  C   UNL     1       7.617 -25.228  34.675  1.00  0.00     0.368 A 
ATOM      4  C   UNL     1       6.721 -25.623  33.679  1.00  0.00     0.162 A 
ATOM      5  C   UNL     1       5.742 -26.580  33.950  1.00  0.00     0.128 A 
ATOM      6  C   UNL     1       5.656 -27.147  35.226  1.00  0.00     0.093 A 
ATOM      7  C   UNL     1       6.543 -26.768  36.242  1.00  0.00     0.136 A 
ATOM      8  C   UNL     1       7.541 -25.797  35.970  1.00  0.00     0.125 A 
ATOM      9  C   UNL     1       8.480 -25.367  36.922  1.00  0.00     0.078 A 
ATOM     10  C   UNL     1       9.439 -24.408  36.577  1.00  0.00     0.223 A 
ENDROOT
BRANCH   1  11
ATOM     11  C   UNL     1      10.400 -22.843  34.841  1.00  0.00     0.091 A 
ATOM     12  C   UNL     1      10.031 -21.495  34.723  1.00  0.00     0.068 A 
ATOM     13  C   UNL     1      10.949 -20.532  34.289  1.00  0.00     0.162 A 
ATOM     14  C   UNL     1      11.700 -23.227  34.484  1.00  0.00     0.068 A 
ATOM     15  C   UNL     1      12.269 -20.923  33.955  1.00  0.00     0.200 A 
ATOM     16  C   UNL     1      12.632 -22.279  34.052  1.00  0.00     0.162 A 
BRANCH  13  17
ATOM     17  O   UNL     1      10.508 -19.210  34.197  1.00  0.00    -0.504 OA
ATOM     18  H   UNL     1      10.608 -18.635  33.373  1.00  0.00     0.293 HD
ENDBRANCH  13  17
BRANCH  15  19
ATOM     19  O   UNL     1      13.233 -20.005  33.528  1.00  0.00    -0.502 OA
ATOM     20  H   UNL     1      14.090 -20.259  33.060  1.00  0.00     0.293 HD
ENDBRANCH  15  19
BRANCH  16  21
ATOM     21  O   UNL     1      13.918 -22.706  33.723  1.00  0.00    -0.504 OA
ATOM     22  H   UNL     1      14.669 -22.057  33.524  1.00  0.00     0.293 HD
ENDBRANCH  16  21
ENDBRANCH   1  11
BRANCH  10  23
ATOM     23  O   UNL     1      10.402 -24.017  37.507  1.00  0.00    -0.500 OA
ATOM     24  H   UNL     1      10.280 -23.193  38.086  1.00  0.00     0.294 HD
ENDBRANCH  10  23
BRANCH   5  25
ATOM     25  O   UNL     1       4.858 -26.960  32.943  1.00  0.00    -0.507 OA
ATOM     26  H   UNL     1       4.690 -27.935  32.726  1.00  0.00     0.293 HD
ENDBRANCH   5  25
BRANCH   7  27
ATOM     27  O   UNL     1       6.390 -27.377  37.490  1.00  0.00    -0.507 OA
ATOM     28  H   UNL     1       7.114 -27.433  38.192  1.00  0.00     0.293 HD
ENDBRANCH   7  27
TORSDOF 7
ENDMDL
MODEL 2
REMARK VINA RESULT:    -7.928      3.274      5.389
REMARK INTER + INTRA:         -10.124
REMARK INTER:                 -10.165
REMARK INTRA:                   0.041
REMARK UNBOUND:                -0.341
REMARK SMILES Oc1cc(O)c2cc(O)c(-c3cc(O)c(O)c(O)c3)[o+]c2c1
REMARK SMILES IDX 10 1 20 2 21 3 22 4 2 5 3 6 4 7 6 8 7 9 8 10 11 11 12 12
REMARK SMILES IDX 13 13 19 14 15 15 17 16 14 17 16 19 18 21 9 23 1 25 5 27
REMARK H PARENT 14 18 16 20 18 22 9 24 1 26 5 28
REMARK Flexibility Score: inf
ROOT
ATOM      1  C   UNL     1       7.025 -25.212  35.002  1.00  0.00     0.402 A 
ATOM      2  O   UNL     1       6.328 -26.122  34.326  1.00  0.00    -0.202 OA
ATOM      3  C   UNL     1       5.431 -25.812  33.396  1.00  0.00     0.368 A 
ATOM      4  C   UNL     1       4.752 -26.840  32.738  1.00  0.00     0.162 A 
ATOM      5  C   UNL     1       3.807 -26.544  31.754  1.00  0.00     0.128 A 
ATOM      6  C   UNL     1       3.539 -25.211  31.424  1.00  0.00     0.093 A 
ATOM      7  C   UNL     1       4.207 -24.162  32.069  1.00  0.00     0.136 A 
ATOM      8  C   UNL     1       5.166 -24.460  33.072  1.00  0.00     0.125 A 
ATOM      9  C   UNL     1       5.874 -23.474  33.779  1.00  0.00     0.078 A 
ATOM     10  C   UNL     1       6.802 -23.844  34.758  1.00  0.00     0.223 A 
ENDROOT
BRANCH   1  11
ATOM     11  C   UNL     1       8.004 -25.683  36.009  1.00  0.00     0.091 A 
ATOM     12  C   UNL     1       9.248 -25.054  36.170  1.00  0.00     0.068 A 
ATOM     13  C   UNL     1      10.175 -25.522  37.107  1.00  0.00     0.162 A 
ATOM     14  C   UNL     1       7.709 -26.816  36.779  1.00  0.00     0.068 A 
ATOM     15  C   UNL     1       9.859 -26.651  37.901  1.00  0.00     0.200 A 
ATOM     16  C   UNL     1       8.621 -27.295  37.724  1.00  0.00     0.162 A 
BRANCH  13  17
ATOM     17  O   UNL     1      11.392 -24.844  37.209  1.00  0.00    -0.504 OA
ATOM     18  H   UNL     1      12.003 -24.894  38.012  1.00  0.00     0.293 HD
ENDBRANCH  13  17
BRANCH  15  19
ATOM     19  O   UNL     1      10.739 -27.156  38.863  1.00  0.00    -0.502 OA
ATOM     20  H   UNL     1      10.944 -26.701  39.740  1.00  0.00     0.293 HD
ENDBRANCH  15  19
BRANCH  16  21
ATOM     21  O   UNL     1       8.277 -28.416  38.478  1.00  0.00    -0.504 OA
ATOM     22  H   UNL     1       8.262 -28.403  39.491  1.00  0.00     0.293 HD
ENDBRANCH  16  21
ENDBRANCH   1  11
BRANCH  10  23
ATOM     23  O   UNL     1       7.468 -22.866  35.496  1.00  0.00    -0.500 OA
ATOM     24  H   UNL     1       7.169 -21.897  35.488  1.00  0.00     0.294 HD
ENDBRANCH  10  23
BRANCH   5  25
ATOM     25  O   UNL     1       3.140 -27.583  31.109  1.00  0.00    -0.507 OA
ATOM     26  H   UNL     1       2.188 -27.478  30.780  1.00  0.00     0.293 HD
ENDBRANCH   5  25
BRANCH   7  27
ATOM     27  O   UNL     1       3.886 -22.859  31.681  1.00  0.00    -0.507 OA
ATOM     28  H   UNL     1       2.966 -22.449  31.762  1.00  0.00     0.293 HD
ENDBRANCH   7  27
TORSDOF 7
ENDMDL
MODEL 3
REMARK VINA RESULT:    -7.856      1.826      7.017
REMARK INTER + INTRA:         -10.035
REMARK INTER:                  -9.866
REMARK INTRA:                  -0.169
REMARK UNBOUND:                -0.341
REMARK SMILES Oc1cc(O)c2cc(O)c(-c3cc(O)c(O)c(O)c3)[o+]c2c1
REMARK SMILES IDX 10 1 20 2 21 3 22 4 2 5 3 6 4 7 6 8 7 9 8 10 11 11 12 12
REMARK SMILES IDX 13 13 19 14 15 15 17 16 14 17 16 19 18 21 9 23 1 25 5 27
REMARK H PARENT 14 18 16 20 18 22 9 24 1 26 5 28
REMARK Flexibility Score: inf
ROOT
ATOM      1  C   UNL     1       8.733 -23.364  36.430  1.00  0.00     0.402 A 
ATOM      2  O   UNL     1       9.750 -23.165  35.595  1.00  0.00    -0.202 OA
ATOM      3  C   UNL     1      10.200 -21.959  35.267  1.00  0.00     0.368 A 
ATOM      4  C   UNL     1      11.277 -21.853  34.383  1.00  0.00     0.162 A 
ATOM      5  C   UNL     1      11.773 -20.599  34.023  1.00  0.00     0.128 A 
ATOM      6  C   UNL     1      11.189 -19.441  34.550  1.00  0.00     0.093 A 
ATOM      7  C   UNL     1      10.108 -19.521  35.437  1.00  0.00     0.136 A 
ATOM      8  C   UNL     1       9.600 -20.795  35.804  1.00  0.00     0.125 A 
ATOM      9  C   UNL     1       8.513 -20.969  36.676  1.00  0.00     0.078 A 
ATOM     10  C   UNL     1       8.065 -22.258  36.987  1.00  0.00     0.223 A 
ENDROOT
BRANCH   1  11
ATOM     11  C   UNL     1       8.330 -24.758  36.726  1.00  0.00     0.091 A 
ATOM     12  C   UNL     1       7.042 -25.226  36.426  1.00  0.00     0.068 A 
ATOM     13  C   UNL     1       6.663 -26.538  36.731  1.00  0.00     0.162 A 
ATOM     14  C   UNL     1       9.232 -25.613  37.371  1.00  0.00     0.068 A 
ATOM     15  C   UNL     1       7.589 -27.406  37.359  1.00  0.00     0.200 A 
ATOM     16  C   UNL     1       8.874 -26.929  37.680  1.00  0.00     0.162 A 
BRANCH  13  17
ATOM     17  O   UNL     1       5.365 -26.932  36.402  1.00  0.00    -0.504 OA
ATOM     18  H   UNL     1       5.066 -27.893  36.323  1.00  0.00     0.293 HD
ENDBRANCH  13  17
BRANCH  15  19
ATOM     19  O   UNL     1       7.274 -28.730  37.676  1.00  0.00    -0.502 OA
ATOM     20  H   UNL     1       6.526 -29.002  38.297  1.00  0.00     0.293 HD
ENDBRANCH  15  19
BRANCH  16  21
ATOM     21  O   UNL     1       9.811 -27.748  38.308  1.00  0.00    -0.504 OA
ATOM     22  H   UNL     1      10.313 -27.459  39.139  1.00  0.00     0.293 HD
ENDBRANCH  16  21
ENDBRANCH   1  11
BRANCH  10  23
ATOM     23  O   UNL     1       6.955 -22.431  37.813  1.00  0.00    -0.500 OA
ATOM     24  H   UNL     1       7.038 -22.837  38.738  1.00  0.00     0.294 HD
ENDBRANCH  10  23
BRANCH   5  25
ATOM     25  O   UNL     1      12.848 -20.514  33.141  1.00  0.00    -0.507 OA
ATOM     26  H   UNL     1      12.786 -19.984  32.280  1.00  0.00     0.293 HD
ENDBRANCH   5  25
BRANCH   7  27
ATOM     27  O   UNL     1       9.584 -18.320  35.921  1.00  0.00    -0.507 OA
ATOM     28  H   UNL     1       9.216 -18.192  36.853  1.00  0.00     0.293 HD
ENDBRANCH   7  27
TORSDOF 7
ENDMDL
MODEL 4
REMARK VINA RESULT:    -7.832      1.831      7.173
REMARK INTER + INTRA:         -10.005
REMARK INTER:                  -9.838
REMARK INTRA:                  -0.166
REMARK UNBOUND:                -0.341
REMARK SMILES Oc1cc(O)c2cc(O)c(-c3cc(O)c(O)c(O)c3)[o+]c2c1
REMARK SMILES IDX 10 1 20 2 21 3 22 4 2 5 3 6 4 7 6 8 7 9 8 10 11 11 12 12
REMARK SMILES IDX 13 13 19 14 15 15 17 16 14 17 16 19 18 21 9 23 1 25 5 27
REMARK H PARENT 14 18 16 20 18 22 9 24 1 26 5 28
REMARK Flexibility Score: inf
ROOT
ATOM      1  C   UNL     1       8.702 -23.335  36.443  1.00  0.00     0.402 A 
ATOM      2  O   UNL     1       9.719 -23.140  35.608  1.00  0.00    -0.202 OA
ATOM      3  C   UNL     1      10.154 -21.935  35.255  1.00  0.00     0.368 A 
ATOM      4  C   UNL     1      11.233 -21.832  34.373  1.00  0.00     0.162 A 
ATOM      5  C   UNL     1      11.712 -20.580  33.988  1.00  0.00     0.128 A 
ATOM      6  C   UNL     1      11.110 -19.419  34.488  1.00  0.00     0.093 A 
ATOM      7  C   UNL     1      10.027 -19.495  35.372  1.00  0.00     0.136 A 
ATOM      8  C   UNL     1       9.535 -20.768  35.764  1.00  0.00     0.125 A 
ATOM      9  C   UNL     1       8.447 -20.939  36.636  1.00  0.00     0.078 A 
ATOM     10  C   UNL     1       8.016 -22.227  36.973  1.00  0.00     0.223 A 
ENDROOT
BRANCH   1  11
ATOM     11  C   UNL     1       8.317 -24.728  36.768  1.00  0.00     0.091 A 
ATOM     12  C   UNL     1       9.222 -25.615  37.371  1.00  0.00     0.068 A 
ATOM     13  C   UNL     1       8.856 -26.936  37.652  1.00  0.00     0.162 A 
ATOM     14  C   UNL     1       7.043 -25.191  36.414  1.00  0.00     0.068 A 
ATOM     15  C   UNL     1       7.558 -27.390  37.316  1.00  0.00     0.200 A 
ATOM     16  C   UNL     1       6.659 -26.506  36.691  1.00  0.00     0.162 A 
BRANCH  13  17
ATOM     17  O   UNL     1       9.811 -27.758  38.254  1.00  0.00    -0.504 OA
ATOM     18  H   UNL     1      10.726 -27.445  38.546  1.00  0.00     0.293 HD
ENDBRANCH  13  17
BRANCH  15  19
ATOM     19  O   UNL     1       7.131 -28.693  37.584  1.00  0.00    -0.502 OA
ATOM     20  H   UNL     1       6.201 -28.935  37.891  1.00  0.00     0.293 HD
ENDBRANCH  15  19
BRANCH  16  21
ATOM     21  O   UNL     1       5.375 -26.918  36.334  1.00  0.00    -0.504 OA
ATOM     22  H   UNL     1       4.679 -27.178  37.023  1.00  0.00     0.293 HD
ENDBRANCH  16  21
ENDBRANCH   1  11
BRANCH  10  23
ATOM     23  O   UNL     1       6.905 -22.398  37.799  1.00  0.00    -0.500 OA
ATOM     24  H   UNL     1       6.912 -22.104  38.770  1.00  0.00     0.294 HD
ENDBRANCH  10  23
BRANCH   5  25
ATOM     25  O   UNL     1      12.789 -20.498  33.108  1.00  0.00    -0.507 OA
ATOM     26  H   UNL     1      12.839 -21.075  32.277  1.00  0.00     0.293 HD
ENDBRANCH   5  25
BRANCH   7  27
ATOM     27  O   UNL     1       9.483 -18.292  35.828  1.00  0.00    -0.507 OA
ATOM     28  H   UNL     1       9.877 -17.381  35.644  1.00  0.00     0.293 HD
ENDBRANCH   7  27
TORSDOF 7
ENDMDL
MODEL 5
REMARK VINA RESULT:    -7.655      3.195      7.606
REMARK INTER + INTRA:          -9.786
REMARK INTER:                  -9.737
REMARK INTRA:                  -0.049
REMARK UNBOUND:                -0.341
REMARK SMILES Oc1cc(O)c2cc(O)c(-c3cc(O)c(O)c(O)c3)[o+]c2c1
REMARK SMILES IDX 10 1 20 2 21 3 22 4 2 5 3 6 4 7 6 8 7 9 8 10 11 11 12 12
REMARK SMILES IDX 13 13 19 14 15 15 17 16 14 17 16 19 18 21 9 23 1 25 5 27
REMARK H PARENT 14 18 16 20 18 22 9 24 1 26 5 28
REMARK Flexibility Score: inf
ROOT
ATOM      1  C   UNL     1      10.935 -20.789  34.301  1.00  0.00     0.402 A 
ATOM      2  O   UNL     1      10.036 -19.874  33.946  1.00  0.00    -0.202 OA
ATOM      3  C   UNL     1      10.266 -18.944  33.025  1.00  0.00     0.368 A 
ATOM      4  C   UNL     1       9.257 -18.027  32.719  1.00  0.00     0.162 A 
ATOM      5  C   UNL     1       9.469 -17.041  31.754  1.00  0.00     0.128 A 
ATOM      6  C   UNL     1      10.699 -16.970  31.089  1.00  0.00     0.093 A 
ATOM      7  C   UNL     1      11.726 -17.877  31.378  1.00  0.00     0.136 A 
ATOM      8  C   UNL     1      11.514 -18.879  32.361  1.00  0.00     0.125 A 
ATOM      9  C   UNL     1      12.490 -19.822  32.724  1.00  0.00     0.078 A 
ATOM     10  C   UNL     1      12.210 -20.778  33.706  1.00  0.00     0.223 A 
ENDROOT
BRANCH   1  11
ATOM     11  C   UNL     1      10.556 -21.781  35.334  1.00  0.00     0.091 A 
ATOM     12  C   UNL     1      10.820 -23.149  35.166  1.00  0.00     0.068 A 
ATOM     13  C   UNL     1      10.437 -24.080  36.137  1.00  0.00     0.162 A 
ATOM     14  C   UNL     1       9.868 -21.355  36.478  1.00  0.00     0.068 A 
ATOM     15  C   UNL     1       9.766 -23.640  37.303  1.00  0.00     0.200 A 
ATOM     16  C   UNL     1       9.481 -22.271  37.460  1.00  0.00     0.162 A 
BRANCH  13  17
ATOM     17  O   UNL     1      10.734 -25.424  35.899  1.00  0.00    -0.504 OA
ATOM     18  H   UNL     1      10.221 -26.197  36.298  1.00  0.00     0.293 HD
ENDBRANCH  13  17
BRANCH  15  19
ATOM     19  O   UNL     1       9.370 -24.521  38.313  1.00  0.00    -0.502 OA
ATOM     20  H   UNL     1       8.496 -25.025  38.317  1.00  0.00     0.293 HD
ENDBRANCH  15  19
BRANCH  16  21
ATOM     21  O   UNL     1       8.813 -21.799  38.589  1.00  0.00    -0.504 OA
ATOM     22  H   UNL     1       8.679 -22.367  39.417  1.00  0.00     0.293 HD
ENDBRANCH  16  21
ENDBRANCH   1  11
BRANCH  10  23
ATOM     23  O   UNL     1      13.195 -21.682  34.103  1.00  0.00    -0.500 OA
ATOM     24  H   UNL     1      13.499 -22.438  33.499  1.00  0.00     0.294 HD
ENDBRANCH  10  23
BRANCH   5  25
ATOM     25  O   UNL     1       8.450 -16.137  31.462  1.00  0.00    -0.507 OA
ATOM     26  H   UNL     1       8.358 -15.263  31.966  1.00  0.00     0.293 HD
ENDBRANCH   5  25
BRANCH   7  27
ATOM     27  O   UNL     1      12.922 -17.742  30.669  1.00  0.00    -0.507 OA
ATOM     28  H   UNL     1      13.184 -18.314  29.879  1.00  0.00     0.293 HD
ENDBRANCH   7  27
TORSDOF 7
ENDMDL
MODEL 6
REMARK VINA RESULT:    -7.651      2.206      7.036
REMARK INTER + INTRA:          -9.782
REMARK INTER:                  -9.640
REMARK INTRA:                  -0.142
REMARK UNBOUND:                -0.341
REMARK SMILES Oc1cc(O)c2cc(O)c(-c3cc(O)c(O)c(O)c3)[o+]c2c1
REMARK SMILES IDX 10 1 20 2 21 3 22 4 2 5 3 6 4 7 6 8 7 9 8 10 11 11 12 12
REMARK SMILES IDX 13 13 19 14 15 15 17 16 14 17 16 19 18 21 9 23 1 25 5 27
REMARK H PARENT 14 18 16 20 18 22 9 24 1 26 5 28
REMARK Flexibility Score: inf
ROOT
ATOM      1  C   UNL     1       6.624 -25.658  34.744  1.00  0.00     0.402 A 
ATOM      2  O   UNL     1       7.725 -25.007  34.378  1.00  0.00    -0.202 OA
ATOM      3  C   UNL     1       8.788 -24.869  35.164  1.00  0.00     0.368 A 
ATOM      4  C   UNL     1       9.900 -24.169  34.688  1.00  0.00     0.162 A 
ATOM      5  C   UNL     1      11.030 -24.012  35.491  1.00  0.00     0.128 A 
ATOM      6  C   UNL     1      11.052 -24.559  36.779  1.00  0.00     0.093 A 
ATOM      7  C   UNL     1       9.951 -25.265  37.279  1.00  0.00     0.136 A 
ATOM      8  C   UNL     1       8.798 -25.424  36.467  1.00  0.00     0.125 A 
ATOM      9  C   UNL     1       7.644 -26.105  36.890  1.00  0.00     0.078 A 
ATOM     10  C   UNL     1       6.544 -26.217  36.033  1.00  0.00     0.223 A 
ENDROOT
BRANCH   1  11
ATOM     11  C   UNL     1       5.509 -25.752  33.774  1.00  0.00     0.091 A 
ATOM     12  C   UNL     1       4.948 -26.988  33.421  1.00  0.00     0.068 A 
ATOM     13  C   UNL     1       3.911 -27.068  32.486  1.00  0.00     0.162 A 
ATOM     14  C   UNL     1       5.039 -24.588  33.151  1.00  0.00     0.068 A 
ATOM     15  C   UNL     1       3.423 -25.885  31.879  1.00  0.00     0.200 A 
ATOM     16  C   UNL     1       4.000 -24.647  32.217  1.00  0.00     0.162 A 
BRANCH  13  17
ATOM     17  O   UNL     1       3.404 -28.334  32.186  1.00  0.00    -0.504 OA
ATOM     18  H   UNL     1       2.623 -28.501  31.568  1.00  0.00     0.293 HD
ENDBRANCH  13  17
BRANCH  15  19
ATOM     19  O   UNL     1       2.380 -25.900  30.949  1.00  0.00    -0.502 OA
ATOM     20  H   UNL     1       2.428 -25.473  30.036  1.00  0.00     0.293 HD
ENDBRANCH  15  19
BRANCH  16  21
ATOM     21  O   UNL     1       3.555 -23.462  31.634  1.00  0.00    -0.504 OA
ATOM     22  H   UNL     1       3.032 -23.447  30.767  1.00  0.00     0.293 HD
ENDBRANCH  16  21
ENDBRANCH   1  11
BRANCH  10  23
ATOM     23  O   UNL     1       5.380 -26.849  36.470  1.00  0.00    -0.500 OA
ATOM     24  H   UNL     1       5.120 -26.869  37.450  1.00  0.00     0.294 HD
ENDBRANCH  10  23
BRANCH   5  25
ATOM     25  O   UNL     1      12.129 -23.312  34.998  1.00  0.00    -0.507 OA
ATOM     26  H   UNL     1      12.503 -23.495  34.074  1.00  0.00     0.293 HD
ENDBRANCH   5  25
BRANCH   7  27
ATOM     27  O   UNL     1      10.052 -25.783  38.573  1.00  0.00    -0.507 OA
ATOM     28  H   UNL     1      10.583 -26.606  38.818  1.00  0.00     0.293 HD
ENDBRANCH   7  27
TORSDOF 7
ENDMDL
MODEL 7
REMARK VINA RESULT:    -7.645      2.016      7.210
REMARK INTER + INTRA:          -9.774
REMARK INTER:                  -9.462
REMARK INTRA:                  -0.312
REMARK UNBOUND:                -0.341
REMARK SMILES Oc1cc(O)c2cc(O)c(-c3cc(O)c(O)c(O)c3)[o+]c2c1
REMARK SMILES IDX 10 1 20 2 21 3 22 4 2 5 3 6 4 7 6 8 7 9 8 10 11 11 12 12
REMARK SMILES IDX 13 13 19 14 15 15 17 16 14 17 16 19 18 21 9 23 1 25 5 27
REMARK H PARENT 14 18 16 20 18 22 9 24 1 26 5 28
REMARK Flexibility Score: inf
ROOT
ATOM      1  C   UNL     1      10.839 -22.484  35.006  1.00  0.00     0.402 A 
ATOM      2  O   UNL     1      10.201 -21.396  35.429  1.00  0.00    -0.202 OA
ATOM      3  C   UNL     1      10.564 -20.161  35.098  1.00  0.00     0.368 A 
ATOM      4  C   UNL     1       9.828 -19.080  35.590  1.00  0.00     0.162 A 
ATOM      5  C   UNL     1      10.186 -17.773  35.257  1.00  0.00     0.128 A 
ATOM      6  C   UNL     1      11.288 -17.543  34.425  1.00  0.00     0.093 A 
ATOM      7  C   UNL     1      12.042 -18.609  33.920  1.00  0.00     0.136 A 
ATOM      8  C   UNL     1      11.683 -19.940  34.258  1.00  0.00     0.125 A 
ATOM      9  C   UNL     1      12.388 -21.068  33.808  1.00  0.00     0.078 A 
ATOM     10  C   UNL     1      11.976 -22.349  34.189  1.00  0.00     0.223 A 
ENDROOT
BRANCH   1  11
ATOM     11  C   UNL     1      10.330 -23.807  35.436  1.00  0.00     0.091 A 
ATOM     12  C   UNL     1       9.152 -24.348  34.897  1.00  0.00     0.068 A 
ATOM     13  C   UNL     1       8.667 -25.588  35.327  1.00  0.00     0.162 A 
ATOM     14  C   UNL     1      11.004 -24.511  36.442  1.00  0.00     0.068 A 
ATOM     15  C   UNL     1       9.368 -26.306  36.326  1.00  0.00     0.200 A 
ATOM     16  C   UNL     1      10.537 -25.753  36.881  1.00  0.00     0.162 A 
BRANCH  13  17
ATOM     17  O   UNL     1       7.489 -26.060  34.744  1.00  0.00    -0.504 OA
ATOM     18  H   UNL     1       6.862 -25.492  34.192  1.00  0.00     0.293 HD
ENDBRANCH  13  17
BRANCH  15  19
ATOM     19  O   UNL     1       8.940 -27.554  36.786  1.00  0.00    -0.502 OA
ATOM     20  H   UNL     1       8.901 -28.387  36.216  1.00  0.00     0.293 HD
ENDBRANCH  15  19
BRANCH  16  21
ATOM     21  O   UNL     1      11.250 -26.424  37.874  1.00  0.00    -0.504 OA
ATOM     22  H   UNL     1      10.800 -27.033  38.546  1.00  0.00     0.293 HD
ENDBRANCH  16  21
ENDBRANCH   1  11
BRANCH  10  23
ATOM     23  O   UNL     1      12.705 -23.467  33.784  1.00  0.00    -0.500 OA
ATOM     24  H   UNL     1      13.538 -23.768  34.277  1.00  0.00     0.294 HD
ENDBRANCH  10  23
BRANCH   5  25
ATOM     25  O   UNL     1       9.439 -16.709  35.757  1.00  0.00    -0.507 OA
ATOM     26  H   UNL     1       9.874 -15.949  36.266  1.00  0.00     0.293 HD
ENDBRANCH   5  25
BRANCH   7  27
ATOM     27  O   UNL     1      13.125 -18.296  33.093  1.00  0.00    -0.507 OA
ATOM     28  H   UNL     1      13.043 -18.003  32.131  1.00  0.00     0.293 HD
ENDBRANCH   7  27
TORSDOF 7
ENDMDL
MODEL 8
REMARK VINA RESULT:    -7.561      1.757      2.849
REMARK INTER + INTRA:          -9.671
REMARK INTER:                  -9.812
REMARK INTRA:                   0.141
REMARK UNBOUND:                -0.341
REMARK SMILES Oc1cc(O)c2cc(O)c(-c3cc(O)c(O)c(O)c3)[o+]c2c1
REMARK SMILES IDX 10 1 20 2 21 3 22 4 2 5 3 6 4 7 6 8 7 9 8 10 11 11 12 12
REMARK SMILES IDX 13 13 19 14 15 15 17 16 14 17 16 19 18 21 9 23 1 25 5 27
REMARK H PARENT 14 18 16 20 18 22 9 24 1 26 5 28
REMARK Flexibility Score: inf
ROOT
ATOM      1  C   UNL     1       9.625 -22.326  35.113  1.00  0.00     0.402 A 
ATOM      2  O   UNL     1      10.008 -23.437  35.736  1.00  0.00    -0.202 OA
ATOM      3  C   UNL     1       9.167 -24.403  36.090  1.00  0.00     0.368 A 
ATOM      4  C   UNL     1       9.667 -25.536  36.738  1.00  0.00     0.162 A 
ATOM      5  C   UNL     1       8.807 -26.567  37.118  1.00  0.00     0.128 A 
ATOM      6  C   UNL     1       7.437 -26.467  36.849  1.00  0.00     0.093 A 
ATOM      7  C   UNL     1       6.912 -25.343  36.201  1.00  0.00     0.136 A 
ATOM      8  C   UNL     1       7.783 -24.291  35.815  1.00  0.00     0.125 A 
ATOM      9  C   UNL     1       7.344 -23.121  35.172  1.00  0.00     0.078 A 
ATOM     10  C   UNL     1       8.262 -22.125  34.826  1.00  0.00     0.223 A 
ENDROOT
BRANCH   1  11
ATOM     11  C   UNL     1      10.660 -21.326  34.761  1.00  0.00     0.091 A 
ATOM     12  C   UNL     1      10.394 -19.950  34.811  1.00  0.00     0.068 A 
ATOM     13  C   UNL     1      11.371 -19.014  34.453  1.00  0.00     0.162 A 
ATOM     14  C   UNL     1      11.914 -21.762  34.313  1.00  0.00     0.068 A 
ATOM     15  C   UNL     1      12.645 -19.461  34.027  1.00  0.00     0.200 A 
ATOM     16  C   UNL     1      12.904 -20.842  33.956  1.00  0.00     0.162 A 
BRANCH  13  17
ATOM     17  O   UNL     1      11.031 -17.662  34.528  1.00  0.00    -0.504 OA
ATOM     18  H   UNL     1      10.307 -17.227  33.975  1.00  0.00     0.293 HD
ENDBRANCH  13  17
BRANCH  15  19
ATOM     19  O   UNL     1      13.665 -18.574  33.671  1.00  0.00    -0.502 OA
ATOM     20  H   UNL     1      13.520 -17.597  33.460  1.00  0.00     0.293 HD
ENDBRANCH  15  19
BRANCH  16  21
ATOM     21  O   UNL     1      14.142 -21.322  33.532  1.00  0.00    -0.504 OA
ATOM     22  H   UNL     1      14.620 -20.946  32.722  1.00  0.00     0.293 HD
ENDBRANCH  16  21
ENDBRANCH   1  11
BRANCH  10  23
ATOM     23  O   UNL     1       7.820 -20.942  34.234  1.00  0.00    -0.500 OA
ATOM     24  H   UNL     1       7.127 -20.944  33.493  1.00  0.00     0.294 HD
ENDBRANCH  10  23
BRANCH   5  25
ATOM     25  O   UNL     1       9.324 -27.689  37.763  1.00  0.00    -0.507 OA
ATOM     26  H   UNL     1       9.435 -28.573  37.281  1.00  0.00     0.293 HD
ENDBRANCH   5  25
BRANCH   7  27
ATOM     27  O   UNL     1       5.535 -25.320  35.965  1.00  0.00    -0.507 OA
ATOM     28  H   UNL     1       4.862 -25.893  36.455  1.00  0.00     0.293 HD
ENDBRANCH   7  27
TORSDOF 7
ENDMDL
MODEL 9
REMARK VINA RESULT:    -7.376      3.196      4.888
REMARK INTER + INTRA:          -9.442
REMARK INTER:                  -9.143
REMARK INTRA:                  -0.299
REMARK UNBOUND:                -0.341
REMARK SMILES Oc1cc(O)c2cc(O)c(-c3cc(O)c(O)c(O)c3)[o+]c2c1
REMARK SMILES IDX 10 1 20 2 21 3 22 4 2 5 3 6 4 7 6 8 7 9 8 10 11 11 12 12
REMARK SMILES IDX 13 13 19 14 15 15 17 16 14 17 16 19 18 21 9 23 1 25 5 27
REMARK H PARENT 14 18 16 20 18 22 9 24 1 26 5 28
REMARK Flexibility Score: inf
ROOT
ATOM      1  C   UNL     1       9.123 -22.778  37.415  1.00  0.00     0.402 A 
ATOM      2  O   UNL     1      10.153 -23.530  37.795  1.00  0.00    -0.202 OA
ATOM      3  C   UNL     1      10.163 -24.856  37.703  1.00  0.00     0.368 A 
ATOM      4  C   UNL     1      11.294 -25.559  38.126  1.00  0.00     0.162 A 
ATOM      5  C   UNL     1      11.333 -26.951  38.038  1.00  0.00     0.128 A 
ATOM      6  C   UNL     1      10.233 -27.647  37.524  1.00  0.00     0.093 A 
ATOM      7  C   UNL     1       9.088 -26.966  37.093  1.00  0.00     0.136 A 
ATOM      8  C   UNL     1       9.044 -25.550  37.183  1.00  0.00     0.125 A 
ATOM      9  C   UNL     1       7.934 -24.786  36.788  1.00  0.00     0.078 A 
ATOM     10  C   UNL     1       7.962 -23.393  36.912  1.00  0.00     0.223 A 
ENDROOT
BRANCH   1  11
ATOM     11  C   UNL     1       9.237 -21.308  37.558  1.00  0.00     0.091 A 
ATOM     12  C   UNL     1       9.323 -20.469  36.437  1.00  0.00     0.068 A 
ATOM     13  C   UNL     1       9.455 -19.084  36.583  1.00  0.00     0.162 A 
ATOM     14  C   UNL     1       9.319 -20.745  38.838  1.00  0.00     0.068 A 
ATOM     15  C   UNL     1       9.509 -18.518  37.881  1.00  0.00     0.200 A 
ATOM     16  C   UNL     1       9.445 -19.363  39.004  1.00  0.00     0.162 A 
BRANCH  13  17
ATOM     17  O   UNL     1       9.535 -18.314  35.421  1.00  0.00    -0.504 OA
ATOM     18  H   UNL     1       8.736 -18.036  34.869  1.00  0.00     0.293 HD
ENDBRANCH  13  17
BRANCH  15  19
ATOM     19  O   UNL     1       9.627 -17.141  38.090  1.00  0.00    -0.502 OA
ATOM     20  H   UNL     1       8.910 -16.568  38.509  1.00  0.00     0.293 HD
ENDBRANCH  15  19
BRANCH  16  21
ATOM     21  O   UNL     1       9.507 -18.847  40.298  1.00  0.00    -0.504 OA
ATOM     22  H   UNL     1       9.701 -17.870  40.483  1.00  0.00     0.293 HD
ENDBRANCH  16  21
ENDBRANCH   1  11
BRANCH  10  23
ATOM     23  O   UNL     1       6.842 -22.637  36.566  1.00  0.00    -0.500 OA
ATOM     24  H   UNL     1       6.450 -22.663  35.632  1.00  0.00     0.294 HD
ENDBRANCH  10  23
BRANCH   5  25
ATOM     25  O   UNL     1      12.470 -27.633  38.465  1.00  0.00    -0.507 OA
ATOM     26  H   UNL     1      13.008 -28.214  37.832  1.00  0.00     0.293 HD
ENDBRANCH   5  25
BRANCH   7  27
ATOM     27  O   UNL     1       8.035 -27.733  36.589  1.00  0.00    -0.507 OA
ATOM     28  H   UNL     1       7.121 -27.369  36.362  1.00  0.00     0.293 HD
ENDBRANCH   7  27
TORSDOF 7
ENDMDL
