MODEL 1
REMARK VINA RESULT:    22.401      0.000      0.000
REMARK INTER + INTRA:          50.196
REMARK INTER:                  51.211
REMARK INTRA:                  -1.015
REMARK UNBOUND:                -1.015
REMARK SMILES CCCCCCCCCCCCCCCCCCCCCCCC(=O)[O-]
REMARK SMILES IDX 13 1 14 2 15 3 16 4 17 5 18 6 19 7 20 8 21 9 22 10 23 11
REMARK SMILES IDX 24 12 25 13 26 14 12 15 11 16 10 17 9 18 8 19 7 20 6 21 5 22
REMARK SMILES IDX 4 23 3 24 2 25 1 26
REMARK H PARENT
REMARK Flexibility Score: inf
ROOT
ATOM      1  C   UNL     1      -8.256 -13.230  21.852  1.00  0.00     0.000 C 
ENDROOT
BRANCH   1   2
ATOM      2  C   UNL     1      -8.409 -13.050  20.331  1.00  0.00     0.000 C 
BRANCH   2   3
ATOM      3  C   UNL     1      -9.156 -14.219  19.669  1.00  0.00     0.000 C 
BRANCH   3   4
ATOM      4  C   UNL     1      -8.850 -14.341  18.166  1.00  0.00     0.000 C 
BRANCH   4   5
ATOM      5  C   UNL     1      -9.674 -15.443  17.482  1.00  0.00     0.000 C 
BRANCH   5   6
ATOM      6  C   UNL     1      -9.704 -16.750  18.295  1.00  0.00     0.000 C 
BRANCH   6   7
ATOM      7  C   UNL     1     -10.055 -17.984  17.431  1.00  0.00     0.000 C 
BRANCH   7   8
ATOM      8  C   UNL     1      -8.931 -19.032  17.363  1.00  0.00     0.000 C 
BRANCH   8   9
ATOM      9  C   UNL     1      -8.436 -19.353  15.941  1.00  0.00     0.000 C 
BRANCH   9  10
ATOM     10  C   UNL     1      -6.917 -19.146  15.750  1.00  0.00     0.006 C 
BRANCH  10  11
ATOM     11  C   UNL     1      -6.212 -20.398  15.216  1.00  0.00     0.053 C 
BRANCH  11  12
ATOM     12  C   UNL     1      -5.649 -20.139  13.854  1.00  0.00     0.041 C 
ATOM     13  O   UNL     1      -5.006 -21.039  13.252  1.00  0.00    -0.550 OA
ATOM     14  O   UNL     1      -5.794 -18.888  13.268  1.00  0.00    -0.550 OA
ENDBRANCH  11  12
ENDBRANCH  10  11
ENDBRANCH   9  10
ENDBRANCH   8   9
ENDBRANCH   7   8
ENDBRANCH   6   7
ENDBRANCH   5   6
ENDBRANCH   4   5
ENDBRANCH   3   4
ENDBRANCH   2   3
ENDBRANCH   1   2
BRANCH   1  15
ATOM     15  C   UNL     1      -7.306 -12.185  22.473  1.00  0.00     0.000 C 
BRANCH  15  16
ATOM     16  C   UNL     1      -6.546 -12.699  23.707  1.00  0.00     0.000 C 
BRANCH  16  17
ATOM     17  C   UNL     1      -6.574 -11.708  24.882  1.00  0.00     0.000 C 
BRANCH  17  18
ATOM     18  C   UNL     1      -6.119 -10.298  24.475  1.00  0.00    -0.000 C 
BRANCH  18  19
ATOM     19  C   UNL     1      -5.772  -9.419  25.687  1.00  0.00    -0.000 C 
BRANCH  19  20
ATOM     20  C   UNL     1      -4.674  -8.408  25.335  1.00  0.00    -0.000 C 
BRANCH  20  21
ATOM     21  C   UNL     1      -3.527  -9.086  24.570  1.00  0.00    -0.000 C 
BRANCH  21  22
ATOM     22  C   UNL     1      -2.558  -8.076  23.930  1.00  0.00    -0.000 C 
BRANCH  22  23
ATOM     23  C   UNL     1      -1.078  -8.244  24.328  1.00  0.00    -0.000 C 
BRANCH  23  24
ATOM     24  C   UNL     1      -0.841  -8.922  25.690  1.00  0.00    -0.000 C 
BRANCH  24  25
ATOM     25  C   UNL     1       0.298  -8.271  26.488  1.00  0.00    -0.003 C 
ATOM     26  C   UNL     1       0.654  -6.901  25.918  1.00  0.00     0.004 C 
ENDBRANCH  24  25
ENDBRANCH  23  24
ENDBRANCH  22  23
ENDBRANCH  21  22
ENDBRANCH  20  21
ENDBRANCH  19  20
ENDBRANCH  18  19
ENDBRANCH  17  18
ENDBRANCH  16  17
ENDBRANCH  15  16
ENDBRANCH   1  15
TORSDOF 22
ENDMDL
MODEL 2
REMARK VINA RESULT:    22.959      4.535     11.212
REMARK INTER + INTRA:          51.471
REMARK INTER:                  52.753
REMARK INTRA:                  -1.282
REMARK UNBOUND:                -1.015
REMARK SMILES CCCCCCCCCCCCCCCCCCCCCCCC(=O)[O-]
REMARK SMILES IDX 13 1 14 2 15 3 16 4 17 5 18 6 19 7 20 8 21 9 22 10 23 11
REMARK SMILES IDX 24 12 25 13 26 14 12 15 11 16 10 17 9 18 8 19 7 20 6 21 5 22
REMARK SMILES IDX 4 23 3 24 2 25 1 26
REMARK H PARENT
REMARK Flexibility Score: inf
ROOT
ATOM      1  C   UNL     1      -8.766 -13.784  20.451  1.00  0.00     0.000 C 
ENDROOT
BRANCH   1   2
ATOM      2  C   UNL     1      -8.142 -12.519  21.069  1.00  0.00     0.000 C 
BRANCH   2   3
ATOM      3  C   UNL     1      -8.135 -12.552  22.605  1.00  0.00     0.000 C 
BRANCH   3   4
ATOM      4  C   UNL     1      -6.725 -12.378  23.195  1.00  0.00     0.000 C 
BRANCH   4   5
ATOM      5  C   UNL     1      -6.748 -11.846  24.636  1.00  0.00     0.000 C 
BRANCH   5   6
ATOM      6  C   UNL     1      -6.386 -12.926  25.672  1.00  0.00     0.000 C 
BRANCH   6   7
ATOM      7  C   UNL     1      -5.437 -14.006  25.102  1.00  0.00     0.000 C 
BRANCH   7   8
ATOM      8  C   UNL     1      -4.649 -14.770  26.183  1.00  0.00     0.000 C 
BRANCH   8   9
ATOM      9  C   UNL     1      -5.306 -16.080  26.650  1.00  0.00     0.000 C 
BRANCH   9  10
ATOM     10  C   UNL     1      -4.576 -17.351  26.160  1.00  0.00     0.006 C 
BRANCH  10  11
ATOM     11  C   UNL     1      -5.528 -18.375  25.532  1.00  0.00     0.053 C 
BRANCH  11  12
ATOM     12  C   UNL     1      -5.550 -18.224  24.044  1.00  0.00     0.041 C 
ATOM     13  O   UNL     1      -6.485 -18.729  23.368  1.00  0.00    -0.550 OA
ATOM     14  O   UNL     1      -4.512 -17.565  23.397  1.00  0.00    -0.550 OA
ENDBRANCH  11  12
ENDBRANCH  10  11
ENDBRANCH   9  10
ENDBRANCH   8   9
ENDBRANCH   7   8
ENDBRANCH   6   7
ENDBRANCH   5   6
ENDBRANCH   4   5
ENDBRANCH   3   4
ENDBRANCH   2   3
ENDBRANCH   1   2
BRANCH   1  15
ATOM     15  C   UNL     1      -8.256 -14.048  19.019  1.00  0.00     0.000 C 
BRANCH  15  16
ATOM     16  C   UNL     1      -9.325 -13.829  17.935  1.00  0.00     0.000 C 
BRANCH  16  17
ATOM     17  C   UNL     1      -9.755 -15.136  17.248  1.00  0.00     0.000 C 
BRANCH  17  18
ATOM     18  C   UNL     1      -9.304 -16.385  18.021  1.00  0.00    -0.000 C 
BRANCH  18  19
ATOM     19  C   UNL     1     -10.303 -17.546  17.898  1.00  0.00    -0.000 C 
BRANCH  19  20
ATOM     20  C   UNL     1      -9.576 -18.866  17.614  1.00  0.00    -0.000 C 
BRANCH  20  21
ATOM     21  C   UNL     1      -8.152 -18.610  17.096  1.00  0.00    -0.000 C 
BRANCH  21  22
ATOM     22  C   UNL     1      -7.866 -19.321  15.761  1.00  0.00    -0.000 C 
BRANCH  22  23
ATOM     23  C   UNL     1      -6.510 -20.052  15.684  1.00  0.00    -0.000 C 
BRANCH  23  24
ATOM     24  C   UNL     1      -6.020 -20.372  14.260  1.00  0.00    -0.000 C 
BRANCH  24  25
ATOM     25  C   UNL     1      -5.304 -19.186  13.598  1.00  0.00    -0.003 C 
ATOM     26  C   UNL     1      -6.157 -18.582  12.485  1.00  0.00     0.004 C 
ENDBRANCH  24  25
ENDBRANCH  23  24
ENDBRANCH  22  23
ENDBRANCH  21  22
ENDBRANCH  20  21
ENDBRANCH  19  20
ENDBRANCH  18  19
ENDBRANCH  17  18
ENDBRANCH  16  17
ENDBRANCH  15  16
ENDBRANCH   1  15
TORSDOF 22
ENDMDL
MODEL 3
REMARK VINA RESULT:    23.142      4.415     11.059
REMARK INTER + INTRA:          51.890
REMARK INTER:                  52.932
REMARK INTRA:                  -1.041
REMARK UNBOUND:                -1.015
REMARK SMILES CCCCCCCCCCCCCCCCCCCCCCCC(=O)[O-]
REMARK SMILES IDX 13 1 14 2 15 3 16 4 17 5 18 6 19 7 20 8 21 9 22 10 23 11
REMARK SMILES IDX 24 12 25 13 26 14 12 15 11 16 10 17 9 18 8 19 7 20 6 21 5 22
REMARK SMILES IDX 4 23 3 24 2 25 1 26
REMARK H PARENT
REMARK Flexibility Score: inf
ROOT
ATOM      1  C   UNL     1      -8.765 -13.503  21.186  1.00  0.00     0.000 C 
ENDROOT
BRANCH   1   2
ATOM      2  C   UNL     1      -7.630 -13.450  22.225  1.00  0.00     0.000 C 
BRANCH   2   3
ATOM      3  C   UNL     1      -7.211 -12.012  22.570  1.00  0.00     0.000 C 
BRANCH   3   4
ATOM      4  C   UNL     1      -6.309 -11.940  23.815  1.00  0.00     0.000 C 
BRANCH   4   5
ATOM      5  C   UNL     1      -6.991 -12.499  25.073  1.00  0.00     0.000 C 
BRANCH   5   6
ATOM      6  C   UNL     1      -5.983 -13.049  26.098  1.00  0.00     0.000 C 
BRANCH   6   7
ATOM      7  C   UNL     1      -5.204 -14.277  25.571  1.00  0.00     0.000 C 
BRANCH   7   8
ATOM      8  C   UNL     1      -5.107 -15.430  26.586  1.00  0.00     0.000 C 
BRANCH   8   9
ATOM      9  C   UNL     1      -4.562 -16.749  26.009  1.00  0.00     0.000 C 
BRANCH   9  10
ATOM     10  C   UNL     1      -5.612 -17.880  25.946  1.00  0.00     0.006 C 
BRANCH  10  11
ATOM     11  C   UNL     1      -5.361 -18.858  24.793  1.00  0.00     0.053 C 
BRANCH  11  12
ATOM     12  C   UNL     1      -5.416 -18.143  23.481  1.00  0.00     0.041 C 
ATOM     13  O   UNL     1      -6.508 -18.029  22.865  1.00  0.00    -0.550 OA
ATOM     14  O   UNL     1      -4.252 -17.642  22.913  1.00  0.00    -0.550 OA
ENDBRANCH  11  12
ENDBRANCH  10  11
ENDBRANCH   9  10
ENDBRANCH   8   9
ENDBRANCH   7   8
ENDBRANCH   6   7
ENDBRANCH   5   6
ENDBRANCH   4   5
ENDBRANCH   3   4
ENDBRANCH   2   3
ENDBRANCH   1   2
BRANCH   1  15
ATOM     15  C   UNL     1      -8.329 -14.199  19.880  1.00  0.00     0.000 C 
BRANCH  15  16
ATOM     16  C   UNL     1      -8.996 -13.618  18.621  1.00  0.00     0.000 C 
BRANCH  16  17
ATOM     17  C   UNL     1      -8.894 -14.554  17.405  1.00  0.00     0.000 C 
BRANCH  17  18
ATOM     18  C   UNL     1      -9.940 -15.680  17.439  1.00  0.00    -0.000 C 
BRANCH  18  19
ATOM     19  C   UNL     1      -9.450 -16.916  18.209  1.00  0.00    -0.000 C 
BRANCH  19  20
ATOM     20  C   UNL     1     -10.166 -18.183  17.725  1.00  0.00    -0.000 C 
BRANCH  20  21
ATOM     21  C   UNL     1      -9.200 -19.106  16.968  1.00  0.00    -0.000 C 
BRANCH  21  22
ATOM     22  C   UNL     1      -7.809 -18.476  16.764  1.00  0.00    -0.000 C 
BRANCH  22  23
ATOM     23  C   UNL     1      -6.774 -19.384  16.069  1.00  0.00    -0.000 C 
BRANCH  23  24
ATOM     24  C   UNL     1      -6.994 -19.586  14.558  1.00  0.00    -0.000 C 
BRANCH  24  25
ATOM     25  C   UNL     1      -5.677 -19.680  13.774  1.00  0.00    -0.003 C 
ATOM     26  C   UNL     1      -5.280 -21.136  13.541  1.00  0.00     0.004 C 
ENDBRANCH  24  25
ENDBRANCH  23  24
ENDBRANCH  22  23
ENDBRANCH  21  22
ENDBRANCH  20  21
ENDBRANCH  19  20
ENDBRANCH  18  19
ENDBRANCH  17  18
ENDBRANCH  16  17
ENDBRANCH  15  16
ENDBRANCH   1  15
TORSDOF 22
ENDMDL
MODEL 4
REMARK VINA RESULT:    23.584      3.459      5.516
REMARK INTER + INTRA:          52.901
REMARK INTER:                  53.363
REMARK INTRA:                  -0.462
REMARK UNBOUND:                -1.015
REMARK SMILES CCCCCCCCCCCCCCCCCCCCCCCC(=O)[O-]
REMARK SMILES IDX 13 1 14 2 15 3 16 4 17 5 18 6 19 7 20 8 21 9 22 10 23 11
REMARK SMILES IDX 24 12 25 13 26 14 12 15 11 16 10 17 9 18 8 19 7 20 6 21 5 22
REMARK SMILES IDX 4 23 3 24 2 25 1 26
REMARK H PARENT
REMARK Flexibility Score: inf
ROOT
ATOM      1  C   UNL     1      -7.898 -13.424  22.036  1.00  0.00     0.000 C 
ENDROOT
BRANCH   1   2
ATOM      2  C   UNL     1      -8.997 -13.352  20.961  1.00  0.00     0.000 C 
BRANCH   2   3
ATOM      3  C   UNL     1      -8.774 -14.355  19.818  1.00  0.00     0.000 C 
BRANCH   3   4
ATOM      4  C   UNL     1      -8.651 -13.671  18.445  1.00  0.00     0.000 C 
BRANCH   4   5
ATOM      5  C   UNL     1      -8.636 -14.676  17.282  1.00  0.00     0.000 C 
BRANCH   5   6
ATOM      6  C   UNL     1      -9.857 -15.614  17.295  1.00  0.00     0.000 C 
BRANCH   6   7
ATOM      7  C   UNL     1      -9.656 -16.845  18.209  1.00  0.00     0.000 C 
BRANCH   7   8
ATOM      8  C   UNL     1      -9.973 -18.185  17.522  1.00  0.00     0.000 C 
BRANCH   8   9
ATOM      9  C   UNL     1      -8.773 -19.138  17.388  1.00  0.00     0.000 C 
BRANCH   9  10
ATOM     10  C   UNL     1      -7.885 -18.851  16.156  1.00  0.00     0.006 C 
BRANCH  10  11
ATOM     11  C   UNL     1      -6.572 -19.641  16.176  1.00  0.00     0.053 C 
BRANCH  11  12
ATOM     12  C   UNL     1      -6.174 -20.027  14.787  1.00  0.00     0.041 C 
ATOM     13  O   UNL     1      -5.762 -21.193  14.545  1.00  0.00    -0.550 OA
ATOM     14  O   UNL     1      -6.214 -19.087  13.765  1.00  0.00    -0.550 OA
ENDBRANCH  11  12
ENDBRANCH  10  11
ENDBRANCH   9  10
ENDBRANCH   8   9
ENDBRANCH   7   8
ENDBRANCH   6   7
ENDBRANCH   5   6
ENDBRANCH   4   5
ENDBRANCH   3   4
ENDBRANCH   2   3
ENDBRANCH   1   2
BRANCH   1  15
ATOM     15  C   UNL     1      -7.474 -12.027  22.534  1.00  0.00     0.000 C 
BRANCH  15  16
ATOM     16  C   UNL     1      -6.295 -12.056  23.522  1.00  0.00     0.000 C 
BRANCH  16  17
ATOM     17  C   UNL     1      -6.729 -11.811  24.976  1.00  0.00     0.000 C 
BRANCH  17  18
ATOM     18  C   UNL     1      -6.532 -13.047  25.868  1.00  0.00    -0.000 C 
BRANCH  18  19
ATOM     19  C   UNL     1      -5.415 -13.969  25.357  1.00  0.00    -0.000 C 
BRANCH  19  20
ATOM     20  C   UNL     1      -4.934 -14.913  26.466  1.00  0.00    -0.000 C 
BRANCH  20  21
ATOM     21  C   UNL     1      -4.556 -16.287  25.893  1.00  0.00    -0.000 C 
BRANCH  21  22
ATOM     22  C   UNL     1      -5.456 -17.421  26.418  1.00  0.00    -0.000 C 
BRANCH  22  23
ATOM     23  C   UNL     1      -5.264 -18.785  25.726  1.00  0.00    -0.000 C 
BRANCH  23  24
ATOM     24  C   UNL     1      -5.897 -18.903  24.328  1.00  0.00    -0.000 C 
BRANCH  24  25
ATOM     25  C   UNL     1      -5.649 -17.663  23.456  1.00  0.00    -0.003 C 
ATOM     26  C   UNL     1      -4.264 -17.711  22.816  1.00  0.00     0.004 C 
ENDBRANCH  24  25
ENDBRANCH  23  24
ENDBRANCH  22  23
ENDBRANCH  21  22
ENDBRANCH  20  21
ENDBRANCH  19  20
ENDBRANCH  18  19
ENDBRANCH  17  18
ENDBRANCH  16  17
ENDBRANCH  15  16
ENDBRANCH   1  15
TORSDOF 22
ENDMDL
MODEL 5
REMARK VINA RESULT:    23.878      3.502      5.356
REMARK INTER + INTRA:          53.573
REMARK INTER:                  54.524
REMARK INTRA:                  -0.951
REMARK UNBOUND:                -1.015
REMARK SMILES CCCCCCCCCCCCCCCCCCCCCCCC(=O)[O-]
REMARK SMILES IDX 13 1 14 2 15 3 16 4 17 5 18 6 19 7 20 8 21 9 22 10 23 11
REMARK SMILES IDX 24 12 25 13 26 14 12 15 11 16 10 17 9 18 8 19 7 20 6 21 5 22
REMARK SMILES IDX 4 23 3 24 2 25 1 26
REMARK H PARENT
REMARK Flexibility Score: inf
ROOT
ATOM      1  C   UNL     1      -8.888 -14.175  20.374  1.00  0.00     0.000 C 
ENDROOT
BRANCH   1   2
ATOM      2  C   UNL     1      -8.355 -13.876  18.961  1.00  0.00     0.000 C 
BRANCH   2   3
ATOM      3  C   UNL     1      -9.476 -13.541  17.964  1.00  0.00     0.000 C 
BRANCH   3   4
ATOM      4  C   UNL     1      -9.867 -14.744  17.087  1.00  0.00     0.000 C 
BRANCH   4   5
ATOM      5  C   UNL     1      -9.111 -16.026  17.469  1.00  0.00     0.000 C 
BRANCH   5   6
ATOM      6  C   UNL     1      -9.955 -16.976  18.336  1.00  0.00     0.000 C 
BRANCH   6   7
ATOM      7  C   UNL     1      -9.759 -18.463  17.959  1.00  0.00     0.000 C 
BRANCH   7   8
ATOM      8  C   UNL     1      -8.883 -18.675  16.711  1.00  0.00     0.000 C 
BRANCH   8   9
ATOM      9  C   UNL     1      -7.433 -19.098  17.008  1.00  0.00     0.000 C 
BRANCH   9  10
ATOM     10  C   UNL     1      -6.757 -19.858  15.845  1.00  0.00     0.006 C 
BRANCH  10  11
ATOM     11  C   UNL     1      -6.958 -19.168  14.491  1.00  0.00     0.053 C 
BRANCH  11  12
ATOM     12  C   UNL     1      -5.843 -19.516  13.557  1.00  0.00     0.041 C 
ATOM     13  O   UNL     1      -5.558 -18.754  12.596  1.00  0.00    -0.550 OA
ATOM     14  O   UNL     1      -5.146 -20.707  13.719  1.00  0.00    -0.550 OA
ENDBRANCH  11  12
ENDBRANCH  10  11
ENDBRANCH   9  10
ENDBRANCH   8   9
ENDBRANCH   7   8
ENDBRANCH   6   7
ENDBRANCH   5   6
ENDBRANCH   4   5
ENDBRANCH   3   4
ENDBRANCH   2   3
ENDBRANCH   1   2
BRANCH   1  15
ATOM     15  C   UNL     1      -8.661 -12.998  21.346  1.00  0.00     0.000 C 
BRANCH  15  16
ATOM     16  C   UNL     1      -7.539 -13.251  22.367  1.00  0.00     0.000 C 
BRANCH  16  17
ATOM     17  C   UNL     1      -7.014 -11.956  23.010  1.00  0.00     0.000 C 
BRANCH  17  18
ATOM     18  C   UNL     1      -6.705 -12.123  24.506  1.00  0.00    -0.000 C 
BRANCH  18  19
ATOM     19  C   UNL     1      -5.545 -13.098  24.762  1.00  0.00    -0.000 C 
BRANCH  19  20
ATOM     20  C   UNL     1      -5.661 -13.734  26.153  1.00  0.00    -0.000 C 
BRANCH  20  21
ATOM     21  C   UNL     1      -4.728 -14.947  26.282  1.00  0.00    -0.000 C 
BRANCH  21  22
ATOM     22  C   UNL     1      -5.487 -16.286  26.300  1.00  0.00    -0.000 C 
BRANCH  22  23
ATOM     23  C   UNL     1      -4.692 -17.499  25.777  1.00  0.00    -0.000 C 
BRANCH  23  24
ATOM     24  C   UNL     1      -5.539 -18.741  25.445  1.00  0.00    -0.000 C 
BRANCH  24  25
ATOM     25  C   UNL     1      -5.732 -18.943  23.935  1.00  0.00    -0.003 C 
ATOM     26  C   UNL     1      -5.549 -17.630  23.178  1.00  0.00     0.004 C 
ENDBRANCH  24  25
ENDBRANCH  23  24
ENDBRANCH  22  23
ENDBRANCH  21  22
ENDBRANCH  20  21
ENDBRANCH  19  20
ENDBRANCH  18  19
ENDBRANCH  17  18
ENDBRANCH  16  17
ENDBRANCH  15  16
ENDBRANCH   1  15
TORSDOF 22
ENDMDL
MODEL 6
REMARK VINA RESULT:    23.938      5.251     13.353
REMARK INTER + INTRA:          53.711
REMARK INTER:                  54.678
REMARK INTRA:                  -0.967
REMARK UNBOUND:                -1.015
REMARK SMILES CCCCCCCCCCCCCCCCCCCCCCCC(=O)[O-]
REMARK SMILES IDX 13 1 14 2 15 3 16 4 17 5 18 6 19 7 20 8 21 9 22 10 23 11
REMARK SMILES IDX 24 12 25 13 26 14 12 15 11 16 10 17 9 18 8 19 7 20 6 21 5 22
REMARK SMILES IDX 4 23 3 24 2 25 1 26
REMARK H PARENT
REMARK Flexibility Score: inf
ROOT
ATOM      1  C   UNL     1      -8.923 -13.250  20.851  1.00  0.00     0.000 C 
ENDROOT
BRANCH   1   2
ATOM      2  C   UNL     1      -8.019 -13.363  22.092  1.00  0.00     0.000 C 
BRANCH   2   3
ATOM      3  C   UNL     1      -7.256 -12.062  22.387  1.00  0.00     0.000 C 
BRANCH   3   4
ATOM      4  C   UNL     1      -6.588 -12.070  23.774  1.00  0.00     0.000 C 
BRANCH   4   5
ATOM      5  C   UNL     1      -5.440 -11.054  23.883  1.00  0.00     0.000 C 
BRANCH   5   6
ATOM      6  C   UNL     1      -5.832  -9.803  24.689  1.00  0.00     0.000 C 
BRANCH   6   7
ATOM      7  C   UNL     1      -4.609  -8.949  25.099  1.00  0.00     0.000 C 
BRANCH   7   8
ATOM      8  C   UNL     1      -3.990  -8.155  23.935  1.00  0.00     0.000 C 
BRANCH   8   9
ATOM      9  C   UNL     1      -2.539  -7.698  24.169  1.00  0.00     0.000 C 
BRANCH   9  10
ATOM     10  C   UNL     1      -1.530  -8.863  24.275  1.00  0.00     0.006 C 
BRANCH  10  11
ATOM     11  C   UNL     1      -1.164  -9.199  25.725  1.00  0.00     0.053 C 
BRANCH  11  12
ATOM     12  C   UNL     1       0.057  -8.443  26.144  1.00  0.00     0.041 C 
ATOM     13  O   UNL     1       0.870  -8.953  26.959  1.00  0.00    -0.550 OA
ATOM     14  O   UNL     1       0.275  -7.156  25.669  1.00  0.00    -0.550 OA
ENDBRANCH  11  12
ENDBRANCH  10  11
ENDBRANCH   9  10
ENDBRANCH   8   9
ENDBRANCH   7   8
ENDBRANCH   6   7
ENDBRANCH   5   6
ENDBRANCH   4   5
ENDBRANCH   3   4
ENDBRANCH   2   3
ENDBRANCH   1   2
BRANCH   1  15
ATOM     15  C   UNL     1      -8.477 -14.193  19.714  1.00  0.00     0.000 C 
BRANCH  15  16
ATOM     16  C   UNL     1      -8.937 -13.737  18.319  1.00  0.00     0.000 C 
BRANCH  16  17
ATOM     17  C   UNL     1      -9.818 -14.779  17.610  1.00  0.00     0.000 C 
BRANCH  17  18
ATOM     18  C   UNL     1      -9.107 -16.130  17.432  1.00  0.00    -0.000 C 
BRANCH  18  19
ATOM     19  C   UNL     1      -9.873 -17.289  18.087  1.00  0.00    -0.000 C 
BRANCH  19  20
ATOM     20  C   UNL     1      -9.761 -18.565  17.245  1.00  0.00    -0.000 C 
BRANCH  20  21
ATOM     21  C   UNL     1      -8.388 -19.229  17.431  1.00  0.00    -0.000 C 
BRANCH  21  22
ATOM     22  C   UNL     1      -7.398 -18.879  16.305  1.00  0.00    -0.000 C 
BRANCH  22  23
ATOM     23  C   UNL     1      -7.270 -19.937  15.191  1.00  0.00    -0.000 C 
BRANCH  23  24
ATOM     24  C   UNL     1      -7.618 -19.440  13.776  1.00  0.00    -0.000 C 
BRANCH  24  25
ATOM     25  C   UNL     1      -9.124 -19.489  13.483  1.00  0.00    -0.003 C 
ATOM     26  C   UNL     1      -9.701 -20.867  13.798  1.00  0.00     0.004 C 
ENDBRANCH  24  25
ENDBRANCH  23  24
ENDBRANCH  22  23
ENDBRANCH  21  22
ENDBRANCH  20  21
ENDBRANCH  19  20
ENDBRANCH  18  19
ENDBRANCH  17  18
ENDBRANCH  16  17
ENDBRANCH  15  16
ENDBRANCH   1  15
TORSDOF 22
ENDMDL
MODEL 7
REMARK VINA RESULT:    24.047      5.311     12.943
REMARK INTER + INTRA:          53.960
REMARK INTER:                  54.741
REMARK INTRA:                  -0.781
REMARK UNBOUND:                -1.015
REMARK SMILES CCCCCCCCCCCCCCCCCCCCCCCC(=O)[O-]
REMARK SMILES IDX 13 1 14 2 15 3 16 4 17 5 18 6 19 7 20 8 21 9 22 10 23 11
REMARK SMILES IDX 24 12 25 13 26 14 12 15 11 16 10 17 9 18 8 19 7 20 6 21 5 22
REMARK SMILES IDX 4 23 3 24 2 25 1 26
REMARK H PARENT
REMARK Flexibility Score: inf
ROOT
ATOM      1  C   UNL     1      -6.981 -12.496  22.568  1.00  0.00     0.000 C 
ENDROOT
BRANCH   1   2
ATOM      2  C   UNL     1      -7.172 -12.757  24.073  1.00  0.00     0.000 C 
BRANCH   2   3
ATOM      3  C   UNL     1      -6.502 -11.687  24.949  1.00  0.00     0.000 C 
BRANCH   3   4
ATOM      4  C   UNL     1      -6.016 -10.475  24.134  1.00  0.00     0.000 C 
BRANCH   4   5
ATOM      5  C   UNL     1      -6.131  -9.154  24.911  1.00  0.00     0.000 C 
BRANCH   5   6
ATOM      6  C   UNL     1      -5.077  -8.119  24.479  1.00  0.00     0.000 C 
BRANCH   6   7
ATOM      7  C   UNL     1      -3.639  -8.688  24.492  1.00  0.00     0.000 C 
BRANCH   7   8
ATOM      8  C   UNL     1      -2.617  -7.804  23.756  1.00  0.00     0.000 C 
BRANCH   8   9
ATOM      9  C   UNL     1      -1.148  -8.218  23.954  1.00  0.00     0.000 C 
BRANCH   9  10
ATOM     10  C   UNL     1      -0.969  -9.456  24.861  1.00  0.00     0.006 C 
BRANCH  10  11
ATOM     11  C   UNL     1      -0.763  -9.085  26.334  1.00  0.00     0.053 C 
BRANCH  11  12
ATOM     12  C   UNL     1       0.508  -8.315  26.507  1.00  0.00     0.041 C 
ATOM     13  O   UNL     1       1.535  -8.881  26.966  1.00  0.00    -0.550 OA
ATOM     14  O   UNL     1       0.546  -6.961  26.204  1.00  0.00    -0.550 OA
ENDBRANCH  11  12
ENDBRANCH  10  11
ENDBRANCH   9  10
ENDBRANCH   8   9
ENDBRANCH   7   8
ENDBRANCH   6   7
ENDBRANCH   5   6
ENDBRANCH   4   5
ENDBRANCH   3   4
ENDBRANCH   2   3
ENDBRANCH   1   2
BRANCH   1  15
ATOM     15  C   UNL     1      -8.235 -12.862  21.747  1.00  0.00     0.000 C 
BRANCH  15  16
ATOM     16  C   UNL     1      -7.970 -13.913  20.655  1.00  0.00     0.000 C 
BRANCH  16  17
ATOM     17  C   UNL     1      -9.232 -14.271  19.852  1.00  0.00     0.000 C 
BRANCH  17  18
ATOM     18  C   UNL     1      -9.222 -13.670  18.438  1.00  0.00    -0.000 C 
BRANCH  18  19
ATOM     19  C   UNL     1      -9.392 -14.736  17.344  1.00  0.00    -0.000 C 
BRANCH  19  20
ATOM     20  C   UNL     1      -8.887 -16.101  17.827  1.00  0.00    -0.000 C 
BRANCH  20  21
ATOM     21  C   UNL     1     -10.034 -17.121  17.889  1.00  0.00    -0.000 C 
BRANCH  21  22
ATOM     22  C   UNL     1      -9.563 -18.565  17.641  1.00  0.00    -0.000 C 
BRANCH  22  23
ATOM     23  C   UNL     1      -8.585 -18.743  16.462  1.00  0.00    -0.000 C 
BRANCH  23  24
ATOM     24  C   UNL     1      -7.380 -19.658  16.746  1.00  0.00    -0.000 C 
BRANCH  24  25
ATOM     25  C   UNL     1      -6.216 -19.427  15.772  1.00  0.00    -0.003 C 
ATOM     26  C   UNL     1      -6.488 -20.091  14.425  1.00  0.00     0.004 C 
ENDBRANCH  24  25
ENDBRANCH  23  24
ENDBRANCH  22  23
ENDBRANCH  21  22
ENDBRANCH  20  21
ENDBRANCH  19  20
ENDBRANCH  18  19
ENDBRANCH  17  18
ENDBRANCH  16  17
ENDBRANCH  15  16
ENDBRANCH   1  15
TORSDOF 22
ENDMDL
MODEL 8
REMARK VINA RESULT:    24.390      4.273     12.478
REMARK INTER + INTRA:          54.744
REMARK INTER:                  55.608
REMARK INTRA:                  -0.865
REMARK UNBOUND:                -1.015
REMARK SMILES CCCCCCCCCCCCCCCCCCCCCCCC(=O)[O-]
REMARK SMILES IDX 13 1 14 2 15 3 16 4 17 5 18 6 19 7 20 8 21 9 22 10 23 11
REMARK SMILES IDX 24 12 25 13 26 14 12 15 11 16 10 17 9 18 8 19 7 20 6 21 5 22
REMARK SMILES IDX 4 23 3 24 2 25 1 26
REMARK H PARENT
REMARK Flexibility Score: inf
ROOT
ATOM      1  C   UNL     1      -8.580 -12.733  20.812  1.00  0.00     0.000 C 
ENDROOT
BRANCH   1   2
ATOM      2  C   UNL     1      -8.188 -13.067  22.264  1.00  0.00     0.000 C 
BRANCH   2   3
ATOM      3  C   UNL     1      -7.014 -12.214  22.769  1.00  0.00     0.000 C 
BRANCH   3   4
ATOM      4  C   UNL     1      -6.502 -12.670  24.147  1.00  0.00     0.000 C 
BRANCH   4   5
ATOM      5  C   UNL     1      -6.416 -11.516  25.158  1.00  0.00     0.000 C 
BRANCH   5   6
ATOM      6  C   UNL     1      -6.251 -10.145  24.479  1.00  0.00     0.000 C 
BRANCH   6   7
ATOM      7  C   UNL     1      -5.477  -9.133  25.356  1.00  0.00     0.000 C 
BRANCH   7   8
ATOM      8  C   UNL     1      -4.402  -8.343  24.587  1.00  0.00     0.000 C 
BRANCH   8   9
ATOM      9  C   UNL     1      -2.987  -8.943  24.663  1.00  0.00     0.000 C 
BRANCH   9  10
ATOM     10  C   UNL     1      -1.997  -8.328  23.649  1.00  0.00     0.006 C 
BRANCH  10  11
ATOM     11  C   UNL     1      -2.556  -7.081  22.957  1.00  0.00     0.053 C 
BRANCH  11  12
ATOM     12  C   UNL     1      -2.654  -7.303  21.481  1.00  0.00     0.041 C 
ATOM     13  O   UNL     1      -3.683  -6.939  20.851  1.00  0.00    -0.550 OA
ATOM     14  O   UNL     1      -1.629  -7.954  20.806  1.00  0.00    -0.550 OA
ENDBRANCH  11  12
ENDBRANCH  10  11
ENDBRANCH   9  10
ENDBRANCH   8   9
ENDBRANCH   7   8
ENDBRANCH   6   7
ENDBRANCH   5   6
ENDBRANCH   4   5
ENDBRANCH   3   4
ENDBRANCH   2   3
ENDBRANCH   1   2
BRANCH   1  15
ATOM     15  C   UNL     1      -8.769 -13.999  19.952  1.00  0.00     0.000 C 
BRANCH  15  16
ATOM     16  C   UNL     1      -8.805 -13.717  18.440  1.00  0.00     0.000 C 
BRANCH  16  17
ATOM     17  C   UNL     1      -8.629 -14.987  17.591  1.00  0.00     0.000 C 
BRANCH  17  18
ATOM     18  C   UNL     1      -9.864 -15.901  17.633  1.00  0.00    -0.000 C 
BRANCH  18  19
ATOM     19  C   UNL     1      -9.549 -17.288  18.213  1.00  0.00    -0.000 C 
BRANCH  19  20
ATOM     20  C   UNL     1     -10.060 -18.398  17.287  1.00  0.00    -0.000 C 
BRANCH  20  21
ATOM     21  C   UNL     1      -8.948 -19.410  16.974  1.00  0.00    -0.000 C 
BRANCH  21  22
ATOM     22  C   UNL     1      -7.694 -18.751  16.371  1.00  0.00    -0.000 C 
BRANCH  22  23
ATOM     23  C   UNL     1      -6.411 -19.606  16.429  1.00  0.00    -0.000 C 
BRANCH  23  24
ATOM     24  C   UNL     1      -6.185 -20.527  15.215  1.00  0.00    -0.000 C 
BRANCH  24  25
ATOM     25  C   UNL     1      -5.698 -19.765  13.974  1.00  0.00    -0.003 C 
ATOM     26  C   UNL     1      -6.837 -18.975  13.333  1.00  0.00     0.004 C 
ENDBRANCH  24  25
ENDBRANCH  23  24
ENDBRANCH  22  23
ENDBRANCH  21  22
ENDBRANCH  20  21
ENDBRANCH  19  20
ENDBRANCH  18  19
ENDBRANCH  17  18
ENDBRANCH  16  17
ENDBRANCH  15  16
ENDBRANCH   1  15
TORSDOF 22
ENDMDL
MODEL 9
REMARK VINA RESULT:    24.534      1.839      3.076
REMARK INTER + INTRA:          55.072
REMARK INTER:                  56.063
REMARK INTRA:                  -0.991
REMARK UNBOUND:                -1.015
REMARK SMILES CCCCCCCCCCCCCCCCCCCCCCCC(=O)[O-]
REMARK SMILES IDX 13 1 14 2 15 3 16 4 17 5 18 6 19 7 20 8 21 9 22 10 23 11
REMARK SMILES IDX 24 12 25 13 26 14 12 15 11 16 10 17 9 18 8 19 7 20 6 21 5 22
REMARK SMILES IDX 4 23 3 24 2 25 1 26
REMARK H PARENT
REMARK Flexibility Score: inf
ROOT
ATOM      1  C   UNL     1      -7.881 -12.498  22.119  1.00  0.00     0.000 C 
ENDROOT
BRANCH   1   2
ATOM      2  C   UNL     1      -7.821 -13.814  21.321  1.00  0.00     0.000 C 
BRANCH   2   3
ATOM      3  C   UNL     1      -9.017 -13.983  20.372  1.00  0.00     0.000 C 
BRANCH   3   4
ATOM      4  C   UNL     1      -8.724 -13.468  18.951  1.00  0.00     0.000 C 
BRANCH   4   5
ATOM      5  C   UNL     1      -8.403 -14.602  17.965  1.00  0.00     0.000 C 
BRANCH   5   6
ATOM      6  C   UNL     1      -9.662 -15.358  17.503  1.00  0.00     0.000 C 
BRANCH   6   7
ATOM      7  C   UNL     1      -9.885 -16.678  18.277  1.00  0.00     0.000 C 
BRANCH   7   8
ATOM      8  C   UNL     1      -9.603 -17.940  17.443  1.00  0.00     0.000 C 
BRANCH   8   9
ATOM      9  C   UNL     1      -8.111 -18.241  17.218  1.00  0.00     0.000 C 
BRANCH   9  10
ATOM     10  C   UNL     1      -7.852 -19.402  16.232  1.00  0.00     0.006 C 
BRANCH  10  11
ATOM     11  C   UNL     1      -6.360 -19.630  15.964  1.00  0.00     0.053 C 
BRANCH  11  12
ATOM     12  C   UNL     1      -6.107 -19.757  14.495  1.00  0.00     0.041 C 
ATOM     13  O   UNL     1      -6.485 -18.851  13.705  1.00  0.00    -0.550 OA
ATOM     14  O   UNL     1      -5.496 -20.897  13.990  1.00  0.00    -0.550 OA
ENDBRANCH  11  12
ENDBRANCH  10  11
ENDBRANCH   9  10
ENDBRANCH   8   9
ENDBRANCH   7   8
ENDBRANCH   6   7
ENDBRANCH   5   6
ENDBRANCH   4   5
ENDBRANCH   3   4
ENDBRANCH   2   3
ENDBRANCH   1   2
BRANCH   1  15
ATOM     15  C   UNL     1      -6.937 -12.511  23.339  1.00  0.00     0.000 C 
BRANCH  15  16
ATOM     16  C   UNL     1      -6.122 -11.216  23.502  1.00  0.00     0.000 C 
BRANCH  16  17
ATOM     17  C   UNL     1      -6.507 -10.423  24.762  1.00  0.00     0.000 C 
BRANCH  17  18
ATOM     18  C   UNL     1      -5.309  -9.691  25.387  1.00  0.00    -0.000 C 
BRANCH  18  19
ATOM     19  C   UNL     1      -4.618  -8.741  24.397  1.00  0.00    -0.000 C 
BRANCH  19  20
ATOM     20  C   UNL     1      -3.093  -8.808  24.547  1.00  0.00    -0.000 C 
BRANCH  20  21
ATOM     21  C   UNL     1      -2.427  -7.557  23.954  1.00  0.00    -0.000 C 
BRANCH  21  22
ATOM     22  C   UNL     1      -2.072  -7.718  22.465  1.00  0.00    -0.000 C 
BRANCH  22  23
ATOM     23  C   UNL     1      -3.046  -7.040  21.481  1.00  0.00    -0.000 C 
BRANCH  23  24
ATOM     24  C   UNL     1      -2.544  -6.943  20.028  1.00  0.00    -0.000 C 
BRANCH  24  25
ATOM     25  C   UNL     1      -3.589  -7.413  19.006  1.00  0.00    -0.003 C 
ATOM     26  C   UNL     1      -4.869  -7.871  19.701  1.00  0.00     0.004 C 
ENDBRANCH  24  25
ENDBRANCH  23  24
ENDBRANCH  22  23
ENDBRANCH  21  22
ENDBRANCH  20  21
ENDBRANCH  19  20
ENDBRANCH  18  19
ENDBRANCH  17  18
ENDBRANCH  16  17
ENDBRANCH  15  16
ENDBRANCH   1  15
TORSDOF 22
ENDMDL
