MODEL 1
REMARK VINA RESULT:     2.466      0.000      0.000
REMARK INTER + INTRA:           4.777
REMARK INTER:                   5.637
REMARK INTRA:                  -0.861
REMARK UNBOUND:                -0.861
REMARK SMILES CCCCCCCCCCCCCCCCCCCCCCCC(=O)[O-]
REMARK SMILES IDX 13 1 14 2 15 3 16 4 17 5 18 6 19 7 20 8 21 9 22 10 23 11
REMARK SMILES IDX 24 12 25 13 26 14 12 15 11 16 10 17 9 18 8 19 7 20 6 21 5 22
REMARK SMILES IDX 4 23 3 24 2 25 1 26
REMARK H PARENT
REMARK Flexibility Score: inf
ROOT
ATOM      1  C   UNL     1       2.362  64.314  -7.387  1.00  0.00     0.000 C 
ENDROOT
BRANCH   1   2
ATOM      2  C   UNL     1       2.376  63.087  -6.461  1.00  0.00     0.000 C 
BRANCH   2   3
ATOM      3  C   UNL     1       3.034  61.863  -7.115  1.00  0.00     0.000 C 
BRANCH   3   4
ATOM      4  C   UNL     1       2.876  60.616  -6.232  1.00  0.00     0.000 C 
BRANCH   4   5
ATOM      5  C   UNL     1       1.425  60.102  -6.171  1.00  0.00     0.000 C 
BRANCH   5   6
ATOM      6  C   UNL     1       0.623  60.543  -4.931  1.00  0.00     0.000 C 
BRANCH   6   7
ATOM      7  C   UNL     1      -0.576  59.624  -4.635  1.00  0.00     0.000 C 
BRANCH   7   8
ATOM      8  C   UNL     1      -1.736  60.357  -3.936  1.00  0.00     0.000 C 
BRANCH   8   9
ATOM      9  C   UNL     1      -2.985  59.499  -3.662  1.00  0.00     0.000 C 
BRANCH   9  10
ATOM     10  C   UNL     1      -4.243  60.027  -4.369  1.00  0.00     0.006 C 
BRANCH  10  11
ATOM     11  C   UNL     1      -3.875  61.035  -5.463  1.00  0.00     0.053 C 
BRANCH  11  12
ATOM     12  C   UNL     1      -4.391  60.578  -6.791  1.00  0.00     0.041 C 
ATOM     13  O   UNL     1      -3.873  59.582  -7.363  1.00  0.00    -0.550 OA
ATOM     14  O   UNL     1      -5.402  61.290  -7.427  1.00  0.00    -0.550 OA
ENDBRANCH  11  12
ENDBRANCH  10  11
ENDBRANCH   9  10
ENDBRANCH   8   9
ENDBRANCH   7   8
ENDBRANCH   6   7
ENDBRANCH   5   6
ENDBRANCH   4   5
ENDBRANCH   3   4
ENDBRANCH   2   3
ENDBRANCH   1   2
BRANCH   1  15
ATOM     15  C   UNL     1       2.280  65.642  -6.609  1.00  0.00     0.000 C 
BRANCH  15  16
ATOM     16  C   UNL     1       1.107  66.524  -7.067  1.00  0.00     0.000 C 
BRANCH  16  17
ATOM     17  C   UNL     1       0.990  67.821  -6.249  1.00  0.00     0.000 C 
BRANCH  17  18
ATOM     18  C   UNL     1      -0.268  68.637  -6.598  1.00  0.00    -0.000 C 
BRANCH  18  19
ATOM     19  C   UNL     1      -1.223  68.902  -5.420  1.00  0.00    -0.000 C 
BRANCH  19  20
ATOM     20  C   UNL     1      -1.630  70.378  -5.294  1.00  0.00    -0.000 C 
BRANCH  20  21
ATOM     21  C   UNL     1      -3.138  70.515  -5.052  1.00  0.00    -0.000 C 
BRANCH  21  22
ATOM     22  C   UNL     1      -3.907  70.555  -6.382  1.00  0.00    -0.000 C 
BRANCH  22  23
ATOM     23  C   UNL     1      -5.433  70.533  -6.185  1.00  0.00    -0.000 C 
BRANCH  23  24
ATOM     24  C   UNL     1      -6.101  71.849  -6.618  1.00  0.00    -0.000 C 
BRANCH  24  25
ATOM     25  C   UNL     1      -5.267  73.084  -6.247  1.00  0.00    -0.003 C 
ATOM     26  C   UNL     1      -5.458  74.245  -7.223  1.00  0.00     0.004 C 
ENDBRANCH  24  25
ENDBRANCH  23  24
ENDBRANCH  22  23
ENDBRANCH  21  22
ENDBRANCH  20  21
ENDBRANCH  19  20
ENDBRANCH  18  19
ENDBRANCH  17  18
ENDBRANCH  16  17
ENDBRANCH  15  16
ENDBRANCH   1  15
TORSDOF 22
ENDMDL
MODEL 2
REMARK VINA RESULT:     2.588      3.741     10.185
REMARK INTER + INTRA:           5.056
REMARK INTER:                   6.313
REMARK INTRA:                  -1.257
REMARK UNBOUND:                -0.861
REMARK SMILES CCCCCCCCCCCCCCCCCCCCCCCC(=O)[O-]
REMARK SMILES IDX 13 1 14 2 15 3 16 4 17 5 18 6 19 7 20 8 21 9 22 10 23 11
REMARK SMILES IDX 24 12 25 13 26 14 12 15 11 16 10 17 9 18 8 19 7 20 6 21 5 22
REMARK SMILES IDX 4 23 3 24 2 25 1 26
REMARK H PARENT
REMARK Flexibility Score: inf
ROOT
ATOM      1  C   UNL     1       3.148  67.204  -5.493  1.00  0.00     0.000 C 
ENDROOT
BRANCH   1   2
ATOM      2  C   UNL     1       1.762  67.728  -5.087  1.00  0.00     0.000 C 
BRANCH   2   3
ATOM      3  C   UNL     1       0.782  67.783  -6.269  1.00  0.00     0.000 C 
BRANCH   3   4
ATOM      4  C   UNL     1      -0.053  69.071  -6.233  1.00  0.00     0.000 C 
BRANCH   4   5
ATOM      5  C   UNL     1      -1.243  68.991  -5.257  1.00  0.00     0.000 C 
BRANCH   5   6
ATOM      6  C   UNL     1      -1.736  70.344  -4.709  1.00  0.00     0.000 C 
BRANCH   6   7
ATOM      7  C   UNL     1      -2.857  70.964  -5.562  1.00  0.00     0.000 C 
BRANCH   7   8
ATOM      8  C   UNL     1      -3.969  69.958  -5.914  1.00  0.00     0.000 C 
BRANCH   8   9
ATOM      9  C   UNL     1      -4.701  70.225  -7.242  1.00  0.00     0.000 C 
BRANCH   9  10
ATOM     10  C   UNL     1      -6.002  71.022  -7.061  1.00  0.00     0.006 C 
BRANCH  10  11
ATOM     11  C   UNL     1      -5.996  72.286  -7.926  1.00  0.00     0.053 C 
BRANCH  11  12
ATOM     12  C   UNL     1      -5.725  73.495  -7.087  1.00  0.00     0.041 C 
ATOM     13  O   UNL     1      -5.374  73.364  -5.884  1.00  0.00    -0.550 OA
ATOM     14  O   UNL     1      -5.921  74.767  -7.614  1.00  0.00    -0.550 OA
ENDBRANCH  11  12
ENDBRANCH  10  11
ENDBRANCH   9  10
ENDBRANCH   8   9
ENDBRANCH   7   8
ENDBRANCH   6   7
ENDBRANCH   5   6
ENDBRANCH   4   5
ENDBRANCH   3   4
ENDBRANCH   2   3
ENDBRANCH   1   2
BRANCH   1  15
ATOM     15  C   UNL     1       3.236  65.666  -5.450  1.00  0.00     0.000 C 
BRANCH  15  16
ATOM     16  C   UNL     1       2.887  65.016  -6.799  1.00  0.00     0.000 C 
BRANCH  16  17
ATOM     17  C   UNL     1       2.150  63.676  -6.634  1.00  0.00     0.000 C 
BRANCH  17  18
ATOM     18  C   UNL     1       2.807  62.530  -7.426  1.00  0.00    -0.000 C 
BRANCH  18  19
ATOM     19  C   UNL     1       2.927  61.196  -6.667  1.00  0.00    -0.000 C 
BRANCH  19  20
ATOM     20  C   UNL     1       1.862  61.029  -5.572  1.00  0.00    -0.000 C 
BRANCH  20  21
ATOM     21  C   UNL     1       1.250  59.623  -5.611  1.00  0.00    -0.000 C 
BRANCH  21  22
ATOM     22  C   UNL     1      -0.246  59.664  -5.262  1.00  0.00    -0.000 C 
BRANCH  22  23
ATOM     23  C   UNL     1      -0.521  60.335  -3.905  1.00  0.00    -0.000 C 
BRANCH  23  24
ATOM     24  C   UNL     1      -2.020  60.373  -3.560  1.00  0.00    -0.000 C 
BRANCH  24  25
ATOM     25  C   UNL     1      -2.910  60.011  -4.758  1.00  0.00    -0.003 C 
ATOM     26  C   UNL     1      -3.851  61.145  -5.164  1.00  0.00     0.004 C 
ENDBRANCH  24  25
ENDBRANCH  23  24
ENDBRANCH  22  23
ENDBRANCH  21  22
ENDBRANCH  20  21
ENDBRANCH  19  20
ENDBRANCH  18  19
ENDBRANCH  17  18
ENDBRANCH  16  17
ENDBRANCH  15  16
ENDBRANCH   1  15
TORSDOF 22
ENDMDL
MODEL 3
REMARK VINA RESULT:     2.894      1.378      2.596
REMARK INTER + INTRA:           5.754
REMARK INTER:                   6.870
REMARK INTRA:                  -1.116
REMARK UNBOUND:                -0.861
REMARK SMILES CCCCCCCCCCCCCCCCCCCCCCCC(=O)[O-]
REMARK SMILES IDX 13 1 14 2 15 3 16 4 17 5 18 6 19 7 20 8 21 9 22 10 23 11
REMARK SMILES IDX 24 12 25 13 26 14 12 15 11 16 10 17 9 18 8 19 7 20 6 21 5 22
REMARK SMILES IDX 4 23 3 24 2 25 1 26
REMARK H PARENT
REMARK Flexibility Score: inf
ROOT
ATOM      1  C   UNL     1       2.841  67.401  -5.339  1.00  0.00     0.000 C 
ENDROOT
BRANCH   1   2
ATOM      2  C   UNL     1       3.011  65.874  -5.323  1.00  0.00     0.000 C 
BRANCH   2   3
ATOM      3  C   UNL     1       2.653  65.226  -6.670  1.00  0.00     0.000 C 
BRANCH   3   4
ATOM      4  C   UNL     1       2.045  63.831  -6.465  1.00  0.00     0.000 C 
BRANCH   4   5
ATOM      5  C   UNL     1       2.893  62.707  -7.091  1.00  0.00     0.000 C 
BRANCH   5   6
ATOM      6  C   UNL     1       2.449  61.274  -6.738  1.00  0.00     0.000 C 
BRANCH   6   7
ATOM      7  C   UNL     1       1.788  61.176  -5.351  1.00  0.00     0.000 C 
BRANCH   7   8
ATOM      8  C   UNL     1       1.129  59.808  -5.096  1.00  0.00     0.000 C 
BRANCH   8   9
ATOM      9  C   UNL     1      -0.096  59.493  -5.975  1.00  0.00     0.000 C 
BRANCH   9  10
ATOM     10  C   UNL     1      -1.346  59.137  -5.156  1.00  0.00     0.006 C 
BRANCH  10  11
ATOM     11  C   UNL     1      -1.770  60.307  -4.263  1.00  0.00     0.053 C 
BRANCH  11  12
ATOM     12  C   UNL     1      -3.258  60.464  -4.275  1.00  0.00     0.041 C 
ATOM     13  O   UNL     1      -3.983  59.677  -3.611  1.00  0.00    -0.550 OA
ATOM     14  O   UNL     1      -3.847  61.441  -5.070  1.00  0.00    -0.550 OA
ENDBRANCH  11  12
ENDBRANCH  10  11
ENDBRANCH   9  10
ENDBRANCH   8   9
ENDBRANCH   7   8
ENDBRANCH   6   7
ENDBRANCH   5   6
ENDBRANCH   4   5
ENDBRANCH   3   4
ENDBRANCH   2   3
ENDBRANCH   1   2
BRANCH   1  15
ATOM     15  C   UNL     1       1.382  67.837  -5.108  1.00  0.00     0.000 C 
BRANCH  15  16
ATOM     16  C   UNL     1       0.644  68.150  -6.420  1.00  0.00     0.000 C 
BRANCH  16  17
ATOM     17  C   UNL     1      -0.623  68.993  -6.198  1.00  0.00     0.000 C 
BRANCH  17  18
ATOM     18  C   UNL     1      -0.875  69.316  -4.714  1.00  0.00    -0.000 C 
BRANCH  18  19
ATOM     19  C   UNL     1      -2.035  70.291  -4.445  1.00  0.00    -0.000 C 
BRANCH  19  20
ATOM     20  C   UNL     1      -2.767  70.724  -5.725  1.00  0.00    -0.000 C 
BRANCH  20  21
ATOM     21  C   UNL     1      -3.903  69.752  -6.064  1.00  0.00    -0.000 C 
BRANCH  21  22
ATOM     22  C   UNL     1      -5.224  70.505  -6.286  1.00  0.00    -0.000 C 
BRANCH  22  23
ATOM     23  C   UNL     1      -5.448  70.890  -7.758  1.00  0.00    -0.000 C 
BRANCH  23  24
ATOM     24  C   UNL     1      -6.071  72.288  -7.913  1.00  0.00    -0.000 C 
BRANCH  24  25
ATOM     25  C   UNL     1      -5.599  73.267  -6.828  1.00  0.00    -0.003 C 
ATOM     26  C   UNL     1      -6.124  74.687  -7.040  1.00  0.00     0.004 C 
ENDBRANCH  24  25
ENDBRANCH  23  24
ENDBRANCH  22  23
ENDBRANCH  21  22
ENDBRANCH  20  21
ENDBRANCH  19  20
ENDBRANCH  18  19
ENDBRANCH  17  18
ENDBRANCH  16  17
ENDBRANCH  15  16
ENDBRANCH   1  15
TORSDOF 22
ENDMDL
MODEL 4
REMARK VINA RESULT:     3.132      3.509      9.733
REMARK INTER + INTRA:           6.301
REMARK INTER:                   7.289
REMARK INTRA:                  -0.988
REMARK UNBOUND:                -0.861
REMARK SMILES CCCCCCCCCCCCCCCCCCCCCCCC(=O)[O-]
REMARK SMILES IDX 13 1 14 2 15 3 16 4 17 5 18 6 19 7 20 8 21 9 22 10 23 11
REMARK SMILES IDX 24 12 25 13 26 14 12 15 11 16 10 17 9 18 8 19 7 20 6 21 5 22
REMARK SMILES IDX 4 23 3 24 2 25 1 26
REMARK H PARENT
REMARK Flexibility Score: inf
ROOT
ATOM      1  C   UNL     1       2.204  63.304  -6.729  1.00  0.00     0.000 C 
ENDROOT
BRANCH   1   2
ATOM      2  C   UNL     1       2.504  64.671  -7.363  1.00  0.00     0.000 C 
BRANCH   2   3
ATOM      3  C   UNL     1       2.170  65.842  -6.426  1.00  0.00     0.000 C 
BRANCH   3   4
ATOM      4  C   UNL     1       1.106  66.759  -7.048  1.00  0.00     0.000 C 
BRANCH   4   5
ATOM      5  C   UNL     1       0.757  67.967  -6.157  1.00  0.00     0.000 C 
BRANCH   5   6
ATOM      6  C   UNL     1      -0.244  68.967  -6.768  1.00  0.00     0.000 C 
BRANCH   6   7
ATOM      7  C   UNL     1      -1.157  69.620  -5.715  1.00  0.00     0.000 C 
BRANCH   7   8
ATOM      8  C   UNL     1      -2.585  69.043  -5.717  1.00  0.00     0.000 C 
BRANCH   8   9
ATOM      9  C   UNL     1      -3.656  69.938  -5.067  1.00  0.00     0.000 C 
BRANCH   9  10
ATOM     10  C   UNL     1      -4.606  70.577  -6.091  1.00  0.00     0.006 C 
BRANCH  10  11
ATOM     11  C   UNL     1      -4.316  72.072  -6.251  1.00  0.00     0.053 C 
BRANCH  11  12
ATOM     12  C   UNL     1      -5.558  72.808  -6.648  1.00  0.00     0.041 C 
ATOM     13  O   UNL     1      -6.124  73.580  -5.830  1.00  0.00    -0.550 OA
ATOM     14  O   UNL     1      -6.124  72.592  -7.899  1.00  0.00    -0.550 OA
ENDBRANCH  11  12
ENDBRANCH  10  11
ENDBRANCH   9  10
ENDBRANCH   8   9
ENDBRANCH   7   8
ENDBRANCH   6   7
ENDBRANCH   5   6
ENDBRANCH   4   5
ENDBRANCH   3   4
ENDBRANCH   2   3
ENDBRANCH   1   2
BRANCH   1  15
ATOM     15  C   UNL     1       2.873  62.141  -7.486  1.00  0.00     0.000 C 
BRANCH  15  16
ATOM     16  C   UNL     1       2.720  60.795  -6.757  1.00  0.00     0.000 C 
BRANCH  16  17
ATOM     17  C   UNL     1       1.331  60.625  -6.119  1.00  0.00     0.000 C 
BRANCH  17  18
ATOM     18  C   UNL     1       1.398  60.255  -4.627  1.00  0.00    -0.000 C 
BRANCH  18  19
ATOM     19  C   UNL     1       0.084  60.441  -3.847  1.00  0.00    -0.000 C 
BRANCH  19  20
ATOM     20  C   UNL     1      -1.109  59.725  -4.499  1.00  0.00    -0.000 C 
BRANCH  20  21
ATOM     21  C   UNL     1      -2.434  60.374  -4.082  1.00  0.00    -0.000 C 
BRANCH  21  22
ATOM     22  C   UNL     1      -3.472  59.308  -3.696  1.00  0.00    -0.000 C 
BRANCH  22  23
ATOM     23  C   UNL     1      -4.745  59.380  -4.556  1.00  0.00    -0.000 C 
BRANCH  23  24
ATOM     24  C   UNL     1      -4.457  59.174  -6.053  1.00  0.00    -0.000 C 
BRANCH  24  25
ATOM     25  C   UNL     1      -5.390  59.999  -6.952  1.00  0.00    -0.003 C 
ATOM     26  C   UNL     1      -4.634  60.833  -7.986  1.00  0.00     0.004 C 
ENDBRANCH  24  25
ENDBRANCH  23  24
ENDBRANCH  22  23
ENDBRANCH  21  22
ENDBRANCH  20  21
ENDBRANCH  19  20
ENDBRANCH  18  19
ENDBRANCH  17  18
ENDBRANCH  16  17
ENDBRANCH  15  16
ENDBRANCH   1  15
TORSDOF 22
ENDMDL
MODEL 5
REMARK VINA RESULT:     3.415      1.401      2.104
REMARK INTER + INTRA:           6.946
REMARK INTER:                   7.699
REMARK INTRA:                  -0.752
REMARK UNBOUND:                -0.861
REMARK SMILES CCCCCCCCCCCCCCCCCCCCCCCC(=O)[O-]
REMARK SMILES IDX 13 1 14 2 15 3 16 4 17 5 18 6 19 7 20 8 21 9 22 10 23 11
REMARK SMILES IDX 24 12 25 13 26 14 12 15 11 16 10 17 9 18 8 19 7 20 6 21 5 22
REMARK SMILES IDX 4 23 3 24 2 25 1 26
REMARK H PARENT
REMARK Flexibility Score: inf
ROOT
ATOM      1  C   UNL     1       2.516  64.228  -6.037  1.00  0.00     0.000 C 
ENDROOT
BRANCH   1   2
ATOM      2  C   UNL     1       2.677  63.247  -7.209  1.00  0.00     0.000 C 
BRANCH   2   3
ATOM      3  C   UNL     1       2.899  61.800  -6.742  1.00  0.00     0.000 C 
BRANCH   3   4
ATOM      4  C   UNL     1       2.445  60.800  -7.814  1.00  0.00     0.000 C 
BRANCH   4   5
ATOM      5  C   UNL     1       2.787  59.340  -7.459  1.00  0.00     0.000 C 
BRANCH   5   6
ATOM      6  C   UNL     1       2.323  58.877  -6.064  1.00  0.00     0.000 C 
BRANCH   6   7
ATOM      7  C   UNL     1       0.843  59.195  -5.789  1.00  0.00     0.000 C 
BRANCH   7   8
ATOM      8  C   UNL     1       0.653  60.346  -4.783  1.00  0.00     0.000 C 
BRANCH   8   9
ATOM      9  C   UNL     1      -0.580  60.223  -3.868  1.00  0.00     0.000 C 
BRANCH   9  10
ATOM     10  C   UNL     1      -1.908  60.362  -4.628  1.00  0.00     0.006 C 
BRANCH  10  11
ATOM     11  C   UNL     1      -2.624  59.012  -4.733  1.00  0.00     0.053 C 
BRANCH  11  12
ATOM     12  C   UNL     1      -4.092  59.179  -4.498  1.00  0.00     0.041 C 
ATOM     13  O   UNL     1      -4.540  59.264  -3.324  1.00  0.00    -0.550 OA
ATOM     14  O   UNL     1      -4.974  59.176  -5.574  1.00  0.00    -0.550 OA
ENDBRANCH  11  12
ENDBRANCH  10  11
ENDBRANCH   9  10
ENDBRANCH   8   9
ENDBRANCH   7   8
ENDBRANCH   6   7
ENDBRANCH   5   6
ENDBRANCH   4   5
ENDBRANCH   3   4
ENDBRANCH   2   3
ENDBRANCH   1   2
BRANCH   1  15
ATOM     15  C   UNL     1       3.060  65.633  -6.362  1.00  0.00     0.000 C 
BRANCH  15  16
ATOM     16  C   UNL     1       3.404  66.440  -5.099  1.00  0.00     0.000 C 
BRANCH  16  17
ATOM     17  C   UNL     1       2.680  67.796  -5.050  1.00  0.00     0.000 C 
BRANCH  17  18
ATOM     18  C   UNL     1       1.347  67.791  -5.819  1.00  0.00    -0.000 C 
BRANCH  18  19
ATOM     19  C   UNL     1       0.268  68.738  -5.264  1.00  0.00    -0.000 C 
BRANCH  19  20
ATOM     20  C   UNL     1      -0.867  69.010  -6.264  1.00  0.00    -0.000 C 
BRANCH  20  21
ATOM     21  C   UNL     1      -2.232  68.985  -5.567  1.00  0.00    -0.000 C 
BRANCH  21  22
ATOM     22  C   UNL     1      -2.766  70.409  -5.348  1.00  0.00    -0.000 C 
BRANCH  22  23
ATOM     23  C   UNL     1      -3.851  70.799  -6.366  1.00  0.00    -0.000 C 
BRANCH  23  24
ATOM     24  C   UNL     1      -5.268  70.728  -5.773  1.00  0.00    -0.000 C 
BRANCH  24  25
ATOM     25  C   UNL     1      -5.941  72.107  -5.688  1.00  0.00    -0.003 C 
ATOM     26  C   UNL     1      -5.225  73.169  -6.523  1.00  0.00     0.004 C 
ENDBRANCH  24  25
ENDBRANCH  23  24
ENDBRANCH  22  23
ENDBRANCH  21  22
ENDBRANCH  20  21
ENDBRANCH  19  20
ENDBRANCH  18  19
ENDBRANCH  17  18
ENDBRANCH  16  17
ENDBRANCH  15  16
ENDBRANCH   1  15
TORSDOF 22
ENDMDL
MODEL 6
REMARK VINA RESULT:     3.914      3.069      9.245
REMARK INTER + INTRA:           8.086
REMARK INTER:                   9.870
REMARK INTRA:                  -1.784
REMARK UNBOUND:                -0.861
REMARK SMILES CCCCCCCCCCCCCCCCCCCCCCCC(=O)[O-]
REMARK SMILES IDX 13 1 14 2 15 3 16 4 17 5 18 6 19 7 20 8 21 9 22 10 23 11
REMARK SMILES IDX 24 12 25 13 26 14 12 15 11 16 10 17 9 18 8 19 7 20 6 21 5 22
REMARK SMILES IDX 4 23 3 24 2 25 1 26
REMARK H PARENT
REMARK Flexibility Score: inf
ROOT
ATOM      1  C   UNL     1       2.057  62.817  -6.603  1.00  0.00     0.000 C 
ENDROOT
BRANCH   1   2
ATOM      2  C   UNL     1       2.544  64.271  -6.708  1.00  0.00     0.000 C 
BRANCH   2   3
ATOM      3  C   UNL     1       3.280  64.741  -5.444  1.00  0.00     0.000 C 
BRANCH   3   4
ATOM      4  C   UNL     1       3.796  66.178  -5.609  1.00  0.00     0.000 C 
BRANCH   4   5
ATOM      5  C   UNL     1       3.221  67.148  -4.558  1.00  0.00     0.000 C 
BRANCH   5   6
ATOM      6  C   UNL     1       2.352  68.288  -5.123  1.00  0.00     0.000 C 
BRANCH   6   7
ATOM      7  C   UNL     1       0.877  67.886  -5.299  1.00  0.00     0.000 C 
BRANCH   7   8
ATOM      8  C   UNL     1       0.275  68.377  -6.629  1.00  0.00     0.000 C 
BRANCH   8   9
ATOM      9  C   UNL     1      -0.935  69.321  -6.495  1.00  0.00     0.000 C 
BRANCH   9  10
ATOM     10  C   UNL     1      -1.459  69.423  -5.054  1.00  0.00     0.006 C 
BRANCH  10  11
ATOM     11  C   UNL     1      -2.981  69.252  -5.010  1.00  0.00     0.053 C 
BRANCH  11  12
ATOM     12  C   UNL     1      -3.648  70.253  -5.899  1.00  0.00     0.041 C 
ATOM     13  O   UNL     1      -3.346  71.473  -5.816  1.00  0.00    -0.550 OA
ATOM     14  O   UNL     1      -4.648  69.848  -6.776  1.00  0.00    -0.550 OA
ENDBRANCH  11  12
ENDBRANCH  10  11
ENDBRANCH   9  10
ENDBRANCH   8   9
ENDBRANCH   7   8
ENDBRANCH   6   7
ENDBRANCH   5   6
ENDBRANCH   4   5
ENDBRANCH   3   4
ENDBRANCH   2   3
ENDBRANCH   1   2
BRANCH   1  15
ATOM     15  C   UNL     1       2.871  61.854  -7.487  1.00  0.00     0.000 C 
BRANCH  15  16
ATOM     16  C   UNL     1       3.274  60.569  -6.746  1.00  0.00     0.000 C 
BRANCH  16  17
ATOM     17  C   UNL     1       2.400  59.365  -7.135  1.00  0.00     0.000 C 
BRANCH  17  18
ATOM     18  C   UNL     1       1.464  58.913  -5.999  1.00  0.00    -0.000 C 
BRANCH  18  19
ATOM     19  C   UNL     1       0.042  59.503  -6.050  1.00  0.00    -0.000 C 
BRANCH  19  20
ATOM     20  C   UNL     1      -0.332  60.279  -4.778  1.00  0.00    -0.000 C 
BRANCH  20  21
ATOM     21  C   UNL     1      -1.669  59.789  -4.208  1.00  0.00    -0.000 C 
BRANCH  21  22
ATOM     22  C   UNL     1      -2.685  60.938  -4.120  1.00  0.00    -0.000 C 
BRANCH  22  23
ATOM     23  C   UNL     1      -4.076  60.541  -4.640  1.00  0.00    -0.000 C 
BRANCH  23  24
ATOM     24  C   UNL     1      -4.070  59.183  -5.362  1.00  0.00    -0.000 C 
BRANCH  24  25
ATOM     25  C   UNL     1      -4.467  59.301  -6.841  1.00  0.00    -0.003 C 
ATOM     26  C   UNL     1      -3.265  59.508  -7.764  1.00  0.00     0.004 C 
ENDBRANCH  24  25
ENDBRANCH  23  24
ENDBRANCH  22  23
ENDBRANCH  21  22
ENDBRANCH  20  21
ENDBRANCH  19  20
ENDBRANCH  18  19
ENDBRANCH  17  18
ENDBRANCH  16  17
ENDBRANCH  15  16
ENDBRANCH   1  15
TORSDOF 22
ENDMDL
MODEL 7
REMARK VINA RESULT:     4.444      6.908      9.938
REMARK INTER + INTRA:           9.298
REMARK INTER:                   4.418
REMARK INTRA:                   4.880
REMARK UNBOUND:                -0.861
REMARK SMILES CCCCCCCCCCCCCCCCCCCCCCCC(=O)[O-]
REMARK SMILES IDX 13 1 14 2 15 3 16 4 17 5 18 6 19 7 20 8 21 9 22 10 23 11
REMARK SMILES IDX 24 12 25 13 26 14 12 15 11 16 10 17 9 18 8 19 7 20 6 21 5 22
REMARK SMILES IDX 4 23 3 24 2 25 1 26
REMARK H PARENT
REMARK Flexibility Score: inf
ROOT
ATOM      1  C   UNL     1      -2.323  59.265  -6.322  1.00  0.00     0.000 C 
ENDROOT
BRANCH   1   2
ATOM      2  C   UNL     1      -3.020  59.453  -7.679  1.00  0.00     0.000 C 
BRANCH   2   3
ATOM      3  C   UNL     1      -3.914  60.702  -7.716  1.00  0.00     0.000 C 
BRANCH   3   4
ATOM      4  C   UNL     1      -4.906  60.704  -6.544  1.00  0.00     0.000 C 
BRANCH   4   5
ATOM      5  C   UNL     1      -4.642  59.574  -5.530  1.00  0.00     0.000 C 
BRANCH   5   6
ATOM      6  C   UNL     1      -3.539  59.865  -4.493  1.00  0.00     0.000 C 
BRANCH   6   7
ATOM      7  C   UNL     1      -3.960  59.515  -3.056  1.00  0.00     0.000 C 
BRANCH   7   8
ATOM      8  C   UNL     1      -2.815  58.906  -2.225  1.00  0.00     0.000 C 
BRANCH   8   9
ATOM      9  C   UNL     1      -2.940  59.086  -0.701  1.00  0.00     0.000 C 
BRANCH   9  10
ATOM     10  C   UNL     1      -1.582  59.072   0.017  1.00  0.00     0.006 C 
BRANCH  10  11
ATOM     11  C   UNL     1      -0.428  59.076  -0.989  1.00  0.00     0.053 C 
BRANCH  11  12
ATOM     12  C   UNL     1       0.219  60.425  -1.041  1.00  0.00     0.041 C 
ATOM     13  O   UNL     1       0.742  60.916  -0.006  1.00  0.00    -0.550 OA
ATOM     14  O   UNL     1       0.187  61.167  -2.217  1.00  0.00    -0.550 OA
ENDBRANCH  11  12
ENDBRANCH  10  11
ENDBRANCH   9  10
ENDBRANCH   8   9
ENDBRANCH   7   8
ENDBRANCH   6   7
ENDBRANCH   5   6
ENDBRANCH   4   5
ENDBRANCH   3   4
ENDBRANCH   2   3
ENDBRANCH   1   2
BRANCH   1  15
ATOM     15  C   UNL     1      -0.820  58.959  -6.466  1.00  0.00     0.000 C 
BRANCH  15  16
ATOM     16  C   UNL     1      -0.371  58.877  -7.934  1.00  0.00     0.000 C 
BRANCH  16  17
ATOM     17  C   UNL     1       1.102  59.279  -8.124  1.00  0.00     0.000 C 
BRANCH  17  18
ATOM     18  C   UNL     1       1.955  59.035  -6.866  1.00  0.00    -0.000 C 
BRANCH  18  19
ATOM     19  C   UNL     1       1.329  59.522  -5.547  1.00  0.00    -0.000 C 
BRANCH  19  20
ATOM     20  C   UNL     1       1.916  60.855  -5.058  1.00  0.00    -0.000 C 
BRANCH  20  21
ATOM     21  C   UNL     1       3.106  61.283  -5.925  1.00  0.00    -0.000 C 
BRANCH  21  22
ATOM     22  C   UNL     1       4.097  60.124  -6.110  1.00  0.00    -0.000 C 
BRANCH  22  23
ATOM     23  C   UNL     1       4.763  60.128  -7.497  1.00  0.00    -0.000 C 
BRANCH  23  24
ATOM     24  C   UNL     1       5.620  58.875  -7.743  1.00  0.00    -0.000 C 
BRANCH  24  25
ATOM     25  C   UNL     1       7.068  59.217  -8.124  1.00  0.00    -0.003 C 
ATOM     26  C   UNL     1       7.748  60.137  -7.110  1.00  0.00     0.004 C 
ENDBRANCH  24  25
ENDBRANCH  23  24
ENDBRANCH  22  23
ENDBRANCH  21  22
ENDBRANCH  20  21
ENDBRANCH  19  20
ENDBRANCH  18  19
ENDBRANCH  17  18
ENDBRANCH  16  17
ENDBRANCH  15  16
ENDBRANCH   1  15
TORSDOF 22
ENDMDL
MODEL 8
REMARK VINA RESULT:     4.911      3.883      9.270
REMARK INTER + INTRA:          10.366
REMARK INTER:                  12.028
REMARK INTRA:                  -1.662
REMARK UNBOUND:                -0.861
REMARK SMILES CCCCCCCCCCCCCCCCCCCCCCCC(=O)[O-]
REMARK SMILES IDX 13 1 14 2 15 3 16 4 17 5 18 6 19 7 20 8 21 9 22 10 23 11
REMARK SMILES IDX 24 12 25 13 26 14 12 15 11 16 10 17 9 18 8 19 7 20 6 21 5 22
REMARK SMILES IDX 4 23 3 24 2 25 1 26
REMARK H PARENT
REMARK Flexibility Score: inf
ROOT
ATOM      1  C   UNL     1      -0.652  59.085  -6.733  1.00  0.00     0.000 C 
ENDROOT
BRANCH   1   2
ATOM      2  C   UNL     1       0.749  58.875  -7.328  1.00  0.00     0.000 C 
BRANCH   2   3
ATOM      3  C   UNL     1       1.832  59.675  -6.587  1.00  0.00     0.000 C 
BRANCH   3   4
ATOM      4  C   UNL     1       2.351  60.833  -7.453  1.00  0.00     0.000 C 
BRANCH   4   5
ATOM      5  C   UNL     1       2.909  62.004  -6.621  1.00  0.00     0.000 C 
BRANCH   5   6
ATOM      6  C   UNL     1       1.976  63.225  -6.497  1.00  0.00     0.000 C 
BRANCH   6   7
ATOM      7  C   UNL     1       2.677  64.551  -6.840  1.00  0.00     0.000 C 
BRANCH   7   8
ATOM      8  C   UNL     1       2.942  65.428  -5.602  1.00  0.00     0.000 C 
BRANCH   8   9
ATOM      9  C   UNL     1       2.893  66.947  -5.849  1.00  0.00     0.000 C 
BRANCH   9  10
ATOM     10  C   UNL     1       1.688  67.625  -5.179  1.00  0.00     0.006 C 
BRANCH  10  11
ATOM     11  C   UNL     1       0.618  67.990  -6.212  1.00  0.00     0.053 C 
BRANCH  11  12
ATOM     12  C   UNL     1      -0.510  68.726  -5.561  1.00  0.00     0.041 C 
ATOM     13  O   UNL     1      -0.539  68.862  -4.309  1.00  0.00    -0.550 OA
ATOM     14  O   UNL     1      -1.563  69.208  -6.331  1.00  0.00    -0.550 OA
ENDBRANCH  11  12
ENDBRANCH  10  11
ENDBRANCH   9  10
ENDBRANCH   8   9
ENDBRANCH   7   8
ENDBRANCH   6   7
ENDBRANCH   5   6
ENDBRANCH   4   5
ENDBRANCH   3   4
ENDBRANCH   2   3
ENDBRANCH   1   2
BRANCH   1  15
ATOM     15  C   UNL     1      -1.765  59.002  -7.794  1.00  0.00     0.000 C 
BRANCH  15  16
ATOM     16  C   UNL     1      -3.166  58.882  -7.173  1.00  0.00     0.000 C 
BRANCH  16  17
ATOM     17  C   UNL     1      -3.796  60.252  -6.870  1.00  0.00     0.000 C 
BRANCH  17  18
ATOM     18  C   UNL     1      -3.672  60.653  -5.389  1.00  0.00    -0.000 C 
BRANCH  18  19
ATOM     19  C   UNL     1      -3.906  59.513  -4.381  1.00  0.00    -0.000 C 
BRANCH  19  20
ATOM     20  C   UNL     1      -2.698  59.264  -3.464  1.00  0.00    -0.000 C 
BRANCH  20  21
ATOM     21  C   UNL     1      -1.875  60.544  -3.279  1.00  0.00    -0.000 C 
BRANCH  21  22
ATOM     22  C   UNL     1      -0.504  60.423  -3.962  1.00  0.00    -0.000 C 
BRANCH  22  23
ATOM     23  C   UNL     1       0.664  60.487  -2.965  1.00  0.00    -0.000 C 
BRANCH  23  24
ATOM     24  C   UNL     1       0.200  60.807  -1.533  1.00  0.00    -0.000 C 
BRANCH  24  25
ATOM     25  C   UNL     1       1.373  61.099  -0.585  1.00  0.00    -0.003 C 
ATOM     26  C   UNL     1       1.391  62.546  -0.092  1.00  0.00     0.004 C 
ENDBRANCH  24  25
ENDBRANCH  23  24
ENDBRANCH  22  23
ENDBRANCH  21  22
ENDBRANCH  20  21
ENDBRANCH  19  20
ENDBRANCH  18  19
ENDBRANCH  17  18
ENDBRANCH  16  17
ENDBRANCH  15  16
ENDBRANCH   1  15
TORSDOF 22
ENDMDL
MODEL 9
REMARK VINA RESULT:     5.126      3.222      9.387
REMARK INTER + INTRA:          10.859
REMARK INTER:                  11.744
REMARK INTRA:                  -0.886
REMARK UNBOUND:                -0.861
REMARK SMILES CCCCCCCCCCCCCCCCCCCCCCCC(=O)[O-]
REMARK SMILES IDX 13 1 14 2 15 3 16 4 17 5 18 6 19 7 20 8 21 9 22 10 23 11
REMARK SMILES IDX 24 12 25 13 26 14 12 15 11 16 10 17 9 18 8 19 7 20 6 21 5 22
REMARK SMILES IDX 4 23 3 24 2 25 1 26
REMARK H PARENT
REMARK Flexibility Score: inf
ROOT
ATOM      1  C   UNL     1       1.209  58.876  -6.417  1.00  0.00     0.000 C 
ENDROOT
BRANCH   1   2
ATOM      2  C   UNL     1       2.365  59.853  -6.683  1.00  0.00     0.000 C 
BRANCH   2   3
ATOM      3  C   UNL     1       2.191  61.189  -5.945  1.00  0.00     0.000 C 
BRANCH   3   4
ATOM      4  C   UNL     1       2.890  62.330  -6.699  1.00  0.00     0.000 C 
BRANCH   4   5
ATOM      5  C   UNL     1       2.152  63.677  -6.569  1.00  0.00     0.000 C 
BRANCH   5   6
ATOM      6  C   UNL     1       2.551  64.747  -7.604  1.00  0.00     0.000 C 
BRANCH   6   7
ATOM      7  C   UNL     1       2.412  66.182  -7.066  1.00  0.00     0.000 C 
BRANCH   7   8
ATOM      8  C   UNL     1       0.966  66.709  -7.128  1.00  0.00     0.000 C 
BRANCH   8   9
ATOM      9  C   UNL     1       0.662  67.905  -6.208  1.00  0.00     0.000 C 
BRANCH   9  10
ATOM     10  C   UNL     1      -0.587  68.690  -6.638  1.00  0.00     0.006 C 
BRANCH  10  11
ATOM     11  C   UNL     1      -0.976  69.726  -5.579  1.00  0.00     0.053 C 
BRANCH  11  12
ATOM     12  C   UNL     1      -2.464  69.855  -5.493  1.00  0.00     0.041 C 
ATOM     13  O   UNL     1      -3.187  69.504  -6.463  1.00  0.00    -0.550 OA
ATOM     14  O   UNL     1      -3.050  70.421  -4.366  1.00  0.00    -0.550 OA
ENDBRANCH  11  12
ENDBRANCH  10  11
ENDBRANCH   9  10
ENDBRANCH   8   9
ENDBRANCH   7   8
ENDBRANCH   6   7
ENDBRANCH   5   6
ENDBRANCH   4   5
ENDBRANCH   3   4
ENDBRANCH   2   3
ENDBRANCH   1   2
BRANCH   1  15
ATOM     15  C   UNL     1      -0.036  59.184  -7.270  1.00  0.00     0.000 C 
BRANCH  15  16
ATOM     16  C   UNL     1      -1.318  59.294  -6.428  1.00  0.00     0.000 C 
BRANCH  16  17
ATOM     17  C   UNL     1      -2.580  58.920  -7.224  1.00  0.00     0.000 C 
BRANCH  17  18
ATOM     18  C   UNL     1      -3.708  59.957  -7.079  1.00  0.00    -0.000 C 
BRANCH  18  19
ATOM     19  C   UNL     1      -4.573  59.809  -5.814  1.00  0.00    -0.000 C 
BRANCH  19  20
ATOM     20  C   UNL     1      -3.942  60.460  -4.574  1.00  0.00    -0.000 C 
BRANCH  20  21
ATOM     21  C   UNL     1      -3.130  59.438  -3.769  1.00  0.00    -0.000 C 
BRANCH  21  22
ATOM     22  C   UNL     1      -2.055  60.133  -2.921  1.00  0.00    -0.000 C 
BRANCH  22  23
ATOM     23  C   UNL     1      -0.776  60.439  -3.718  1.00  0.00    -0.000 C 
BRANCH  23  24
ATOM     24  C   UNL     1       0.465  60.562  -2.817  1.00  0.00    -0.000 C 
BRANCH  24  25
ATOM     25  C   UNL     1       0.120  61.045  -1.401  1.00  0.00    -0.003 C 
ATOM     26  C   UNL     1       0.894  60.299  -0.314  1.00  0.00     0.004 C 
ENDBRANCH  24  25
ENDBRANCH  23  24
ENDBRANCH  22  23
ENDBRANCH  21  22
ENDBRANCH  20  21
ENDBRANCH  19  20
ENDBRANCH  18  19
ENDBRANCH  17  18
ENDBRANCH  16  17
ENDBRANCH  15  16
ENDBRANCH   1  15
TORSDOF 22
ENDMDL
