MODEL 1
REMARK VINA RESULT:    -4.531      0.000      0.000
REMARK INTER + INTRA:          -9.183
REMARK INTER:                  -8.239
REMARK INTRA:                  -0.944
REMARK UNBOUND:                -0.944
REMARK SMILES CCCCCCCCCCCCCCCC(=O)[O-]
REMARK SMILES IDX 9 1 10 2 11 3 12 4 13 5 14 6 15 7 16 8 17 9 18 10 8 11 7 12
REMARK SMILES IDX 6 13 5 14 4 15 3 16 2 17 1 18
REMARK H PARENT
REMARK Flexibility Score: inf
ROOT
ATOM      1  C   UNL     1      -9.101   5.474  -8.363  1.00  0.00     0.000 C 
ENDROOT
BRANCH   1   2
ATOM      2  C   UNL     1      -7.706   5.454  -7.713  1.00  0.00     0.000 C 
BRANCH   2   3
ATOM      3  C   UNL     1      -7.221   6.811  -7.162  1.00  0.00     0.000 C 
BRANCH   3   4
ATOM      4  C   UNL     1      -5.871   6.770  -6.423  1.00  0.00     0.000 C 
BRANCH   4   5
ATOM      5  C   UNL     1      -5.993   7.139  -4.938  1.00  0.00     0.000 C 
BRANCH   5   6
ATOM      6  C   UNL     1      -5.686   5.931  -4.044  1.00  0.00     0.006 C 
BRANCH   6   7
ATOM      7  C   UNL     1      -6.818   4.901  -4.105  1.00  0.00     0.053 C 
BRANCH   7   8
ATOM      8  C   UNL     1      -8.111   5.518  -3.674  1.00  0.00     0.041 C 
ATOM      9  O   UNL     1      -9.088   5.560  -4.467  1.00  0.00    -0.550 OA
ATOM     10  O   UNL     1      -8.252   6.004  -2.381  1.00  0.00    -0.550 OA
ENDBRANCH   7   8
ENDBRANCH   6   7
ENDBRANCH   5   6
ENDBRANCH   4   5
ENDBRANCH   3   4
ENDBRANCH   2   3
ENDBRANCH   1   2
BRANCH   1  11
ATOM     11  C   UNL     1      -9.261   4.414  -9.463  1.00  0.00     0.000 C 
BRANCH  11  12
ATOM     12  C   UNL     1      -9.447   5.072 -10.836  1.00  0.00    -0.000 C 
BRANCH  12  13
ATOM     13  C   UNL     1      -8.151   5.019 -11.653  1.00  0.00    -0.000 C 
BRANCH  13  14
ATOM     14  C   UNL     1      -8.420   4.514 -13.078  1.00  0.00    -0.000 C 
BRANCH  14  15
ATOM     15  C   UNL     1      -8.157   5.585 -14.152  1.00  0.00    -0.000 C 
BRANCH  15  16
ATOM     16  C   UNL     1      -6.874   5.378 -14.982  1.00  0.00    -0.000 C 
BRANCH  16  17
ATOM     17  C   UNL     1      -5.833   4.442 -14.344  1.00  0.00    -0.003 C 
ATOM     18  C   UNL     1      -5.585   3.179 -15.167  1.00  0.00     0.004 C 
ENDBRANCH  16  17
ENDBRANCH  15  16
ENDBRANCH  14  15
ENDBRANCH  13  14
ENDBRANCH  12  13
ENDBRANCH  11  12
ENDBRANCH   1  11
TORSDOF 14
ENDMDL
MODEL 2
REMARK VINA RESULT:    -4.507      5.373     10.098
REMARK INTER + INTRA:          -9.139
REMARK INTER:                  -8.679
REMARK INTRA:                  -0.460
REMARK UNBOUND:                -0.944
REMARK SMILES CCCCCCCCCCCCCCCC(=O)[O-]
REMARK SMILES IDX 9 1 10 2 11 3 12 4 13 5 14 6 15 7 16 8 17 9 18 10 8 11 7 12
REMARK SMILES IDX 6 13 5 14 4 15 3 16 2 17 1 18
REMARK H PARENT
REMARK Flexibility Score: inf
ROOT
ATOM      1  C   UNL     1      -9.517   5.167 -10.637  1.00  0.00     0.000 C 
ENDROOT
BRANCH   1   2
ATOM      2  C   UNL     1      -8.751   4.515 -11.802  1.00  0.00     0.000 C 
BRANCH   2   3
ATOM      3  C   UNL     1      -7.688   5.410 -12.470  1.00  0.00     0.000 C 
BRANCH   3   4
ATOM      4  C   UNL     1      -7.402   5.091 -13.949  1.00  0.00     0.000 C 
BRANCH   4   5
ATOM      5  C   UNL     1      -8.228   5.953 -14.915  1.00  0.00     0.000 C 
BRANCH   5   6
ATOM      6  C   UNL     1      -7.443   6.245 -16.199  1.00  0.00     0.006 C 
BRANCH   6   7
ATOM      7  C   UNL     1      -7.973   7.502 -16.894  1.00  0.00     0.053 C 
BRANCH   7   8
ATOM      8  C   UNL     1      -8.694   7.140 -18.154  1.00  0.00     0.041 C 
ATOM      9  O   UNL     1      -9.686   7.816 -18.533  1.00  0.00    -0.550 OA
ATOM     10  O   UNL     1      -8.240   6.084 -18.935  1.00  0.00    -0.550 OA
ENDBRANCH   7   8
ENDBRANCH   6   7
ENDBRANCH   5   6
ENDBRANCH   4   5
ENDBRANCH   3   4
ENDBRANCH   2   3
ENDBRANCH   1   2
BRANCH   1  11
ATOM     11  C   UNL     1      -9.180   4.541  -9.276  1.00  0.00     0.000 C 
BRANCH  11  12
ATOM     12  C   UNL     1      -9.241   5.589  -8.159  1.00  0.00    -0.000 C 
BRANCH  12  13
ATOM     13  C   UNL     1      -7.859   5.807  -7.531  1.00  0.00    -0.000 C 
BRANCH  13  14
ATOM     14  C   UNL     1      -7.827   5.301  -6.083  1.00  0.00    -0.000 C 
BRANCH  14  15
ATOM     15  C   UNL     1      -9.148   5.548  -5.332  1.00  0.00    -0.000 C 
BRANCH  15  16
ATOM     16  C   UNL     1      -9.420   7.017  -4.952  1.00  0.00    -0.000 C 
BRANCH  16  17
ATOM     17  C   UNL     1      -9.424   7.306  -3.441  1.00  0.00    -0.003 C 
ATOM     18  C   UNL     1     -10.270   8.523  -3.070  1.00  0.00     0.004 C 
ENDBRANCH  16  17
ENDBRANCH  15  16
ENDBRANCH  14  15
ENDBRANCH  13  14
ENDBRANCH  12  13
ENDBRANCH  11  12
ENDBRANCH   1  11
TORSDOF 14
ENDMDL
MODEL 3
REMARK VINA RESULT:    -4.490      2.024      3.584
REMARK INTER + INTRA:          -9.108
REMARK INTER:                  -8.489
REMARK INTRA:                  -0.619
REMARK UNBOUND:                -0.944
REMARK SMILES CCCCCCCCCCCCCCCC(=O)[O-]
REMARK SMILES IDX 9 1 10 2 11 3 12 4 13 5 14 6 15 7 16 8 17 9 18 10 8 11 7 12
REMARK SMILES IDX 6 13 5 14 4 15 3 16 2 17 1 18
REMARK H PARENT
REMARK Flexibility Score: inf
ROOT
ATOM      1  C   UNL     1      -8.780   4.582 -11.930  1.00  0.00     0.000 C 
ENDROOT
BRANCH   1   2
ATOM      2  C   UNL     1      -9.514   5.177 -10.715  1.00  0.00     0.000 C 
BRANCH   2   3
ATOM      3  C   UNL     1      -9.166   4.530  -9.359  1.00  0.00     0.000 C 
BRANCH   3   4
ATOM      4  C   UNL     1      -9.019   5.515  -8.184  1.00  0.00     0.000 C 
BRANCH   4   5
ATOM      5  C   UNL     1      -7.613   5.500  -7.566  1.00  0.00     0.000 C 
BRANCH   5   6
ATOM      6  C   UNL     1      -7.387   6.734  -6.684  1.00  0.00     0.006 C 
BRANCH   6   7
ATOM      7  C   UNL     1      -6.725   6.349  -5.359  1.00  0.00     0.053 C 
BRANCH   7   8
ATOM      8  C   UNL     1      -7.542   5.319  -4.645  1.00  0.00     0.041 C 
ATOM      9  O   UNL     1      -7.066   4.174  -4.425  1.00  0.00    -0.550 OA
ATOM     10  O   UNL     1      -8.811   5.639  -4.180  1.00  0.00    -0.550 OA
ENDBRANCH   7   8
ENDBRANCH   6   7
ENDBRANCH   5   6
ENDBRANCH   4   5
ENDBRANCH   3   4
ENDBRANCH   2   3
ENDBRANCH   1   2
BRANCH   1  11
ATOM     11  C   UNL     1      -7.548   5.401 -12.343  1.00  0.00     0.000 C 
BRANCH  11  12
ATOM     12  C   UNL     1      -6.606   4.569 -13.222  1.00  0.00    -0.000 C 
BRANCH  12  13
ATOM     13  C   UNL     1      -6.230   5.329 -14.499  1.00  0.00    -0.000 C 
BRANCH  13  14
ATOM     14  C   UNL     1      -7.480   5.876 -15.202  1.00  0.00    -0.000 C 
BRANCH  14  15
ATOM     15  C   UNL     1      -7.147   6.717 -16.448  1.00  0.00    -0.000 C 
BRANCH  15  16
ATOM     16  C   UNL     1      -8.365   7.332 -17.166  1.00  0.00    -0.000 C 
BRANCH  16  17
ATOM     17  C   UNL     1      -8.453   7.026 -18.672  1.00  0.00    -0.003 C 
ATOM     18  C   UNL     1      -9.790   6.406 -19.076  1.00  0.00     0.004 C 
ENDBRANCH  16  17
ENDBRANCH  15  16
ENDBRANCH  14  15
ENDBRANCH  13  14
ENDBRANCH  12  13
ENDBRANCH  11  12
ENDBRANCH   1  11
TORSDOF 14
ENDMDL
MODEL 4
REMARK VINA RESULT:    -4.486      1.273      2.558
REMARK INTER + INTRA:          -9.102
REMARK INTER:                  -8.317
REMARK INTRA:                  -0.785
REMARK UNBOUND:                -0.944
REMARK SMILES CCCCCCCCCCCCCCCC(=O)[O-]
REMARK SMILES IDX 9 1 10 2 11 3 12 4 13 5 14 6 15 7 16 8 17 9 18 10 8 11 7 12
REMARK SMILES IDX 6 13 5 14 4 15 3 16 2 17 1 18
REMARK H PARENT
REMARK Flexibility Score: inf
ROOT
ATOM      1  C   UNL     1      -9.567   5.204 -10.643  1.00  0.00     0.000 C 
ENDROOT
BRANCH   1   2
ATOM      2  C   UNL     1      -9.468   4.548  -9.253  1.00  0.00     0.000 C 
BRANCH   2   3
ATOM      3  C   UNL     1      -9.078   5.502  -8.106  1.00  0.00     0.000 C 
BRANCH   3   4
ATOM      4  C   UNL     1      -7.625   5.371  -7.613  1.00  0.00     0.000 C 
BRANCH   4   5
ATOM      5  C   UNL     1      -6.980   6.726  -7.290  1.00  0.00     0.000 C 
BRANCH   5   6
ATOM      6  C   UNL     1      -6.716   6.864  -5.785  1.00  0.00     0.006 C 
BRANCH   6   7
ATOM      7  C   UNL     1      -7.297   5.676  -5.013  1.00  0.00     0.053 C 
BRANCH   7   8
ATOM      8  C   UNL     1      -8.509   6.095  -4.243  1.00  0.00     0.041 C 
ATOM      9  O   UNL     1      -8.772   5.558  -3.135  1.00  0.00    -0.550 OA
ATOM     10  O   UNL     1      -9.322   7.112  -4.725  1.00  0.00    -0.550 OA
ENDBRANCH   7   8
ENDBRANCH   6   7
ENDBRANCH   5   6
ENDBRANCH   4   5
ENDBRANCH   3   4
ENDBRANCH   2   3
ENDBRANCH   1   2
BRANCH   1  11
ATOM     11  C   UNL     1      -8.341   4.922 -11.524  1.00  0.00     0.000 C 
BRANCH  11  12
ATOM     12  C   UNL     1      -8.765   4.493 -12.933  1.00  0.00    -0.000 C 
BRANCH  12  13
ATOM     13  C   UNL     1      -7.879   5.149 -13.999  1.00  0.00    -0.000 C 
BRANCH  13  14
ATOM     14  C   UNL     1      -6.392   4.979 -13.658  1.00  0.00    -0.000 C 
BRANCH  14  15
ATOM     15  C   UNL     1      -5.463   5.683 -14.664  1.00  0.00    -0.000 C 
BRANCH  15  16
ATOM     16  C   UNL     1      -5.958   5.679 -16.124  1.00  0.00    -0.000 C 
BRANCH  16  17
ATOM     17  C   UNL     1      -6.003   7.062 -16.797  1.00  0.00    -0.003 C 
ATOM     18  C   UNL     1      -7.426   7.585 -16.989  1.00  0.00     0.004 C 
ENDBRANCH  16  17
ENDBRANCH  15  16
ENDBRANCH  14  15
ENDBRANCH  13  14
ENDBRANCH  12  13
ENDBRANCH  11  12
ENDBRANCH   1  11
TORSDOF 14
ENDMDL
MODEL 5
REMARK VINA RESULT:    -4.462      4.342      8.890
REMARK INTER + INTRA:          -9.057
REMARK INTER:                  -8.077
REMARK INTRA:                  -0.979
REMARK UNBOUND:                -0.944
REMARK SMILES CCCCCCCCCCCCCCCC(=O)[O-]
REMARK SMILES IDX 9 1 10 2 11 3 12 4 13 5 14 6 15 7 16 8 17 9 18 10 8 11 7 12
REMARK SMILES IDX 6 13 5 14 4 15 3 16 2 17 1 18
REMARK H PARENT
REMARK Flexibility Score: inf
ROOT
ATOM      1  C   UNL     1      -9.467   5.602  -8.319  1.00  0.00     0.000 C 
ENDROOT
BRANCH   1   2
ATOM      2  C   UNL     1      -9.096   4.551  -9.380  1.00  0.00     0.000 C 
BRANCH   2   3
ATOM      3  C   UNL     1      -9.450   4.932 -10.832  1.00  0.00     0.000 C 
BRANCH   3   4
ATOM      4  C   UNL     1      -8.246   5.075 -11.781  1.00  0.00     0.000 C 
BRANCH   4   5
ATOM      5  C   UNL     1      -8.526   4.521 -13.186  1.00  0.00     0.000 C 
BRANCH   5   6
ATOM      6  C   UNL     1      -7.848   5.380 -14.261  1.00  0.00     0.006 C 
BRANCH   6   7
ATOM      7  C   UNL     1      -6.327   5.207 -14.224  1.00  0.00     0.053 C 
BRANCH   7   8
ATOM      8  C   UNL     1      -5.843   4.563 -15.485  1.00  0.00     0.041 C 
ATOM      9  O   UNL     1      -4.900   3.730 -15.449  1.00  0.00    -0.550 OA
ATOM     10  O   UNL     1      -6.467   4.846 -16.694  1.00  0.00    -0.550 OA
ENDBRANCH   7   8
ENDBRANCH   6   7
ENDBRANCH   5   6
ENDBRANCH   4   5
ENDBRANCH   3   4
ENDBRANCH   2   3
ENDBRANCH   1   2
BRANCH   1  11
ATOM     11  C   UNL     1      -8.338   5.855  -7.309  1.00  0.00     0.000 C 
BRANCH  11  12
ATOM     12  C   UNL     1      -6.965   5.750  -7.983  1.00  0.00    -0.000 C 
BRANCH  12  13
ATOM     13  C   UNL     1      -6.033   6.873  -7.513  1.00  0.00    -0.000 C 
BRANCH  13  14
ATOM     14  C   UNL     1      -6.342   7.273  -6.063  1.00  0.00    -0.000 C 
BRANCH  14  15
ATOM     15  C   UNL     1      -5.159   7.027  -5.109  1.00  0.00    -0.000 C 
BRANCH  15  16
ATOM     16  C   UNL     1      -5.468   6.113  -3.907  1.00  0.00    -0.000 C 
BRANCH  16  17
ATOM     17  C   UNL     1      -6.626   5.123  -4.126  1.00  0.00    -0.003 C 
ATOM     18  C   UNL     1      -6.343   3.738  -3.544  1.00  0.00     0.004 C 
ENDBRANCH  16  17
ENDBRANCH  15  16
ENDBRANCH  14  15
ENDBRANCH  13  14
ENDBRANCH  12  13
ENDBRANCH  11  12
ENDBRANCH   1  11
TORSDOF 14
ENDMDL
MODEL 6
REMARK VINA RESULT:    -4.455      1.764      4.384
REMARK INTER + INTRA:          -9.045
REMARK INTER:                  -8.004
REMARK INTRA:                  -1.041
REMARK UNBOUND:                -0.944
REMARK SMILES CCCCCCCCCCCCCCCC(=O)[O-]
REMARK SMILES IDX 9 1 10 2 11 3 12 4 13 5 14 6 15 7 16 8 17 9 18 10 8 11 7 12
REMARK SMILES IDX 6 13 5 14 4 15 3 16 2 17 1 18
REMARK H PARENT
REMARK Flexibility Score: inf
ROOT
ATOM      1  C   UNL     1      -7.970   5.254 -13.566  1.00  0.00     0.000 C 
ENDROOT
BRANCH   1   2
ATOM      2  C   UNL     1      -8.648   4.502 -12.406  1.00  0.00     0.000 C 
BRANCH   2   3
ATOM      3  C   UNL     1      -8.688   5.264 -11.066  1.00  0.00     0.000 C 
BRANCH   3   4
ATOM      4  C   UNL     1      -9.447   4.551  -9.932  1.00  0.00     0.000 C 
BRANCH   4   5
ATOM      5  C   UNL     1      -9.314   5.270  -8.582  1.00  0.00     0.000 C 
BRANCH   5   6
ATOM      6  C   UNL     1      -7.846   5.361  -8.149  1.00  0.00     0.006 C 
BRANCH   6   7
ATOM      7  C   UNL     1      -7.659   6.418  -7.057  1.00  0.00     0.053 C 
BRANCH   7   8
ATOM      8  C   UNL     1      -8.373   6.011  -5.807  1.00  0.00     0.041 C 
ATOM      9  O   UNL     1      -9.441   6.587  -5.471  1.00  0.00    -0.550 OA
ATOM     10  O   UNL     1      -7.885   4.962  -5.038  1.00  0.00    -0.550 OA
ENDBRANCH   7   8
ENDBRANCH   6   7
ENDBRANCH   5   6
ENDBRANCH   4   5
ENDBRANCH   3   4
ENDBRANCH   2   3
ENDBRANCH   1   2
BRANCH   1  11
ATOM     11  C   UNL     1      -6.452   5.029 -13.615  1.00  0.00     0.000 C 
BRANCH  11  12
ATOM     12  C   UNL     1      -6.090   3.943 -14.634  1.00  0.00    -0.000 C 
BRANCH  12  13
ATOM     13  C   UNL     1      -5.464   4.554 -15.893  1.00  0.00    -0.000 C 
BRANCH  13  14
ATOM     14  C   UNL     1      -5.237   6.062 -15.718  1.00  0.00    -0.000 C 
BRANCH  14  15
ATOM     15  C   UNL     1      -5.378   6.846 -17.035  1.00  0.00    -0.000 C 
BRANCH  15  16
ATOM     16  C   UNL     1      -6.527   7.873 -17.066  1.00  0.00    -0.000 C 
BRANCH  16  17
ATOM     17  C   UNL     1      -7.918   7.301 -16.739  1.00  0.00    -0.003 C 
ATOM     18  C   UNL     1      -8.349   6.199 -17.706  1.00  0.00     0.004 C 
ENDBRANCH  16  17
ENDBRANCH  15  16
ENDBRANCH  14  15
ENDBRANCH  13  14
ENDBRANCH  12  13
ENDBRANCH  11  12
ENDBRANCH   1  11
TORSDOF 14
ENDMDL
MODEL 7
REMARK VINA RESULT:    -4.446      4.041      9.323
REMARK INTER + INTRA:          -9.029
REMARK INTER:                  -8.291
REMARK INTRA:                  -0.738
REMARK UNBOUND:                -0.944
REMARK SMILES CCCCCCCCCCCCCCCC(=O)[O-]
REMARK SMILES IDX 9 1 10 2 11 3 12 4 13 5 14 6 15 7 16 8 17 9 18 10 8 11 7 12
REMARK SMILES IDX 6 13 5 14 4 15 3 16 2 17 1 18
REMARK H PARENT
REMARK Flexibility Score: inf
ROOT
ATOM      1  C   UNL     1      -7.605   5.588  -7.676  1.00  0.00     0.000 C 
ENDROOT
BRANCH   1   2
ATOM      2  C   UNL     1      -9.029   5.604  -8.262  1.00  0.00     0.000 C 
BRANCH   2   3
ATOM      3  C   UNL     1      -9.317   4.513  -9.313  1.00  0.00     0.000 C 
BRANCH   3   4
ATOM      4  C   UNL     1      -9.552   5.031 -10.744  1.00  0.00     0.000 C 
BRANCH   4   5
ATOM      5  C   UNL     1      -8.330   4.842 -11.655  1.00  0.00     0.000 C 
BRANCH   5   6
ATOM      6  C   UNL     1      -8.760   4.514 -13.090  1.00  0.00     0.006 C 
BRANCH   6   7
ATOM      7  C   UNL     1      -7.900   5.268 -14.108  1.00  0.00     0.053 C 
BRANCH   7   8
ATOM      8  C   UNL     1      -6.487   4.783 -14.060  1.00  0.00     0.041 C 
ATOM      9  O   UNL     1      -6.192   3.644 -14.508  1.00  0.00    -0.550 OA
ATOM     10  O   UNL     1      -5.484   5.609 -13.566  1.00  0.00    -0.550 OA
ENDBRANCH   7   8
ENDBRANCH   6   7
ENDBRANCH   5   6
ENDBRANCH   4   5
ENDBRANCH   3   4
ENDBRANCH   2   3
ENDBRANCH   1   2
BRANCH   1  11
ATOM     11  C   UNL     1      -7.527   6.222  -6.280  1.00  0.00     0.000 C 
BRANCH  11  12
ATOM     12  C   UNL     1      -7.905   5.207  -5.194  1.00  0.00    -0.000 C 
BRANCH  12  13
ATOM     13  C   UNL     1      -8.706   5.875  -4.070  1.00  0.00    -0.000 C 
BRANCH  13  14
ATOM     14  C   UNL     1      -7.937   7.065  -3.480  1.00  0.00    -0.000 C 
BRANCH  14  15
ATOM     15  C   UNL     1      -8.766   8.363  -3.459  1.00  0.00    -0.000 C 
BRANCH  15  16
ATOM     16  C   UNL     1     -10.290   8.167  -3.584  1.00  0.00    -0.000 C 
BRANCH  16  17
ATOM     17  C   UNL     1     -11.125   8.858  -2.491  1.00  0.00    -0.003 C 
ATOM     18  C   UNL     1     -11.923  10.050  -3.017  1.00  0.00     0.004 C 
ENDBRANCH  16  17
ENDBRANCH  15  16
ENDBRANCH  14  15
ENDBRANCH  13  14
ENDBRANCH  12  13
ENDBRANCH  11  12
ENDBRANCH   1  11
TORSDOF 14
ENDMDL
MODEL 8
REMARK VINA RESULT:    -4.398      1.652      2.147
REMARK INTER + INTRA:          -8.941
REMARK INTER:                  -8.095
REMARK INTRA:                  -0.845
REMARK UNBOUND:                -0.944
REMARK SMILES CCCCCCCCCCCCCCCC(=O)[O-]
REMARK SMILES IDX 9 1 10 2 11 3 12 4 13 5 14 6 15 7 16 8 17 9 18 10 8 11 7 12
REMARK SMILES IDX 6 13 5 14 4 15 3 16 2 17 1 18
REMARK H PARENT
REMARK Flexibility Score: inf
ROOT
ATOM      1  C   UNL     1      -8.957   5.621  -8.137  1.00  0.00     0.000 C 
ENDROOT
BRANCH   1   2
ATOM      2  C   UNL     1      -7.485   5.452  -7.722  1.00  0.00     0.000 C 
BRANCH   2   3
ATOM      3  C   UNL     1      -6.768   6.752  -7.305  1.00  0.00     0.000 C 
BRANCH   3   4
ATOM      4  C   UNL     1      -7.005   7.189  -5.848  1.00  0.00     0.000 C 
BRANCH   4   5
ATOM      5  C   UNL     1      -7.195   6.003  -4.892  1.00  0.00     0.000 C 
BRANCH   5   6
ATOM      6  C   UNL     1      -8.556   6.074  -4.190  1.00  0.00     0.006 C 
BRANCH   6   7
ATOM      7  C   UNL     1      -9.217   7.438  -4.409  1.00  0.00     0.053 C 
BRANCH   7   8
ATOM      8  C   UNL     1      -9.910   7.889  -3.162  1.00  0.00     0.041 C 
ATOM      9  O   UNL     1      -9.723   7.279  -2.076  1.00  0.00    -0.550 OA
ATOM     10  O   UNL     1     -10.726   9.013  -3.189  1.00  0.00    -0.550 OA
ENDBRANCH   7   8
ENDBRANCH   6   7
ENDBRANCH   5   6
ENDBRANCH   4   5
ENDBRANCH   3   4
ENDBRANCH   2   3
ENDBRANCH   1   2
BRANCH   1  11
ATOM     11  C   UNL     1      -9.406   4.588  -9.181  1.00  0.00     0.000 C 
BRANCH  11  12
ATOM     12  C   UNL     1      -9.634   5.249 -10.545  1.00  0.00    -0.000 C 
BRANCH  12  13
ATOM     13  C   UNL     1      -8.379   5.156 -11.420  1.00  0.00    -0.000 C 
BRANCH  13  14
ATOM     14  C   UNL     1      -8.698   4.502 -12.772  1.00  0.00    -0.000 C 
BRANCH  14  15
ATOM     15  C   UNL     1      -7.591   4.721 -13.819  1.00  0.00    -0.000 C 
BRANCH  15  16
ATOM     16  C   UNL     1      -7.945   5.712 -14.946  1.00  0.00    -0.000 C 
BRANCH  16  17
ATOM     17  C   UNL     1      -6.809   5.992 -15.946  1.00  0.00    -0.003 C 
ATOM     18  C   UNL     1      -7.234   5.794 -17.400  1.00  0.00     0.004 C 
ENDBRANCH  16  17
ENDBRANCH  15  16
ENDBRANCH  14  15
ENDBRANCH  13  14
ENDBRANCH  12  13
ENDBRANCH  11  12
ENDBRANCH   1  11
TORSDOF 14
ENDMDL
MODEL 9
REMARK VINA RESULT:    -4.367      1.744      2.306
REMARK INTER + INTRA:          -8.885
REMARK INTER:                  -8.136
REMARK INTRA:                  -0.750
REMARK UNBOUND:                -0.944
REMARK SMILES CCCCCCCCCCCCCCCC(=O)[O-]
REMARK SMILES IDX 9 1 10 2 11 3 12 4 13 5 14 6 15 7 16 8 17 9 18 10 8 11 7 12
REMARK SMILES IDX 6 13 5 14 4 15 3 16 2 17 1 18
REMARK H PARENT
REMARK Flexibility Score: inf
ROOT
ATOM      1  C   UNL     1      -9.097   5.283  -8.228  1.00  0.00     0.000 C 
ENDROOT
BRANCH   1   2
ATOM      2  C   UNL     1      -7.644   5.624  -7.850  1.00  0.00     0.000 C 
BRANCH   2   3
ATOM      3  C   UNL     1      -7.483   6.502  -6.593  1.00  0.00     0.000 C 
BRANCH   3   4
ATOM      4  C   UNL     1      -8.702   6.526  -5.653  1.00  0.00     0.000 C 
BRANCH   4   5
ATOM      5  C   UNL     1      -8.545   5.585  -4.450  1.00  0.00     0.000 C 
BRANCH   5   6
ATOM      6  C   UNL     1      -7.184   4.879  -4.477  1.00  0.00     0.006 C 
BRANCH   6   7
ATOM      7  C   UNL     1      -6.373   5.199  -3.218  1.00  0.00     0.053 C 
BRANCH   7   8
ATOM      8  C   UNL     1      -5.853   3.941  -2.597  1.00  0.00     0.041 C 
ATOM      9  O   UNL     1      -4.615   3.779  -2.436  1.00  0.00    -0.550 OA
ATOM     10  O   UNL     1      -6.739   2.968  -2.151  1.00  0.00    -0.550 OA
ENDBRANCH   7   8
ENDBRANCH   6   7
ENDBRANCH   5   6
ENDBRANCH   4   5
ENDBRANCH   3   4
ENDBRANCH   2   3
ENDBRANCH   1   2
BRANCH   1  11
ATOM     11  C   UNL     1      -9.197   4.397  -9.478  1.00  0.00     0.000 C 
BRANCH  11  12
ATOM     12  C   UNL     1      -9.460   5.241 -10.730  1.00  0.00    -0.000 C 
BRANCH  12  13
ATOM     13  C   UNL     1      -8.808   4.611 -11.967  1.00  0.00    -0.000 C 
BRANCH  13  14
ATOM     14  C   UNL     1      -7.449   5.259 -12.262  1.00  0.00    -0.000 C 
BRANCH  14  15
ATOM     15  C   UNL     1      -6.719   4.605 -13.450  1.00  0.00    -0.000 C 
BRANCH  15  16
ATOM     16  C   UNL     1      -5.758   5.534 -14.219  1.00  0.00    -0.000 C 
BRANCH  16  17
ATOM     17  C   UNL     1      -6.154   5.811 -15.680  1.00  0.00    -0.003 C 
ATOM     18  C   UNL     1      -7.653   6.054 -15.855  1.00  0.00     0.004 C 
ENDBRANCH  16  17
ENDBRANCH  15  16
ENDBRANCH  14  15
ENDBRANCH  13  14
ENDBRANCH  12  13
ENDBRANCH  11  12
ENDBRANCH   1  11
TORSDOF 14
ENDMDL
