MODEL 1
REMARK VINA RESULT:    -5.962      0.000      0.000
REMARK INTER + INTRA:         -20.294
REMARK INTER:                 -15.720
REMARK INTRA:                  -4.573
REMARK UNBOUND:                -4.573
REMARK SMILES CCCCCCCCCCCCCCCCCCCCCCCCCCCCCC(=O)[O-]
REMARK SMILES IDX 16 1 17 2 18 3 19 4 20 5 21 6 22 7 23 8 24 9 25 10 26 11
REMARK SMILES IDX 27 12 28 13 29 14 30 15 31 16 32 17 15 18 14 19 13 20 12 21
REMARK SMILES IDX 11 22 10 23 9 24 8 25 7 26 6 27 5 28 4 29 3 30 2 31 1 32
REMARK H PARENT
REMARK Flexibility Score: inf
ROOT
ATOM      1  C   UNL     1       8.319  18.261  33.667  1.00  0.00     0.000 C 
ENDROOT
BRANCH   1   2
ATOM      2  C   UNL     1       8.307  17.671  35.092  1.00  0.00     0.000 C 
BRANCH   2   3
ATOM      3  C   UNL     1       9.615  16.983  35.527  1.00  0.00     0.000 C 
BRANCH   3   4
ATOM      4  C   UNL     1      10.050  17.370  36.950  1.00  0.00     0.000 C 
BRANCH   4   5
ATOM      5  C   UNL     1      11.531  17.783  37.036  1.00  0.00     0.000 C 
BRANCH   5   6
ATOM      6  C   UNL     1      12.319  17.696  35.715  1.00  0.00     0.000 C 
BRANCH   6   7
ATOM      7  C   UNL     1      13.316  16.525  35.686  1.00  0.00     0.000 C 
BRANCH   7   8
ATOM      8  C   UNL     1      13.401  15.792  37.036  1.00  0.00     0.000 C 
BRANCH   8   9
ATOM      9  C   UNL     1      14.716  15.017  37.203  1.00  0.00     0.000 C 
BRANCH   9  10
ATOM     10  C   UNL     1      15.659  15.734  38.179  1.00  0.00     0.000 C 
BRANCH  10  11
ATOM     11  C   UNL     1      15.317  17.224  38.357  1.00  0.00     0.000 C 
BRANCH  11  12
ATOM     12  C   UNL     1      16.195  18.162  37.501  1.00  0.00     0.000 C 
BRANCH  12  13
ATOM     13  C   UNL     1      17.155  17.384  36.586  1.00  0.00     0.006 C 
BRANCH  13  14
ATOM     14  C   UNL     1      16.859  17.667  35.111  1.00  0.00     0.053 C 
BRANCH  14  15
ATOM     15  C   UNL     1      17.953  17.135  34.237  1.00  0.00     0.041 C 
ATOM     16  O   UNL     1      18.244  17.720  33.159  1.00  0.00    -0.550 OA
ATOM     17  O   UNL     1      18.664  16.006  34.621  1.00  0.00    -0.550 OA
ENDBRANCH  14  15
ENDBRANCH  13  14
ENDBRANCH  12  13
ENDBRANCH  11  12
ENDBRANCH  10  11
ENDBRANCH   9  10
ENDBRANCH   8   9
ENDBRANCH   7   8
ENDBRANCH   6   7
ENDBRANCH   5   6
ENDBRANCH   4   5
ENDBRANCH   3   4
ENDBRANCH   2   3
ENDBRANCH   1   2
BRANCH   1  18
ATOM     18  C   UNL     1       9.718  18.438  33.043  1.00  0.00     0.000 C 
BRANCH  18  19
ATOM     19  C   UNL     1       9.718  18.933  31.584  1.00  0.00     0.000 C 
BRANCH  19  20
ATOM     20  C   UNL     1       8.465  19.728  31.167  1.00  0.00     0.000 C 
BRANCH  20  21
ATOM     21  C   UNL     1       8.264  21.068  31.900  1.00  0.00     0.000 C 
BRANCH  21  22
ATOM     22  C   UNL     1       8.973  22.238  31.197  1.00  0.00     0.000 C 
BRANCH  22  23
ATOM     23  C   UNL     1       9.399  23.357  32.164  1.00  0.00     0.000 C 
BRANCH  23  24
ATOM     24  C   UNL     1      10.917  23.506  32.369  1.00  0.00    -0.000 C 
BRANCH  24  25
ATOM     25  C   UNL     1      11.580  22.231  32.911  1.00  0.00    -0.000 C 
BRANCH  25  26
ATOM     26  C   UNL     1      11.650  22.253  34.446  1.00  0.00    -0.000 C 
BRANCH  26  27
ATOM     27  C   UNL     1      10.885  21.077  35.089  1.00  0.00    -0.000 C 
BRANCH  27  28
ATOM     28  C   UNL     1       9.399  21.379  35.369  1.00  0.00    -0.000 C 
BRANCH  28  29
ATOM     29  C   UNL     1       9.084  21.805  36.813  1.00  0.00    -0.000 C 
BRANCH  29  30
ATOM     30  C   UNL     1       8.641  20.624  37.696  1.00  0.00    -0.000 C 
BRANCH  30  31
ATOM     31  C   UNL     1       9.540  20.445  38.928  1.00  0.00    -0.003 C 
ATOM     32  C   UNL     1       9.030  19.360  39.875  1.00  0.00     0.004 C 
ENDBRANCH  30  31
ENDBRANCH  29  30
ENDBRANCH  28  29
ENDBRANCH  27  28
ENDBRANCH  26  27
ENDBRANCH  25  26
ENDBRANCH  24  25
ENDBRANCH  23  24
ENDBRANCH  22  23
ENDBRANCH  21  22
ENDBRANCH  20  21
ENDBRANCH  19  20
ENDBRANCH  18  19
ENDBRANCH   1  18
TORSDOF 28
ENDMDL
MODEL 2
REMARK VINA RESULT:    -5.799      1.438      3.283
REMARK INTER + INTRA:         -19.866
REMARK INTER:                 -15.182
REMARK INTRA:                  -4.684
REMARK UNBOUND:                -4.573
REMARK SMILES CCCCCCCCCCCCCCCCCCCCCCCCCCCCCC(=O)[O-]
REMARK SMILES IDX 16 1 17 2 18 3 19 4 20 5 21 6 22 7 23 8 24 9 25 10 26 11
REMARK SMILES IDX 27 12 28 13 29 14 30 15 31 16 32 17 15 18 14 19 13 20 12 21
REMARK SMILES IDX 11 22 10 23 9 24 8 25 7 26 6 27 5 28 4 29 3 30 2 31 1 32
REMARK H PARENT
REMARK Flexibility Score: inf
ROOT
ATOM      1  C   UNL     1       9.191  20.383  35.436  1.00  0.00     0.000 C 
ENDROOT
BRANCH   1   2
ATOM      2  C   UNL     1       8.267  19.262  34.917  1.00  0.00     0.000 C 
BRANCH   2   3
ATOM      3  C   UNL     1       7.875  18.199  35.961  1.00  0.00     0.000 C 
BRANCH   3   4
ATOM      4  C   UNL     1       8.573  16.849  35.731  1.00  0.00     0.000 C 
BRANCH   4   5
ATOM      5  C   UNL     1       9.742  16.601  36.702  1.00  0.00     0.000 C 
BRANCH   5   6
ATOM      6  C   UNL     1      10.038  17.749  37.686  1.00  0.00     0.000 C 
BRANCH   6   7
ATOM      7  C   UNL     1      11.538  18.072  37.798  1.00  0.00     0.000 C 
BRANCH   7   8
ATOM      8  C   UNL     1      12.351  17.505  36.621  1.00  0.00     0.000 C 
BRANCH   8   9
ATOM      9  C   UNL     1      13.506  16.605  37.083  1.00  0.00     0.000 C 
BRANCH   9  10
ATOM     10  C   UNL     1      13.950  16.963  38.508  1.00  0.00     0.000 C 
BRANCH  10  11
ATOM     11  C   UNL     1      15.288  17.722  38.545  1.00  0.00     0.000 C 
BRANCH  11  12
ATOM     12  C   UNL     1      15.883  17.987  37.145  1.00  0.00     0.000 C 
BRANCH  12  13
ATOM     13  C   UNL     1      17.239  17.290  36.949  1.00  0.00     0.006 C 
BRANCH  13  14
ATOM     14  C   UNL     1      17.156  16.222  35.855  1.00  0.00     0.053 C 
BRANCH  14  15
ATOM     15  C   UNL     1      18.175  16.475  34.787  1.00  0.00     0.041 C 
ATOM     16  O   UNL     1      18.311  17.630  34.302  1.00  0.00    -0.550 OA
ATOM     17  O   UNL     1      18.986  15.441  34.341  1.00  0.00    -0.550 OA
ENDBRANCH  14  15
ENDBRANCH  13  14
ENDBRANCH  12  13
ENDBRANCH  11  12
ENDBRANCH  10  11
ENDBRANCH   9  10
ENDBRANCH   8   9
ENDBRANCH   7   8
ENDBRANCH   6   7
ENDBRANCH   5   6
ENDBRANCH   4   5
ENDBRANCH   3   4
ENDBRANCH   2   3
ENDBRANCH   1   2
BRANCH   1  18
ATOM     18  C   UNL     1      10.610  20.393  34.835  1.00  0.00     0.000 C 
BRANCH  18  19
ATOM     19  C   UNL     1      10.916  19.224  33.878  1.00  0.00     0.000 C 
BRANCH  19  20
ATOM     20  C   UNL     1      10.811  19.566  32.379  1.00  0.00     0.000 C 
BRANCH  20  21
ATOM     21  C   UNL     1      10.222  18.452  31.493  1.00  0.00     0.000 C 
BRANCH  21  22
ATOM     22  C   UNL     1       8.932  18.885  30.777  1.00  0.00     0.000 C 
BRANCH  22  23
ATOM     23  C   UNL     1       8.302  20.153  31.381  1.00  0.00     0.000 C 
BRANCH  23  24
ATOM     24  C   UNL     1       7.954  21.260  30.369  1.00  0.00    -0.000 C 
BRANCH  24  25
ATOM     25  C   UNL     1       8.311  22.668  30.871  1.00  0.00    -0.000 C 
BRANCH  25  26
ATOM     26  C   UNL     1       8.928  22.615  32.277  1.00  0.00    -0.000 C 
BRANCH  26  27
ATOM     27  C   UNL     1       8.740  23.934  33.055  1.00  0.00    -0.000 C 
BRANCH  27  28
ATOM     28  C   UNL     1       8.671  23.751  34.585  1.00  0.00    -0.000 C 
BRANCH  28  29
ATOM     29  C   UNL     1       9.949  24.150  35.344  1.00  0.00    -0.000 C 
BRANCH  29  30
ATOM     30  C   UNL     1      11.070  24.630  34.405  1.00  0.00    -0.000 C 
BRANCH  30  31
ATOM     31  C   UNL     1      12.214  23.611  34.291  1.00  0.00    -0.003 C 
ATOM     32  C   UNL     1      12.616  23.338  32.842  1.00  0.00     0.004 C 
ENDBRANCH  30  31
ENDBRANCH  29  30
ENDBRANCH  28  29
ENDBRANCH  27  28
ENDBRANCH  26  27
ENDBRANCH  25  26
ENDBRANCH  24  25
ENDBRANCH  23  24
ENDBRANCH  22  23
ENDBRANCH  21  22
ENDBRANCH  20  21
ENDBRANCH  19  20
ENDBRANCH  18  19
ENDBRANCH   1  18
TORSDOF 28
ENDMDL
MODEL 3
REMARK VINA RESULT:    -5.770      1.822      4.741
REMARK INTER + INTRA:         -19.789
REMARK INTER:                 -15.805
REMARK INTRA:                  -3.984
REMARK UNBOUND:                -4.573
REMARK SMILES CCCCCCCCCCCCCCCCCCCCCCCCCCCCCC(=O)[O-]
REMARK SMILES IDX 16 1 17 2 18 3 19 4 20 5 21 6 22 7 23 8 24 9 25 10 26 11
REMARK SMILES IDX 27 12 28 13 29 14 30 15 31 16 32 17 15 18 14 19 13 20 12 21
REMARK SMILES IDX 11 22 10 23 9 24 8 25 7 26 6 27 5 28 4 29 3 30 2 31 1 32
REMARK H PARENT
REMARK Flexibility Score: inf
ROOT
ATOM      1  C   UNL     1      11.557  18.783  35.743  1.00  0.00     0.000 C 
ENDROOT
BRANCH   1   2
ATOM      2  C   UNL     1      13.016  18.314  35.923  1.00  0.00     0.000 C 
BRANCH   2   3
ATOM      3  C   UNL     1      13.326  16.911  35.370  1.00  0.00     0.000 C 
BRANCH   3   4
ATOM      4  C   UNL     1      13.492  15.855  36.475  1.00  0.00     0.000 C 
BRANCH   4   5
ATOM      5  C   UNL     1      13.766  16.471  37.860  1.00  0.00     0.000 C 
BRANCH   5   6
ATOM      6  C   UNL     1      15.223  16.368  38.352  1.00  0.00     0.000 C 
BRANCH   6   7
ATOM      7  C   UNL     1      16.081  17.577  37.943  1.00  0.00     0.000 C 
BRANCH   7   8
ATOM      8  C   UNL     1      17.030  17.257  36.776  1.00  0.00     0.000 C 
BRANCH   8   9
ATOM      9  C   UNL     1      16.876  18.238  35.604  1.00  0.00     0.000 C 
BRANCH   9  10
ATOM     10  C   UNL     1      18.222  18.486  34.910  1.00  0.00     0.000 C 
BRANCH  10  11
ATOM     11  C   UNL     1      18.505  17.482  33.778  1.00  0.00     0.000 C 
BRANCH  11  12
ATOM     12  C   UNL     1      19.529  16.393  34.166  1.00  0.00     0.000 C 
BRANCH  12  13
ATOM     13  C   UNL     1      20.894  16.988  34.546  1.00  0.00     0.006 C 
BRANCH  13  14
ATOM     14  C   UNL     1      21.730  17.290  33.299  1.00  0.00     0.053 C 
BRANCH  14  15
ATOM     15  C   UNL     1      22.121  18.735  33.257  1.00  0.00     0.041 C 
ATOM     16  O   UNL     1      23.323  19.070  33.428  1.00  0.00    -0.550 OA
ATOM     17  O   UNL     1      21.162  19.708  33.008  1.00  0.00    -0.550 OA
ENDBRANCH  14  15
ENDBRANCH  13  14
ENDBRANCH  12  13
ENDBRANCH  11  12
ENDBRANCH  10  11
ENDBRANCH   9  10
ENDBRANCH   8   9
ENDBRANCH   7   8
ENDBRANCH   6   7
ENDBRANCH   5   6
ENDBRANCH   4   5
ENDBRANCH   3   4
ENDBRANCH   2   3
ENDBRANCH   1   2
BRANCH   1  18
ATOM     18  C   UNL     1      10.628  18.507  36.942  1.00  0.00     0.000 C 
BRANCH  18  19
ATOM     19  C   UNL     1       9.980  17.109  36.950  1.00  0.00     0.000 C 
BRANCH  19  20
ATOM     20  C   UNL     1       9.135  16.776  35.705  1.00  0.00     0.000 C 
BRANCH  20  21
ATOM     21  C   UNL     1       8.071  17.827  35.336  1.00  0.00     0.000 C 
BRANCH  21  22
ATOM     22  C   UNL     1       8.151  18.257  33.861  1.00  0.00     0.000 C 
BRANCH  22  23
ATOM     23  C   UNL     1       9.458  17.821  33.174  1.00  0.00     0.000 C 
BRANCH  23  24
ATOM     24  C   UNL     1       9.920  18.718  32.012  1.00  0.00    -0.000 C 
BRANCH  24  25
ATOM     25  C   UNL     1       9.089  18.525  30.734  1.00  0.00    -0.000 C 
BRANCH  25  26
ATOM     26  C   UNL     1       8.492  19.857  30.254  1.00  0.00    -0.000 C 
BRANCH  26  27
ATOM     27  C   UNL     1       8.265  20.853  31.411  1.00  0.00    -0.000 C 
BRANCH  27  28
ATOM     28  C   UNL     1       8.607  22.313  31.054  1.00  0.00    -0.000 C 
BRANCH  28  29
ATOM     29  C   UNL     1       9.598  23.000  32.010  1.00  0.00    -0.000 C 
BRANCH  29  30
ATOM     30  C   UNL     1      10.361  21.997  32.893  1.00  0.00    -0.000 C 
BRANCH  30  31
ATOM     31  C   UNL     1      10.337  22.390  34.378  1.00  0.00    -0.003 C 
ATOM     32  C   UNL     1       9.249  21.658  35.162  1.00  0.00     0.004 C 
ENDBRANCH  30  31
ENDBRANCH  29  30
ENDBRANCH  28  29
ENDBRANCH  27  28
ENDBRANCH  26  27
ENDBRANCH  25  26
ENDBRANCH  24  25
ENDBRANCH  23  24
ENDBRANCH  22  23
ENDBRANCH  21  22
ENDBRANCH  20  21
ENDBRANCH  19  20
ENDBRANCH  18  19
ENDBRANCH   1  18
TORSDOF 28
ENDMDL
MODEL 4
REMARK VINA RESULT:    -5.766      1.958      5.053
REMARK INTER + INTRA:         -19.778
REMARK INTER:                 -15.690
REMARK INTRA:                  -4.088
REMARK UNBOUND:                -4.573
REMARK SMILES CCCCCCCCCCCCCCCCCCCCCCCCCCCCCC(=O)[O-]
REMARK SMILES IDX 16 1 17 2 18 3 19 4 20 5 21 6 22 7 23 8 24 9 25 10 26 11
REMARK SMILES IDX 27 12 28 13 29 14 30 15 31 16 32 17 15 18 14 19 13 20 12 21
REMARK SMILES IDX 11 22 10 23 9 24 8 25 7 26 6 27 5 28 4 29 3 30 2 31 1 32
REMARK H PARENT
REMARK Flexibility Score: inf
ROOT
ATOM      1  C   UNL     1      13.292  17.718  35.465  1.00  0.00     0.000 C 
ENDROOT
BRANCH   1   2
ATOM      2  C   UNL     1      13.476  16.186  35.469  1.00  0.00     0.000 C 
BRANCH   2   3
ATOM      3  C   UNL     1      13.869  15.577  36.828  1.00  0.00     0.000 C 
BRANCH   3   4
ATOM      4  C   UNL     1      13.647  16.542  38.004  1.00  0.00     0.000 C 
BRANCH   4   5
ATOM      5  C   UNL     1      14.949  16.894  38.749  1.00  0.00     0.000 C 
BRANCH   5   6
ATOM      6  C   UNL     1      15.719  18.109  38.198  1.00  0.00     0.000 C 
BRANCH   6   7
ATOM      7  C   UNL     1      16.846  17.715  37.227  1.00  0.00     0.000 C 
BRANCH   7   8
ATOM      8  C   UNL     1      16.772  18.485  35.898  1.00  0.00     0.000 C 
BRANCH   8   9
ATOM      9  C   UNL     1      16.969  17.574  34.677  1.00  0.00     0.000 C 
BRANCH   9  10
ATOM     10  C   UNL     1      17.570  16.222  35.088  1.00  0.00     0.000 C 
BRANCH  10  11
ATOM     11  C   UNL     1      19.035  16.060  34.647  1.00  0.00     0.000 C 
BRANCH  11  12
ATOM     12  C   UNL     1      19.511  17.166  33.679  1.00  0.00     0.000 C 
BRANCH  12  13
ATOM     13  C   UNL     1      20.601  18.053  34.303  1.00  0.00     0.006 C 
BRANCH  13  14
ATOM     14  C   UNL     1      20.194  19.529  34.270  1.00  0.00     0.053 C 
BRANCH  14  15
ATOM     15  C   UNL     1      21.342  20.388  33.839  1.00  0.00     0.041 C 
ATOM     16  O   UNL     1      21.621  21.438  34.477  1.00  0.00    -0.550 OA
ATOM     17  O   UNL     1      22.114  20.021  32.745  1.00  0.00    -0.550 OA
ENDBRANCH  14  15
ENDBRANCH  13  14
ENDBRANCH  12  13
ENDBRANCH  11  12
ENDBRANCH  10  11
ENDBRANCH   9  10
ENDBRANCH   8   9
ENDBRANCH   7   8
ENDBRANCH   6   7
ENDBRANCH   5   6
ENDBRANCH   4   5
ENDBRANCH   3   4
ENDBRANCH   2   3
ENDBRANCH   1   2
BRANCH   1  18
ATOM     18  C   UNL     1      11.857  18.204  35.184  1.00  0.00     0.000 C 
BRANCH  18  19
ATOM     19  C   UNL     1      10.784  17.097  35.198  1.00  0.00     0.000 C 
BRANCH  19  20
ATOM     20  C   UNL     1       9.746  17.212  36.332  1.00  0.00     0.000 C 
BRANCH  20  21
ATOM     21  C   UNL     1      10.076  18.253  37.419  1.00  0.00     0.000 C 
BRANCH  21  22
ATOM     22  C   UNL     1       8.816  18.902  38.017  1.00  0.00     0.000 C 
BRANCH  22  23
ATOM     23  C   UNL     1       8.574  20.335  37.508  1.00  0.00     0.000 C 
BRANCH  23  24
ATOM     24  C   UNL     1       9.517  20.801  36.384  1.00  0.00    -0.000 C 
BRANCH  24  25
ATOM     25  C   UNL     1       9.357  22.291  36.043  1.00  0.00    -0.000 C 
BRANCH  25  26
ATOM     26  C   UNL     1       9.977  22.615  34.675  1.00  0.00    -0.000 C 
BRANCH  26  27
ATOM     27  C   UNL     1       8.911  22.894  33.595  1.00  0.00    -0.000 C 
BRANCH  27  28
ATOM     28  C   UNL     1       8.907  21.869  32.443  1.00  0.00    -0.000 C 
BRANCH  28  29
ATOM     29  C   UNL     1       8.620  20.418  32.868  1.00  0.00    -0.000 C 
BRANCH  29  30
ATOM     30  C   UNL     1       9.776  19.461  32.525  1.00  0.00    -0.000 C 
BRANCH  30  31
ATOM     31  C   UNL     1       9.281  18.141  31.915  1.00  0.00    -0.003 C 
ATOM     32  C   UNL     1       9.780  17.931  30.485  1.00  0.00     0.004 C 
ENDBRANCH  30  31
ENDBRANCH  29  30
ENDBRANCH  28  29
ENDBRANCH  27  28
ENDBRANCH  26  27
ENDBRANCH  25  26
ENDBRANCH  24  25
ENDBRANCH  23  24
ENDBRANCH  22  23
ENDBRANCH  21  22
ENDBRANCH  20  21
ENDBRANCH  19  20
ENDBRANCH  18  19
ENDBRANCH   1  18
TORSDOF 28
ENDMDL
MODEL 5
REMARK VINA RESULT:    -5.765      2.899      8.376
REMARK INTER + INTRA:         -19.774
REMARK INTER:                 -15.801
REMARK INTRA:                  -3.973
REMARK UNBOUND:                -4.573
REMARK SMILES CCCCCCCCCCCCCCCCCCCCCCCCCCCCCC(=O)[O-]
REMARK SMILES IDX 16 1 17 2 18 3 19 4 20 5 21 6 22 7 23 8 24 9 25 10 26 11
REMARK SMILES IDX 27 12 28 13 29 14 30 15 31 16 32 17 15 18 14 19 13 20 12 21
REMARK SMILES IDX 11 22 10 23 9 24 8 25 7 26 6 27 5 28 4 29 3 30 2 31 1 32
REMARK H PARENT
REMARK Flexibility Score: inf
ROOT
ATOM      1  C   UNL     1       9.555  19.405  34.150  1.00  0.00     0.000 C 
ENDROOT
BRANCH   1   2
ATOM      2  C   UNL     1      10.242  19.105  32.802  1.00  0.00     0.000 C 
BRANCH   2   3
ATOM      3  C   UNL     1       9.433  18.219  31.837  1.00  0.00     0.000 C 
BRANCH   3   4
ATOM      4  C   UNL     1       9.003  18.961  30.561  1.00  0.00     0.000 C 
BRANCH   4   5
ATOM      5  C   UNL     1       8.017  20.112  30.836  1.00  0.00     0.000 C 
BRANCH   5   6
ATOM      6  C   UNL     1       8.229  21.381  29.989  1.00  0.00     0.000 C 
BRANCH   6   7
ATOM      7  C   UNL     1       8.315  22.662  30.836  1.00  0.00     0.000 C 
BRANCH   7   8
ATOM      8  C   UNL     1       8.274  22.372  32.346  1.00  0.00     0.000 C 
BRANCH   8   9
ATOM      9  C   UNL     1       9.233  23.267  33.144  1.00  0.00     0.000 C 
BRANCH   9  10
ATOM     10  C   UNL     1       8.732  23.470  34.581  1.00  0.00     0.000 C 
BRANCH  10  11
ATOM     11  C   UNL     1       9.493  22.610  35.607  1.00  0.00     0.000 C 
BRANCH  11  12
ATOM     12  C   UNL     1       8.820  22.573  36.996  1.00  0.00     0.000 C 
BRANCH  12  13
ATOM     13  C   UNL     1       8.704  21.142  37.546  1.00  0.00     0.006 C 
BRANCH  13  14
ATOM     14  C   UNL     1      10.087  20.533  37.793  1.00  0.00     0.053 C 
BRANCH  14  15
ATOM     15  C   UNL     1      10.205  20.032  39.199  1.00  0.00     0.041 C 
ATOM     16  O   UNL     1      11.290  20.159  39.827  1.00  0.00    -0.550 OA
ATOM     17  O   UNL     1       9.113  19.444  39.823  1.00  0.00    -0.550 OA
ENDBRANCH  14  15
ENDBRANCH  13  14
ENDBRANCH  12  13
ENDBRANCH  11  12
ENDBRANCH  10  11
ENDBRANCH   9  10
ENDBRANCH   8   9
ENDBRANCH   7   8
ENDBRANCH   6   7
ENDBRANCH   5   6
ENDBRANCH   4   5
ENDBRANCH   3   4
ENDBRANCH   2   3
ENDBRANCH   1   2
BRANCH   1  18
ATOM     18  C   UNL     1       8.172  18.753  34.339  1.00  0.00     0.000 C 
BRANCH  18  19
ATOM     19  C   UNL     1       7.999  17.970  35.655  1.00  0.00     0.000 C 
BRANCH  19  20
ATOM     20  C   UNL     1       8.912  16.737  35.803  1.00  0.00     0.000 C 
BRANCH  20  21
ATOM     21  C   UNL     1      10.086  16.904  36.786  1.00  0.00     0.000 C 
BRANCH  21  22
ATOM     22  C   UNL     1      11.447  16.980  36.074  1.00  0.00     0.000 C 
BRANCH  22  23
ATOM     23  C   UNL     1      12.462  17.878  36.803  1.00  0.00     0.000 C 
BRANCH  23  24
ATOM     24  C   UNL     1      12.810  17.446  38.238  1.00  0.00    -0.000 C 
BRANCH  24  25
ATOM     25  C   UNL     1      14.316  17.509  38.538  1.00  0.00    -0.000 C 
BRANCH  25  26
ATOM     26  C   UNL     1      14.974  16.133  38.359  1.00  0.00    -0.000 C 
BRANCH  26  27
ATOM     27  C   UNL     1      16.180  16.175  37.396  1.00  0.00    -0.000 C 
BRANCH  27  28
ATOM     28  C   UNL     1      16.651  17.602  37.050  1.00  0.00    -0.000 C 
BRANCH  28  29
ATOM     29  C   UNL     1      17.579  17.700  35.826  1.00  0.00    -0.000 C 
BRANCH  29  30
ATOM     30  C   UNL     1      18.031  16.321  35.314  1.00  0.00    -0.000 C 
BRANCH  30  31
ATOM     31  C   UNL     1      19.205  16.419  34.327  1.00  0.00    -0.003 C 
ATOM     32  C   UNL     1      19.183  17.714  33.516  1.00  0.00     0.004 C 
ENDBRANCH  30  31
ENDBRANCH  29  30
ENDBRANCH  28  29
ENDBRANCH  27  28
ENDBRANCH  26  27
ENDBRANCH  25  26
ENDBRANCH  24  25
ENDBRANCH  23  24
ENDBRANCH  22  23
ENDBRANCH  21  22
ENDBRANCH  20  21
ENDBRANCH  19  20
ENDBRANCH  18  19
ENDBRANCH   1  18
TORSDOF 28
ENDMDL
MODEL 6
REMARK VINA RESULT:    -5.736      1.918      4.308
REMARK INTER + INTRA:         -19.698
REMARK INTER:                 -15.554
REMARK INTRA:                  -4.144
REMARK UNBOUND:                -4.573
REMARK SMILES CCCCCCCCCCCCCCCCCCCCCCCCCCCCCC(=O)[O-]
REMARK SMILES IDX 16 1 17 2 18 3 19 4 20 5 21 6 22 7 23 8 24 9 25 10 26 11
REMARK SMILES IDX 27 12 28 13 29 14 30 15 31 16 32 17 15 18 14 19 13 20 12 21
REMARK SMILES IDX 11 22 10 23 9 24 8 25 7 26 6 27 5 28 4 29 3 30 2 31 1 32
REMARK H PARENT
REMARK Flexibility Score: inf
ROOT
ATOM      1  C   UNL     1      11.683  18.671  35.000  1.00  0.00     0.000 C 
ENDROOT
BRANCH   1   2
ATOM      2  C   UNL     1      11.522  17.184  35.379  1.00  0.00     0.000 C 
BRANCH   2   3
ATOM      3  C   UNL     1      11.569  16.884  36.889  1.00  0.00     0.000 C 
BRANCH   3   4
ATOM      4  C   UNL     1      12.065  18.077  37.722  1.00  0.00     0.000 C 
BRANCH   4   5
ATOM      5  C   UNL     1      13.120  17.683  38.772  1.00  0.00     0.000 C 
BRANCH   5   6
ATOM      6  C   UNL     1      13.867  16.364  38.495  1.00  0.00     0.000 C 
BRANCH   6   7
ATOM      7  C   UNL     1      15.394  16.502  38.619  1.00  0.00     0.000 C 
BRANCH   7   8
ATOM      8  C   UNL     1      16.130  16.058  37.343  1.00  0.00     0.000 C 
BRANCH   8   9
ATOM      9  C   UNL     1      15.324  16.346  36.068  1.00  0.00     0.000 C 
BRANCH   9  10
ATOM     10  C   UNL     1      15.530  17.793  35.599  1.00  0.00     0.000 C 
BRANCH  10  11
ATOM     11  C   UNL     1      16.883  18.378  36.040  1.00  0.00     0.000 C 
BRANCH  11  12
ATOM     12  C   UNL     1      17.954  18.356  34.927  1.00  0.00     0.000 C 
BRANCH  12  13
ATOM     13  C   UNL     1      19.200  17.555  35.338  1.00  0.00     0.006 C 
BRANCH  13  14
ATOM     14  C   UNL     1      19.496  16.442  34.329  1.00  0.00     0.053 C 
BRANCH  14  15
ATOM     15  C   UNL     1      20.886  16.571  33.786  1.00  0.00     0.041 C 
ATOM     16  O   UNL     1      21.869  16.154  34.456  1.00  0.00    -0.550 OA
ATOM     17  O   UNL     1      21.094  17.133  32.534  1.00  0.00    -0.550 OA
ENDBRANCH  14  15
ENDBRANCH  13  14
ENDBRANCH  12  13
ENDBRANCH  11  12
ENDBRANCH  10  11
ENDBRANCH   9  10
ENDBRANCH   8   9
ENDBRANCH   7   8
ENDBRANCH   6   7
ENDBRANCH   5   6
ENDBRANCH   4   5
ENDBRANCH   3   4
ENDBRANCH   2   3
ENDBRANCH   1   2
BRANCH   1  18
ATOM     18  C   UNL     1      10.651  19.203  33.987  1.00  0.00     0.000 C 
BRANCH  18  19
ATOM     19  C   UNL     1       9.718  18.132  33.390  1.00  0.00     0.000 C 
BRANCH  19  20
ATOM     20  C   UNL     1       8.278  18.145  33.939  1.00  0.00     0.000 C 
BRANCH  20  21
ATOM     21  C   UNL     1       8.026  19.133  35.094  1.00  0.00     0.000 C 
BRANCH  21  22
ATOM     22  C   UNL     1       7.915  18.431  36.458  1.00  0.00     0.000 C 
BRANCH  22  23
ATOM     23  C   UNL     1       8.446  19.285  37.623  1.00  0.00     0.000 C 
BRANCH  23  24
ATOM     24  C   UNL     1       9.415  20.413  37.223  1.00  0.00    -0.000 C 
BRANCH  24  25
ATOM     25  C   UNL     1       9.035  21.775  37.823  1.00  0.00    -0.000 C 
BRANCH  25  26
ATOM     26  C   UNL     1       8.767  22.811  36.721  1.00  0.00    -0.000 C 
BRANCH  26  27
ATOM     27  C   UNL     1       9.423  22.426  35.377  1.00  0.00    -0.000 C 
BRANCH  27  28
ATOM     28  C   UNL     1       9.009  23.332  34.200  1.00  0.00    -0.000 C 
BRANCH  28  29
ATOM     29  C   UNL     1       9.338  24.823  34.382  1.00  0.00    -0.000 C 
BRANCH  29  30
ATOM     30  C   UNL     1      10.109  25.411  33.187  1.00  0.00    -0.000 C 
BRANCH  30  31
ATOM     31  C   UNL     1      11.572  24.944  33.149  1.00  0.00    -0.003 C 
ATOM     32  C   UNL     1      12.128  24.869  31.727  1.00  0.00     0.004 C 
ENDBRANCH  30  31
ENDBRANCH  29  30
ENDBRANCH  28  29
ENDBRANCH  27  28
ENDBRANCH  26  27
ENDBRANCH  25  26
ENDBRANCH  24  25
ENDBRANCH  23  24
ENDBRANCH  22  23
ENDBRANCH  21  22
ENDBRANCH  20  21
ENDBRANCH  19  20
ENDBRANCH  18  19
ENDBRANCH   1  18
TORSDOF 28
ENDMDL
MODEL 7
REMARK VINA RESULT:    -5.709      3.147      8.828
REMARK INTER + INTRA:         -19.628
REMARK INTER:                 -15.567
REMARK INTRA:                  -4.061
REMARK UNBOUND:                -4.573
REMARK SMILES CCCCCCCCCCCCCCCCCCCCCCCCCCCCCC(=O)[O-]
REMARK SMILES IDX 16 1 17 2 18 3 19 4 20 5 21 6 22 7 23 8 24 9 25 10 26 11
REMARK SMILES IDX 27 12 28 13 29 14 30 15 31 16 32 17 15 18 14 19 13 20 12 21
REMARK SMILES IDX 11 22 10 23 9 24 8 25 7 26 6 27 5 28 4 29 3 30 2 31 1 32
REMARK H PARENT
REMARK Flexibility Score: inf
ROOT
ATOM      1  C   UNL     1      11.473  17.967  35.140  1.00  0.00     0.000 C 
ENDROOT
BRANCH   1   2
ATOM      2  C   UNL     1      10.788  18.671  36.330  1.00  0.00     0.000 C 
BRANCH   2   3
ATOM      3  C   UNL     1       9.273  18.425  36.454  1.00  0.00     0.000 C 
BRANCH   3   4
ATOM      4  C   UNL     1       8.719  17.527  35.336  1.00  0.00     0.000 C 
BRANCH   4   5
ATOM      5  C   UNL     1       8.009  18.319  34.223  1.00  0.00     0.000 C 
BRANCH   5   6
ATOM      6  C   UNL     1       8.616  18.172  32.815  1.00  0.00     0.000 C 
BRANCH   6   7
ATOM      7  C   UNL     1       8.822  19.521  32.105  1.00  0.00     0.000 C 
BRANCH   7   8
ATOM      8  C   UNL     1       9.235  20.640  33.077  1.00  0.00     0.000 C 
BRANCH   8   9
ATOM      9  C   UNL     1      10.757  20.838  33.135  1.00  0.00     0.000 C 
BRANCH   9  10
ATOM     10  C   UNL     1      11.134  21.935  34.141  1.00  0.00     0.000 C 
BRANCH  10  11
ATOM     11  C   UNL     1      10.099  22.092  35.271  1.00  0.00     0.000 C 
BRANCH  11  12
ATOM     12  C   UNL     1       9.532  23.523  35.389  1.00  0.00     0.000 C 
BRANCH  12  13
ATOM     13  C   UNL     1       9.020  24.058  34.042  1.00  0.00     0.006 C 
BRANCH  13  14
ATOM     14  C   UNL     1       9.653  25.412  33.711  1.00  0.00     0.053 C 
BRANCH  14  15
ATOM     15  C   UNL     1      10.825  25.243  32.795  1.00  0.00     0.041 C 
ATOM     16  O   UNL     1      10.717  24.546  31.750  1.00  0.00    -0.550 OA
ATOM     17  O   UNL     1      12.030  25.869  33.084  1.00  0.00    -0.550 OA
ENDBRANCH  14  15
ENDBRANCH  13  14
ENDBRANCH  12  13
ENDBRANCH  11  12
ENDBRANCH  10  11
ENDBRANCH   9  10
ENDBRANCH   8   9
ENDBRANCH   7   8
ENDBRANCH   6   7
ENDBRANCH   5   6
ENDBRANCH   4   5
ENDBRANCH   3   4
ENDBRANCH   2   3
ENDBRANCH   1   2
BRANCH   1  18
ATOM     18  C   UNL     1      12.992  17.755  35.291  1.00  0.00     0.000 C 
BRANCH  18  19
ATOM     19  C   UNL     1      13.420  16.293  35.525  1.00  0.00     0.000 C 
BRANCH  19  20
ATOM     20  C   UNL     1      13.398  15.836  36.997  1.00  0.00     0.000 C 
BRANCH  20  21
ATOM     21  C   UNL     1      14.522  14.862  37.398  1.00  0.00     0.000 C 
BRANCH  21  22
ATOM     22  C   UNL     1      15.711  15.574  38.064  1.00  0.00     0.000 C 
BRANCH  22  23
ATOM     23  C   UNL     1      15.371  16.992  38.555  1.00  0.00     0.000 C 
BRANCH  23  24
ATOM     24  C   UNL     1      16.311  18.104  38.055  1.00  0.00    -0.000 C 
BRANCH  24  25
ATOM     25  C   UNL     1      15.952  18.608  36.649  1.00  0.00    -0.000 C 
BRANCH  25  26
ATOM     26  C   UNL     1      17.169  18.550  35.713  1.00  0.00    -0.000 C 
BRANCH  26  27
ATOM     27  C   UNL     1      17.168  17.292  34.819  1.00  0.00    -0.000 C 
BRANCH  27  28
ATOM     28  C   UNL     1      18.185  16.218  35.253  1.00  0.00    -0.000 C 
BRANCH  28  29
ATOM     29  C   UNL     1      19.454  16.138  34.387  1.00  0.00    -0.000 C 
BRANCH  29  30
ATOM     30  C   UNL     1      20.472  17.242  34.724  1.00  0.00    -0.000 C 
BRANCH  30  31
ATOM     31  C   UNL     1      20.521  18.339  33.650  1.00  0.00    -0.003 C 
ATOM     32  C   UNL     1      20.301  19.738  34.227  1.00  0.00     0.004 C 
ENDBRANCH  30  31
ENDBRANCH  29  30
ENDBRANCH  28  29
ENDBRANCH  27  28
ENDBRANCH  26  27
ENDBRANCH  25  26
ENDBRANCH  24  25
ENDBRANCH  23  24
ENDBRANCH  22  23
ENDBRANCH  21  22
ENDBRANCH  20  21
ENDBRANCH  19  20
ENDBRANCH  18  19
ENDBRANCH   1  18
TORSDOF 28
ENDMDL
MODEL 8
REMARK VINA RESULT:    -5.678      1.453      3.507
REMARK INTER + INTRA:         -19.546
REMARK INTER:                 -15.357
REMARK INTRA:                  -4.190
REMARK UNBOUND:                -4.573
REMARK SMILES CCCCCCCCCCCCCCCCCCCCCCCCCCCCCC(=O)[O-]
REMARK SMILES IDX 16 1 17 2 18 3 19 4 20 5 21 6 22 7 23 8 24 9 25 10 26 11
REMARK SMILES IDX 27 12 28 13 29 14 30 15 31 16 32 17 15 18 14 19 13 20 12 21
REMARK SMILES IDX 11 22 10 23 9 24 8 25 7 26 6 27 5 28 4 29 3 30 2 31 1 32
REMARK H PARENT
REMARK Flexibility Score: inf
ROOT
ATOM      1  C   UNL     1       8.604  19.021  36.053  1.00  0.00     0.000 C 
ENDROOT
BRANCH   1   2
ATOM      2  C   UNL     1       9.939  19.082  36.825  1.00  0.00     0.000 C 
BRANCH   2   3
ATOM      3  C   UNL     1      11.193  18.760  35.992  1.00  0.00     0.000 C 
BRANCH   3   4
ATOM      4  C   UNL     1      12.148  17.784  36.700  1.00  0.00     0.000 C 
BRANCH   4   5
ATOM      5  C   UNL     1      13.116  17.079  35.732  1.00  0.00     0.000 C 
BRANCH   5   6
ATOM      6  C   UNL     1      13.721  15.759  36.246  1.00  0.00     0.000 C 
BRANCH   6   7
ATOM      7  C   UNL     1      14.013  15.781  37.756  1.00  0.00     0.000 C 
BRANCH   7   8
ATOM      8  C   UNL     1      15.495  16.055  38.065  1.00  0.00     0.000 C 
BRANCH   8   9
ATOM      9  C   UNL     1      15.741  17.494  38.541  1.00  0.00     0.000 C 
BRANCH   9  10
ATOM     10  C   UNL     1      16.121  18.407  37.367  1.00  0.00     0.000 C 
BRANCH  10  11
ATOM     11  C   UNL     1      17.207  17.797  36.462  1.00  0.00     0.000 C 
BRANCH  11  12
ATOM     12  C   UNL     1      16.728  17.540  35.016  1.00  0.00     0.000 C 
BRANCH  12  13
ATOM     13  C   UNL     1      17.901  17.364  34.039  1.00  0.00     0.006 C 
BRANCH  13  14
ATOM     14  C   UNL     1      19.244  17.446  34.771  1.00  0.00     0.053 C 
BRANCH  14  15
ATOM     15  C   UNL     1      20.354  16.937  33.905  1.00  0.00     0.041 C 
ATOM     16  O   UNL     1      21.297  16.271  34.411  1.00  0.00    -0.550 OA
ATOM     17  O   UNL     1      20.338  17.179  32.538  1.00  0.00    -0.550 OA
ENDBRANCH  14  15
ENDBRANCH  13  14
ENDBRANCH  12  13
ENDBRANCH  11  12
ENDBRANCH  10  11
ENDBRANCH   9  10
ENDBRANCH   8   9
ENDBRANCH   7   8
ENDBRANCH   6   7
ENDBRANCH   5   6
ENDBRANCH   4   5
ENDBRANCH   3   4
ENDBRANCH   2   3
ENDBRANCH   1   2
BRANCH   1  18
ATOM     18  C   UNL     1       8.443  17.803  35.121  1.00  0.00     0.000 C 
BRANCH  18  19
ATOM     19  C   UNL     1       8.292  18.147  33.627  1.00  0.00     0.000 C 
BRANCH  19  20
ATOM     20  C   UNL     1       9.517  17.809  32.754  1.00  0.00     0.000 C 
BRANCH  20  21
ATOM     21  C   UNL     1       9.483  18.386  31.326  1.00  0.00     0.000 C 
BRANCH  21  22
ATOM     22  C   UNL     1       8.391  19.453  31.145  1.00  0.00     0.000 C 
BRANCH  22  23
ATOM     23  C   UNL     1       8.928  20.892  31.242  1.00  0.00     0.000 C 
BRANCH  23  24
ATOM     24  C   UNL     1       8.318  21.748  32.366  1.00  0.00    -0.000 C 
BRANCH  24  25
ATOM     25  C   UNL     1       9.169  21.759  33.645  1.00  0.00    -0.000 C 
BRANCH  25  26
ATOM     26  C   UNL     1      10.607  21.300  33.356  1.00  0.00    -0.000 C 
BRANCH  26  27
ATOM     27  C   UNL     1      11.644  22.417  33.598  1.00  0.00    -0.000 C 
BRANCH  27  28
ATOM     28  C   UNL     1      12.030  23.196  32.324  1.00  0.00    -0.000 C 
BRANCH  28  29
ATOM     29  C   UNL     1      11.084  24.353  31.960  1.00  0.00    -0.000 C 
BRANCH  29  30
ATOM     30  C   UNL     1      10.968  25.400  33.082  1.00  0.00    -0.000 C 
BRANCH  30  31
ATOM     31  C   UNL     1       9.615  25.336  33.805  1.00  0.00    -0.003 C 
ATOM     32  C   UNL     1       9.759  25.033  35.296  1.00  0.00     0.004 C 
ENDBRANCH  30  31
ENDBRANCH  29  30
ENDBRANCH  28  29
ENDBRANCH  27  28
ENDBRANCH  26  27
ENDBRANCH  25  26
ENDBRANCH  24  25
ENDBRANCH  23  24
ENDBRANCH  22  23
ENDBRANCH  21  22
ENDBRANCH  20  21
ENDBRANCH  19  20
ENDBRANCH  18  19
ENDBRANCH   1  18
TORSDOF 28
ENDMDL
MODEL 9
REMARK VINA RESULT:    -5.591      2.481      7.812
REMARK INTER + INTRA:         -19.317
REMARK INTER:                 -14.569
REMARK INTRA:                  -4.747
REMARK UNBOUND:                -4.573
REMARK SMILES CCCCCCCCCCCCCCCCCCCCCCCCCCCCCC(=O)[O-]
REMARK SMILES IDX 16 1 17 2 18 3 19 4 20 5 21 6 22 7 23 8 24 9 25 10 26 11
REMARK SMILES IDX 27 12 28 13 29 14 30 15 31 16 32 17 15 18 14 19 13 20 12 21
REMARK SMILES IDX 11 22 10 23 9 24 8 25 7 26 6 27 5 28 4 29 3 30 2 31 1 32
REMARK H PARENT
REMARK Flexibility Score: inf
ROOT
ATOM      1  C   UNL     1      10.488  21.039  35.758  1.00  0.00     0.000 C 
ENDROOT
BRANCH   1   2
ATOM      2  C   UNL     1      10.926  20.298  34.478  1.00  0.00     0.000 C 
BRANCH   2   3
ATOM      3  C   UNL     1       9.785  19.643  33.677  1.00  0.00     0.000 C 
BRANCH   3   4
ATOM      4  C   UNL     1      10.280  18.916  32.415  1.00  0.00     0.000 C 
BRANCH   4   5
ATOM      5  C   UNL     1       9.311  19.048  31.225  1.00  0.00     0.000 C 
BRANCH   5   6
ATOM      6  C   UNL     1       8.190  20.090  31.398  1.00  0.00     0.000 C 
BRANCH   6   7
ATOM      7  C   UNL     1       8.152  21.126  30.261  1.00  0.00     0.000 C 
BRANCH   7   8
ATOM      8  C   UNL     1       8.354  22.563  30.770  1.00  0.00     0.000 C 
BRANCH   8   9
ATOM      9  C   UNL     1       8.123  22.692  32.282  1.00  0.00     0.000 C 
BRANCH   9  10
ATOM     10  C   UNL     1       9.342  23.313  32.977  1.00  0.00     0.000 C 
BRANCH  10  11
ATOM     11  C   UNL     1      10.520  23.555  32.016  1.00  0.00     0.000 C 
BRANCH  11  12
ATOM     12  C   UNL     1      11.897  23.240  32.640  1.00  0.00     0.000 C 
BRANCH  12  13
ATOM     13  C   UNL     1      12.076  23.906  34.015  1.00  0.00     0.006 C 
BRANCH  13  14
ATOM     14  C   UNL     1      12.710  25.292  33.877  1.00  0.00     0.053 C 
BRANCH  14  15
ATOM     15  C   UNL     1      13.988  25.219  33.100  1.00  0.00     0.041 C 
ATOM     16  O   UNL     1      14.118  25.875  32.031  1.00  0.00    -0.550 OA
ATOM     17  O   UNL     1      15.041  24.442  33.564  1.00  0.00    -0.550 OA
ENDBRANCH  14  15
ENDBRANCH  13  14
ENDBRANCH  12  13
ENDBRANCH  11  12
ENDBRANCH  10  11
ENDBRANCH   9  10
ENDBRANCH   8   9
ENDBRANCH   7   8
ENDBRANCH   6   7
ENDBRANCH   5   6
ENDBRANCH   4   5
ENDBRANCH   3   4
ENDBRANCH   2   3
ENDBRANCH   1   2
BRANCH   1  18
ATOM     18  C   UNL     1       9.006  20.860  36.143  1.00  0.00     0.000 C 
BRANCH  18  19
ATOM     19  C   UNL     1       8.765  20.411  37.597  1.00  0.00     0.000 C 
BRANCH  19  20
ATOM     20  C   UNL     1       8.505  18.902  37.777  1.00  0.00     0.000 C 
BRANCH  20  21
ATOM     21  C   UNL     1       7.900  18.190  36.552  1.00  0.00     0.000 C 
BRANCH  21  22
ATOM     22  C   UNL     1       8.737  16.983  36.097  1.00  0.00     0.000 C 
BRANCH  22  23
ATOM     23  C   UNL     1      10.163  16.981  36.678  1.00  0.00     0.000 C 
BRANCH  23  24
ATOM     24  C   UNL     1      11.297  16.953  35.638  1.00  0.00    -0.000 C 
BRANCH  24  25
ATOM     25  C   UNL     1      12.695  17.041  36.269  1.00  0.00    -0.000 C 
BRANCH  25  26
ATOM     26  C   UNL     1      12.605  17.311  37.779  1.00  0.00    -0.000 C 
BRANCH  26  27
ATOM     27  C   UNL     1      13.779  16.687  38.562  1.00  0.00    -0.000 C 
BRANCH  27  28
ATOM     28  C   UNL     1      14.941  17.664  38.829  1.00  0.00    -0.000 C 
BRANCH  28  29
ATOM     29  C   UNL     1      16.047  17.666  37.760  1.00  0.00    -0.000 C 
BRANCH  29  30
ATOM     30  C   UNL     1      16.278  16.275  37.143  1.00  0.00    -0.000 C 
BRANCH  30  31
ATOM     31  C   UNL     1      17.354  16.292  36.047  1.00  0.00    -0.003 C 
ATOM     32  C   UNL     1      17.049  17.300  34.940  1.00  0.00     0.004 C 
ENDBRANCH  30  31
ENDBRANCH  29  30
ENDBRANCH  28  29
ENDBRANCH  27  28
ENDBRANCH  26  27
ENDBRANCH  25  26
ENDBRANCH  24  25
ENDBRANCH  23  24
ENDBRANCH  22  23
ENDBRANCH  21  22
ENDBRANCH  20  21
ENDBRANCH  19  20
ENDBRANCH  18  19
ENDBRANCH   1  18
TORSDOF 28
ENDMDL
