MODEL 1
REMARK VINA RESULT:    -8.287      0.000      0.000
REMARK INTER + INTRA:         -10.023
REMARK INTER:                  -9.740
REMARK INTRA:                  -0.283
REMARK UNBOUND:                -0.283
REMARK SMILES O=c1cc(-c2ccc(O)c(O)c2)oc2cc(O)cc(O)c12
REMARK SMILES IDX 4 1 3 2 2 3 1 4 21 5 19 6 18 7 16 8 15 9 14 10 13 11 5 12
REMARK SMILES IDX 6 13 7 14 8 15 12 16 10 17 9 18 11 20 20 22 17 24
REMARK H PARENT 9 19 11 21 20 23 17 25
REMARK Flexibility Score: inf
ROOT
ATOM      1  C   UNL     1      34.314  26.748  20.789  1.00  0.00     0.138 A 
ATOM      2  C   UNL     1      34.628  25.382  20.814  1.00  0.00     0.100 A 
ATOM      3  C   UNL     1      34.471  24.617  19.658  1.00  0.00     0.197 A 
ATOM      4  O   UNL     1      34.820  23.409  19.694  1.00  0.00    -0.289 OA
ATOM      5  C   UNL     1      33.966  25.217  18.480  1.00  0.00     0.107 A 
ATOM      6  C   UNL     1      33.725  24.526  17.254  1.00  0.00     0.134 A 
ATOM      7  C   UNL     1      33.333  25.249  16.121  1.00  0.00     0.093 A 
ATOM      8  C   UNL     1      33.116  26.624  16.183  1.00  0.00     0.123 A 
ATOM      9  C   UNL     1      33.296  27.302  17.389  1.00  0.00     0.094 A 
ATOM     10  C   UNL     1      33.720  26.616  18.529  1.00  0.00     0.146 A 
ATOM     11  O   UNL     1      33.893  27.299  19.655  1.00  0.00    -0.456 OA
ENDROOT
BRANCH   1  12
ATOM     12  C   UNL     1      34.462  27.608  21.990  1.00  0.00     0.021 A 
ATOM     13  C   UNL     1      34.917  28.931  21.842  1.00  0.00     0.016 A 
ATOM     14  C   UNL     1      35.057  29.763  22.955  1.00  0.00     0.051 A 
ATOM     15  C   UNL     1      34.737  29.292  24.235  1.00  0.00     0.157 A 
ATOM     16  C   UNL     1      34.129  27.146  23.278  1.00  0.00     0.062 A 
ATOM     17  C   UNL     1      34.268  27.978  24.395  1.00  0.00     0.158 A 
BRANCH  15  18
ATOM     18  O   UNL     1      34.879  30.125  25.344  1.00  0.00    -0.504 OA
ATOM     19  H   UNL     1      35.144  29.758  26.252  1.00  0.00     0.293 HD
ENDBRANCH  15  18
BRANCH  17  20
ATOM     20  O   UNL     1      33.930  27.484  25.654  1.00  0.00    -0.504 OA
ATOM     21  H   UNL     1      34.575  26.930  26.206  1.00  0.00     0.293 HD
ENDBRANCH  17  20
ENDBRANCH   1  12
BRANCH   6  22
ATOM     22  O   UNL     1      33.831  23.140  17.106  1.00  0.00    -0.507 OA
ATOM     23  H   UNL     1      34.578  22.667  16.621  1.00  0.00     0.293 HD
ENDBRANCH   6  22
BRANCH   8  24
ATOM     24  O   UNL     1      32.711  27.308  15.038  1.00  0.00    -0.508 OA
ATOM     25  H   UNL     1      32.604  28.316  15.032  1.00  0.00     0.293 HD
ENDBRANCH   8  24
TORSDOF 5
ENDMDL
MODEL 2
REMARK VINA RESULT:    -7.967      1.006      2.692
REMARK INTER + INTRA:          -9.648
REMARK INTER:                  -9.347
REMARK INTRA:                  -0.300
REMARK UNBOUND:                -0.283
REMARK SMILES O=c1cc(-c2ccc(O)c(O)c2)oc2cc(O)cc(O)c12
REMARK SMILES IDX 4 1 3 2 2 3 1 4 21 5 19 6 18 7 16 8 15 9 14 10 13 11 5 12
REMARK SMILES IDX 6 13 7 14 8 15 12 16 10 17 9 18 11 20 20 22 17 24
REMARK H PARENT 9 19 11 21 20 23 17 25
REMARK Flexibility Score: inf
ROOT
ATOM      1  C   UNL     1      33.827  27.876  20.304  1.00  0.00     0.138 A 
ATOM      2  C   UNL     1      33.277  28.729  19.337  1.00  0.00     0.100 A 
ATOM      3  C   UNL     1      32.990  28.235  18.063  1.00  0.00     0.197 A 
ATOM      4  O   UNL     1      32.440  29.008  17.238  1.00  0.00    -0.289 OA
ATOM      5  C   UNL     1      33.285  26.887  17.749  1.00  0.00     0.107 A 
ATOM      6  C   UNL     1      33.074  26.285  16.472  1.00  0.00     0.134 A 
ATOM      7  C   UNL     1      33.296  24.913  16.312  1.00  0.00     0.093 A 
ATOM      8  C   UNL     1      33.777  24.133  17.362  1.00  0.00     0.123 A 
ATOM      9  C   UNL     1      34.038  24.721  18.600  1.00  0.00     0.094 A 
ATOM     10  C   UNL     1      33.795  26.081  18.802  1.00  0.00     0.146 A 
ATOM     11  O   UNL     1      34.044  26.601  19.999  1.00  0.00    -0.456 OA
ENDROOT
BRANCH   1  12
ATOM     12  C   UNL     1      34.152  28.349  21.673  1.00  0.00     0.021 A 
ATOM     13  C   UNL     1      34.649  29.652  21.855  1.00  0.00     0.016 A 
ATOM     14  C   UNL     1      34.954  30.125  23.133  1.00  0.00     0.051 A 
ATOM     15  C   UNL     1      34.761  29.307  24.254  1.00  0.00     0.157 A 
ATOM     16  C   UNL     1      33.947  27.538  22.805  1.00  0.00     0.062 A 
ATOM     17  C   UNL     1      34.251  28.009  24.088  1.00  0.00     0.158 A 
BRANCH  15  18
ATOM     18  O   UNL     1      35.068  29.780  25.529  1.00  0.00    -0.504 OA
ATOM     19  H   UNL     1      35.044  29.173  26.340  1.00  0.00     0.293 HD
ENDBRANCH  15  18
BRANCH  17  20
ATOM     20  O   UNL     1      34.037  27.175  25.184  1.00  0.00    -0.504 OA
ATOM     21  H   UNL     1      34.217  27.477  26.135  1.00  0.00     0.293 HD
ENDBRANCH  17  20
ENDBRANCH   1  12
BRANCH   6  22
ATOM     22  O   UNL     1      32.674  26.991  15.333  1.00  0.00    -0.507 OA
ATOM     23  H   UNL     1      31.959  27.702  15.316  1.00  0.00     0.293 HD
ENDBRANCH   6  22
BRANCH   8  24
ATOM     24  O   UNL     1      34.000  22.772  17.161  1.00  0.00    -0.508 OA
ATOM     25  H   UNL     1      34.691  22.263  17.699  1.00  0.00     0.293 HD
ENDBRANCH   8  24
TORSDOF 5
ENDMDL
MODEL 3
REMARK VINA RESULT:    -7.496      3.154      6.266
REMARK INTER + INTRA:          -9.094
REMARK INTER:                  -8.789
REMARK INTRA:                  -0.306
REMARK UNBOUND:                -0.283
REMARK SMILES O=c1cc(-c2ccc(O)c(O)c2)oc2cc(O)cc(O)c12
REMARK SMILES IDX 4 1 3 2 2 3 1 4 21 5 19 6 18 7 16 8 15 9 14 10 13 11 5 12
REMARK SMILES IDX 6 13 7 14 8 15 12 16 10 17 9 18 11 20 20 22 17 24
REMARK H PARENT 9 19 11 21 20 23 17 25
REMARK Flexibility Score: inf
ROOT
ATOM      1  C   UNL     1      33.462  24.556  18.020  1.00  0.00     0.138 A 
ATOM      2  C   UNL     1      33.427  24.837  16.647  1.00  0.00     0.100 A 
ATOM      3  C   UNL     1      33.279  26.156  16.216  1.00  0.00     0.197 A 
ATOM      4  O   UNL     1      33.315  26.383  14.980  1.00  0.00    -0.289 OA
ATOM      5  C   UNL     1      33.133  27.194  17.166  1.00  0.00     0.107 A 
ATOM      6  C   UNL     1      32.935  28.570  16.842  1.00  0.00     0.134 A 
ATOM      7  C   UNL     1      32.919  29.524  17.866  1.00  0.00     0.093 A 
ATOM      8  C   UNL     1      33.035  29.148  19.204  1.00  0.00     0.123 A 
ATOM      9  C   UNL     1      33.175  27.801  19.536  1.00  0.00     0.094 A 
ATOM     10  C   UNL     1      33.229  26.827  18.535  1.00  0.00     0.146 A 
ATOM     11  O   UNL     1      33.377  25.556  18.892  1.00  0.00    -0.456 OA
ENDROOT
BRANCH   1  12
ATOM     12  C   UNL     1      33.616  23.172  18.534  1.00  0.00     0.021 A 
ATOM     13  C   UNL     1      33.119  22.094  17.780  1.00  0.00     0.016 A 
ATOM     14  C   UNL     1      33.259  20.782  18.236  1.00  0.00     0.051 A 
ATOM     15  C   UNL     1      33.907  20.521  19.451  1.00  0.00     0.157 A 
ATOM     16  C   UNL     1      34.278  22.901  19.748  1.00  0.00     0.062 A 
ATOM     17  C   UNL     1      34.421  21.587  20.207  1.00  0.00     0.158 A 
BRANCH  15  18
ATOM     18  O   UNL     1      34.044  19.211  19.906  1.00  0.00    -0.504 OA
ATOM     19  H   UNL     1      33.356  18.787  20.518  1.00  0.00     0.293 HD
ENDBRANCH  15  18
BRANCH  17  20
ATOM     20  O   UNL     1      35.080  21.360  21.415  1.00  0.00    -0.504 OA
ATOM     21  H   UNL     1      34.876  20.556  21.997  1.00  0.00     0.293 HD
ENDBRANCH  17  20
ENDBRANCH   1  12
BRANCH   6  22
ATOM     22  O   UNL     1      32.724  29.044  15.543  1.00  0.00    -0.507 OA
ATOM     23  H   UNL     1      31.941  29.611  15.256  1.00  0.00     0.293 HD
ENDBRANCH   6  22
BRANCH   8  24
ATOM     24  O   UNL     1      33.000  30.124  20.197  1.00  0.00    -0.508 OA
ATOM     25  H   UNL     1      33.103  29.888  21.177  1.00  0.00     0.293 HD
ENDBRANCH   8  24
TORSDOF 5
ENDMDL
MODEL 4
REMARK VINA RESULT:    -7.377      1.393      2.318
REMARK INTER + INTRA:          -8.954
REMARK INTER:                  -8.637
REMARK INTRA:                  -0.317
REMARK UNBOUND:                -0.283
REMARK SMILES O=c1cc(-c2ccc(O)c(O)c2)oc2cc(O)cc(O)c12
REMARK SMILES IDX 4 1 3 2 2 3 1 4 21 5 19 6 18 7 16 8 15 9 14 10 13 11 5 12
REMARK SMILES IDX 6 13 7 14 8 15 12 16 10 17 9 18 11 20 20 22 17 24
REMARK H PARENT 9 19 11 21 20 23 17 25
REMARK Flexibility Score: inf
ROOT
ATOM      1  C   UNL     1      33.936  26.539  20.322  1.00  0.00     0.138 A 
ATOM      2  C   UNL     1      34.262  25.397  19.577  1.00  0.00     0.100 A 
ATOM      3  C   UNL     1      34.056  25.391  18.197  1.00  0.00     0.197 A 
ATOM      4  O   UNL     1      34.416  24.377  17.547  1.00  0.00    -0.289 OA
ATOM      5  C   UNL     1      33.491  26.525  17.565  1.00  0.00     0.107 A 
ATOM      6  C   UNL     1      33.197  26.617  16.172  1.00  0.00     0.134 A 
ATOM      7  C   UNL     1      32.746  27.831  15.641  1.00  0.00     0.093 A 
ATOM      8  C   UNL     1      32.521  28.937  16.460  1.00  0.00     0.123 A 
ATOM      9  C   UNL     1      32.753  28.842  17.832  1.00  0.00     0.094 A 
ATOM     10  C   UNL     1      33.236  27.655  18.388  1.00  0.00     0.146 A 
ATOM     11  O   UNL     1      33.458  27.609  19.697  1.00  0.00    -0.456 OA
ENDROOT
BRANCH   1  12
ATOM     12  C   UNL     1      34.134  26.598  21.792  1.00  0.00     0.021 A 
ATOM     13  C   UNL     1      34.513  25.436  22.487  1.00  0.00     0.016 A 
ATOM     14  C   UNL     1      34.713  25.467  23.869  1.00  0.00     0.051 A 
ATOM     15  C   UNL     1      34.549  26.663  24.580  1.00  0.00     0.157 A 
ATOM     16  C   UNL     1      33.983  27.799  22.512  1.00  0.00     0.062 A 
ATOM     17  C   UNL     1      34.185  27.834  23.897  1.00  0.00     0.158 A 
BRANCH  15  18
ATOM     18  O   UNL     1      34.748  26.691  25.960  1.00  0.00    -0.504 OA
ATOM     19  H   UNL     1      35.672  26.810  26.360  1.00  0.00     0.293 HD
ENDBRANCH  15  18
BRANCH  17  20
ATOM     20  O   UNL     1      34.024  29.042  24.575  1.00  0.00    -0.504 OA
ATOM     21  H   UNL     1      33.112  29.393  24.840  1.00  0.00     0.293 HD
ENDBRANCH  17  20
ENDBRANCH   1  12
BRANCH   6  22
ATOM     22  O   UNL     1      33.307  25.547  15.278  1.00  0.00    -0.507 OA
ATOM     23  H   UNL     1      34.148  25.293  14.782  1.00  0.00     0.293 HD
ENDBRANCH   6  22
BRANCH   8  24
ATOM     24  O   UNL     1      32.058  30.125  15.898  1.00  0.00    -0.508 OA
ATOM     25  H   UNL     1      32.519  30.551  15.103  1.00  0.00     0.293 HD
ENDBRANCH   8  24
TORSDOF 5
ENDMDL
MODEL 5
REMARK VINA RESULT:    -7.372      1.586      6.771
REMARK INTER + INTRA:          -8.948
REMARK INTER:                  -8.632
REMARK INTRA:                  -0.317
REMARK UNBOUND:                -0.283
REMARK SMILES O=c1cc(-c2ccc(O)c(O)c2)oc2cc(O)cc(O)c12
REMARK SMILES IDX 4 1 3 2 2 3 1 4 21 5 19 6 18 7 16 8 15 9 14 10 13 11 5 12
REMARK SMILES IDX 6 13 7 14 8 15 12 16 10 17 9 18 11 20 20 22 17 24
REMARK H PARENT 9 19 11 21 20 23 17 25
REMARK Flexibility Score: inf
ROOT
ATOM      1  C   UNL     1      33.993  26.434  19.561  1.00  0.00     0.138 A 
ATOM      2  C   UNL     1      34.346  25.193  20.109  1.00  0.00     0.100 A 
ATOM      3  C   UNL     1      34.677  25.105  21.462  1.00  0.00     0.197 A 
ATOM      4  O   UNL     1      34.929  23.968  21.938  1.00  0.00    -0.289 OA
ATOM      5  C   UNL     1      34.684  26.272  22.262  1.00  0.00     0.107 A 
ATOM      6  C   UNL     1      35.044  26.310  23.642  1.00  0.00     0.134 A 
ATOM      7  C   UNL     1      34.902  27.503  24.360  1.00  0.00     0.093 A 
ATOM      8  C   UNL     1      34.470  28.672  23.736  1.00  0.00     0.123 A 
ATOM      9  C   UNL     1      34.167  28.661  22.374  1.00  0.00     0.094 A 
ATOM     10  C   UNL     1      34.266  27.478  21.638  1.00  0.00     0.146 A 
ATOM     11  O   UNL     1      33.954  27.505  20.346  1.00  0.00    -0.456 OA
ENDROOT
BRANCH   1  12
ATOM     12  C   UNL     1      33.633  26.584  18.129  1.00  0.00     0.021 A 
ATOM     13  C   UNL     1      33.819  25.501  17.251  1.00  0.00     0.016 A 
ATOM     14  C   UNL     1      33.481  25.614  15.901  1.00  0.00     0.051 A 
ATOM     15  C   UNL     1      32.941  26.808  15.404  1.00  0.00     0.157 A 
ATOM     16  C   UNL     1      33.077  27.777  17.625  1.00  0.00     0.062 A 
ATOM     17  C   UNL     1      32.736  27.892  16.273  1.00  0.00     0.158 A 
BRANCH  15  18
ATOM     18  O   UNL     1      32.606  26.919  14.055  1.00  0.00    -0.504 OA
ATOM     19  H   UNL     1      32.288  27.795  13.658  1.00  0.00     0.293 HD
ENDBRANCH  15  18
BRANCH  17  20
ATOM     20  O   UNL     1      32.191  29.090  15.812  1.00  0.00    -0.504 OA
ATOM     21  H   UNL     1      32.282  29.957  16.328  1.00  0.00     0.293 HD
ENDBRANCH  17  20
ENDBRANCH   1  12
BRANCH   6  22
ATOM     22  O   UNL     1      35.567  25.218  24.342  1.00  0.00    -0.507 OA
ATOM     23  H   UNL     1      35.928  25.255  25.283  1.00  0.00     0.293 HD
ENDBRANCH   6  22
BRANCH   8  24
ATOM     24  O   UNL     1      34.355  29.846  24.479  1.00  0.00    -0.508 OA
ATOM     25  H   UNL     1      34.790  30.709  24.178  1.00  0.00     0.293 HD
ENDBRANCH   8  24
TORSDOF 5
ENDMDL
MODEL 6
REMARK VINA RESULT:    -7.022      2.504      6.410
REMARK INTER + INTRA:          -8.537
REMARK INTER:                  -8.221
REMARK INTRA:                  -0.315
REMARK UNBOUND:                -0.283
REMARK SMILES O=c1cc(-c2ccc(O)c(O)c2)oc2cc(O)cc(O)c12
REMARK SMILES IDX 4 1 3 2 2 3 1 4 21 5 19 6 18 7 16 8 15 9 14 10 13 11 5 12
REMARK SMILES IDX 6 13 7 14 8 15 12 16 10 17 9 18 11 20 20 22 17 24
REMARK H PARENT 9 19 11 21 20 23 17 25
REMARK Flexibility Score: inf
ROOT
ATOM      1  C   UNL     1      33.576  25.023  18.414  1.00  0.00     0.138 A 
ATOM      2  C   UNL     1      33.255  25.545  17.153  1.00  0.00     0.100 A 
ATOM      3  C   UNL     1      33.102  26.923  16.994  1.00  0.00     0.197 A 
ATOM      4  O   UNL     1      32.876  27.365  15.839  1.00  0.00    -0.289 OA
ATOM      5  C   UNL     1      33.241  27.779  18.112  1.00  0.00     0.107 A 
ATOM      6  C   UNL     1      33.067  29.195  18.078  1.00  0.00     0.134 A 
ATOM      7  C   UNL     1      33.344  29.952  19.223  1.00  0.00     0.093 A 
ATOM      8  C   UNL     1      33.731  29.341  20.415  1.00  0.00     0.123 A 
ATOM      9  C   UNL     1      33.852  27.952  20.475  1.00  0.00     0.094 A 
ATOM     10  C   UNL     1      33.616  27.172  19.341  1.00  0.00     0.146 A 
ATOM     11  O   UNL     1      33.755  25.854  19.435  1.00  0.00    -0.456 OA
ENDROOT
BRANCH   1  12
ATOM     12  C   UNL     1      33.749  23.566  18.638  1.00  0.00     0.021 A 
ATOM     13  C   UNL     1      33.325  22.658  17.651  1.00  0.00     0.016 A 
ATOM     14  C   UNL     1      33.484  21.283  17.835  1.00  0.00     0.051 A 
ATOM     15  C   UNL     1      34.079  20.790  19.003  1.00  0.00     0.157 A 
ATOM     16  C   UNL     1      34.358  23.063  19.805  1.00  0.00     0.062 A 
ATOM     17  C   UNL     1      34.520  21.685  19.991  1.00  0.00     0.158 A 
BRANCH  15  18
ATOM     18  O   UNL     1      34.235  19.416  19.185  1.00  0.00    -0.504 OA
ATOM     19  H   UNL     1      35.124  18.957  19.023  1.00  0.00     0.293 HD
ENDBRANCH  15  18
BRANCH  17  20
ATOM     20  O   UNL     1      35.124  21.226  21.160  1.00  0.00    -0.504 OA
ATOM     21  H   UNL     1      34.774  21.470  22.079  1.00  0.00     0.293 HD
ENDBRANCH  17  20
ENDBRANCH   1  12
BRANCH   6  22
ATOM     22  O   UNL     1      32.604  29.898  16.961  1.00  0.00    -0.507 OA
ATOM     23  H   UNL     1      32.364  30.878  16.955  1.00  0.00     0.293 HD
ENDBRANCH   6  22
BRANCH   8  24
ATOM     24  O   UNL     1      33.984  30.125  21.538  1.00  0.00    -0.508 OA
ATOM     25  H   UNL     1      34.846  30.037  22.063  1.00  0.00     0.293 HD
ENDBRANCH   8  24
TORSDOF 5
ENDMDL
MODEL 7
REMARK VINA RESULT:    -6.749      1.856      3.602
REMARK INTER + INTRA:          -8.216
REMARK INTER:                  -7.919
REMARK INTRA:                  -0.296
REMARK UNBOUND:                -0.283
REMARK SMILES O=c1cc(-c2ccc(O)c(O)c2)oc2cc(O)cc(O)c12
REMARK SMILES IDX 4 1 3 2 2 3 1 4 21 5 19 6 18 7 16 8 15 9 14 10 13 11 5 12
REMARK SMILES IDX 6 13 7 14 8 15 12 16 10 17 9 18 11 20 20 22 17 24
REMARK H PARENT 9 19 11 21 20 23 17 25
REMARK Flexibility Score: inf
ROOT
ATOM      1  C   UNL     1      33.467  27.489  20.159  1.00  0.00     0.138 A 
ATOM      2  C   UNL     1      32.689  28.654  20.102  1.00  0.00     0.100 A 
ATOM      3  C   UNL     1      32.225  29.113  18.868  1.00  0.00     0.197 A 
ATOM      4  O   UNL     1      31.478  30.125  18.856  1.00  0.00    -0.289 OA
ATOM      5  C   UNL     1      32.568  28.418  17.685  1.00  0.00     0.107 A 
ATOM      6  C   UNL     1      32.186  28.817  16.368  1.00  0.00     0.134 A 
ATOM      7  C   UNL     1      32.486  27.987  15.282  1.00  0.00     0.093 A 
ATOM      8  C   UNL     1      33.205  26.805  15.455  1.00  0.00     0.123 A 
ATOM      9  C   UNL     1      33.631  26.432  16.730  1.00  0.00     0.094 A 
ATOM     10  C   UNL     1      33.317  27.221  17.839  1.00  0.00     0.146 A 
ATOM     11  O   UNL     1      33.729  26.825  19.039  1.00  0.00    -0.456 OA
ENDROOT
BRANCH   1  12
ATOM     12  C   UNL     1      33.987  26.957  21.444  1.00  0.00     0.021 A 
ATOM     13  C   UNL     1      34.621  25.702  21.467  1.00  0.00     0.016 A 
ATOM     14  C   UNL     1      35.126  25.182  22.661  1.00  0.00     0.051 A 
ATOM     15  C   UNL     1      35.016  25.911  23.852  1.00  0.00     0.157 A 
ATOM     16  C   UNL     1      33.891  27.690  22.643  1.00  0.00     0.062 A 
ATOM     17  C   UNL     1      34.398  27.172  23.841  1.00  0.00     0.158 A 
BRANCH  15  18
ATOM     18  O   UNL     1      35.520  25.390  25.043  1.00  0.00    -0.504 OA
ATOM     19  H   UNL     1      36.069  25.956  25.680  1.00  0.00     0.293 HD
ENDBRANCH  15  18
BRANCH  17  20
ATOM     20  O   UNL     1      34.281  27.927  25.008  1.00  0.00    -0.504 OA
ATOM     21  H   UNL     1      34.746  28.820  25.120  1.00  0.00     0.293 HD
ENDBRANCH  17  20
ENDBRANCH   1  12
BRANCH   6  22
ATOM     22  O   UNL     1      31.538  30.021  16.075  1.00  0.00    -0.507 OA
ATOM     23  H   UNL     1      31.969  30.813  15.623  1.00  0.00     0.293 HD
ENDBRANCH   6  22
BRANCH   8  24
ATOM     24  O   UNL     1      33.499  26.011  14.348  1.00  0.00    -0.508 OA
ATOM     25  H   UNL     1      33.987  26.384  13.542  1.00  0.00     0.293 HD
ENDBRANCH   8  24
TORSDOF 5
ENDMDL
MODEL 8
REMARK VINA RESULT:    -6.692      2.659      4.368
REMARK INTER + INTRA:          -8.149
REMARK INTER:                  -7.866
REMARK INTRA:                  -0.283
REMARK UNBOUND:                -0.283
REMARK SMILES O=c1cc(-c2ccc(O)c(O)c2)oc2cc(O)cc(O)c12
REMARK SMILES IDX 4 1 3 2 2 3 1 4 21 5 19 6 18 7 16 8 15 9 14 10 13 11 5 12
REMARK SMILES IDX 6 13 7 14 8 15 12 16 10 17 9 18 11 20 20 22 17 24
REMARK H PARENT 9 19 11 21 20 23 17 25
REMARK Flexibility Score: inf
ROOT
ATOM      1  C   UNL     1      34.900  25.110  20.443  1.00  0.00     0.138 A 
ATOM      2  C   UNL     1      34.463  25.102  19.111  1.00  0.00     0.100 A 
ATOM      3  C   UNL     1      34.052  23.903  18.527  1.00  0.00     0.197 A 
ATOM      4  O   UNL     1      33.606  23.938  17.351  1.00  0.00    -0.289 OA
ATOM      5  C   UNL     1      34.109  22.702  19.272  1.00  0.00     0.107 A 
ATOM      6  C   UNL     1      33.754  21.414  18.768  1.00  0.00     0.134 A 
ATOM      7  C   UNL     1      33.742  20.314  19.633  1.00  0.00     0.093 A 
ATOM      8  C   UNL     1      34.126  20.442  20.967  1.00  0.00     0.123 A 
ATOM      9  C   UNL     1      34.526  21.685  21.458  1.00  0.00     0.094 A 
ATOM     10  C   UNL     1      34.517  22.809  20.629  1.00  0.00     0.146 A 
ATOM     11  O   UNL     1      34.892  23.978  21.138  1.00  0.00    -0.456 OA
ENDROOT
BRANCH   1  12
ATOM     12  C   UNL     1      35.348  26.357  21.113  1.00  0.00     0.021 A 
ATOM     13  C   UNL     1      34.498  27.477  21.132  1.00  0.00     0.016 A 
ATOM     14  C   UNL     1      34.893  28.658  21.763  1.00  0.00     0.051 A 
ATOM     15  C   UNL     1      36.142  28.740  22.394  1.00  0.00     0.157 A 
ATOM     16  C   UNL     1      36.597  26.442  21.760  1.00  0.00     0.062 A 
ATOM     17  C   UNL     1      36.995  27.625  22.394  1.00  0.00     0.158 A 
BRANCH  15  18
ATOM     18  O   UNL     1      36.534  29.922  23.021  1.00  0.00    -0.504 OA
ATOM     19  H   UNL     1      35.997  30.322  23.781  1.00  0.00     0.293 HD
ENDBRANCH  15  18
BRANCH  17  20
ATOM     20  O   UNL     1      38.239  27.671  23.022  1.00  0.00    -0.504 OA
ATOM     21  H   UNL     1      38.821  28.500  23.004  1.00  0.00     0.293 HD
ENDBRANCH  17  20
ENDBRANCH   1  12
BRANCH   6  22
ATOM     22  O   UNL     1      33.435  21.161  17.430  1.00  0.00    -0.507 OA
ATOM     23  H   UNL     1      34.109  21.022  16.692  1.00  0.00     0.293 HD
ENDBRANCH   6  22
BRANCH   8  24
ATOM     24  O   UNL     1      34.114  19.322  21.796  1.00  0.00    -0.508 OA
ATOM     25  H   UNL     1      34.472  18.427  21.483  1.00  0.00     0.293 HD
ENDBRANCH   8  24
TORSDOF 5
ENDMDL
MODEL 9
REMARK VINA RESULT:    -6.664      1.476      3.111
REMARK INTER + INTRA:          -8.115
REMARK INTER:                  -7.852
REMARK INTRA:                  -0.263
REMARK UNBOUND:                -0.283
REMARK SMILES O=c1cc(-c2ccc(O)c(O)c2)oc2cc(O)cc(O)c12
REMARK SMILES IDX 4 1 3 2 2 3 1 4 21 5 19 6 18 7 16 8 15 9 14 10 13 11 5 12
REMARK SMILES IDX 6 13 7 14 8 15 12 16 10 17 9 18 11 20 20 22 17 24
REMARK H PARENT 9 19 11 21 20 23 17 25
REMARK Flexibility Score: inf
ROOT
ATOM      1  C   UNL     1      34.262  27.911  20.484  1.00  0.00     0.138 A 
ATOM      2  C   UNL     1      33.618  28.687  19.511  1.00  0.00     0.100 A 
ATOM      3  C   UNL     1      33.161  28.085  18.338  1.00  0.00     0.197 A 
ATOM      4  O   UNL     1      32.532  28.795  17.513  1.00  0.00    -0.289 OA
ATOM      5  C   UNL     1      33.379  26.703  18.127  1.00  0.00     0.107 A 
ATOM      6  C   UNL     1      32.994  25.990  16.952  1.00  0.00     0.134 A 
ATOM      7  C   UNL     1      33.158  24.600  16.904  1.00  0.00     0.093 A 
ATOM      8  C   UNL     1      33.746  23.907  17.960  1.00  0.00     0.123 A 
ATOM      9  C   UNL     1      34.175  24.600  19.092  1.00  0.00     0.094 A 
ATOM     10  C   UNL     1      33.995  25.982  19.185  1.00  0.00     0.146 A 
ATOM     11  O   UNL     1      34.405  26.605  20.285  1.00  0.00    -0.456 OA
ENDROOT
BRANCH   1  12
ATOM     12  C   UNL     1      34.768  28.500  21.749  1.00  0.00     0.021 A 
ATOM     13  C   UNL     1      33.952  28.488  22.894  1.00  0.00     0.016 A 
ATOM     14  C   UNL     1      34.407  29.029  24.098  1.00  0.00     0.051 A 
ATOM     15  C   UNL     1      35.691  29.584  24.184  1.00  0.00     0.157 A 
ATOM     16  C   UNL     1      36.062  29.048  21.846  1.00  0.00     0.062 A 
ATOM     17  C   UNL     1      36.522  29.590  23.052  1.00  0.00     0.158 A 
BRANCH  15  18
ATOM     18  O   UNL     1      36.143  30.125  25.386  1.00  0.00    -0.504 OA
ATOM     19  H   UNL     1      37.009  29.818  25.814  1.00  0.00     0.293 HD
ENDBRANCH  15  18
BRANCH  17  20
ATOM     20  O   UNL     1      37.809  30.125  23.107  1.00  0.00    -0.504 OA
ATOM     21  H   UNL     1      38.480  29.843  23.811  1.00  0.00     0.293 HD
ENDBRANCH  17  20
ENDBRANCH   1  12
BRANCH   6  22
ATOM     22  O   UNL     1      32.473  26.598  15.805  1.00  0.00    -0.507 OA
ATOM     23  H   UNL     1      31.504  26.843  15.671  1.00  0.00     0.293 HD
ENDBRANCH   6  22
BRANCH   8  24
ATOM     24  O   UNL     1      33.906  22.525  17.871  1.00  0.00    -0.508 OA
ATOM     25  H   UNL     1      34.440  22.101  17.122  1.00  0.00     0.293 HD
ENDBRANCH   8  24
TORSDOF 5
ENDMDL
