MODEL 1
REMARK VINA RESULT:    -4.767      0.000      0.000
REMARK INTER + INTRA:         -12.444
REMARK INTER:                  -9.225
REMARK INTRA:                  -3.219
REMARK UNBOUND:                -3.219
REMARK SMILES CCCCCCCCCCCCCCCCCC(=O)[O-]
REMARK SMILES IDX 10 1 11 2 12 3 13 4 14 5 15 6 16 7 17 8 18 9 19 10 20 11
REMARK SMILES IDX 9 12 8 13 7 14 6 15 5 16 4 17 3 18 2 19 1 20
REMARK H PARENT
REMARK Flexibility Score: inf
ROOT
ATOM      1  C   UNL     1      19.858  24.289  10.167  1.00  0.00     0.000 C 
ENDROOT
BRANCH   1   2
ATOM      2  C   UNL     1      19.756  22.778  10.429  1.00  0.00     0.000 C 
BRANCH   2   3
ATOM      3  C   UNL     1      18.392  22.374  11.016  1.00  0.00     0.000 C 
BRANCH   3   4
ATOM      4  C   UNL     1      17.718  21.242  10.222  1.00  0.00     0.000 C 
BRANCH   4   5
ATOM      5  C   UNL     1      18.586  20.744   9.051  1.00  0.00     0.000 C 
BRANCH   5   6
ATOM      6  C   UNL     1      17.809  19.833   8.087  1.00  0.00     0.000 C 
BRANCH   6   7
ATOM      7  C   UNL     1      18.735  18.984   7.197  1.00  0.00     0.006 C 
BRANCH   7   8
ATOM      8  C   UNL     1      18.083  18.633   5.854  1.00  0.00     0.053 C 
BRANCH   8   9
ATOM      9  C   UNL     1      18.148  17.163   5.570  1.00  0.00     0.041 C 
ATOM     10  O   UNL     1      17.557  16.685   4.567  1.00  0.00    -0.550 OA
ATOM     11  O   UNL     1      18.885  16.327   6.399  1.00  0.00    -0.550 OA
ENDBRANCH   8   9
ENDBRANCH   7   8
ENDBRANCH   6   7
ENDBRANCH   5   6
ENDBRANCH   4   5
ENDBRANCH   3   4
ENDBRANCH   2   3
ENDBRANCH   1   2
BRANCH   1  12
ATOM     12  C   UNL     1      18.484  24.949   9.957  1.00  0.00     0.000 C 
BRANCH  12  13
ATOM     13  C   UNL     1      18.171  25.200   8.466  1.00  0.00    -0.000 C 
BRANCH  13  14
ATOM     14  C   UNL     1      17.051  24.301   7.909  1.00  0.00    -0.000 C 
BRANCH  14  15
ATOM     15  C   UNL     1      17.471  23.397   6.734  1.00  0.00    -0.000 C 
BRANCH  15  16
ATOM     16  C   UNL     1      18.992  23.305   6.492  1.00  0.00    -0.000 C 
BRANCH  16  17
ATOM     17  C   UNL     1      19.434  22.197   5.519  1.00  0.00    -0.000 C 
BRANCH  17  18
ATOM     18  C   UNL     1      20.867  21.709   5.779  1.00  0.00    -0.000 C 
BRANCH  18  19
ATOM     19  C   UNL     1      21.415  22.288   7.088  1.00  0.00    -0.003 C 
ATOM     20  C   UNL     1      22.070  21.204   7.939  1.00  0.00     0.004 C 
ENDBRANCH  18  19
ENDBRANCH  17  18
ENDBRANCH  16  17
ENDBRANCH  15  16
ENDBRANCH  14  15
ENDBRANCH  13  14
ENDBRANCH  12  13
ENDBRANCH   1  12
TORSDOF 16
ENDMDL
MODEL 2
REMARK VINA RESULT:    -4.734      2.533      4.742
REMARK INTER + INTRA:         -12.382
REMARK INTER:                 -10.505
REMARK INTRA:                  -1.877
REMARK UNBOUND:                -3.219
REMARK SMILES CCCCCCCCCCCCCCCCCC(=O)[O-]
REMARK SMILES IDX 10 1 11 2 12 3 13 4 14 5 15 6 16 7 17 8 18 9 19 10 20 11
REMARK SMILES IDX 9 12 8 13 7 14 6 15 5 16 4 17 3 18 2 19 1 20
REMARK H PARENT
REMARK Flexibility Score: inf
ROOT
ATOM      1  C   UNL     1      21.734  23.154   9.351  1.00  0.00     0.000 C 
ENDROOT
BRANCH   1   2
ATOM      2  C   UNL     1      21.666  21.919   8.438  1.00  0.00     0.000 C 
BRANCH   2   3
ATOM      3  C   UNL     1      21.608  22.294   6.946  1.00  0.00     0.000 C 
BRANCH   3   4
ATOM      4  C   UNL     1      20.169  22.358   6.408  1.00  0.00     0.000 C 
BRANCH   4   5
ATOM      5  C   UNL     1      19.979  21.521   5.130  1.00  0.00     0.000 C 
BRANCH   5   6
ATOM      6  C   UNL     1      21.288  21.334   4.347  1.00  0.00     0.000 C 
BRANCH   6   7
ATOM      7  C   UNL     1      21.688  19.854   4.204  1.00  0.00     0.006 C 
BRANCH   7   8
ATOM      8  C   UNL     1      23.197  19.644   4.380  1.00  0.00     0.053 C 
BRANCH   8   9
ATOM      9  C   UNL     1      23.499  18.658   5.468  1.00  0.00     0.041 C 
ATOM     10  O   UNL     1      22.581  18.252   6.228  1.00  0.00    -0.550 OA
ATOM     11  O   UNL     1      24.789  18.168   5.625  1.00  0.00    -0.550 OA
ENDBRANCH   8   9
ENDBRANCH   7   8
ENDBRANCH   6   7
ENDBRANCH   5   6
ENDBRANCH   4   5
ENDBRANCH   3   4
ENDBRANCH   2   3
ENDBRANCH   1   2
BRANCH   1  12
ATOM     12  C   UNL     1      20.658  23.138  10.451  1.00  0.00     0.000 C 
BRANCH  12  13
ATOM     13  C   UNL     1      19.549  22.100  10.176  1.00  0.00    -0.000 C 
BRANCH  13  14
ATOM     14  C   UNL     1      18.421  22.107  11.226  1.00  0.00    -0.000 C 
BRANCH  14  15
ATOM     15  C   UNL     1      17.058  22.604  10.710  1.00  0.00    -0.000 C 
BRANCH  15  16
ATOM     16  C   UNL     1      17.039  24.068  10.222  1.00  0.00    -0.000 C 
BRANCH  16  17
ATOM     17  C   UNL     1      16.911  24.248   8.699  1.00  0.00    -0.000 C 
BRANCH  17  18
ATOM     18  C   UNL     1      18.188  24.808   8.053  1.00  0.00    -0.000 C 
BRANCH  18  19
ATOM     19  C   UNL     1      18.837  25.868   8.949  1.00  0.00    -0.003 C 
ATOM     20  C   UNL     1      18.193  27.235   8.742  1.00  0.00     0.004 C 
ENDBRANCH  18  19
ENDBRANCH  17  18
ENDBRANCH  16  17
ENDBRANCH  15  16
ENDBRANCH  14  15
ENDBRANCH  13  14
ENDBRANCH  12  13
ENDBRANCH   1  12
TORSDOF 16
ENDMDL
MODEL 3
REMARK VINA RESULT:    -4.651      2.960      4.688
REMARK INTER + INTRA:         -12.220
REMARK INTER:                  -9.426
REMARK INTRA:                  -2.793
REMARK UNBOUND:                -3.219
REMARK SMILES CCCCCCCCCCCCCCCCCC(=O)[O-]
REMARK SMILES IDX 10 1 11 2 12 3 13 4 14 5 15 6 16 7 17 8 18 9 19 10 20 11
REMARK SMILES IDX 9 12 8 13 7 14 6 15 5 16 4 17 3 18 2 19 1 20
REMARK H PARENT
REMARK Flexibility Score: inf
ROOT
ATOM      1  C   UNL     1      17.866  20.762  10.286  1.00  0.00     0.000 C 
ENDROOT
BRANCH   1   2
ATOM      2  C   UNL     1      18.201  22.034  11.082  1.00  0.00     0.000 C 
BRANCH   2   3
ATOM      3  C   UNL     1      17.018  23.015  11.146  1.00  0.00     0.000 C 
BRANCH   3   4
ATOM      4  C   UNL     1      17.380  24.413  10.616  1.00  0.00     0.000 C 
BRANCH   4   5
ATOM      5  C   UNL     1      17.000  24.599   9.135  1.00  0.00     0.000 C 
BRANCH   5   6
ATOM      6  C   UNL     1      18.220  24.892   8.246  1.00  0.00     0.000 C 
BRANCH   6   7
ATOM      7  C   UNL     1      19.548  24.828   9.021  1.00  0.00     0.006 C 
BRANCH   7   8
ATOM      8  C   UNL     1      20.494  23.758   8.461  1.00  0.00     0.053 C 
BRANCH   8   9
ATOM      9  C   UNL     1      21.365  23.170   9.529  1.00  0.00     0.041 C 
ATOM     10  O   UNL     1      21.300  23.603  10.709  1.00  0.00    -0.550 OA
ATOM     11  O   UNL     1      22.228  22.125   9.225  1.00  0.00    -0.550 OA
ENDBRANCH   8   9
ENDBRANCH   7   8
ENDBRANCH   6   7
ENDBRANCH   5   6
ENDBRANCH   4   5
ENDBRANCH   3   4
ENDBRANCH   2   3
ENDBRANCH   1   2
BRANCH   1  12
ATOM     12  C   UNL     1      18.159  20.908   8.782  1.00  0.00     0.000 C 
BRANCH  12  13
ATOM     13  C   UNL     1      16.875  21.098   7.946  1.00  0.00    -0.000 C 
BRANCH  13  14
ATOM     14  C   UNL     1      17.100  21.875   6.635  1.00  0.00    -0.000 C 
BRANCH  14  15
ATOM     15  C   UNL     1      18.142  21.255   5.685  1.00  0.00    -0.000 C 
BRANCH  15  16
ATOM     16  C   UNL     1      19.362  22.149   5.381  1.00  0.00    -0.000 C 
BRANCH  16  17
ATOM     17  C   UNL     1      20.578  21.416   4.789  1.00  0.00    -0.000 C 
BRANCH  17  18
ATOM     18  C   UNL     1      21.784  21.388   5.742  1.00  0.00    -0.000 C 
BRANCH  18  19
ATOM     19  C   UNL     1      21.829  20.075   6.531  1.00  0.00    -0.003 C 
ATOM     20  C   UNL     1      21.192  18.935   5.742  1.00  0.00     0.004 C 
ENDBRANCH  18  19
ENDBRANCH  17  18
ENDBRANCH  16  17
ENDBRANCH  15  16
ENDBRANCH  14  15
ENDBRANCH  13  14
ENDBRANCH  12  13
ENDBRANCH   1  12
TORSDOF 16
ENDMDL
MODEL 4
REMARK VINA RESULT:    -4.646      1.242      3.093
REMARK INTER + INTRA:         -12.211
REMARK INTER:                  -9.500
REMARK INTRA:                  -2.711
REMARK UNBOUND:                -3.219
REMARK SMILES CCCCCCCCCCCCCCCCCC(=O)[O-]
REMARK SMILES IDX 10 1 11 2 12 3 13 4 14 5 15 6 16 7 17 8 18 9 19 10 20 11
REMARK SMILES IDX 9 12 8 13 7 14 6 15 5 16 4 17 3 18 2 19 1 20
REMARK H PARENT
REMARK Flexibility Score: inf
ROOT
ATOM      1  C   UNL     1      17.567  24.904   9.312  1.00  0.00     0.000 C 
ENDROOT
BRANCH   1   2
ATOM      2  C   UNL     1      17.631  25.008   7.780  1.00  0.00     0.000 C 
BRANCH   2   3
ATOM      3  C   UNL     1      17.099  23.744   7.082  1.00  0.00     0.000 C 
BRANCH   3   4
ATOM      4  C   UNL     1      18.139  23.102   6.147  1.00  0.00     0.000 C 
BRANCH   4   5
ATOM      5  C   UNL     1      18.030  21.567   6.110  1.00  0.00     0.000 C 
BRANCH   5   6
ATOM      6  C   UNL     1      17.512  20.980   7.434  1.00  0.00     0.000 C 
BRANCH   6   7
ATOM      7  C   UNL     1      18.420  19.866   7.984  1.00  0.00     0.006 C 
BRANCH   7   8
ATOM      8  C   UNL     1      19.311  19.255   6.895  1.00  0.00     0.053 C 
BRANCH   8   9
ATOM      9  C   UNL     1      18.963  17.822   6.628  1.00  0.00     0.041 C 
ATOM     10  O   UNL     1      17.946  17.306   7.164  1.00  0.00    -0.550 OA
ATOM     11  O   UNL     1      19.744  17.065   5.765  1.00  0.00    -0.550 OA
ENDBRANCH   8   9
ENDBRANCH   7   8
ENDBRANCH   6   7
ENDBRANCH   5   6
ENDBRANCH   4   5
ENDBRANCH   3   4
ENDBRANCH   2   3
ENDBRANCH   1   2
BRANCH   1  12
ATOM     12  C   UNL     1      16.875  23.615   9.790  1.00  0.00     0.000 C 
BRANCH  12  13
ATOM     13  C   UNL     1      17.205  23.279  11.261  1.00  0.00    -0.000 C 
BRANCH  13  14
ATOM     14  C   UNL     1      18.378  22.293  11.421  1.00  0.00    -0.000 C 
BRANCH  14  15
ATOM     15  C   UNL     1      19.418  22.333  10.286  1.00  0.00    -0.000 C 
BRANCH  15  16
ATOM     16  C   UNL     1      20.707  23.118  10.607  1.00  0.00    -0.000 C 
BRANCH  16  17
ATOM     17  C   UNL     1      21.743  23.170   9.470  1.00  0.00    -0.000 C 
BRANCH  17  18
ATOM     18  C   UNL     1      21.100  23.194   8.075  1.00  0.00    -0.000 C 
BRANCH  18  19
ATOM     19  C   UNL     1      21.659  22.071   7.194  1.00  0.00    -0.003 C 
ATOM     20  C   UNL     1      22.484  21.085   8.016  1.00  0.00     0.004 C 
ENDBRANCH  18  19
ENDBRANCH  17  18
ENDBRANCH  16  17
ENDBRANCH  15  16
ENDBRANCH  14  15
ENDBRANCH  13  14
ENDBRANCH  12  13
ENDBRANCH   1  12
TORSDOF 16
ENDMDL
MODEL 5
REMARK VINA RESULT:    -4.583      3.740      5.456
REMARK INTER + INTRA:         -12.089
REMARK INTER:                  -9.214
REMARK INTRA:                  -2.875
REMARK UNBOUND:                -3.219
REMARK SMILES CCCCCCCCCCCCCCCCCC(=O)[O-]
REMARK SMILES IDX 10 1 11 2 12 3 13 4 14 5 15 6 16 7 17 8 18 9 19 10 20 11
REMARK SMILES IDX 9 12 8 13 7 14 6 15 5 16 4 17 3 18 2 19 1 20
REMARK H PARENT
REMARK Flexibility Score: inf
ROOT
ATOM      1  C   UNL     1      19.371  22.042  10.761  1.00  0.00     0.000 C 
ENDROOT
BRANCH   1   2
ATOM      2  C   UNL     1      17.938  22.251  11.277  1.00  0.00     0.000 C 
BRANCH   2   3
ATOM      3  C   UNL     1      16.875  21.866  10.233  1.00  0.00     0.000 C 
BRANCH   3   4
ATOM      4  C   UNL     1      17.494  21.349   8.922  1.00  0.00     0.000 C 
BRANCH   4   5
ATOM      5  C   UNL     1      17.067  22.182   7.700  1.00  0.00     0.000 C 
BRANCH   5   6
ATOM      6  C   UNL     1      18.057  23.314   7.382  1.00  0.00     0.000 C 
BRANCH   6   7
ATOM      7  C   UNL     1      17.428  24.711   7.529  1.00  0.00     0.006 C 
BRANCH   7   8
ATOM      8  C   UNL     1      17.634  25.293   8.934  1.00  0.00     0.053 C 
BRANCH   8   9
ATOM      9  C   UNL     1      18.162  26.694   8.885  1.00  0.00     0.041 C 
ATOM     10  O   UNL     1      17.371  27.672   8.940  1.00  0.00    -0.550 OA
ATOM     11  O   UNL     1      19.531  26.920   8.808  1.00  0.00    -0.550 OA
ENDBRANCH   8   9
ENDBRANCH   7   8
ENDBRANCH   6   7
ENDBRANCH   5   6
ENDBRANCH   4   5
ENDBRANCH   3   4
ENDBRANCH   2   3
ENDBRANCH   1   2
BRANCH   1  12
ATOM     12  C   UNL     1      20.175  23.353  10.696  1.00  0.00     0.000 C 
BRANCH  12  13
ATOM     13  C   UNL     1      21.361  23.270   9.711  1.00  0.00    -0.000 C 
BRANCH  13  14
ATOM     14  C   UNL     1      21.226  22.138   8.675  1.00  0.00    -0.000 C 
BRANCH  14  15
ATOM     15  C   UNL     1      21.705  22.499   7.256  1.00  0.00    -0.000 C 
BRANCH  15  16
ATOM     16  C   UNL     1      21.744  21.321   6.260  1.00  0.00    -0.000 C 
BRANCH  16  17
ATOM     17  C   UNL     1      20.654  21.346   5.174  1.00  0.00    -0.000 C 
BRANCH  17  18
ATOM     18  C   UNL     1      19.453  20.449   5.510  1.00  0.00    -0.000 C 
BRANCH  18  19
ATOM     19  C   UNL     1      19.884  19.252   6.366  1.00  0.00    -0.003 C 
ATOM     20  C   UNL     1      18.675  18.480   6.883  1.00  0.00     0.004 C 
ENDBRANCH  18  19
ENDBRANCH  17  18
ENDBRANCH  16  17
ENDBRANCH  15  16
ENDBRANCH  14  15
ENDBRANCH  13  14
ENDBRANCH  12  13
ENDBRANCH   1  12
TORSDOF 16
ENDMDL
MODEL 6
REMARK VINA RESULT:    -4.545      2.330      3.747
REMARK INTER + INTRA:         -12.015
REMARK INTER:                  -9.434
REMARK INTRA:                  -2.582
REMARK UNBOUND:                -3.219
REMARK SMILES CCCCCCCCCCCCCCCCCC(=O)[O-]
REMARK SMILES IDX 10 1 11 2 12 3 13 4 14 5 15 6 16 7 17 8 18 9 19 10 20 11
REMARK SMILES IDX 9 12 8 13 7 14 6 15 5 16 4 17 3 18 2 19 1 20
REMARK H PARENT
REMARK Flexibility Score: inf
ROOT
ATOM      1  C   UNL     1      19.731  22.463  10.296  1.00  0.00     0.000 C 
ENDROOT
BRANCH   1   2
ATOM      2  C   UNL     1      21.069  23.185  10.519  1.00  0.00     0.000 C 
BRANCH   2   3
ATOM      3  C   UNL     1      22.125  22.804   9.466  1.00  0.00     0.000 C 
BRANCH   3   4
ATOM      4  C   UNL     1      21.570  21.856   8.389  1.00  0.00     0.000 C 
BRANCH   4   5
ATOM      5  C   UNL     1      21.667  22.452   6.973  1.00  0.00     0.000 C 
BRANCH   5   6
ATOM      6  C   UNL     1      21.605  21.377   5.876  1.00  0.00     0.000 C 
BRANCH   6   7
ATOM      7  C   UNL     1      22.327  20.078   6.276  1.00  0.00     0.006 C 
BRANCH   7   8
ATOM      8  C   UNL     1      23.044  19.425   5.088  1.00  0.00     0.053 C 
BRANCH   8   9
ATOM      9  C   UNL     1      23.646  18.103   5.458  1.00  0.00     0.041 C 
ATOM     10  O   UNL     1      22.904  17.128   5.747  1.00  0.00    -0.550 OA
ATOM     11  O   UNL     1      25.025  17.941   5.454  1.00  0.00    -0.550 OA
ENDBRANCH   8   9
ENDBRANCH   7   8
ENDBRANCH   6   7
ENDBRANCH   5   6
ENDBRANCH   4   5
ENDBRANCH   3   4
ENDBRANCH   2   3
ENDBRANCH   1   2
BRANCH   1  12
ATOM     12  C   UNL     1      18.529  23.425  10.302  1.00  0.00     0.000 C 
BRANCH  12  13
ATOM     13  C   UNL     1      18.920  24.858   9.881  1.00  0.00    -0.000 C 
BRANCH  13  14
ATOM     14  C   UNL     1      18.706  25.143   8.381  1.00  0.00    -0.000 C 
BRANCH  14  15
ATOM     15  C   UNL     1      17.253  24.988   7.894  1.00  0.00    -0.000 C 
BRANCH  15  16
ATOM     16  C   UNL     1      17.032  23.884   6.839  1.00  0.00    -0.000 C 
BRANCH  16  17
ATOM     17  C   UNL     1      18.276  23.043   6.501  1.00  0.00    -0.000 C 
BRANCH  17  18
ATOM     18  C   UNL     1      17.939  21.582   6.168  1.00  0.00    -0.000 C 
BRANCH  18  19
ATOM     19  C   UNL     1      17.660  20.779   7.444  1.00  0.00    -0.003 C 
ATOM     20  C   UNL     1      18.730  19.716   7.671  1.00  0.00     0.004 C 
ENDBRANCH  18  19
ENDBRANCH  17  18
ENDBRANCH  16  17
ENDBRANCH  15  16
ENDBRANCH  14  15
ENDBRANCH  13  14
ENDBRANCH  12  13
ENDBRANCH   1  12
TORSDOF 16
ENDMDL
MODEL 7
REMARK VINA RESULT:    -4.526      3.862      5.442
REMARK INTER + INTRA:         -11.978
REMARK INTER:                  -9.293
REMARK INTRA:                  -2.686
REMARK UNBOUND:                -3.219
REMARK SMILES CCCCCCCCCCCCCCCCCC(=O)[O-]
REMARK SMILES IDX 10 1 11 2 12 3 13 4 14 5 15 6 16 7 17 8 18 9 19 10 20 11
REMARK SMILES IDX 9 12 8 13 7 14 6 15 5 16 4 17 3 18 2 19 1 20
REMARK H PARENT
REMARK Flexibility Score: inf
ROOT
ATOM      1  C   UNL     1      21.718  23.171   9.552  1.00  0.00     0.000 C 
ENDROOT
BRANCH   1   2
ATOM      2  C   UNL     1      20.618  23.287  10.620  1.00  0.00     0.000 C 
BRANCH   2   3
ATOM      3  C   UNL     1      19.496  22.253  10.422  1.00  0.00     0.000 C 
BRANCH   3   4
ATOM      4  C   UNL     1      18.164  22.699  11.049  1.00  0.00     0.000 C 
BRANCH   4   5
ATOM      5  C   UNL     1      17.023  22.777  10.017  1.00  0.00     0.000 C 
BRANCH   5   6
ATOM      6  C   UNL     1      17.535  22.725   8.568  1.00  0.00     0.000 C 
BRANCH   6   7
ATOM      7  C   UNL     1      17.415  24.081   7.848  1.00  0.00     0.006 C 
BRANCH   7   8
ATOM      8  C   UNL     1      18.611  24.997   8.138  1.00  0.00     0.053 C 
BRANCH   8   9
ATOM      9  C   UNL     1      18.199  26.231   8.882  1.00  0.00     0.041 C 
ATOM     10  O   UNL     1      19.035  27.145   9.105  1.00  0.00    -0.550 OA
ATOM     11  O   UNL     1      16.884  26.384   9.302  1.00  0.00    -0.550 OA
ENDBRANCH   8   9
ENDBRANCH   7   8
ENDBRANCH   6   7
ENDBRANCH   5   6
ENDBRANCH   4   5
ENDBRANCH   3   4
ENDBRANCH   2   3
ENDBRANCH   1   2
BRANCH   1  12
ATOM     12  C   UNL     1      21.517  21.960   8.623  1.00  0.00     0.000 C 
BRANCH  12  13
ATOM     13  C   UNL     1      21.297  22.375   7.153  1.00  0.00    -0.000 C 
BRANCH  13  14
ATOM     14  C   UNL     1      20.346  21.441   6.381  1.00  0.00    -0.000 C 
BRANCH  14  15
ATOM     15  C   UNL     1      19.759  20.285   7.213  1.00  0.00    -0.000 C 
BRANCH  15  16
ATOM     16  C   UNL     1      19.684  18.927   6.484  1.00  0.00    -0.000 C 
BRANCH  16  17
ATOM     17  C   UNL     1      20.793  18.680   5.447  1.00  0.00    -0.000 C 
BRANCH  17  18
ATOM     18  C   UNL     1      21.913  17.769   5.974  1.00  0.00    -0.000 C 
BRANCH  18  19
ATOM     19  C   UNL     1      23.278  18.456   5.859  1.00  0.00    -0.003 C 
ATOM     20  C   UNL     1      23.520  19.401   7.032  1.00  0.00     0.004 C 
ENDBRANCH  18  19
ENDBRANCH  17  18
ENDBRANCH  16  17
ENDBRANCH  15  16
ENDBRANCH  14  15
ENDBRANCH  13  14
ENDBRANCH  12  13
ENDBRANCH   1  12
TORSDOF 16
ENDMDL
MODEL 8
REMARK VINA RESULT:    -4.489      2.114      4.474
REMARK INTER + INTRA:         -11.907
REMARK INTER:                  -9.749
REMARK INTRA:                  -2.158
REMARK UNBOUND:                -3.219
REMARK SMILES CCCCCCCCCCCCCCCCCC(=O)[O-]
REMARK SMILES IDX 10 1 11 2 12 3 13 4 14 5 15 6 16 7 17 8 18 9 19 10 20 11
REMARK SMILES IDX 9 12 8 13 7 14 6 15 5 16 4 17 3 18 2 19 1 20
REMARK H PARENT
REMARK Flexibility Score: inf
ROOT
ATOM      1  C   UNL     1      17.229  24.549   8.369  1.00  0.00     0.000 C 
ENDROOT
BRANCH   1   2
ATOM      2  C   UNL     1      17.415  24.239   6.875  1.00  0.00     0.000 C 
BRANCH   2   3
ATOM      3  C   UNL     1      17.831  22.779   6.625  1.00  0.00     0.000 C 
BRANCH   3   4
ATOM      4  C   UNL     1      19.125  22.666   5.801  1.00  0.00     0.000 C 
BRANCH   4   5
ATOM      5  C   UNL     1      20.313  22.152   6.635  1.00  0.00     0.000 C 
BRANCH   5   6
ATOM      6  C   UNL     1      21.478  21.658   5.761  1.00  0.00     0.000 C 
BRANCH   6   7
ATOM      7  C   UNL     1      21.694  20.138   5.864  1.00  0.00     0.006 C 
BRANCH   7   8
ATOM      8  C   UNL     1      22.960  19.683   5.127  1.00  0.00     0.053 C 
BRANCH   8   9
ATOM      9  C   UNL     1      23.445  18.353   5.620  1.00  0.00     0.041 C 
ATOM     10  O   UNL     1      24.642  18.007   5.437  1.00  0.00    -0.550 OA
ATOM     11  O   UNL     1      22.581  17.509   6.306  1.00  0.00    -0.550 OA
ENDBRANCH   8   9
ENDBRANCH   7   8
ENDBRANCH   6   7
ENDBRANCH   5   6
ENDBRANCH   4   5
ENDBRANCH   3   4
ENDBRANCH   2   3
ENDBRANCH   1   2
BRANCH   1  12
ATOM     12  C   UNL     1      18.030  25.782   8.823  1.00  0.00     0.000 C 
BRANCH  12  13
ATOM     13  C   UNL     1      19.126  25.429   9.852  1.00  0.00    -0.000 C 
BRANCH  13  14
ATOM     14  C   UNL     1      20.114  24.354   9.359  1.00  0.00    -0.000 C 
BRANCH  14  15
ATOM     15  C   UNL     1      20.421  23.242  10.379  1.00  0.00    -0.000 C 
BRANCH  15  16
ATOM     16  C   UNL     1      19.207  22.391  10.804  1.00  0.00    -0.000 C 
BRANCH  16  17
ATOM     17  C   UNL     1      18.774  21.316   9.791  1.00  0.00    -0.000 C 
BRANCH  17  18
ATOM     18  C   UNL     1      17.389  20.727  10.098  1.00  0.00    -0.000 C 
BRANCH  18  19
ATOM     19  C   UNL     1      17.073  19.553   9.165  1.00  0.00    -0.003 C 
ATOM     20  C   UNL     1      18.029  19.521   7.976  1.00  0.00     0.004 C 
ENDBRANCH  18  19
ENDBRANCH  17  18
ENDBRANCH  16  17
ENDBRANCH  15  16
ENDBRANCH  14  15
ENDBRANCH  13  14
ENDBRANCH  12  13
ENDBRANCH   1  12
TORSDOF 16
ENDMDL
MODEL 9
REMARK VINA RESULT:    -4.485      2.207      4.003
REMARK INTER + INTRA:         -11.899
REMARK INTER:                  -9.225
REMARK INTRA:                  -2.674
REMARK UNBOUND:                -3.219
REMARK SMILES CCCCCCCCCCCCCCCCCC(=O)[O-]
REMARK SMILES IDX 10 1 11 2 12 3 13 4 14 5 15 6 16 7 17 8 18 9 19 10 20 11
REMARK SMILES IDX 9 12 8 13 7 14 6 15 5 16 4 17 3 18 2 19 1 20
REMARK H PARENT
REMARK Flexibility Score: inf
ROOT
ATOM      1  C   UNL     1      18.106  20.941   9.831  1.00  0.00     0.000 C 
ENDROOT
BRANCH   1   2
ATOM      2  C   UNL     1      17.967  20.462   8.377  1.00  0.00     0.000 C 
BRANCH   2   3
ATOM      3  C   UNL     1      16.875  21.227   7.608  1.00  0.00     0.000 C 
BRANCH   3   4
ATOM      4  C   UNL     1      17.455  22.192   6.560  1.00  0.00     0.000 C 
BRANCH   4   5
ATOM      5  C   UNL     1      18.298  21.467   5.494  1.00  0.00     0.000 C 
BRANCH   5   6
ATOM      6  C   UNL     1      19.748  21.973   5.444  1.00  0.00     0.000 C 
BRANCH   6   7
ATOM      7  C   UNL     1      20.622  21.175   4.461  1.00  0.00     0.006 C 
BRANCH   7   8
ATOM      8  C   UNL     1      22.087  21.109   4.911  1.00  0.00     0.053 C 
BRANCH   8   9
ATOM      9  C   UNL     1      22.450  19.750   5.430  1.00  0.00     0.041 C 
ATOM     10  O   UNL     1      23.622  19.311   5.292  1.00  0.00    -0.550 OA
ATOM     11  O   UNL     1      21.501  18.981   6.091  1.00  0.00    -0.550 OA
ENDBRANCH   8   9
ENDBRANCH   7   8
ENDBRANCH   6   7
ENDBRANCH   5   6
ENDBRANCH   4   5
ENDBRANCH   3   4
ENDBRANCH   2   3
ENDBRANCH   1   2
BRANCH   1  12
ATOM     12  C   UNL     1      16.891  21.759  10.304  1.00  0.00     0.000 C 
BRANCH  12  13
ATOM     13  C   UNL     1      17.253  22.756  11.427  1.00  0.00    -0.000 C 
BRANCH  13  14
ATOM     14  C   UNL     1      17.059  24.232  11.031  1.00  0.00    -0.000 C 
BRANCH  14  15
ATOM     15  C   UNL     1      17.010  24.494   9.514  1.00  0.00    -0.000 C 
BRANCH  15  16
ATOM     16  C   UNL     1      18.016  25.545   9.000  1.00  0.00    -0.000 C 
BRANCH  16  17
ATOM     17  C   UNL     1      19.499  25.186   9.203  1.00  0.00    -0.000 C 
BRANCH  17  18
ATOM     18  C   UNL     1      19.961  24.023   8.312  1.00  0.00    -0.000 C 
BRANCH  18  19
ATOM     19  C   UNL     1      20.885  23.074   9.085  1.00  0.00    -0.003 C 
ATOM     20  C   UNL     1      20.973  23.467  10.556  1.00  0.00     0.004 C 
ENDBRANCH  18  19
ENDBRANCH  17  18
ENDBRANCH  16  17
ENDBRANCH  15  16
ENDBRANCH  14  15
ENDBRANCH  13  14
ENDBRANCH  12  13
ENDBRANCH   1  12
TORSDOF 16
ENDMDL
