MODEL 1
REMARK VINA RESULT:    -6.778      0.000      0.000
REMARK INTER + INTRA:          -8.589
REMARK INTER:                  -8.165
REMARK INTRA:                  -0.424
REMARK UNBOUND:                -0.424
REMARK SMILES O=c1c(O)c(-c2ccc(O)cc2O)oc2cc(O)cc(O)c12
REMARK SMILES IDX 5 1 3 2 2 3 1 4 22 5 20 6 19 7 17 8 16 9 15 10 14 11 6 12
REMARK SMILES IDX 8 13 7 14 9 15 11 16 12 17 10 18 13 20 4 22 21 24 18 26
REMARK H PARENT 10 19 13 21 4 23 21 25 18 27
REMARK Flexibility Score: inf
ROOT
ATOM      1  C   UNL     1      36.106  55.148 -35.446  1.00  0.00     0.184 A 
ATOM      2  C   UNL     1      36.056  53.794 -35.063  1.00  0.00     0.208 A 
ATOM      3  C   UNL     1      34.959  53.341 -34.314  1.00  0.00     0.238 A 
ATOM      4  O   UNL     1      34.908  52.132 -33.958  1.00  0.00    -0.285 OA
ATOM      5  C   UNL     1      33.927  54.240 -33.976  1.00  0.00     0.111 A 
ATOM      6  C   UNL     1      32.786  53.863 -33.228  1.00  0.00     0.134 A 
ATOM      7  C   UNL     1      31.798  54.817 -32.939  1.00  0.00     0.093 A 
ATOM      8  C   UNL     1      31.930  56.137 -33.384  1.00  0.00     0.123 A 
ATOM      9  C   UNL     1      33.053  56.513 -34.122  1.00  0.00     0.094 A 
ATOM     10  C   UNL     1      34.050  55.579 -34.419  1.00  0.00     0.146 A 
ATOM     11  O   UNL     1      35.109  55.965 -35.119  1.00  0.00    -0.451 OA
ENDROOT
BRANCH   1  12
ATOM     12  C   UNL     1      37.243  55.698 -36.221  1.00  0.00     0.063 A 
ATOM     13  C   UNL     1      38.391  56.014 -38.343  1.00  0.00     0.047 A 
ATOM     14  C   UNL     1      37.307  55.520 -37.615  1.00  0.00     0.020 A 
ATOM     15  C   UNL     1      39.431  56.682 -37.692  1.00  0.00     0.119 A 
ATOM     16  C   UNL     1      39.385  56.852 -36.303  1.00  0.00     0.093 A 
ATOM     17  C   UNL     1      38.298  56.361 -35.564  1.00  0.00     0.130 A 
BRANCH  15  18
ATOM     18  O   UNL     1      40.506  57.169 -38.432  1.00  0.00    -0.508 OA
ATOM     19  H   UNL     1      40.657  56.891 -39.394  1.00  0.00     0.293 HD
ENDBRANCH  15  18
BRANCH  17  20
ATOM     20  O   UNL     1      38.261  56.543 -34.180  1.00  0.00    -0.507 OA
ATOM     21  H   UNL     1      38.184  57.465 -33.768  1.00  0.00     0.293 HD
ENDBRANCH  17  20
ENDBRANCH   1  12
BRANCH   2  22
ATOM     22  O   UNL     1      37.074  52.916 -35.446  1.00  0.00    -0.502 OA
ATOM     23  H   UNL     1      37.394  52.164 -34.849  1.00  0.00     0.293 HD
ENDBRANCH   2  22
BRANCH   6  24
ATOM     24  O   UNL     1      32.626  52.554 -32.772  1.00  0.00    -0.507 OA
ATOM     25  H   UNL     1      31.837  51.984 -33.053  1.00  0.00     0.293 HD
ENDBRANCH   6  24
BRANCH   8  26
ATOM     26  O   UNL     1      30.947  57.083 -33.098  1.00  0.00    -0.508 OA
ATOM     27  H   UNL     1      30.169  56.871 -32.487  1.00  0.00     0.293 HD
ENDBRANCH   8  26
TORSDOF 6
ENDMDL
MODEL 2
REMARK VINA RESULT:    -6.773      1.580      2.712
REMARK INTER + INTRA:          -8.583
REMARK INTER:                  -8.331
REMARK INTRA:                  -0.251
REMARK UNBOUND:                -0.424
REMARK SMILES O=c1c(O)c(-c2ccc(O)cc2O)oc2cc(O)cc(O)c12
REMARK SMILES IDX 5 1 3 2 2 3 1 4 22 5 20 6 19 7 17 8 16 9 15 10 14 11 6 12
REMARK SMILES IDX 8 13 7 14 9 15 11 16 12 17 10 18 13 20 4 22 21 24 18 26
REMARK H PARENT 10 19 13 21 4 23 21 25 18 27
REMARK Flexibility Score: inf
ROOT
ATOM      1  C   UNL     1      35.652  55.444 -35.040  1.00  0.00     0.184 A 
ATOM      2  C   UNL     1      34.348  55.830 -35.405  1.00  0.00     0.208 A 
ATOM      3  C   UNL     1      33.276  55.463 -34.577  1.00  0.00     0.238 A 
ATOM      4  O   UNL     1      32.102  55.796 -34.899  1.00  0.00    -0.285 OA
ATOM      5  C   UNL     1      33.524  54.734 -33.396  1.00  0.00     0.111 A 
ATOM      6  C   UNL     1      32.500  54.329 -32.506  1.00  0.00     0.134 A 
ATOM      7  C   UNL     1      32.831  53.613 -31.346  1.00  0.00     0.093 A 
ATOM      8  C   UNL     1      34.163  53.295 -31.060  1.00  0.00     0.123 A 
ATOM      9  C   UNL     1      35.176  53.691 -31.935  1.00  0.00     0.094 A 
ATOM     10  C   UNL     1      34.868  54.406 -33.097  1.00  0.00     0.146 A 
ATOM     11  O   UNL     1      35.850  54.766 -33.913  1.00  0.00    -0.451 OA
ENDROOT
BRANCH   1  12
ATOM     12  C   UNL     1      36.828  55.781 -35.875  1.00  0.00     0.063 A 
ATOM     13  C   UNL     1      37.947  55.790 -38.036  1.00  0.00     0.047 A 
ATOM     14  C   UNL     1      36.828  55.498 -37.253  1.00  0.00     0.020 A 
ATOM     15  C   UNL     1      39.084  56.356 -37.456  1.00  0.00     0.119 A 
ATOM     16  C   UNL     1      39.101  56.629 -36.083  1.00  0.00     0.093 A 
ATOM     17  C   UNL     1      37.980  56.341 -35.289  1.00  0.00     0.130 A 
BRANCH  15  18
ATOM     18  O   UNL     1      40.193  56.642 -38.250  1.00  0.00    -0.508 OA
ATOM     19  H   UNL     1      40.855  57.365 -37.995  1.00  0.00     0.293 HD
ENDBRANCH  15  18
BRANCH  17  20
ATOM     20  O   UNL     1      38.007  56.623 -33.922  1.00  0.00    -0.507 OA
ATOM     21  H   UNL     1      37.155  56.746 -33.388  1.00  0.00     0.293 HD
ENDBRANCH  17  20
ENDBRANCH   1  12
BRANCH   2  22
ATOM     22  O   UNL     1      34.135  56.586 -36.560  1.00  0.00    -0.502 OA
ATOM     23  H   UNL     1      33.208  56.831 -36.884  1.00  0.00     0.293 HD
ENDBRANCH   2  22
BRANCH   6  24
ATOM     24  O   UNL     1      31.163  54.633 -32.763  1.00  0.00    -0.507 OA
ATOM     25  H   UNL     1      30.771  55.543 -32.550  1.00  0.00     0.293 HD
ENDBRANCH   6  24
BRANCH   8  26
ATOM     26  O   UNL     1      34.491  52.584 -29.907  1.00  0.00    -0.508 OA
ATOM     27  H   UNL     1      34.021  51.720 -29.666  1.00  0.00     0.293 HD
ENDBRANCH   8  26
TORSDOF 6
ENDMDL
MODEL 3
REMARK VINA RESULT:    -5.954      1.749      3.296
REMARK INTER + INTRA:          -7.597
REMARK INTER:                  -7.147
REMARK INTRA:                  -0.450
REMARK UNBOUND:                -0.424
REMARK SMILES O=c1c(O)c(-c2ccc(O)cc2O)oc2cc(O)cc(O)c12
REMARK SMILES IDX 5 1 3 2 2 3 1 4 22 5 20 6 19 7 17 8 16 9 15 10 14 11 6 12
REMARK SMILES IDX 8 13 7 14 9 15 11 16 12 17 10 18 13 20 4 22 21 24 18 26
REMARK H PARENT 10 19 13 21 4 23 21 25 18 27
REMARK Flexibility Score: inf
ROOT
ATOM      1  C   UNL     1      34.398  55.669 -34.768  1.00  0.00     0.184 A 
ATOM      2  C   UNL     1      33.381  56.582 -35.104  1.00  0.00     0.208 A 
ATOM      3  C   UNL     1      32.080  56.352 -34.630  1.00  0.00     0.238 A 
ATOM      4  O   UNL     1      31.158  57.159 -34.932  1.00  0.00    -0.285 OA
ATOM      5  C   UNL     1      31.821  55.227 -33.820  1.00  0.00     0.111 A 
ATOM      6  C   UNL     1      30.540  54.926 -33.299  1.00  0.00     0.134 A 
ATOM      7  C   UNL     1      30.366  53.791 -32.493  1.00  0.00     0.093 A 
ATOM      8  C   UNL     1      31.448  52.954 -32.198  1.00  0.00     0.123 A 
ATOM      9  C   UNL     1      32.714  53.247 -32.710  1.00  0.00     0.094 A 
ATOM     10  C   UNL     1      32.907  54.373 -33.516  1.00  0.00     0.146 A 
ATOM     11  O   UNL     1      34.121  54.625 -33.992  1.00  0.00    -0.451 OA
ENDROOT
BRANCH   1  12
ATOM     12  C   UNL     1      35.789  55.839 -35.248  1.00  0.00     0.063 A 
ATOM     13  C   UNL     1      37.491  55.487 -36.952  1.00  0.00     0.047 A 
ATOM     14  C   UNL     1      36.173  55.350 -36.510  1.00  0.00     0.020 A 
ATOM     15  C   UNL     1      38.446  56.099 -36.138  1.00  0.00     0.119 A 
ATOM     16  C   UNL     1      38.080  56.577 -34.874  1.00  0.00     0.093 A 
ATOM     17  C   UNL     1      36.757  56.447 -34.423  1.00  0.00     0.130 A 
BRANCH  15  18
ATOM     18  O   UNL     1      39.757  56.227 -36.592  1.00  0.00    -0.508 OA
ATOM     19  H   UNL     1      40.106  57.102 -36.965  1.00  0.00     0.293 HD
ENDBRANCH  15  18
BRANCH  17  20
ATOM     20  O   UNL     1      36.402  56.933 -33.163  1.00  0.00    -0.507 OA
ATOM     21  H   UNL     1      36.490  56.363 -32.331  1.00  0.00     0.293 HD
ENDBRANCH  17  20
ENDBRANCH   1  12
BRANCH   2  22
ATOM     22  O   UNL     1      33.673  57.709 -35.875  1.00  0.00    -0.502 OA
ATOM     23  H   UNL     1      34.128  58.527 -35.490  1.00  0.00     0.293 HD
ENDBRANCH   2  22
BRANCH   6  24
ATOM     24  O   UNL     1      29.442  55.743 -33.574  1.00  0.00    -0.507 OA
ATOM     25  H   UNL     1      28.890  56.161 -32.835  1.00  0.00     0.293 HD
ENDBRANCH   6  24
BRANCH   8  26
ATOM     26  O   UNL     1      31.276  51.827 -31.396  1.00  0.00    -0.508 OA
ATOM     27  H   UNL     1      30.956  51.902 -30.439  1.00  0.00     0.293 HD
ENDBRANCH   8  26
TORSDOF 6
ENDMDL
MODEL 4
REMARK VINA RESULT:    -5.673      2.927      6.549
REMARK INTER + INTRA:          -7.258
REMARK INTER:                  -6.781
REMARK INTRA:                  -0.477
REMARK UNBOUND:                -0.424
REMARK SMILES O=c1c(O)c(-c2ccc(O)cc2O)oc2cc(O)cc(O)c12
REMARK SMILES IDX 5 1 3 2 2 3 1 4 22 5 20 6 19 7 17 8 16 9 15 10 14 11 6 12
REMARK SMILES IDX 8 13 7 14 9 15 11 16 12 17 10 18 13 20 4 22 21 24 18 26
REMARK H PARENT 10 19 13 21 4 23 21 25 18 27
REMARK Flexibility Score: inf
ROOT
ATOM      1  C   UNL     1      34.662  54.883 -36.613  1.00  0.00     0.184 A 
ATOM      2  C   UNL     1      34.752  55.241 -35.255  1.00  0.00     0.208 A 
ATOM      3  C   UNL     1      35.949  55.797 -34.778  1.00  0.00     0.238 A 
ATOM      4  O   UNL     1      36.044  56.113 -33.560  1.00  0.00    -0.285 OA
ATOM      5  C   UNL     1      37.025  56.001 -35.665  1.00  0.00     0.111 A 
ATOM      6  C   UNL     1      38.263  56.559 -35.266  1.00  0.00     0.134 A 
ATOM      7  C   UNL     1      39.283  56.737 -36.213  1.00  0.00     0.093 A 
ATOM      8  C   UNL     1      39.088  56.368 -37.549  1.00  0.00     0.123 A 
ATOM      9  C   UNL     1      37.869  55.817 -37.947  1.00  0.00     0.094 A 
ATOM     10  C   UNL     1      36.840  55.631 -37.019  1.00  0.00     0.146 A 
ATOM     11  O   UNL     1      35.693  55.101 -37.424  1.00  0.00    -0.451 OA
ENDROOT
BRANCH   1  12
ATOM     12  C   UNL     1      33.436  54.276 -37.180  1.00  0.00     0.063 A 
ATOM     13  C   UNL     1      32.033  52.324 -37.566  1.00  0.00     0.047 A 
ATOM     14  C   UNL     1      33.175  52.904 -37.009  1.00  0.00     0.020 A 
ATOM     15  C   UNL     1      31.143  53.099 -38.312  1.00  0.00     0.119 A 
ATOM     16  C   UNL     1      31.399  54.462 -38.502  1.00  0.00     0.093 A 
ATOM     17  C   UNL     1      32.542  55.054 -37.943  1.00  0.00     0.130 A 
BRANCH  15  18
ATOM     18  O   UNL     1      30.009  52.507 -38.863  1.00  0.00    -0.508 OA
ATOM     19  H   UNL     1      29.915  52.370 -39.862  1.00  0.00     0.293 HD
ENDBRANCH  15  18
BRANCH  17  20
ATOM     20  O   UNL     1      32.784  56.416 -38.135  1.00  0.00    -0.507 OA
ATOM     21  H   UNL     1      32.277  57.123 -37.616  1.00  0.00     0.293 HD
ENDBRANCH  17  20
ENDBRANCH   1  12
BRANCH   2  22
ATOM     22  O   UNL     1      33.656  55.065 -34.406  1.00  0.00    -0.502 OA
ATOM     23  H   UNL     1      33.232  54.159 -34.249  1.00  0.00     0.293 HD
ENDBRANCH   2  22
BRANCH   6  24
ATOM     24  O   UNL     1      38.487  56.937 -33.942  1.00  0.00    -0.507 OA
ATOM     25  H   UNL     1      39.182  57.633 -33.696  1.00  0.00     0.293 HD
ENDBRANCH   6  24
BRANCH   8  26
ATOM     26  O   UNL     1      40.101  56.546 -38.489  1.00  0.00    -0.508 OA
ATOM     27  H   UNL     1      39.984  56.264 -39.454  1.00  0.00     0.293 HD
ENDBRANCH   8  26
TORSDOF 6
ENDMDL
MODEL 5
REMARK VINA RESULT:    -5.521      1.641      2.407
REMARK INTER + INTRA:          -7.075
REMARK INTER:                  -6.642
REMARK INTRA:                  -0.434
REMARK UNBOUND:                -0.424
REMARK SMILES O=c1c(O)c(-c2ccc(O)cc2O)oc2cc(O)cc(O)c12
REMARK SMILES IDX 5 1 3 2 2 3 1 4 22 5 20 6 19 7 17 8 16 9 15 10 14 11 6 12
REMARK SMILES IDX 8 13 7 14 9 15 11 16 12 17 10 18 13 20 4 22 21 24 18 26
REMARK H PARENT 10 19 13 21 4 23 21 25 18 27
REMARK Flexibility Score: inf
ROOT
ATOM      1  C   UNL     1      34.293  55.600 -34.676  1.00  0.00     0.184 A 
ATOM      2  C   UNL     1      33.820  54.365 -34.192  1.00  0.00     0.208 A 
ATOM      3  C   UNL     1      32.499  54.281 -33.725  1.00  0.00     0.238 A 
ATOM      4  O   UNL     1      32.068  53.181 -33.282  1.00  0.00    -0.285 OA
ATOM      5  C   UNL     1      31.672  55.422 -33.763  1.00  0.00     0.111 A 
ATOM      6  C   UNL     1      30.330  55.420 -33.315  1.00  0.00     0.134 A 
ATOM      7  C   UNL     1      29.568  56.596 -33.394  1.00  0.00     0.093 A 
ATOM      8  C   UNL     1      30.124  57.771 -33.912  1.00  0.00     0.123 A 
ATOM      9  C   UNL     1      31.448  57.778 -34.354  1.00  0.00     0.094 A 
ATOM     10  C   UNL     1      32.224  56.617 -34.283  1.00  0.00     0.146 A 
ATOM     11  O   UNL     1      33.481  56.653 -34.708  1.00  0.00    -0.451 OA
ENDROOT
BRANCH   1  12
ATOM     12  C   UNL     1      35.680  55.766 -35.167  1.00  0.00     0.063 A 
ATOM     13  C   UNL     1      37.376  55.375 -36.869  1.00  0.00     0.047 A 
ATOM     14  C   UNL     1      36.061  55.243 -36.416  1.00  0.00     0.020 A 
ATOM     15  C   UNL     1      38.331  56.018 -36.079  1.00  0.00     0.119 A 
ATOM     16  C   UNL     1      37.968  56.529 -34.828  1.00  0.00     0.093 A 
ATOM     17  C   UNL     1      36.648  56.404 -34.366  1.00  0.00     0.130 A 
BRANCH  15  18
ATOM     18  O   UNL     1      39.639  56.141 -36.544  1.00  0.00    -0.508 OA
ATOM     19  H   UNL     1      40.300  56.770 -36.104  1.00  0.00     0.293 HD
ENDBRANCH  15  18
BRANCH  17  20
ATOM     20  O   UNL     1      36.297  56.924 -33.119  1.00  0.00    -0.507 OA
ATOM     21  H   UNL     1      36.537  56.447 -32.258  1.00  0.00     0.293 HD
ENDBRANCH  17  20
ENDBRANCH   1  12
BRANCH   2  22
ATOM     22  O   UNL     1      34.649  53.241 -34.203  1.00  0.00    -0.502 OA
ATOM     23  H   UNL     1      35.558  53.241 -34.651  1.00  0.00     0.293 HD
ENDBRANCH   2  22
BRANCH   6  24
ATOM     24  O   UNL     1      29.747  54.263 -32.796  1.00  0.00    -0.507 OA
ATOM     25  H   UNL     1      30.105  53.813 -31.962  1.00  0.00     0.293 HD
ENDBRANCH   6  24
BRANCH   8  26
ATOM     26  O   UNL     1      29.368  58.939 -33.991  1.00  0.00    -0.508 OA
ATOM     27  H   UNL     1      28.392  58.958 -33.720  1.00  0.00     0.293 HD
ENDBRANCH   8  26
TORSDOF 6
ENDMDL
MODEL 6
REMARK VINA RESULT:    -5.445      2.775      4.807
REMARK INTER + INTRA:          -6.984
REMARK INTER:                  -6.502
REMARK INTRA:                  -0.482
REMARK UNBOUND:                -0.424
REMARK SMILES O=c1c(O)c(-c2ccc(O)cc2O)oc2cc(O)cc(O)c12
REMARK SMILES IDX 5 1 3 2 2 3 1 4 22 5 20 6 19 7 17 8 16 9 15 10 14 11 6 12
REMARK SMILES IDX 8 13 7 14 9 15 11 16 12 17 10 18 13 20 4 22 21 24 18 26
REMARK H PARENT 10 19 13 21 4 23 21 25 18 27
REMARK Flexibility Score: inf
ROOT
ATOM      1  C   UNL     1      33.331  54.367 -32.818  1.00  0.00     0.184 A 
ATOM      2  C   UNL     1      32.011  54.643 -33.219  1.00  0.00     0.208 A 
ATOM      3  C   UNL     1      30.953  53.980 -32.577  1.00  0.00     0.238 A 
ATOM      4  O   UNL     1      29.767  54.213 -32.935  1.00  0.00    -0.285 OA
ATOM      5  C   UNL     1      31.231  53.067 -31.540  1.00  0.00     0.111 A 
ATOM      6  C   UNL     1      30.224  52.360 -30.840  1.00  0.00     0.134 A 
ATOM      7  C   UNL     1      30.582  51.474 -29.813  1.00  0.00     0.093 A 
ATOM      8  C   UNL     1      31.926  51.283 -29.473  1.00  0.00     0.123 A 
ATOM      9  C   UNL     1      32.922  51.977 -30.160  1.00  0.00     0.094 A 
ATOM     10  C   UNL     1      32.587  52.864 -31.187  1.00  0.00     0.146 A 
ATOM     11  O   UNL     1      33.556  53.508 -31.827  1.00  0.00    -0.451 OA
ENDROOT
BRANCH   1  12
ATOM     12  C   UNL     1      34.495  55.017 -33.463  1.00  0.00     0.063 A 
ATOM     13  C   UNL     1      36.064  55.175 -35.317  1.00  0.00     0.047 A 
ATOM     14  C   UNL     1      34.949  54.580 -34.720  1.00  0.00     0.020 A 
ATOM     15  C   UNL     1      36.748  56.202 -34.664  1.00  0.00     0.119 A 
ATOM     16  C   UNL     1      36.314  56.635 -33.405  1.00  0.00     0.093 A 
ATOM     17  C   UNL     1      35.194  56.046 -32.799  1.00  0.00     0.130 A 
BRANCH  15  18
ATOM     18  O   UNL     1      37.858  56.785 -35.271  1.00  0.00    -0.508 OA
ATOM     19  H   UNL     1      38.787  56.691 -34.878  1.00  0.00     0.293 HD
ENDBRANCH  15  18
BRANCH  17  20
ATOM     20  O   UNL     1      34.767  56.491 -31.547  1.00  0.00    -0.507 OA
ATOM     21  H   UNL     1      34.090  55.973 -31.002  1.00  0.00     0.293 HD
ENDBRANCH  17  20
ENDBRANCH   1  12
BRANCH   2  22
ATOM     22  O   UNL     1      31.762  55.582 -34.223  1.00  0.00    -0.502 OA
ATOM     23  H   UNL     1      32.464  55.848 -34.903  1.00  0.00     0.293 HD
ENDBRANCH   2  22
BRANCH   6  24
ATOM     24  O   UNL     1      28.875  52.530 -31.155  1.00  0.00    -0.507 OA
ATOM     25  H   UNL     1      28.473  52.151 -32.004  1.00  0.00     0.293 HD
ENDBRANCH   6  24
BRANCH   8  26
ATOM     26  O   UNL     1      32.281  50.403 -28.452  1.00  0.00    -0.508 OA
ATOM     27  H   UNL     1      31.850  49.491 -28.364  1.00  0.00     0.293 HD
ENDBRANCH   8  26
TORSDOF 6
ENDMDL
MODEL 7
REMARK VINA RESULT:    -5.290      2.128      3.192
REMARK INTER + INTRA:          -6.797
REMARK INTER:                  -6.421
REMARK INTRA:                  -0.376
REMARK UNBOUND:                -0.424
REMARK SMILES O=c1c(O)c(-c2ccc(O)cc2O)oc2cc(O)cc(O)c12
REMARK SMILES IDX 5 1 3 2 2 3 1 4 22 5 20 6 19 7 17 8 16 9 15 10 14 11 6 12
REMARK SMILES IDX 8 13 7 14 9 15 11 16 12 17 10 18 13 20 4 22 21 24 18 26
REMARK H PARENT 10 19 13 21 4 23 21 25 18 27
REMARK Flexibility Score: inf
ROOT
ATOM      1  C   UNL     1      34.654  54.746 -33.465  1.00  0.00     0.184 A 
ATOM      2  C   UNL     1      34.771  54.354 -32.118  1.00  0.00     0.208 A 
ATOM      3  C   UNL     1      33.637  53.861 -31.454  1.00  0.00     0.238 A 
ATOM      4  O   UNL     1      33.728  53.515 -30.245  1.00  0.00    -0.285 OA
ATOM      5  C   UNL     1      32.415  53.754 -32.149  1.00  0.00     0.111 A 
ATOM      6  C   UNL     1      31.227  53.264 -31.554  1.00  0.00     0.134 A 
ATOM      7  C   UNL     1      30.052  53.180 -32.316  1.00  0.00     0.093 A 
ATOM      8  C   UNL     1      30.042  53.576 -33.658  1.00  0.00     0.123 A 
ATOM      9  C   UNL     1      31.211  54.060 -34.248  1.00  0.00     0.094 A 
ATOM     10  C   UNL     1      32.393  54.152 -33.506  1.00  0.00     0.146 A 
ATOM     11  O   UNL     1      33.488  54.620 -34.092  1.00  0.00    -0.451 OA
ENDROOT
BRANCH   1  12
ATOM     12  C   UNL     1      35.805  55.292 -34.222  1.00  0.00     0.063 A 
ATOM     13  C   UNL     1      37.522  56.991 -34.514  1.00  0.00     0.047 A 
ATOM     14  C   UNL     1      36.454  56.461 -33.786  1.00  0.00     0.020 A 
ATOM     15  C   UNL     1      37.949  56.372 -35.691  1.00  0.00     0.119 A 
ATOM     16  C   UNL     1      37.301  55.216 -36.142  1.00  0.00     0.093 A 
ATOM     17  C   UNL     1      36.229  54.674 -35.415  1.00  0.00     0.130 A 
BRANCH  15  18
ATOM     18  O   UNL     1      39.015  56.913 -36.406  1.00  0.00    -0.508 OA
ATOM     19  H   UNL     1      39.458  56.405 -37.162  1.00  0.00     0.293 HD
ENDBRANCH  15  18
BRANCH  17  20
ATOM     20  O   UNL     1      35.595  53.517 -35.872  1.00  0.00    -0.507 OA
ATOM     21  H   UNL     1      35.255  52.810 -35.232  1.00  0.00     0.293 HD
ENDBRANCH  17  20
ENDBRANCH   1  12
BRANCH   2  22
ATOM     22  O   UNL     1      36.004  54.434 -31.466  1.00  0.00    -0.502 OA
ATOM     23  H   UNL     1      36.632  53.643 -31.395  1.00  0.00     0.293 HD
ENDBRANCH   2  22
BRANCH   6  24
ATOM     24  O   UNL     1      31.205  52.860 -30.219  1.00  0.00    -0.507 OA
ATOM     25  H   UNL     1      32.000  52.998 -29.606  1.00  0.00     0.293 HD
ENDBRANCH   6  24
BRANCH   8  26
ATOM     26  O   UNL     1      28.875  53.492 -34.415  1.00  0.00    -0.508 OA
ATOM     27  H   UNL     1      28.895  53.525 -35.427  1.00  0.00     0.293 HD
ENDBRANCH   8  26
TORSDOF 6
ENDMDL
MODEL 8
REMARK VINA RESULT:    -5.232      3.182      4.501
REMARK INTER + INTRA:          -6.727
REMARK INTER:                  -6.295
REMARK INTRA:                  -0.432
REMARK UNBOUND:                -0.424
REMARK SMILES O=c1c(O)c(-c2ccc(O)cc2O)oc2cc(O)cc(O)c12
REMARK SMILES IDX 5 1 3 2 2 3 1 4 22 5 20 6 19 7 17 8 16 9 15 10 14 11 6 12
REMARK SMILES IDX 8 13 7 14 9 15 11 16 12 17 10 18 13 20 4 22 21 24 18 26
REMARK H PARENT 10 19 13 21 4 23 21 25 18 27
REMARK Flexibility Score: inf
ROOT
ATOM      1  C   UNL     1      34.417  53.276 -32.172  1.00  0.00     0.184 A 
ATOM      2  C   UNL     1      35.098  52.282 -31.445  1.00  0.00     0.208 A 
ATOM      3  C   UNL     1      34.380  51.505 -30.522  1.00  0.00     0.238 A 
ATOM      4  O   UNL     1      34.982  50.617 -29.858  1.00  0.00    -0.285 OA
ATOM      5  C   UNL     1      32.997  51.722 -30.354  1.00  0.00     0.111 A 
ATOM      6  C   UNL     1      32.201  50.980 -29.449  1.00  0.00     0.134 A 
ATOM      7  C   UNL     1      30.829  51.252 -29.346  1.00  0.00     0.093 A 
ATOM      8  C   UNL     1      30.239  52.250 -30.131  1.00  0.00     0.123 A 
ATOM      9  C   UNL     1      31.020  52.984 -31.024  1.00  0.00     0.094 A 
ATOM     10  C   UNL     1      32.390  52.729 -31.141  1.00  0.00     0.146 A 
ATOM     11  O   UNL     1      33.109  53.446 -31.996  1.00  0.00    -0.451 OA
ENDROOT
BRANCH   1  12
ATOM     12  C   UNL     1      35.114  54.145 -33.148  1.00  0.00     0.063 A 
ATOM     13  C   UNL     1      36.132  54.466 -35.336  1.00  0.00     0.047 A 
ATOM     14  C   UNL     1      35.450  53.657 -34.424  1.00  0.00     0.020 A 
ATOM     15  C   UNL     1      36.499  55.767 -34.985  1.00  0.00     0.119 A 
ATOM     16  C   UNL     1      36.183  56.259 -33.713  1.00  0.00     0.093 A 
ATOM     17  C   UNL     1      35.496  55.454 -32.791  1.00  0.00     0.130 A 
BRANCH  15  18
ATOM     18  O   UNL     1      37.180  56.562 -35.904  1.00  0.00    -0.508 OA
ATOM     19  H   UNL     1      37.468  57.506 -35.677  1.00  0.00     0.293 HD
ENDBRANCH  15  18
BRANCH  17  20
ATOM     20  O   UNL     1      35.181  55.958 -31.528  1.00  0.00    -0.507 OA
ATOM     21  H   UNL     1      35.762  55.767 -30.720  1.00  0.00     0.293 HD
ENDBRANCH  17  20
ENDBRANCH   1  12
BRANCH   2  22
ATOM     22  O   UNL     1      36.460  52.062 -31.660  1.00  0.00    -0.502 OA
ATOM     23  H   UNL     1      37.038  51.551 -31.003  1.00  0.00     0.293 HD
ENDBRANCH   2  22
BRANCH   6  24
ATOM     24  O   UNL     1      32.760  49.978 -28.655  1.00  0.00    -0.507 OA
ATOM     25  H   UNL     1      32.523  49.002 -28.783  1.00  0.00     0.293 HD
ENDBRANCH   6  24
BRANCH   8  26
ATOM     26  O   UNL     1      28.875  52.519 -30.029  1.00  0.00    -0.508 OA
ATOM     27  H   UNL     1      28.206  51.791 -29.807  1.00  0.00     0.293 HD
ENDBRANCH   8  26
TORSDOF 6
ENDMDL
MODEL 9
REMARK VINA RESULT:    -5.011     10.268     12.814
REMARK INTER + INTRA:          -6.461
REMARK INTER:                  -6.026
REMARK INTRA:                  -0.435
REMARK UNBOUND:                -0.424
REMARK SMILES O=c1c(O)c(-c2ccc(O)cc2O)oc2cc(O)cc(O)c12
REMARK SMILES IDX 5 1 3 2 2 3 1 4 22 5 20 6 19 7 17 8 16 9 15 10 14 11 6 12
REMARK SMILES IDX 8 13 7 14 9 15 11 16 12 17 10 18 13 20 4 22 21 24 18 26
REMARK H PARENT 10 19 13 21 4 23 21 25 18 27
REMARK Flexibility Score: inf
ROOT
ATOM      1  C   UNL     1      41.102  53.514 -25.781  1.00  0.00     0.184 A 
ATOM      2  C   UNL     1      41.478  54.186 -24.603  1.00  0.00     0.208 A 
ATOM      3  C   UNL     1      42.795  54.657 -24.482  1.00  0.00     0.238 A 
ATOM      4  O   UNL     1      43.145  55.253 -23.427  1.00  0.00    -0.285 OA
ATOM      5  C   UNL     1      43.705  54.463 -25.541  1.00  0.00     0.111 A 
ATOM      6  C   UNL     1      45.047  54.910 -25.499  1.00  0.00     0.134 A 
ATOM      7  C   UNL     1      45.889  54.686 -26.599  1.00  0.00     0.093 A 
ATOM      8  C   UNL     1      45.414  54.024 -27.737  1.00  0.00     0.123 A 
ATOM      9  C   UNL     1      44.091  53.581 -27.782  1.00  0.00     0.094 A 
ATOM     10  C   UNL     1      43.236  53.794 -26.696  1.00  0.00     0.146 A 
ATOM     11  O   UNL     1      41.984  53.359 -26.765  1.00  0.00    -0.451 OA
ENDROOT
BRANCH   1  12
ATOM     12  C   UNL     1      39.735  52.975 -25.970  1.00  0.00     0.063 A 
ATOM     13  C   UNL     1      37.988  51.395 -25.359  1.00  0.00     0.047 A 
ATOM     14  C   UNL     1      39.267  51.922 -25.163  1.00  0.00     0.020 A 
ATOM     15  C   UNL     1      37.165  51.900 -26.367  1.00  0.00     0.119 A 
ATOM     16  C   UNL     1      37.626  52.938 -27.185  1.00  0.00     0.093 A 
ATOM     17  C   UNL     1      38.908  53.476 -26.995  1.00  0.00     0.130 A 
BRANCH  15  18
ATOM     18  O   UNL     1      35.892  51.363 -26.550  1.00  0.00    -0.508 OA
ATOM     19  H   UNL     1      35.247  51.749 -27.229  1.00  0.00     0.293 HD
ENDBRANCH  15  18
BRANCH  17  20
ATOM     20  O   UNL     1      39.354  54.515 -27.813  1.00  0.00    -0.507 OA
ATOM     21  H   UNL     1      40.320  54.819 -27.807  1.00  0.00     0.293 HD
ENDBRANCH  17  20
ENDBRANCH   1  12
BRANCH   2  22
ATOM     22  O   UNL     1      40.544  54.399 -23.586  1.00  0.00    -0.502 OA
ATOM     23  H   UNL     1      39.900  55.180 -23.596  1.00  0.00     0.293 HD
ENDBRANCH   2  22
BRANCH   6  24
ATOM     24  O   UNL     1      45.550  55.574 -24.380  1.00  0.00    -0.507 OA
ATOM     25  H   UNL     1      46.425  56.084 -24.410  1.00  0.00     0.293 HD
ENDBRANCH   6  24
BRANCH   8  26
ATOM     26  O   UNL     1      46.250  53.802 -28.830  1.00  0.00    -0.508 OA
ATOM     27  H   UNL     1      46.135  54.311 -29.697  1.00  0.00     0.293 HD
ENDBRANCH   8  26
TORSDOF 6
ENDMDL
