MODEL 1
REMARK VINA RESULT:    -6.720      0.000      0.000
REMARK INTER + INTRA:         -13.956
REMARK INTER:                 -13.005
REMARK INTRA:                  -0.951
REMARK UNBOUND:                -0.951
REMARK SMILES CCCCCCCCCCCCCCCCCC(=O)[O-]
REMARK SMILES IDX 10 1 11 2 12 3 13 4 14 5 15 6 16 7 17 8 18 9 19 10 20 11
REMARK SMILES IDX 9 12 8 13 7 14 6 15 5 16 4 17 3 18 2 19 1 20
REMARK H PARENT
REMARK Flexibility Score: inf
ROOT
ATOM      1  C   UNL     1      32.515  -8.573  21.752  1.00  0.00     0.000 C 
ENDROOT
BRANCH   1   2
ATOM      2  C   UNL     1      33.905  -8.511  21.096  1.00  0.00     0.000 C 
BRANCH   2   3
ATOM      3  C   UNL     1      34.145  -9.668  20.109  1.00  0.00     0.000 C 
BRANCH   3   4
ATOM      4  C   UNL     1      35.536 -10.298  20.277  1.00  0.00     0.000 C 
BRANCH   4   5
ATOM      5  C   UNL     1      36.285  -9.756  21.509  1.00  0.00     0.000 C 
BRANCH   5   6
ATOM      6  C   UNL     1      37.627 -10.482  21.737  1.00  0.00     0.000 C 
BRANCH   6   7
ATOM      7  C   UNL     1      37.952 -11.530  20.659  1.00  0.00     0.006 C 
BRANCH   7   8
ATOM      8  C   UNL     1      39.448 -11.850  20.566  1.00  0.00     0.053 C 
BRANCH   8   9
ATOM      9  C   UNL     1      39.776 -13.055  21.388  1.00  0.00     0.041 C 
ATOM     10  O   UNL     1      39.355 -14.191  21.047  1.00  0.00    -0.550 OA
ATOM     11  O   UNL     1      40.509 -12.917  22.562  1.00  0.00    -0.550 OA
ENDBRANCH   8   9
ENDBRANCH   7   8
ENDBRANCH   6   7
ENDBRANCH   5   6
ENDBRANCH   4   5
ENDBRANCH   3   4
ENDBRANCH   2   3
ENDBRANCH   1   2
BRANCH   1  12
ATOM     12  C   UNL     1      31.445  -9.160  20.820  1.00  0.00     0.000 C 
BRANCH  12  13
ATOM     13  C   UNL     1      30.035  -8.774  21.294  1.00  0.00    -0.000 C 
BRANCH  13  14
ATOM     14  C   UNL     1      29.553  -9.634  22.473  1.00  0.00    -0.000 C 
BRANCH  14  15
ATOM     15  C   UNL     1      28.353 -10.523  22.104  1.00  0.00    -0.000 C 
BRANCH  15  16
ATOM     16  C   UNL     1      27.673 -10.090  20.793  1.00  0.00    -0.000 C 
BRANCH  16  17
ATOM     17  C   UNL     1      26.863 -11.196  20.086  1.00  0.00    -0.000 C 
BRANCH  17  18
ATOM     18  C   UNL     1      27.519 -12.592  20.088  1.00  0.00    -0.000 C 
BRANCH  18  19
ATOM     19  C   UNL     1      27.355 -13.384  18.779  1.00  0.00    -0.003 C 
ATOM     20  C   UNL     1      26.325 -12.766  17.834  1.00  0.00     0.004 C 
ENDBRANCH  18  19
ENDBRANCH  17  18
ENDBRANCH  16  17
ENDBRANCH  15  16
ENDBRANCH  14  15
ENDBRANCH  13  14
ENDBRANCH  12  13
ENDBRANCH   1  12
TORSDOF 16
ENDMDL
MODEL 2
REMARK VINA RESULT:    -6.673      1.404      1.949
REMARK INTER + INTRA:         -13.865
REMARK INTER:                 -12.760
REMARK INTRA:                  -1.104
REMARK UNBOUND:                -0.951
REMARK SMILES CCCCCCCCCCCCCCCCCC(=O)[O-]
REMARK SMILES IDX 10 1 11 2 12 3 13 4 14 5 15 6 16 7 17 8 18 9 19 10 20 11
REMARK SMILES IDX 9 12 8 13 7 14 6 15 5 16 4 17 3 18 2 19 1 20
REMARK H PARENT
REMARK Flexibility Score: inf
ROOT
ATOM      1  C   UNL     1      33.493  -8.687  21.027  1.00  0.00     0.000 C 
ENDROOT
BRANCH   1   2
ATOM      2  C   UNL     1      33.731  -7.168  21.038  1.00  0.00     0.000 C 
BRANCH   2   3
ATOM      3  C   UNL     1      34.712  -6.731  22.141  1.00  0.00     0.000 C 
BRANCH   3   4
ATOM      4  C   UNL     1      34.917  -7.821  23.204  1.00  0.00     0.000 C 
BRANCH   4   5
ATOM      5  C   UNL     1      36.391  -8.241  23.342  1.00  0.00     0.000 C 
BRANCH   5   6
ATOM      6  C   UNL     1      36.935  -8.887  22.050  1.00  0.00     0.000 C 
BRANCH   6   7
ATOM      7  C   UNL     1      37.100 -10.414  22.149  1.00  0.00     0.006 C 
BRANCH   7   8
ATOM      8  C   UNL     1      37.357 -11.076  20.791  1.00  0.00     0.053 C 
BRANCH   8   9
ATOM      9  C   UNL     1      38.727 -11.675  20.752  1.00  0.00     0.041 C 
ATOM     10  O   UNL     1      39.639 -11.130  20.076  1.00  0.00    -0.550 OA
ATOM     11  O   UNL     1      38.986 -12.863  21.425  1.00  0.00    -0.550 OA
ENDBRANCH   8   9
ENDBRANCH   7   8
ENDBRANCH   6   7
ENDBRANCH   5   6
ENDBRANCH   4   5
ENDBRANCH   3   4
ENDBRANCH   2   3
ENDBRANCH   1   2
BRANCH   1  12
ATOM     12  C   UNL     1      32.004  -9.054  20.957  1.00  0.00     0.000 C 
BRANCH  12  13
ATOM     13  C   UNL     1      31.186  -8.219  21.954  1.00  0.00    -0.000 C 
BRANCH  13  14
ATOM     14  C   UNL     1      29.678  -8.502  21.863  1.00  0.00    -0.000 C 
BRANCH  14  15
ATOM     15  C   UNL     1      29.357  -9.720  20.979  1.00  0.00    -0.000 C 
BRANCH  15  16
ATOM     16  C   UNL     1      28.212 -10.579  21.543  1.00  0.00    -0.000 C 
BRANCH  16  17
ATOM     17  C   UNL     1      27.420 -11.377  20.487  1.00  0.00    -0.000 C 
BRANCH  17  18
ATOM     18  C   UNL     1      28.009 -12.757  20.132  1.00  0.00    -0.000 C 
BRANCH  18  19
ATOM     19  C   UNL     1      27.470 -13.374  18.829  1.00  0.00    -0.003 C 
ATOM     20  C   UNL     1      26.263 -12.622  18.270  1.00  0.00     0.004 C 
ENDBRANCH  18  19
ENDBRANCH  17  18
ENDBRANCH  16  17
ENDBRANCH  15  16
ENDBRANCH  14  15
ENDBRANCH  13  14
ENDBRANCH  12  13
ENDBRANCH   1  12
TORSDOF 16
ENDMDL
MODEL 3
REMARK VINA RESULT:    -6.601      7.374      9.209
REMARK INTER + INTRA:         -13.726
REMARK INTER:                 -11.574
REMARK INTRA:                  -2.152
REMARK UNBOUND:                -0.951
REMARK SMILES CCCCCCCCCCCCCCCCCC(=O)[O-]
REMARK SMILES IDX 10 1 11 2 12 3 13 4 14 5 15 6 16 7 17 8 18 9 19 10 20 11
REMARK SMILES IDX 9 12 8 13 7 14 6 15 5 16 4 17 3 18 2 19 1 20
REMARK H PARENT
REMARK Flexibility Score: inf
ROOT
ATOM      1  C   UNL     1      27.173  -7.223  22.198  1.00  0.00     0.000 C 
ENDROOT
BRANCH   1   2
ATOM      2  C   UNL     1      26.072  -6.680  21.273  1.00  0.00     0.000 C 
BRANCH   2   3
ATOM      3  C   UNL     1      25.463  -7.771  20.375  1.00  0.00     0.000 C 
BRANCH   3   4
ATOM      4  C   UNL     1      25.865  -7.605  18.902  1.00  0.00     0.000 C 
BRANCH   4   5
ATOM      5  C   UNL     1      26.160  -6.140  18.532  1.00  0.00     0.000 C 
BRANCH   5   6
ATOM      6  C   UNL     1      27.654  -5.908  18.223  1.00  0.00     0.000 C 
BRANCH   6   7
ATOM      7  C   UNL     1      28.073  -4.428  18.288  1.00  0.00     0.006 C 
BRANCH   7   8
ATOM      8  C   UNL     1      28.570  -4.008  19.675  1.00  0.00     0.053 C 
BRANCH   8   9
ATOM      9  C   UNL     1      27.474  -3.337  20.441  1.00  0.00     0.041 C 
ATOM     10  O   UNL     1      26.486  -2.845  19.836  1.00  0.00    -0.550 OA
ATOM     11  O   UNL     1      27.568  -3.211  21.822  1.00  0.00    -0.550 OA
ENDBRANCH   8   9
ENDBRANCH   7   8
ENDBRANCH   6   7
ENDBRANCH   5   6
ENDBRANCH   4   5
ENDBRANCH   3   4
ENDBRANCH   2   3
ENDBRANCH   1   2
BRANCH   1  12
ATOM     12  C   UNL     1      28.573  -7.126  21.574  1.00  0.00     0.000 C 
BRANCH  12  13
ATOM     13  C   UNL     1      29.037  -8.496  21.054  1.00  0.00    -0.000 C 
BRANCH  13  14
ATOM     14  C   UNL     1      29.195  -9.531  22.179  1.00  0.00    -0.000 C 
BRANCH  14  15
ATOM     15  C   UNL     1      28.155 -10.661  22.093  1.00  0.00    -0.000 C 
BRANCH  15  16
ATOM     16  C   UNL     1      27.934 -11.157  20.653  1.00  0.00    -0.000 C 
BRANCH  16  17
ATOM     17  C   UNL     1      26.489 -11.020  20.134  1.00  0.00    -0.000 C 
BRANCH  17  18
ATOM     18  C   UNL     1      25.890 -12.299  19.515  1.00  0.00    -0.000 C 
BRANCH  18  19
ATOM     19  C   UNL     1      26.385 -12.622  18.094  1.00  0.00    -0.003 C 
ATOM     20  C   UNL     1      27.373 -13.787  18.059  1.00  0.00     0.004 C 
ENDBRANCH  18  19
ENDBRANCH  17  18
ENDBRANCH  16  17
ENDBRANCH  15  16
ENDBRANCH  14  15
ENDBRANCH  13  14
ENDBRANCH  12  13
ENDBRANCH   1  12
TORSDOF 16
ENDMDL
MODEL 4
REMARK VINA RESULT:    -6.596      2.467      3.071
REMARK INTER + INTRA:         -13.716
REMARK INTER:                 -12.714
REMARK INTRA:                  -1.002
REMARK UNBOUND:                -0.951
REMARK SMILES CCCCCCCCCCCCCCCCCC(=O)[O-]
REMARK SMILES IDX 10 1 11 2 12 3 13 4 14 5 15 6 16 7 17 8 18 9 19 10 20 11
REMARK SMILES IDX 9 12 8 13 7 14 6 15 5 16 4 17 3 18 2 19 1 20
REMARK H PARENT
REMARK Flexibility Score: inf
ROOT
ATOM      1  C   UNL     1      32.285  -8.569  21.500  1.00  0.00     0.000 C 
ENDROOT
BRANCH   1   2
ATOM      2  C   UNL     1      32.155  -9.274  20.140  1.00  0.00     0.000 C 
BRANCH   2   3
ATOM      3  C   UNL     1      33.508  -9.769  19.599  1.00  0.00     0.000 C 
BRANCH   3   4
ATOM      4  C   UNL     1      34.649  -9.563  20.607  1.00  0.00     0.000 C 
BRANCH   4   5
ATOM      5  C   UNL     1      35.843 -10.499  20.347  1.00  0.00     0.000 C 
BRANCH   5   6
ATOM      6  C   UNL     1      37.002 -10.251  21.335  1.00  0.00     0.000 C 
BRANCH   6   7
ATOM      7  C   UNL     1      36.878  -8.926  22.108  1.00  0.00     0.006 C 
BRANCH   7   8
ATOM      8  C   UNL     1      38.102  -8.625  22.980  1.00  0.00     0.053 C 
BRANCH   8   9
ATOM      9  C   UNL     1      37.677  -8.076  24.305  1.00  0.00     0.041 C 
ATOM     10  O   UNL     1      37.445  -8.853  25.269  1.00  0.00    -0.550 OA
ATOM     11  O   UNL     1      37.489  -6.709  24.463  1.00  0.00    -0.550 OA
ENDBRANCH   8   9
ENDBRANCH   7   8
ENDBRANCH   6   7
ENDBRANCH   5   6
ENDBRANCH   4   5
ENDBRANCH   3   4
ENDBRANCH   2   3
ENDBRANCH   1   2
BRANCH   1  12
ATOM     12  C   UNL     1      30.947  -8.016  22.012  1.00  0.00     0.000 C 
BRANCH  12  13
ATOM     13  C   UNL     1      29.765  -8.764  21.377  1.00  0.00    -0.000 C 
BRANCH  13  14
ATOM     14  C   UNL     1      28.651  -9.075  22.389  1.00  0.00    -0.000 C 
BRANCH  14  15
ATOM     15  C   UNL     1      28.059 -10.482  22.201  1.00  0.00    -0.000 C 
BRANCH  15  16
ATOM     16  C   UNL     1      28.243 -11.019  20.771  1.00  0.00    -0.000 C 
BRANCH  16  17
ATOM     17  C   UNL     1      27.019 -10.844  19.849  1.00  0.00    -0.000 C 
BRANCH  17  18
ATOM     18  C   UNL     1      26.116 -12.087  19.716  1.00  0.00    -0.000 C 
BRANCH  18  19
ATOM     19  C   UNL     1      26.172 -12.783  18.345  1.00  0.00    -0.003 C 
ATOM     20  C   UNL     1      27.361 -13.732  18.207  1.00  0.00     0.004 C 
ENDBRANCH  18  19
ENDBRANCH  17  18
ENDBRANCH  16  17
ENDBRANCH  15  16
ENDBRANCH  14  15
ENDBRANCH  13  14
ENDBRANCH  12  13
ENDBRANCH   1  12
TORSDOF 16
ENDMDL
MODEL 5
REMARK VINA RESULT:    -6.517      5.167     10.130
REMARK INTER + INTRA:         -13.562
REMARK INTER:                 -12.519
REMARK INTRA:                  -1.044
REMARK UNBOUND:                -0.951
REMARK SMILES CCCCCCCCCCCCCCCCCC(=O)[O-]
REMARK SMILES IDX 10 1 11 2 12 3 13 4 14 5 15 6 16 7 17 8 18 9 19 10 20 11
REMARK SMILES IDX 9 12 8 13 7 14 6 15 5 16 4 17 3 18 2 19 1 20
REMARK H PARENT
REMARK Flexibility Score: inf
ROOT
ATOM      1  C   UNL     1      30.636  -9.201  22.138  1.00  0.00     0.000 C 
ENDROOT
BRANCH   1   2
ATOM      2  C   UNL     1      29.673  -9.686  21.043  1.00  0.00     0.000 C 
BRANCH   2   3
ATOM      3  C   UNL     1      28.326 -10.167  21.610  1.00  0.00     0.000 C 
BRANCH   3   4
ATOM      4  C   UNL     1      27.640 -11.192  20.694  1.00  0.00     0.000 C 
BRANCH   4   5
ATOM      5  C   UNL     1      26.407 -10.612  19.978  1.00  0.00     0.000 C 
BRANCH   5   6
ATOM      6  C   UNL     1      26.284  -9.087  20.177  1.00  0.00     0.000 C 
BRANCH   6   7
ATOM      7  C   UNL     1      26.315  -8.290  18.861  1.00  0.00     0.006 C 
BRANCH   7   8
ATOM      8  C   UNL     1      27.552  -7.394  18.733  1.00  0.00     0.053 C 
BRANCH   8   9
ATOM      9  C   UNL     1      27.152  -5.954  18.696  1.00  0.00     0.041 C 
ATOM     10  O   UNL     1      27.871  -5.111  18.097  1.00  0.00    -0.550 OA
ATOM     11  O   UNL     1      26.010  -5.531  19.365  1.00  0.00    -0.550 OA
ENDBRANCH   8   9
ENDBRANCH   7   8
ENDBRANCH   6   7
ENDBRANCH   5   6
ENDBRANCH   4   5
ENDBRANCH   3   4
ENDBRANCH   2   3
ENDBRANCH   1   2
BRANCH   1  12
ATOM     12  C   UNL     1      32.001  -8.773  21.581  1.00  0.00     0.000 C 
BRANCH  12  13
ATOM     13  C   UNL     1      32.184  -9.266  20.138  1.00  0.00    -0.000 C 
BRANCH  13  14
ATOM     14  C   UNL     1      33.653  -9.239  19.686  1.00  0.00    -0.000 C 
BRANCH  14  15
ATOM     15  C   UNL     1      34.574 -10.039  20.624  1.00  0.00    -0.000 C 
BRANCH  15  16
ATOM     16  C   UNL     1      35.676  -9.172  21.256  1.00  0.00    -0.000 C 
BRANCH  16  17
ATOM     17  C   UNL     1      36.974  -9.927  21.607  1.00  0.00    -0.000 C 
BRANCH  17  18
ATOM     18  C   UNL     1      37.359 -11.058  20.631  1.00  0.00    -0.000 C 
BRANCH  18  19
ATOM     19  C   UNL     1      38.504 -11.966  21.113  1.00  0.00    -0.003 C 
ATOM     20  C   UNL     1      39.849 -11.614  20.479  1.00  0.00     0.004 C 
ENDBRANCH  18  19
ENDBRANCH  17  18
ENDBRANCH  16  17
ENDBRANCH  15  16
ENDBRANCH  14  15
ENDBRANCH  13  14
ENDBRANCH  12  13
ENDBRANCH   1  12
TORSDOF 16
ENDMDL
MODEL 6
REMARK VINA RESULT:    -6.502      5.400      9.903
REMARK INTER + INTRA:         -13.534
REMARK INTER:                 -11.846
REMARK INTRA:                  -1.688
REMARK UNBOUND:                -0.951
REMARK SMILES CCCCCCCCCCCCCCCCCC(=O)[O-]
REMARK SMILES IDX 10 1 11 2 12 3 13 4 14 5 15 6 16 7 17 8 18 9 19 10 20 11
REMARK SMILES IDX 9 12 8 13 7 14 6 15 5 16 4 17 3 18 2 19 1 20
REMARK H PARENT
REMARK Flexibility Score: inf
ROOT
ATOM      1  C   UNL     1      30.515  -8.976  20.941  1.00  0.00     0.000 C 
ENDROOT
BRANCH   1   2
ATOM      2  C   UNL     1      29.827  -9.619  22.156  1.00  0.00     0.000 C 
BRANCH   2   3
ATOM      3  C   UNL     1      28.293  -9.610  22.040  1.00  0.00     0.000 C 
BRANCH   3   4
ATOM      4  C   UNL     1      27.756 -10.853  21.315  1.00  0.00     0.000 C 
BRANCH   4   5
ATOM      5  C   UNL     1      26.813 -10.497  20.152  1.00  0.00     0.000 C 
BRANCH   5   6
ATOM      6  C   UNL     1      26.353  -9.025  20.207  1.00  0.00     0.000 C 
BRANCH   6   7
ATOM      7  C   UNL     1      26.478  -8.290  18.861  1.00  0.00     0.006 C 
BRANCH   7   8
ATOM      8  C   UNL     1      27.695  -7.362  18.797  1.00  0.00     0.053 C 
BRANCH   8   9
ATOM      9  C   UNL     1      27.260  -5.934  18.717  1.00  0.00     0.041 C 
ATOM     10  O   UNL     1      27.909  -5.110  18.020  1.00  0.00    -0.550 OA
ATOM     11  O   UNL     1      26.163  -5.498  19.451  1.00  0.00    -0.550 OA
ENDBRANCH   8   9
ENDBRANCH   7   8
ENDBRANCH   6   7
ENDBRANCH   5   6
ENDBRANCH   4   5
ENDBRANCH   3   4
ENDBRANCH   2   3
ENDBRANCH   1   2
BRANCH   1  12
ATOM     12  C   UNL     1      32.022  -8.769  21.152  1.00  0.00     0.000 C 
BRANCH  12  13
ATOM     13  C   UNL     1      32.823  -9.328  19.967  1.00  0.00    -0.000 C 
BRANCH  13  14
ATOM     14  C   UNL     1      34.329  -9.422  20.264  1.00  0.00    -0.000 C 
BRANCH  14  15
ATOM     15  C   UNL     1      34.636  -9.401  21.771  1.00  0.00    -0.000 C 
BRANCH  15  16
ATOM     16  C   UNL     1      35.874  -8.554  22.114  1.00  0.00    -0.000 C 
BRANCH  16  17
ATOM     17  C   UNL     1      35.729  -7.671  23.370  1.00  0.00    -0.000 C 
BRANCH  17  18
ATOM     18  C   UNL     1      35.394  -6.191  23.096  1.00  0.00    -0.000 C 
BRANCH  18  19
ATOM     19  C   UNL     1      33.936  -5.924  22.683  1.00  0.00    -0.003 C 
ATOM     20  C   UNL     1      33.804  -5.449  21.237  1.00  0.00     0.004 C 
ENDBRANCH  18  19
ENDBRANCH  17  18
ENDBRANCH  16  17
ENDBRANCH  15  16
ENDBRANCH  14  15
ENDBRANCH  13  14
ENDBRANCH  12  13
ENDBRANCH   1  12
TORSDOF 16
ENDMDL
MODEL 7
REMARK VINA RESULT:    -6.491      1.986      2.448
REMARK INTER + INTRA:         -13.514
REMARK INTER:                 -12.474
REMARK INTRA:                  -1.039
REMARK UNBOUND:                -0.951
REMARK SMILES CCCCCCCCCCCCCCCCCC(=O)[O-]
REMARK SMILES IDX 10 1 11 2 12 3 13 4 14 5 15 6 16 7 17 8 18 9 19 10 20 11
REMARK SMILES IDX 9 12 8 13 7 14 6 15 5 16 4 17 3 18 2 19 1 20
REMARK H PARENT
REMARK Flexibility Score: inf
ROOT
ATOM      1  C   UNL     1      31.620  -9.256  20.522  1.00  0.00     0.000 C 
ENDROOT
BRANCH   1   2
ATOM      2  C   UNL     1      33.131  -9.231  20.242  1.00  0.00     0.000 C 
BRANCH   2   3
ATOM      3  C   UNL     1      33.917  -8.444  21.306  1.00  0.00     0.000 C 
BRANCH   3   4
ATOM      4  C   UNL     1      35.341  -8.987  21.499  1.00  0.00     0.000 C 
BRANCH   4   5
ATOM      5  C   UNL     1      35.656 -10.166  20.561  1.00  0.00     0.000 C 
BRANCH   5   6
ATOM      6  C   UNL     1      37.009 -10.830  20.895  1.00  0.00     0.000 C 
BRANCH   6   7
ATOM      7  C   UNL     1      37.684 -10.251  22.150  1.00  0.00     0.006 C 
BRANCH   7   8
ATOM      8  C   UNL     1      39.181  -9.986  21.957  1.00  0.00     0.053 C 
BRANCH   8   9
ATOM      9  C   UNL     1      39.669  -8.987  22.956  1.00  0.00     0.041 C 
ATOM     10  O   UNL     1      40.797  -9.128  23.496  1.00  0.00    -0.550 OA
ATOM     11  O   UNL     1      38.856  -7.922  23.328  1.00  0.00    -0.550 OA
ENDBRANCH   8   9
ENDBRANCH   7   8
ENDBRANCH   6   7
ENDBRANCH   5   6
ENDBRANCH   4   5
ENDBRANCH   3   4
ENDBRANCH   2   3
ENDBRANCH   1   2
BRANCH   1  12
ATOM     12  C   UNL     1      31.254  -8.610  21.866  1.00  0.00     0.000 C 
BRANCH  12  13
ATOM     13  C   UNL     1      30.003  -7.729  21.728  1.00  0.00    -0.000 C 
BRANCH  13  14
ATOM     14  C   UNL     1      28.777  -8.331  22.433  1.00  0.00    -0.000 C 
BRANCH  14  15
ATOM     15  C   UNL     1      27.952  -9.242  21.508  1.00  0.00    -0.000 C 
BRANCH  15  16
ATOM     16  C   UNL     1      28.139 -10.737  21.825  1.00  0.00    -0.000 C 
BRANCH  16  17
ATOM     17  C   UNL     1      28.003 -11.679  20.611  1.00  0.00    -0.000 C 
BRANCH  17  18
ATOM     18  C   UNL     1      26.590 -11.761  20.000  1.00  0.00    -0.000 C 
BRANCH  18  19
ATOM     19  C   UNL     1      26.538 -12.318  18.566  1.00  0.00    -0.003 C 
ATOM     20  C   UNL     1      26.919 -13.795  18.488  1.00  0.00     0.004 C 
ENDBRANCH  18  19
ENDBRANCH  17  18
ENDBRANCH  16  17
ENDBRANCH  15  16
ENDBRANCH  14  15
ENDBRANCH  13  14
ENDBRANCH  12  13
ENDBRANCH   1  12
TORSDOF 16
ENDMDL
MODEL 8
REMARK VINA RESULT:    -6.440      4.219      9.846
REMARK INTER + INTRA:         -13.414
REMARK INTER:                 -12.558
REMARK INTRA:                  -0.856
REMARK UNBOUND:                -0.951
REMARK SMILES CCCCCCCCCCCCCCCCCC(=O)[O-]
REMARK SMILES IDX 10 1 11 2 12 3 13 4 14 5 15 6 16 7 17 8 18 9 19 10 20 11
REMARK SMILES IDX 9 12 8 13 7 14 6 15 5 16 4 17 3 18 2 19 1 20
REMARK H PARENT
REMARK Flexibility Score: inf
ROOT
ATOM      1  C   UNL     1      33.070  -8.786  20.919  1.00  0.00     0.000 C 
ENDROOT
BRANCH   1   2
ATOM      2  C   UNL     1      31.910  -8.883  21.924  1.00  0.00     0.000 C 
BRANCH   2   3
ATOM      3  C   UNL     1      30.532  -8.858  21.239  1.00  0.00     0.000 C 
BRANCH   3   4
ATOM      4  C   UNL     1      29.379  -8.809  22.253  1.00  0.00     0.000 C 
BRANCH   4   5
ATOM      5  C   UNL     1      28.061  -9.358  21.675  1.00  0.00     0.000 C 
BRANCH   5   6
ATOM      6  C   UNL     1      28.090 -10.893  21.520  1.00  0.00     0.000 C 
BRANCH   6   7
ATOM      7  C   UNL     1      27.337 -11.400  20.277  1.00  0.00     0.006 C 
BRANCH   7   8
ATOM      8  C   UNL     1      27.714 -12.834  19.892  1.00  0.00     0.053 C 
BRANCH   8   9
ATOM      9  C   UNL     1      26.961 -13.263  18.674  1.00  0.00     0.041 C 
ATOM     10  O   UNL     1      25.726 -13.037  18.578  1.00  0.00    -0.550 OA
ATOM     11  O   UNL     1      27.613 -13.958  17.662  1.00  0.00    -0.550 OA
ENDBRANCH   8   9
ENDBRANCH   7   8
ENDBRANCH   6   7
ENDBRANCH   5   6
ENDBRANCH   4   5
ENDBRANCH   3   4
ENDBRANCH   2   3
ENDBRANCH   1   2
BRANCH   1  12
ATOM     12  C   UNL     1      34.227  -7.917  21.431  1.00  0.00     0.000 C 
BRANCH  12  13
ATOM     13  C   UNL     1      35.500  -8.756  21.625  1.00  0.00    -0.000 C 
BRANCH  13  14
ATOM     14  C   UNL     1      35.510 -10.022  20.753  1.00  0.00    -0.000 C 
BRANCH  14  15
ATOM     15  C   UNL     1      36.873 -10.736  20.765  1.00  0.00    -0.000 C 
BRANCH  15  16
ATOM     16  C   UNL     1      37.857 -10.122  21.777  1.00  0.00    -0.000 C 
BRANCH  16  17
ATOM     17  C   UNL     1      39.316 -10.599  21.633  1.00  0.00    -0.000 C 
BRANCH  17  18
ATOM     18  C   UNL     1      39.556 -11.655  20.535  1.00  0.00    -0.000 C 
BRANCH  18  19
ATOM     19  C   UNL     1      39.983 -13.040  21.051  1.00  0.00    -0.003 C 
ATOM     20  C   UNL     1      39.045 -13.590  22.125  1.00  0.00     0.004 C 
ENDBRANCH  18  19
ENDBRANCH  17  18
ENDBRANCH  16  17
ENDBRANCH  15  16
ENDBRANCH  14  15
ENDBRANCH  13  14
ENDBRANCH  12  13
ENDBRANCH   1  12
TORSDOF 16
ENDMDL
MODEL 9
REMARK VINA RESULT:    -6.420      4.021      5.193
REMARK INTER + INTRA:         -13.376
REMARK INTER:                 -12.142
REMARK INTRA:                  -1.234
REMARK UNBOUND:                -0.951
REMARK SMILES CCCCCCCCCCCCCCCCCC(=O)[O-]
REMARK SMILES IDX 10 1 11 2 12 3 13 4 14 5 15 6 16 7 17 8 18 9 19 10 20 11
REMARK SMILES IDX 9 12 8 13 7 14 6 15 5 16 4 17 3 18 2 19 1 20
REMARK H PARENT
REMARK Flexibility Score: inf
ROOT
ATOM      1  C   UNL     1      33.530  -8.575  20.584  1.00  0.00     0.000 C 
ENDROOT
BRANCH   1   2
ATOM      2  C   UNL     1      34.635  -9.618  20.348  1.00  0.00     0.000 C 
BRANCH   2   3
ATOM      3  C   UNL     1      35.520  -9.833  21.589  1.00  0.00     0.000 C 
BRANCH   3   4
ATOM      4  C   UNL     1      36.212  -8.539  22.043  1.00  0.00     0.000 C 
BRANCH   4   5
ATOM      5  C   UNL     1      36.413  -8.481  23.568  1.00  0.00     0.000 C 
BRANCH   5   6
ATOM      6  C   UNL     1      35.865  -7.172  24.176  1.00  0.00     0.000 C 
BRANCH   6   7
ATOM      7  C   UNL     1      34.692  -6.569  23.383  1.00  0.00     0.006 C 
BRANCH   7   8
ATOM      8  C   UNL     1      34.819  -5.055  23.184  1.00  0.00     0.053 C 
BRANCH   8   9
ATOM      9  C   UNL     1      33.744  -4.556  22.273  1.00  0.00     0.041 C 
ATOM     10  O   UNL     1      32.822  -3.824  22.721  1.00  0.00    -0.550 OA
ATOM     11  O   UNL     1      33.731  -4.937  20.937  1.00  0.00    -0.550 OA
ENDBRANCH   8   9
ENDBRANCH   7   8
ENDBRANCH   6   7
ENDBRANCH   5   6
ENDBRANCH   4   5
ENDBRANCH   3   4
ENDBRANCH   2   3
ENDBRANCH   1   2
BRANCH   1  12
ATOM     12  C   UNL     1      32.523  -9.010  21.659  1.00  0.00     0.000 C 
BRANCH  12  13
ATOM     13  C   UNL     1      31.142  -9.276  21.041  1.00  0.00    -0.000 C 
BRANCH  13  14
ATOM     14  C   UNL     1      29.990  -8.862  21.970  1.00  0.00    -0.000 C 
BRANCH  14  15
ATOM     15  C   UNL     1      28.853  -9.898  21.999  1.00  0.00    -0.000 C 
BRANCH  15  16
ATOM     16  C   UNL     1      27.955  -9.831  20.751  1.00  0.00    -0.000 C 
BRANCH  16  17
ATOM     17  C   UNL     1      27.189 -11.131  20.432  1.00  0.00    -0.000 C 
BRANCH  17  18
ATOM     18  C   UNL     1      28.076 -12.357  20.130  1.00  0.00    -0.000 C 
BRANCH  18  19
ATOM     19  C   UNL     1      27.490 -13.340  19.102  1.00  0.00    -0.003 C 
ATOM     20  C   UNL     1      26.381 -12.721  18.251  1.00  0.00     0.004 C 
ENDBRANCH  18  19
ENDBRANCH  17  18
ENDBRANCH  16  17
ENDBRANCH  15  16
ENDBRANCH  14  15
ENDBRANCH  13  14
ENDBRANCH  12  13
ENDBRANCH   1  12
TORSDOF 16
ENDMDL
