MODEL 1
REMARK VINA RESULT:    -4.866      0.000      0.000
REMARK INTER + INTRA:         -12.116
REMARK INTER:                  -9.418
REMARK INTRA:                  -2.698
REMARK UNBOUND:                -2.698
REMARK SMILES CCCCCCCCCCCCCCCCCC(=O)[O-]
REMARK SMILES IDX 10 1 11 2 12 3 13 4 14 5 15 6 16 7 17 8 18 9 19 10 20 11
REMARK SMILES IDX 9 12 8 13 7 14 6 15 5 16 4 17 3 18 2 19 1 20
REMARK H PARENT
REMARK Flexibility Score: inf
ROOT
ATOM      1  C   UNL     1     -48.375  24.788 -15.704  1.00  0.00     0.000 C 
ENDROOT
BRANCH   1   2
ATOM      2  C   UNL     1     -48.112  25.676 -14.476  1.00  0.00     0.000 C 
BRANCH   2   3
ATOM      3  C   UNL     1     -46.890  25.215 -13.667  1.00  0.00     0.000 C 
BRANCH   3   4
ATOM      4  C   UNL     1     -45.590  25.898 -14.124  1.00  0.00     0.000 C 
BRANCH   4   5
ATOM      5  C   UNL     1     -45.710  27.430 -14.168  1.00  0.00     0.000 C 
BRANCH   5   6
ATOM      6  C   UNL     1     -45.200  28.025 -15.492  1.00  0.00     0.000 C 
BRANCH   6   7
ATOM      7  C   UNL     1     -44.868  26.939 -16.536  1.00  0.00     0.006 C 
BRANCH   7   8
ATOM      8  C   UNL     1     -45.056  27.403 -17.988  1.00  0.00     0.053 C 
BRANCH   8   9
ATOM      9  C   UNL     1     -44.693  26.339 -18.977  1.00  0.00     0.041 C 
ATOM     10  O   UNL     1     -45.261  25.216 -18.936  1.00  0.00    -0.550 OA
ATOM     11  O   UNL     1     -43.741  26.595 -19.956  1.00  0.00    -0.550 OA
ENDBRANCH   8   9
ENDBRANCH   7   8
ENDBRANCH   6   7
ENDBRANCH   5   6
ENDBRANCH   4   5
ENDBRANCH   3   4
ENDBRANCH   2   3
ENDBRANCH   1   2
BRANCH   1  12
ATOM     12  C   UNL     1     -48.111  25.515 -17.035  1.00  0.00     0.000 C 
BRANCH  12  13
ATOM     13  C   UNL     1     -48.564  26.985 -17.071  1.00  0.00    -0.000 C 
BRANCH  13  14
ATOM     14  C   UNL     1     -49.743  27.227 -18.026  1.00  0.00    -0.000 C 
BRANCH  14  15
ATOM     15  C   UNL     1     -51.032  27.517 -17.241  1.00  0.00    -0.000 C 
BRANCH  15  16
ATOM     16  C   UNL     1     -50.762  27.939 -15.788  1.00  0.00    -0.000 C 
BRANCH  16  17
ATOM     17  C   UNL     1     -51.440  27.009 -14.767  1.00  0.00    -0.000 C 
BRANCH  17  18
ATOM     18  C   UNL     1     -51.998  25.724 -15.407  1.00  0.00    -0.000 C 
BRANCH  18  19
ATOM     19  C   UNL     1     -52.328  24.595 -14.414  1.00  0.00    -0.003 C 
ATOM     20  C   UNL     1     -51.496  23.334 -14.642  1.00  0.00     0.004 C 
ENDBRANCH  18  19
ENDBRANCH  17  18
ENDBRANCH  16  17
ENDBRANCH  15  16
ENDBRANCH  14  15
ENDBRANCH  13  14
ENDBRANCH  12  13
ENDBRANCH   1  12
TORSDOF 16
ENDMDL
MODEL 2
REMARK VINA RESULT:    -4.786      3.227      6.836
REMARK INTER + INTRA:         -11.960
REMARK INTER:                  -9.227
REMARK INTRA:                  -2.733
REMARK UNBOUND:                -2.698
REMARK SMILES CCCCCCCCCCCCCCCCCC(=O)[O-]
REMARK SMILES IDX 10 1 11 2 12 3 13 4 14 5 15 6 16 7 17 8 18 9 19 10 20 11
REMARK SMILES IDX 9 12 8 13 7 14 6 15 5 16 4 17 3 18 2 19 1 20
REMARK H PARENT
REMARK Flexibility Score: inf
ROOT
ATOM      1  C   UNL     1     -48.040  25.281 -16.097  1.00  0.00     0.000 C 
ENDROOT
BRANCH   1   2
ATOM      2  C   UNL     1     -48.719  26.167 -17.155  1.00  0.00     0.000 C 
BRANCH   2   3
ATOM      3  C   UNL     1     -48.607  27.665 -16.830  1.00  0.00     0.000 C 
BRANCH   3   4
ATOM      4  C   UNL     1     -49.974  28.371 -16.834  1.00  0.00     0.000 C 
BRANCH   4   5
ATOM      5  C   UNL     1     -51.144  27.396 -17.042  1.00  0.00     0.000 C 
BRANCH   5   6
ATOM      6  C   UNL     1     -52.163  27.441 -15.891  1.00  0.00     0.000 C 
BRANCH   6   7
ATOM      7  C   UNL     1     -51.766  26.522 -14.717  1.00  0.00     0.006 C 
BRANCH   7   8
ATOM      8  C   UNL     1     -51.803  25.026 -15.068  1.00  0.00     0.053 C 
BRANCH   8   9
ATOM      9  C   UNL     1     -52.457  24.209 -13.998  1.00  0.00     0.041 C 
ATOM     10  O   UNL     1     -53.663  24.410 -13.695  1.00  0.00    -0.550 OA
ATOM     11  O   UNL     1     -51.741  23.210 -13.350  1.00  0.00    -0.550 OA
ENDBRANCH   8   9
ENDBRANCH   7   8
ENDBRANCH   6   7
ENDBRANCH   5   6
ENDBRANCH   4   5
ENDBRANCH   3   4
ENDBRANCH   2   3
ENDBRANCH   1   2
BRANCH   1  12
ATOM     12  C   UNL     1     -48.066  25.905 -14.690  1.00  0.00     0.000 C 
BRANCH  12  13
ATOM     13  C   UNL     1     -47.033  25.327 -13.707  1.00  0.00    -0.000 C 
BRANCH  13  14
ATOM     14  C   UNL     1     -45.665  26.021 -13.797  1.00  0.00    -0.000 C 
BRANCH  14  15
ATOM     15  C   UNL     1     -45.831  27.542 -13.936  1.00  0.00    -0.000 C 
BRANCH  15  16
ATOM     16  C   UNL     1     -45.183  28.097 -15.216  1.00  0.00    -0.000 C 
BRANCH  16  17
ATOM     17  C   UNL     1     -44.836  26.991 -16.228  1.00  0.00    -0.000 C 
BRANCH  17  18
ATOM     18  C   UNL     1     -44.557  27.539 -17.640  1.00  0.00    -0.000 C 
BRANCH  18  19
ATOM     19  C   UNL     1     -45.438  26.944 -18.753  1.00  0.00    -0.003 C 
ATOM     20  C   UNL     1     -45.289  25.429 -18.890  1.00  0.00     0.004 C 
ENDBRANCH  18  19
ENDBRANCH  17  18
ENDBRANCH  16  17
ENDBRANCH  15  16
ENDBRANCH  14  15
ENDBRANCH  13  14
ENDBRANCH  12  13
ENDBRANCH   1  12
TORSDOF 16
ENDMDL
MODEL 3
REMARK VINA RESULT:    -4.686      1.311      2.273
REMARK INTER + INTRA:         -11.766
REMARK INTER:                  -9.315
REMARK INTRA:                  -2.451
REMARK UNBOUND:                -2.698
REMARK SMILES CCCCCCCCCCCCCCCCCC(=O)[O-]
REMARK SMILES IDX 10 1 11 2 12 3 13 4 14 5 15 6 16 7 17 8 18 9 19 10 20 11
REMARK SMILES IDX 9 12 8 13 7 14 6 15 5 16 4 17 3 18 2 19 1 20
REMARK H PARENT
REMARK Flexibility Score: inf
ROOT
ATOM      1  C   UNL     1     -48.070  25.873 -14.600  1.00  0.00     0.000 C 
ENDROOT
BRANCH   1   2
ATOM      2  C   UNL     1     -46.855  25.321 -13.835  1.00  0.00     0.000 C 
BRANCH   2   3
ATOM      3  C   UNL     1     -45.774  26.387 -13.600  1.00  0.00     0.000 C 
BRANCH   3   4
ATOM      4  C   UNL     1     -45.126  26.867 -14.911  1.00  0.00     0.000 C 
BRANCH   4   5
ATOM      5  C   UNL     1     -44.757  28.360 -14.877  1.00  0.00     0.000 C 
BRANCH   5   6
ATOM      6  C   UNL     1     -44.265  28.877 -16.239  1.00  0.00     0.000 C 
BRANCH   6   7
ATOM      7  C   UNL     1     -44.627  27.923 -17.397  1.00  0.00     0.006 C 
BRANCH   7   8
ATOM      8  C   UNL     1     -43.794  28.155 -18.668  1.00  0.00     0.053 C 
BRANCH   8   9
ATOM      9  C   UNL     1     -43.885  27.005 -19.623  1.00  0.00     0.041 C 
ATOM     10  O   UNL     1     -43.290  27.055 -20.732  1.00  0.00    -0.550 OA
ATOM     11  O   UNL     1     -44.608  25.870 -19.279  1.00  0.00    -0.550 OA
ENDBRANCH   8   9
ENDBRANCH   7   8
ENDBRANCH   6   7
ENDBRANCH   5   6
ENDBRANCH   4   5
ENDBRANCH   3   4
ENDBRANCH   2   3
ENDBRANCH   1   2
BRANCH   1  12
ATOM     12  C   UNL     1     -48.788  24.800 -15.437  1.00  0.00     0.000 C 
BRANCH  12  13
ATOM     13  C   UNL     1     -48.387  24.762 -16.923  1.00  0.00    -0.000 C 
BRANCH  13  14
ATOM     14  C   UNL     1     -47.613  26.012 -17.368  1.00  0.00    -0.000 C 
BRANCH  14  15
ATOM     15  C   UNL     1     -48.554  27.030 -18.032  1.00  0.00    -0.000 C 
BRANCH  15  16
ATOM     16  C   UNL     1     -48.668  28.341 -17.237  1.00  0.00    -0.000 C 
BRANCH  16  17
ATOM     17  C   UNL     1     -50.126  28.716 -16.922  1.00  0.00    -0.000 C 
BRANCH  17  18
ATOM     18  C   UNL     1     -51.126  27.613 -17.318  1.00  0.00    -0.000 C 
BRANCH  18  19
ATOM     19  C   UNL     1     -51.805  26.897 -16.137  1.00  0.00    -0.003 C 
ATOM     20  C   UNL     1     -51.435  27.497 -14.781  1.00  0.00     0.004 C 
ENDBRANCH  18  19
ENDBRANCH  17  18
ENDBRANCH  16  17
ENDBRANCH  15  16
ENDBRANCH  14  15
ENDBRANCH  13  14
ENDBRANCH  12  13
ENDBRANCH   1  12
TORSDOF 16
ENDMDL
MODEL 4
REMARK VINA RESULT:    -4.653      2.773      6.392
REMARK INTER + INTRA:         -11.702
REMARK INTER:                  -9.456
REMARK INTRA:                  -2.246
REMARK UNBOUND:                -2.698
REMARK SMILES CCCCCCCCCCCCCCCCCC(=O)[O-]
REMARK SMILES IDX 10 1 11 2 12 3 13 4 14 5 15 6 16 7 17 8 18 9 19 10 20 11
REMARK SMILES IDX 9 12 8 13 7 14 6 15 5 16 4 17 3 18 2 19 1 20
REMARK H PARENT
REMARK Flexibility Score: inf
ROOT
ATOM      1  C   UNL     1     -47.716  25.129 -17.495  1.00  0.00     0.000 C 
ENDROOT
BRANCH   1   2
ATOM      2  C   UNL     1     -48.385  25.953 -16.382  1.00  0.00     0.000 C 
BRANCH   2   3
ATOM      3  C   UNL     1     -48.648  27.408 -16.804  1.00  0.00     0.000 C 
BRANCH   3   4
ATOM      4  C   UNL     1     -50.058  27.605 -17.387  1.00  0.00     0.000 C 
BRANCH   4   5
ATOM      5  C   UNL     1     -51.082  28.040 -16.325  1.00  0.00     0.000 C 
BRANCH   5   6
ATOM      6  C   UNL     1     -52.105  26.937 -16.005  1.00  0.00     0.000 C 
BRANCH   6   7
ATOM      7  C   UNL     1     -51.665  26.052 -14.821  1.00  0.00     0.006 C 
BRANCH   7   8
ATOM      8  C   UNL     1     -52.489  24.762 -14.678  1.00  0.00     0.053 C 
BRANCH   8   9
ATOM      9  C   UNL     1     -51.642  23.587 -14.296  1.00  0.00     0.041 C 
ATOM     10  O   UNL     1     -50.864  23.067 -15.137  1.00  0.00    -0.550 OA
ATOM     11  O   UNL     1     -51.698  23.082 -13.003  1.00  0.00    -0.550 OA
ENDBRANCH   8   9
ENDBRANCH   7   8
ENDBRANCH   6   7
ENDBRANCH   5   6
ENDBRANCH   4   5
ENDBRANCH   3   4
ENDBRANCH   2   3
ENDBRANCH   1   2
BRANCH   1  12
ATOM     12  C   UNL     1     -46.879  25.991 -18.456  1.00  0.00     0.000 C 
BRANCH  12  13
ATOM     13  C   UNL     1     -45.466  25.452 -18.746  1.00  0.00    -0.000 C 
BRANCH  13  14
ATOM     14  C   UNL     1     -44.355  26.433 -18.342  1.00  0.00    -0.000 C 
BRANCH  14  15
ATOM     15  C   UNL     1     -44.948  27.782 -17.905  1.00  0.00    -0.000 C 
BRANCH  15  16
ATOM     16  C   UNL     1     -44.360  28.289 -16.578  1.00  0.00    -0.000 C 
BRANCH  16  17
ATOM     17  C   UNL     1     -45.222  27.901 -15.364  1.00  0.00    -0.000 C 
BRANCH  17  18
ATOM     18  C   UNL     1     -44.977  26.456 -14.893  1.00  0.00    -0.000 C 
BRANCH  18  19
ATOM     19  C   UNL     1     -45.843  26.004 -13.704  1.00  0.00    -0.003 C 
ATOM     20  C   UNL     1     -46.807  27.087 -13.219  1.00  0.00     0.004 C 
ENDBRANCH  18  19
ENDBRANCH  17  18
ENDBRANCH  16  17
ENDBRANCH  15  16
ENDBRANCH  14  15
ENDBRANCH  13  14
ENDBRANCH  12  13
ENDBRANCH   1  12
TORSDOF 16
ENDMDL
MODEL 5
REMARK VINA RESULT:    -4.605      1.235      2.163
REMARK INTER + INTRA:         -11.610
REMARK INTER:                  -9.456
REMARK INTRA:                  -2.153
REMARK UNBOUND:                -2.698
REMARK SMILES CCCCCCCCCCCCCCCCCC(=O)[O-]
REMARK SMILES IDX 10 1 11 2 12 3 13 4 14 5 15 6 16 7 17 8 18 9 19 10 20 11
REMARK SMILES IDX 9 12 8 13 7 14 6 15 5 16 4 17 3 18 2 19 1 20
REMARK H PARENT
REMARK Flexibility Score: inf
ROOT
ATOM      1  C   UNL     1     -46.840  25.398 -13.762  1.00  0.00     0.000 C 
ENDROOT
BRANCH   1   2
ATOM      2  C   UNL     1     -45.808  26.530 -13.622  1.00  0.00     0.000 C 
BRANCH   2   3
ATOM      3  C   UNL     1     -45.017  26.767 -14.918  1.00  0.00     0.000 C 
BRANCH   3   4
ATOM      4  C   UNL     1     -44.575  28.233 -15.076  1.00  0.00     0.000 C 
BRANCH   4   5
ATOM      5  C   UNL     1     -44.870  28.792 -16.478  1.00  0.00     0.000 C 
BRANCH   5   6
ATOM      6  C   UNL     1     -43.933  28.218 -17.553  1.00  0.00     0.000 C 
BRANCH   6   7
ATOM      7  C   UNL     1     -44.703  27.646 -18.761  1.00  0.00     0.006 C 
BRANCH   7   8
ATOM      8  C   UNL     1     -46.126  27.179 -18.418  1.00  0.00     0.053 C 
BRANCH   8   9
ATOM      9  C   UNL     1     -46.260  25.688 -18.461  1.00  0.00     0.041 C 
ATOM     10  O   UNL     1     -47.294  25.131 -18.006  1.00  0.00    -0.550 OA
ATOM     11  O   UNL     1     -45.252  24.915 -19.024  1.00  0.00    -0.550 OA
ENDBRANCH   8   9
ENDBRANCH   7   8
ENDBRANCH   6   7
ENDBRANCH   5   6
ENDBRANCH   4   5
ENDBRANCH   3   4
ENDBRANCH   2   3
ENDBRANCH   1   2
BRANCH   1  12
ATOM     12  C   UNL     1     -47.999  25.759 -14.707  1.00  0.00     0.000 C 
BRANCH  12  13
ATOM     13  C   UNL     1     -48.610  27.154 -14.481  1.00  0.00    -0.000 C 
BRANCH  13  14
ATOM     14  C   UNL     1     -48.446  28.084 -15.692  1.00  0.00    -0.000 C 
BRANCH  14  15
ATOM     15  C   UNL     1     -49.448  27.722 -16.800  1.00  0.00    -0.000 C 
BRANCH  15  16
ATOM     16  C   UNL     1     -50.895  28.096 -16.439  1.00  0.00    -0.000 C 
BRANCH  16  17
ATOM     17  C   UNL     1     -51.826  26.872 -16.392  1.00  0.00    -0.000 C 
BRANCH  17  18
ATOM     18  C   UNL     1     -52.101  26.384 -14.958  1.00  0.00    -0.000 C 
BRANCH  18  19
ATOM     19  C   UNL     1     -51.866  24.880 -14.727  1.00  0.00    -0.003 C 
ATOM     20  C   UNL     1     -52.967  24.222 -13.897  1.00  0.00     0.004 C 
ENDBRANCH  18  19
ENDBRANCH  17  18
ENDBRANCH  16  17
ENDBRANCH  15  16
ENDBRANCH  14  15
ENDBRANCH  13  14
ENDBRANCH  12  13
ENDBRANCH   1  12
TORSDOF 16
ENDMDL
MODEL 6
REMARK VINA RESULT:    -4.480      2.548      3.561
REMARK INTER + INTRA:         -11.368
REMARK INTER:                  -9.228
REMARK INTRA:                  -2.140
REMARK UNBOUND:                -2.698
REMARK SMILES CCCCCCCCCCCCCCCCCC(=O)[O-]
REMARK SMILES IDX 10 1 11 2 12 3 13 4 14 5 15 6 16 7 17 8 18 9 19 10 20 11
REMARK SMILES IDX 9 12 8 13 7 14 6 15 5 16 4 17 3 18 2 19 1 20
REMARK H PARENT
REMARK Flexibility Score: inf
ROOT
ATOM      1  C   UNL     1     -48.309  27.496 -18.137  1.00  0.00     0.000 C 
ENDROOT
BRANCH   1   2
ATOM      2  C   UNL     1     -47.922  26.216 -17.378  1.00  0.00     0.000 C 
BRANCH   2   3
ATOM      3  C   UNL     1     -46.818  25.419 -18.091  1.00  0.00     0.000 C 
BRANCH   3   4
ATOM      4  C   UNL     1     -45.751  26.330 -18.722  1.00  0.00     0.000 C 
BRANCH   4   5
ATOM      5  C   UNL     1     -44.612  26.673 -17.747  1.00  0.00     0.000 C 
BRANCH   5   6
ATOM      6  C   UNL     1     -44.790  28.054 -17.094  1.00  0.00     0.000 C 
BRANCH   6   7
ATOM      7  C   UNL     1     -44.474  28.036 -15.584  1.00  0.00     0.006 C 
BRANCH   7   8
ATOM      8  C   UNL     1     -45.192  26.913 -14.819  1.00  0.00     0.053 C 
BRANCH   8   9
ATOM      9  C   UNL     1     -45.844  27.407 -13.564  1.00  0.00     0.041 C 
ATOM     10  O   UNL     1     -46.744  26.726 -13.007  1.00  0.00    -0.550 OA
ATOM     11  O   UNL     1     -45.442  28.611 -13.000  1.00  0.00    -0.550 OA
ENDBRANCH   8   9
ENDBRANCH   7   8
ENDBRANCH   6   7
ENDBRANCH   5   6
ENDBRANCH   4   5
ENDBRANCH   3   4
ENDBRANCH   2   3
ENDBRANCH   1   2
BRANCH   1  12
ATOM     12  C   UNL     1     -48.816  28.613 -17.207  1.00  0.00     0.000 C 
BRANCH  12  13
ATOM     13  C   UNL     1     -48.620  28.343 -15.704  1.00  0.00    -0.000 C 
BRANCH  13  14
ATOM     14  C   UNL     1     -49.938  28.062 -14.968  1.00  0.00    -0.000 C 
BRANCH  14  15
ATOM     15  C   UNL     1     -51.139  28.234 -15.911  1.00  0.00    -0.000 C 
BRANCH  15  16
ATOM     16  C   UNL     1     -52.054  26.998 -15.940  1.00  0.00    -0.000 C 
BRANCH  16  17
ATOM     17  C   UNL     1     -51.464  25.809 -15.163  1.00  0.00    -0.000 C 
BRANCH  17  18
ATOM     18  C   UNL     1     -52.537  24.978 -14.434  1.00  0.00    -0.000 C 
BRANCH  18  19
ATOM     19  C   UNL     1     -52.104  23.552 -14.050  1.00  0.00    -0.003 C 
ATOM     20  C   UNL     1     -51.241  22.880 -15.117  1.00  0.00     0.004 C 
ENDBRANCH  18  19
ENDBRANCH  17  18
ENDBRANCH  16  17
ENDBRANCH  15  16
ENDBRANCH  14  15
ENDBRANCH  13  14
ENDBRANCH  12  13
ENDBRANCH   1  12
TORSDOF 16
ENDMDL
MODEL 7
REMARK VINA RESULT:    -4.435      3.582      6.894
REMARK INTER + INTRA:         -11.281
REMARK INTER:                  -8.650
REMARK INTRA:                  -2.630
REMARK UNBOUND:                -2.698
REMARK SMILES CCCCCCCCCCCCCCCCCC(=O)[O-]
REMARK SMILES IDX 10 1 11 2 12 3 13 4 14 5 15 6 16 7 17 8 18 9 19 10 20 11
REMARK SMILES IDX 9 12 8 13 7 14 6 15 5 16 4 17 3 18 2 19 1 20
REMARK H PARENT
REMARK Flexibility Score: inf
ROOT
ATOM      1  C   UNL     1     -49.476  27.917 -16.967  1.00  0.00     0.000 C 
ENDROOT
BRANCH   1   2
ATOM      2  C   UNL     1     -49.062  26.895 -18.040  1.00  0.00     0.000 C 
BRANCH   2   3
ATOM      3  C   UNL     1     -47.898  26.002 -17.583  1.00  0.00     0.000 C 
BRANCH   3   4
ATOM      4  C   UNL     1     -48.378  24.668 -16.986  1.00  0.00     0.000 C 
BRANCH   4   5
ATOM      5  C   UNL     1     -48.246  24.623 -15.455  1.00  0.00     0.000 C 
BRANCH   5   6
ATOM      6  C   UNL     1     -49.550  25.011 -14.738  1.00  0.00     0.000 C 
BRANCH   6   7
ATOM      7  C   UNL     1     -50.666  23.965 -14.938  1.00  0.00     0.006 C 
BRANCH   7   8
ATOM      8  C   UNL     1     -52.082  24.530 -14.741  1.00  0.00     0.053 C 
BRANCH   8   9
ATOM      9  C   UNL     1     -52.820  23.841 -13.636  1.00  0.00     0.041 C 
ATOM     10  O   UNL     1     -54.077  23.883 -13.591  1.00  0.00    -0.550 OA
ATOM     11  O   UNL     1     -52.119  23.134 -12.667  1.00  0.00    -0.550 OA
ENDBRANCH   8   9
ENDBRANCH   7   8
ENDBRANCH   6   7
ENDBRANCH   5   6
ENDBRANCH   4   5
ENDBRANCH   3   4
ENDBRANCH   2   3
ENDBRANCH   1   2
BRANCH   1  12
ATOM     12  C   UNL     1     -48.271  28.607 -16.302  1.00  0.00     0.000 C 
BRANCH  12  13
ATOM     13  C   UNL     1     -48.145  28.370 -14.787  1.00  0.00    -0.000 C 
BRANCH  13  14
ATOM     14  C   UNL     1     -46.717  28.589 -14.262  1.00  0.00    -0.000 C 
BRANCH  14  15
ATOM     15  C   UNL     1     -45.985  27.249 -14.092  1.00  0.00    -0.000 C 
BRANCH  15  16
ATOM     16  C   UNL     1     -45.146  26.870 -15.324  1.00  0.00    -0.000 C 
BRANCH  16  17
ATOM     17  C   UNL     1     -44.569  28.100 -16.046  1.00  0.00    -0.000 C 
BRANCH  17  18
ATOM     18  C   UNL     1     -44.664  27.992 -17.579  1.00  0.00    -0.000 C 
BRANCH  18  19
ATOM     19  C   UNL     1     -44.351  26.599 -18.154  1.00  0.00    -0.003 C 
ATOM     20  C   UNL     1     -44.740  26.456 -19.625  1.00  0.00     0.004 C 
ENDBRANCH  18  19
ENDBRANCH  17  18
ENDBRANCH  16  17
ENDBRANCH  15  16
ENDBRANCH  14  15
ENDBRANCH  13  14
ENDBRANCH  12  13
ENDBRANCH   1  12
TORSDOF 16
ENDMDL
MODEL 8
REMARK VINA RESULT:    -4.226      2.855      7.270
REMARK INTER + INTRA:         -10.876
REMARK INTER:                  -9.053
REMARK INTRA:                  -1.824
REMARK UNBOUND:                -2.698
REMARK SMILES CCCCCCCCCCCCCCCCCC(=O)[O-]
REMARK SMILES IDX 10 1 11 2 12 3 13 4 14 5 15 6 16 7 17 8 18 9 19 10 20 11
REMARK SMILES IDX 9 12 8 13 7 14 6 15 5 16 4 17 3 18 2 19 1 20
REMARK H PARENT
REMARK Flexibility Score: inf
ROOT
ATOM      1  C   UNL     1     -47.342  25.708 -14.092  1.00  0.00     0.000 C 
ENDROOT
BRANCH   1   2
ATOM      2  C   UNL     1     -48.174  26.819 -14.755  1.00  0.00     0.000 C 
BRANCH   2   3
ATOM      3  C   UNL     1     -48.525  26.498 -16.217  1.00  0.00     0.000 C 
BRANCH   3   4
ATOM      4  C   UNL     1     -49.303  27.637 -16.899  1.00  0.00     0.000 C 
BRANCH   4   5
ATOM      5  C   UNL     1     -50.812  27.353 -16.987  1.00  0.00     0.000 C 
BRANCH   5   6
ATOM      6  C   UNL     1     -51.591  27.924 -15.790  1.00  0.00     0.000 C 
BRANCH   6   7
ATOM      7  C   UNL     1     -51.972  26.838 -14.763  1.00  0.00     0.006 C 
BRANCH   7   8
ATOM      8  C   UNL     1     -52.205  25.454 -15.389  1.00  0.00     0.053 C 
BRANCH   8   9
ATOM      9  C   UNL     1     -51.594  24.354 -14.578  1.00  0.00     0.041 C 
ATOM     10  O   UNL     1     -50.395  24.019 -14.766  1.00  0.00    -0.550 OA
ATOM     11  O   UNL     1     -52.343  23.714 -13.599  1.00  0.00    -0.550 OA
ENDBRANCH   8   9
ENDBRANCH   7   8
ENDBRANCH   6   7
ENDBRANCH   5   6
ENDBRANCH   4   5
ENDBRANCH   3   4
ENDBRANCH   2   3
ENDBRANCH   1   2
BRANCH   1  12
ATOM     12  C   UNL     1     -45.897  26.143 -13.791  1.00  0.00     0.000 C 
BRANCH  12  13
ATOM     13  C   UNL     1     -45.597  27.628 -14.065  1.00  0.00    -0.000 C 
BRANCH  13  14
ATOM     14  C   UNL     1     -44.534  27.834 -15.155  1.00  0.00    -0.000 C 
BRANCH  14  15
ATOM     15  C   UNL     1     -45.172  27.808 -16.553  1.00  0.00    -0.000 C 
BRANCH  15  16
ATOM     16  C   UNL     1     -44.921  26.486 -17.297  1.00  0.00    -0.000 C 
BRANCH  16  17
ATOM     17  C   UNL     1     -44.382  26.704 -18.722  1.00  0.00    -0.000 C 
BRANCH  17  18
ATOM     18  C   UNL     1     -43.743  28.092 -18.914  1.00  0.00    -0.000 C 
BRANCH  18  19
ATOM     19  C   UNL     1     -43.039  28.301 -20.266  1.00  0.00    -0.003 C 
ATOM     20  C   UNL     1     -41.601  28.796 -20.123  1.00  0.00     0.004 C 
ENDBRANCH  18  19
ENDBRANCH  17  18
ENDBRANCH  16  17
ENDBRANCH  15  16
ENDBRANCH  14  15
ENDBRANCH  13  14
ENDBRANCH  12  13
ENDBRANCH   1  12
TORSDOF 16
ENDMDL
MODEL 9
REMARK VINA RESULT:    -4.200      1.237      2.245
REMARK INTER + INTRA:         -10.826
REMARK INTER:                  -9.004
REMARK INTRA:                  -1.821
REMARK UNBOUND:                -2.698
REMARK SMILES CCCCCCCCCCCCCCCCCC(=O)[O-]
REMARK SMILES IDX 10 1 11 2 12 3 13 4 14 5 15 6 16 7 17 8 18 9 19 10 20 11
REMARK SMILES IDX 9 12 8 13 7 14 6 15 5 16 4 17 3 18 2 19 1 20
REMARK H PARENT
REMARK Flexibility Score: inf
ROOT
ATOM      1  C   UNL     1     -48.607  26.315 -17.181  1.00  0.00     0.000 C 
ENDROOT
BRANCH   1   2
ATOM      2  C   UNL     1     -48.255  26.380 -15.685  1.00  0.00     0.000 C 
BRANCH   2   3
ATOM      3  C   UNL     1     -47.929  27.808 -15.219  1.00  0.00     0.000 C 
BRANCH   3   4
ATOM      4  C   UNL     1     -46.523  27.918 -14.603  1.00  0.00     0.000 C 
BRANCH   4   5
ATOM      5  C   UNL     1     -45.538  26.893 -15.188  1.00  0.00     0.000 C 
BRANCH   5   6
ATOM      6  C   UNL     1     -44.298  27.555 -15.813  1.00  0.00     0.000 C 
BRANCH   6   7
ATOM      7  C   UNL     1     -44.640  28.365 -17.081  1.00  0.00     0.006 C 
BRANCH   7   8
ATOM      8  C   UNL     1     -45.446  27.569 -18.120  1.00  0.00     0.053 C 
BRANCH   8   9
ATOM      9  C   UNL     1     -44.614  26.532 -18.811  1.00  0.00     0.041 C 
ATOM     10  O   UNL     1     -43.499  26.842 -19.306  1.00  0.00    -0.550 OA
ATOM     11  O   UNL     1     -45.062  25.219 -18.888  1.00  0.00    -0.550 OA
ENDBRANCH   8   9
ENDBRANCH   7   8
ENDBRANCH   6   7
ENDBRANCH   5   6
ENDBRANCH   4   5
ENDBRANCH   3   4
ENDBRANCH   2   3
ENDBRANCH   1   2
BRANCH   1  12
ATOM     12  C   UNL     1     -49.517  27.471 -17.632  1.00  0.00     0.000 C 
BRANCH  12  13
ATOM     13  C   UNL     1     -51.014  27.271 -17.335  1.00  0.00    -0.000 C 
BRANCH  13  14
ATOM     14  C   UNL     1     -51.516  28.138 -16.171  1.00  0.00    -0.000 C 
BRANCH  14  15
ATOM     15  C   UNL     1     -52.150  27.267 -15.074  1.00  0.00    -0.000 C 
BRANCH  15  16
ATOM     16  C   UNL     1     -51.789  25.779 -15.214  1.00  0.00    -0.000 C 
BRANCH  16  17
ATOM     17  C   UNL     1     -52.728  24.866 -14.406  1.00  0.00    -0.000 C 
BRANCH  17  18
ATOM     18  C   UNL     1     -52.015  23.622 -13.844  1.00  0.00    -0.000 C 
BRANCH  18  19
ATOM     19  C   UNL     1     -52.638  23.040 -12.563  1.00  0.00    -0.003 C 
ATOM     20  C   UNL     1     -54.043  23.572 -12.285  1.00  0.00     0.004 C 
ENDBRANCH  18  19
ENDBRANCH  17  18
ENDBRANCH  16  17
ENDBRANCH  15  16
ENDBRANCH  14  15
ENDBRANCH  13  14
ENDBRANCH  12  13
ENDBRANCH   1  12
TORSDOF 16
ENDMDL
