MODEL 1
REMARK VINA RESULT:    -5.965      0.000      0.000
REMARK INTER + INTRA:         -13.150
REMARK INTER:                 -11.544
REMARK INTRA:                  -1.606
REMARK UNBOUND:                -1.606
REMARK SMILES CCCCCCCCCCCCCCCCCC(=O)[O-]
REMARK SMILES IDX 10 1 11 2 12 3 13 4 14 5 15 6 16 7 17 8 18 9 19 10 20 11
REMARK SMILES IDX 9 12 8 13 7 14 6 15 5 16 4 17 3 18 2 19 1 20
REMARK H PARENT
REMARK Flexibility Score: inf
ROOT
ATOM      1  C   UNL     1      -4.225  10.381 -17.701  1.00  0.00     0.000 C 
ENDROOT
BRANCH   1   2
ATOM      2  C   UNL     1      -3.290   9.166 -17.580  1.00  0.00     0.000 C 
BRANCH   2   3
ATOM      3  C   UNL     1      -1.861   9.532 -18.008  1.00  0.00     0.000 C 
BRANCH   3   4
ATOM      4  C   UNL     1      -1.153   8.389 -18.754  1.00  0.00     0.000 C 
BRANCH   4   5
ATOM      5  C   UNL     1       0.368   8.388 -18.527  1.00  0.00     0.000 C 
BRANCH   5   6
ATOM      6  C   UNL     1       0.966   6.971 -18.541  1.00  0.00     0.000 C 
BRANCH   6   7
ATOM      7  C   UNL     1       0.212   6.000 -17.615  1.00  0.00     0.006 C 
BRANCH   7   8
ATOM      8  C   UNL     1      -0.428   4.842 -18.390  1.00  0.00     0.053 C 
BRANCH   8   9
ATOM      9  C   UNL     1      -1.921   4.853 -18.275  1.00  0.00     0.041 C 
ATOM     10  O   UNL     1      -2.630   4.297 -19.155  1.00  0.00    -0.550 OA
ATOM     11  O   UNL     1      -2.532   5.510 -17.213  1.00  0.00    -0.550 OA
ENDBRANCH   8   9
ENDBRANCH   7   8
ENDBRANCH   6   7
ENDBRANCH   5   6
ENDBRANCH   4   5
ENDBRANCH   3   4
ENDBRANCH   2   3
ENDBRANCH   1   2
BRANCH   1  12
ATOM     12  C   UNL     1      -3.545  11.590 -18.363  1.00  0.00     0.000 C 
BRANCH  12  13
ATOM     13  C   UNL     1      -4.391  12.196 -19.496  1.00  0.00    -0.000 C 
BRANCH  13  14
ATOM     14  C   UNL     1      -5.223  11.138 -20.240  1.00  0.00    -0.000 C 
BRANCH  14  15
ATOM     15  C   UNL     1      -6.548  11.700 -20.785  1.00  0.00    -0.000 C 
BRANCH  15  16
ATOM     16  C   UNL     1      -7.777  10.991 -20.196  1.00  0.00    -0.000 C 
BRANCH  16  17
ATOM     17  C   UNL     1      -7.647  10.741 -18.683  1.00  0.00    -0.000 C 
BRANCH  17  18
ATOM     18  C   UNL     1      -7.663  12.055 -17.873  1.00  0.00    -0.000 C 
BRANCH  18  19
ATOM     19  C   UNL     1      -7.883  11.847 -16.365  1.00  0.00    -0.003 C 
ATOM     20  C   UNL     1      -7.480  10.453 -15.888  1.00  0.00     0.004 C 
ENDBRANCH  18  19
ENDBRANCH  17  18
ENDBRANCH  16  17
ENDBRANCH  15  16
ENDBRANCH  14  15
ENDBRANCH  13  14
ENDBRANCH  12  13
ENDBRANCH   1  12
TORSDOF 16
ENDMDL
MODEL 2
REMARK VINA RESULT:    -5.812      2.535      7.670
REMARK INTER + INTRA:         -12.855
REMARK INTER:                 -11.406
REMARK INTRA:                  -1.450
REMARK UNBOUND:                -1.606
REMARK SMILES CCCCCCCCCCCCCCCCCC(=O)[O-]
REMARK SMILES IDX 10 1 11 2 12 3 13 4 14 5 15 6 16 7 17 8 18 9 19 10 20 11
REMARK SMILES IDX 9 12 8 13 7 14 6 15 5 16 4 17 3 18 2 19 1 20
REMARK H PARENT
REMARK Flexibility Score: inf
ROOT
ATOM      1  C   UNL     1      -4.182  10.365 -17.896  1.00  0.00     0.000 C 
ENDROOT
BRANCH   1   2
ATOM      2  C   UNL     1      -3.549  11.526 -18.681  1.00  0.00     0.000 C 
BRANCH   2   3
ATOM      3  C   UNL     1      -4.590  12.209 -19.581  1.00  0.00     0.000 C 
BRANCH   3   4
ATOM      4  C   UNL     1      -5.389  11.207 -20.431  1.00  0.00     0.000 C 
BRANCH   4   5
ATOM      5  C   UNL     1      -6.762  11.756 -20.857  1.00  0.00     0.000 C 
BRANCH   5   6
ATOM      6  C   UNL     1      -7.928  10.914 -20.314  1.00  0.00     0.000 C 
BRANCH   6   7
ATOM      7  C   UNL     1      -7.755  10.548 -18.830  1.00  0.00     0.006 C 
BRANCH   7   8
ATOM      8  C   UNL     1      -7.674  11.790 -17.934  1.00  0.00     0.053 C 
BRANCH   8   9
ATOM      9  C   UNL     1      -7.711  11.431 -16.480  1.00  0.00     0.041 C 
ATOM     10  O   UNL     1      -8.398  12.114 -15.676  1.00  0.00    -0.550 OA
ATOM     11  O   UNL     1      -6.957  10.364 -16.007  1.00  0.00    -0.550 OA
ENDBRANCH   8   9
ENDBRANCH   7   8
ENDBRANCH   6   7
ENDBRANCH   5   6
ENDBRANCH   4   5
ENDBRANCH   3   4
ENDBRANCH   2   3
ENDBRANCH   1   2
BRANCH   1  12
ATOM     12  C   UNL     1      -3.190   9.223 -17.620  1.00  0.00     0.000 C 
BRANCH  12  13
ATOM     13  C   UNL     1      -1.743   9.600 -17.982  1.00  0.00    -0.000 C 
BRANCH  13  14
ATOM     14  C   UNL     1      -1.033   8.502 -18.792  1.00  0.00    -0.000 C 
BRANCH  14  15
ATOM     15  C   UNL     1       0.399   8.232 -18.299  1.00  0.00    -0.000 C 
BRANCH  15  16
ATOM     16  C   UNL     1       0.933   6.865 -18.756  1.00  0.00    -0.000 C 
BRANCH  16  17
ATOM     17  C   UNL     1       0.176   5.689 -18.114  1.00  0.00    -0.000 C 
BRANCH  17  18
ATOM     18  C   UNL     1      -0.671   4.911 -19.143  1.00  0.00    -0.000 C 
BRANCH  18  19
ATOM     19  C   UNL     1      -2.131   4.703 -18.707  1.00  0.00    -0.003 C 
ATOM     20  C   UNL     1      -2.486   5.454 -17.425  1.00  0.00     0.004 C 
ENDBRANCH  18  19
ENDBRANCH  17  18
ENDBRANCH  16  17
ENDBRANCH  15  16
ENDBRANCH  14  15
ENDBRANCH  13  14
ENDBRANCH  12  13
ENDBRANCH   1  12
TORSDOF 16
ENDMDL
MODEL 3
REMARK VINA RESULT:    -5.502      1.036      2.752
REMARK INTER + INTRA:         -12.256
REMARK INTER:                 -10.758
REMARK INTRA:                  -1.498
REMARK UNBOUND:                -1.606
REMARK SMILES CCCCCCCCCCCCCCCCCC(=O)[O-]
REMARK SMILES IDX 10 1 11 2 12 3 13 4 14 5 15 6 16 7 17 8 18 9 19 10 20 11
REMARK SMILES IDX 9 12 8 13 7 14 6 15 5 16 4 17 3 18 2 19 1 20
REMARK H PARENT
REMARK Flexibility Score: inf
ROOT
ATOM      1  C   UNL     1      -5.108   9.938 -17.436  1.00  0.00     0.000 C 
ENDROOT
BRANCH   1   2
ATOM      2  C   UNL     1      -3.716   9.800 -16.797  1.00  0.00     0.000 C 
BRANCH   2   3
ATOM      3  C   UNL     1      -2.876   8.749 -17.540  1.00  0.00     0.000 C 
BRANCH   3   4
ATOM      4  C   UNL     1      -1.738   9.373 -18.365  1.00  0.00     0.000 C 
BRANCH   4   5
ATOM      5  C   UNL     1      -0.366   8.760 -18.037  1.00  0.00     0.000 C 
BRANCH   5   6
ATOM      6  C   UNL     1       0.082   7.725 -19.081  1.00  0.00     0.000 C 
BRANCH   6   7
ATOM      7  C   UNL     1       0.224   6.310 -18.491  1.00  0.00     0.006 C 
BRANCH   7   8
ATOM      8  C   UNL     1      -0.533   5.261 -19.317  1.00  0.00     0.053 C 
BRANCH   8   9
ATOM      9  C   UNL     1      -1.827   4.872 -18.671  1.00  0.00     0.041 C 
ATOM     10  O   UNL     1      -2.634   4.116 -19.273  1.00  0.00    -0.550 OA
ATOM     11  O   UNL     1      -2.157   5.374 -17.418  1.00  0.00    -0.550 OA
ENDBRANCH   8   9
ENDBRANCH   7   8
ENDBRANCH   6   7
ENDBRANCH   5   6
ENDBRANCH   4   5
ENDBRANCH   3   4
ENDBRANCH   2   3
ENDBRANCH   1   2
BRANCH   1  12
ATOM     12  C   UNL     1      -6.162  10.471 -16.453  1.00  0.00     0.000 C 
BRANCH  12  13
ATOM     13  C   UNL     1      -7.307  11.214 -17.163  1.00  0.00    -0.000 C 
BRANCH  13  14
ATOM     14  C   UNL     1      -7.550  10.697 -18.591  1.00  0.00    -0.000 C 
BRANCH  14  15
ATOM     15  C   UNL     1      -7.185  11.734 -19.668  1.00  0.00    -0.000 C 
BRANCH  15  16
ATOM     16  C   UNL     1      -6.201  11.181 -20.710  1.00  0.00    -0.000 C 
BRANCH  16  17
ATOM     17  C   UNL     1      -4.732  11.340 -20.281  1.00  0.00    -0.000 C 
BRANCH  17  18
ATOM     18  C   UNL     1      -4.484  12.670 -19.539  1.00  0.00    -0.000 C 
BRANCH  18  19
ATOM     19  C   UNL     1      -3.154  12.707 -18.768  1.00  0.00    -0.003 C 
ATOM     20  C   UNL     1      -2.384  14.012 -18.963  1.00  0.00     0.004 C 
ENDBRANCH  18  19
ENDBRANCH  17  18
ENDBRANCH  16  17
ENDBRANCH  15  16
ENDBRANCH  14  15
ENDBRANCH  13  14
ENDBRANCH  12  13
ENDBRANCH   1  12
TORSDOF 16
ENDMDL
MODEL 4
REMARK VINA RESULT:    -4.988      2.433      7.660
REMARK INTER + INTRA:         -11.261
REMARK INTER:                 -10.225
REMARK INTRA:                  -1.036
REMARK UNBOUND:                -1.606
REMARK SMILES CCCCCCCCCCCCCCCCCC(=O)[O-]
REMARK SMILES IDX 10 1 11 2 12 3 13 4 14 5 15 6 16 7 17 8 18 9 19 10 20 11
REMARK SMILES IDX 9 12 8 13 7 14 6 15 5 16 4 17 3 18 2 19 1 20
REMARK H PARENT
REMARK Flexibility Score: inf
ROOT
ATOM      1  C   UNL     1      -3.943   9.587 -16.932  1.00  0.00     0.000 C 
ENDROOT
BRANCH   1   2
ATOM      2  C   UNL     1      -5.242  10.301 -17.341  1.00  0.00     0.000 C 
BRANCH   2   3
ATOM      3  C   UNL     1      -6.249  10.309 -16.180  1.00  0.00     0.000 C 
BRANCH   3   4
ATOM      4  C   UNL     1      -7.666  10.706 -16.626  1.00  0.00     0.000 C 
BRANCH   4   5
ATOM      5  C   UNL     1      -7.669  11.509 -17.939  1.00  0.00     0.000 C 
BRANCH   5   6
ATOM      6  C   UNL     1      -8.155  10.677 -19.137  1.00  0.00     0.000 C 
BRANCH   6   7
ATOM      7  C   UNL     1      -7.361  10.969 -20.423  1.00  0.00     0.006 C 
BRANCH   7   8
ATOM      8  C   UNL     1      -6.502  12.233 -20.298  1.00  0.00     0.053 C 
BRANCH   8   9
ATOM      9  C   UNL     1      -5.046  11.906 -20.175  1.00  0.00     0.041 C 
ATOM     10  O   UNL     1      -4.273  12.679 -19.550  1.00  0.00    -0.550 OA
ATOM     11  O   UNL     1      -4.535  10.765 -20.781  1.00  0.00    -0.550 OA
ENDBRANCH   8   9
ENDBRANCH   7   8
ENDBRANCH   6   7
ENDBRANCH   5   6
ENDBRANCH   4   5
ENDBRANCH   3   4
ENDBRANCH   2   3
ENDBRANCH   1   2
BRANCH   1  12
ATOM     12  C   UNL     1      -2.763   9.926 -17.856  1.00  0.00     0.000 C 
BRANCH  12  13
ATOM     13  C   UNL     1      -1.868   8.707 -18.142  1.00  0.00    -0.000 C 
BRANCH  13  14
ATOM     14  C   UNL     1      -0.459   9.107 -18.608  1.00  0.00    -0.000 C 
BRANCH  14  15
ATOM     15  C   UNL     1       0.233   8.000 -19.423  1.00  0.00    -0.000 C 
BRANCH  15  16
ATOM     16  C   UNL     1       0.808   6.886 -18.535  1.00  0.00    -0.000 C 
BRANCH  16  17
ATOM     17  C   UNL     1       0.134   5.525 -18.783  1.00  0.00    -0.000 C 
BRANCH  17  18
ATOM     18  C   UNL     1      -0.795   5.115 -17.620  1.00  0.00    -0.000 C 
BRANCH  18  19
ATOM     19  C   UNL     1      -2.230   4.786 -18.065  1.00  0.00    -0.003 C 
ATOM     20  C   UNL     1      -2.310   4.286 -19.506  1.00  0.00     0.004 C 
ENDBRANCH  18  19
ENDBRANCH  17  18
ENDBRANCH  16  17
ENDBRANCH  15  16
ENDBRANCH  14  15
ENDBRANCH  13  14
ENDBRANCH  12  13
ENDBRANCH   1  12
TORSDOF 16
ENDMDL
MODEL 5
REMARK VINA RESULT:    -4.959      4.078      6.061
REMARK INTER + INTRA:         -11.204
REMARK INTER:                 -10.193
REMARK INTRA:                  -1.012
REMARK UNBOUND:                -1.606
REMARK SMILES CCCCCCCCCCCCCCCCCC(=O)[O-]
REMARK SMILES IDX 10 1 11 2 12 3 13 4 14 5 15 6 16 7 17 8 18 9 19 10 20 11
REMARK SMILES IDX 9 12 8 13 7 14 6 15 5 16 4 17 3 18 2 19 1 20
REMARK H PARENT
REMARK Flexibility Score: inf
ROOT
ATOM      1  C   UNL     1      -3.847  12.074 -19.143  1.00  0.00     0.000 C 
ENDROOT
BRANCH   1   2
ATOM      2  C   UNL     1      -4.101  10.666 -18.581  1.00  0.00     0.000 C 
BRANCH   2   3
ATOM      3  C   UNL     1      -2.968  10.243 -17.634  1.00  0.00     0.000 C 
BRANCH   3   4
ATOM      4  C   UNL     1      -2.299   8.925 -18.058  1.00  0.00     0.000 C 
BRANCH   4   5
ATOM      5  C   UNL     1      -0.795   9.089 -18.339  1.00  0.00     0.000 C 
BRANCH   5   6
ATOM      6  C   UNL     1      -0.189   7.862 -19.040  1.00  0.00     0.000 C 
BRANCH   6   7
ATOM      7  C   UNL     1       0.233   6.762 -18.050  1.00  0.00     0.006 C 
BRANCH   7   8
ATOM      8  C   UNL     1      -0.181   5.364 -18.527  1.00  0.00     0.053 C 
BRANCH   8   9
ATOM      9  C   UNL     1      -1.643   5.115 -18.316  1.00  0.00     0.041 C 
ATOM     10  O   UNL     1      -2.218   5.551 -17.284  1.00  0.00    -0.550 OA
ATOM     11  O   UNL     1      -2.362   4.368 -19.241  1.00  0.00    -0.550 OA
ENDBRANCH   8   9
ENDBRANCH   7   8
ENDBRANCH   6   7
ENDBRANCH   5   6
ENDBRANCH   4   5
ENDBRANCH   3   4
ENDBRANCH   2   3
ENDBRANCH   1   2
BRANCH   1  12
ATOM     12  C   UNL     1      -2.647  12.770 -18.483  1.00  0.00     0.000 C 
BRANCH  12  13
ATOM     13  C   UNL     1      -2.368  14.159 -19.082  1.00  0.00    -0.000 C 
BRANCH  13  14
ATOM     14  C   UNL     1      -2.022  15.205 -18.009  1.00  0.00    -0.000 C 
BRANCH  14  15
ATOM     15  C   UNL     1      -0.756  16.011 -18.351  1.00  0.00    -0.000 C 
BRANCH  15  16
ATOM     16  C   UNL     1      -1.063  17.483 -18.666  1.00  0.00    -0.000 C 
BRANCH  16  17
ATOM     17  C   UNL     1       0.152  18.229 -19.247  1.00  0.00    -0.000 C 
BRANCH  17  18
ATOM     18  C   UNL     1       1.317  17.274 -19.579  1.00  0.00    -0.000 C 
BRANCH  18  19
ATOM     19  C   UNL     1       1.680  17.241 -21.073  1.00  0.00    -0.003 C 
ATOM     20  C   UNL     1       1.617  15.837 -21.674  1.00  0.00     0.004 C 
ENDBRANCH  18  19
ENDBRANCH  17  18
ENDBRANCH  16  17
ENDBRANCH  15  16
ENDBRANCH  14  15
ENDBRANCH  13  14
ENDBRANCH  12  13
ENDBRANCH   1  12
TORSDOF 16
ENDMDL
MODEL 6
REMARK VINA RESULT:    -4.916      3.447      5.145
REMARK INTER + INTRA:         -11.121
REMARK INTER:                 -10.369
REMARK INTRA:                  -0.752
REMARK UNBOUND:                -1.606
REMARK SMILES CCCCCCCCCCCCCCCCCC(=O)[O-]
REMARK SMILES IDX 10 1 11 2 12 3 13 4 14 5 15 6 16 7 17 8 18 9 19 10 20 11
REMARK SMILES IDX 9 12 8 13 7 14 6 15 5 16 4 17 3 18 2 19 1 20
REMARK H PARENT
REMARK Flexibility Score: inf
ROOT
ATOM      1  C   UNL     1      -4.669  10.393 -17.939  1.00  0.00     0.000 C 
ENDROOT
BRANCH   1   2
ATOM      2  C   UNL     1      -3.656   9.395 -17.353  1.00  0.00     0.000 C 
BRANCH   2   3
ATOM      3  C   UNL     1      -2.224   9.763 -17.769  1.00  0.00     0.000 C 
BRANCH   3   4
ATOM      4  C   UNL     1      -1.488   8.601 -18.457  1.00  0.00     0.000 C 
BRANCH   4   5
ATOM      5  C   UNL     1       0.042   8.748 -18.389  1.00  0.00     0.000 C 
BRANCH   5   6
ATOM      6  C   UNL     1       0.761   7.392 -18.292  1.00  0.00     0.000 C 
BRANCH   6   7
ATOM      7  C   UNL     1       0.011   6.269 -19.030  1.00  0.00     0.006 C 
BRANCH   7   8
ATOM      8  C   UNL     1      -0.406   5.134 -18.086  1.00  0.00     0.053 C 
BRANCH   8   9
ATOM      9  C   UNL     1      -1.895   5.001 -18.002  1.00  0.00     0.041 C 
ATOM     10  O   UNL     1      -2.525   4.361 -18.884  1.00  0.00    -0.550 OA
ATOM     11  O   UNL     1      -2.591   5.613 -16.967  1.00  0.00    -0.550 OA
ENDBRANCH   8   9
ENDBRANCH   7   8
ENDBRANCH   6   7
ENDBRANCH   5   6
ENDBRANCH   4   5
ENDBRANCH   3   4
ENDBRANCH   2   3
ENDBRANCH   1   2
BRANCH   1  12
ATOM     12  C   UNL     1      -4.221  10.969 -19.292  1.00  0.00     0.000 C 
BRANCH  12  13
ATOM     13  C   UNL     1      -4.101  12.503 -19.269  1.00  0.00    -0.000 C 
BRANCH  13  14
ATOM     14  C   UNL     1      -2.777  12.981 -18.649  1.00  0.00    -0.000 C 
BRANCH  14  15
ATOM     15  C   UNL     1      -2.370  14.385 -19.129  1.00  0.00    -0.000 C 
BRANCH  15  16
ATOM     16  C   UNL     1      -1.841  15.268 -17.987  1.00  0.00    -0.000 C 
BRANCH  16  17
ATOM     17  C   UNL     1      -0.590  16.068 -18.389  1.00  0.00    -0.000 C 
BRANCH  17  18
ATOM     18  C   UNL     1      -0.903  17.561 -18.619  1.00  0.00    -0.000 C 
BRANCH  18  19
ATOM     19  C   UNL     1       0.212  18.317 -19.362  1.00  0.00    -0.003 C 
ATOM     20  C   UNL     1      -0.175  19.750 -19.724  1.00  0.00     0.004 C 
ENDBRANCH  18  19
ENDBRANCH  17  18
ENDBRANCH  16  17
ENDBRANCH  15  16
ENDBRANCH  14  15
ENDBRANCH  13  14
ENDBRANCH  12  13
ENDBRANCH   1  12
TORSDOF 16
ENDMDL
MODEL 7
REMARK VINA RESULT:    -4.701      2.586      7.625
REMARK INTER + INTRA:         -10.704
REMARK INTER:                  -9.282
REMARK INTRA:                  -1.422
REMARK UNBOUND:                -1.606
REMARK SMILES CCCCCCCCCCCCCCCCCC(=O)[O-]
REMARK SMILES IDX 10 1 11 2 12 3 13 4 14 5 15 6 16 7 17 8 18 9 19 10 20 11
REMARK SMILES IDX 9 12 8 13 7 14 6 15 5 16 4 17 3 18 2 19 1 20
REMARK H PARENT
REMARK Flexibility Score: inf
ROOT
ATOM      1  C   UNL     1      -3.200   9.393 -17.402  1.00  0.00     0.000 C 
ENDROOT
BRANCH   1   2
ATOM      2  C   UNL     1      -4.068  10.040 -18.493  1.00  0.00     0.000 C 
BRANCH   2   3
ATOM      3  C   UNL     1      -3.744  11.536 -18.634  1.00  0.00     0.000 C 
BRANCH   3   4
ATOM      4  C   UNL     1      -4.692  12.261 -19.604  1.00  0.00     0.000 C 
BRANCH   4   5
ATOM      5  C   UNL     1      -5.412  11.293 -20.559  1.00  0.00     0.000 C 
BRANCH   5   6
ATOM      6  C   UNL     1      -6.941  11.446 -20.509  1.00  0.00     0.000 C 
BRANCH   6   7
ATOM      7  C   UNL     1      -7.453  11.842 -19.112  1.00  0.00     0.006 C 
BRANCH   7   8
ATOM      8  C   UNL     1      -7.663  10.623 -18.206  1.00  0.00     0.053 C 
BRANCH   8   9
ATOM      9  C   UNL     1      -7.409  10.950 -16.766  1.00  0.00     0.041 C 
ATOM     10  O   UNL     1      -6.485  10.369 -16.138  1.00  0.00    -0.550 OA
ATOM     11  O   UNL     1      -8.217  11.869 -16.108  1.00  0.00    -0.550 OA
ENDBRANCH   8   9
ENDBRANCH   7   8
ENDBRANCH   6   7
ENDBRANCH   5   6
ENDBRANCH   4   5
ENDBRANCH   3   4
ENDBRANCH   2   3
ENDBRANCH   1   2
BRANCH   1  12
ATOM     12  C   UNL     1      -2.607   8.043 -17.836  1.00  0.00     0.000 C 
BRANCH  12  13
ATOM     13  C   UNL     1      -2.619   7.002 -16.703  1.00  0.00    -0.000 C 
BRANCH  13  14
ATOM     14  C   UNL     1      -2.724   5.561 -17.228  1.00  0.00    -0.000 C 
BRANCH  14  15
ATOM     15  C   UNL     1      -1.635   5.225 -18.263  1.00  0.00    -0.000 C 
BRANCH  15  16
ATOM     16  C   UNL     1      -0.215   5.379 -17.695  1.00  0.00    -0.000 C 
BRANCH  16  17
ATOM     17  C   UNL     1       0.726   6.131 -18.652  1.00  0.00    -0.000 C 
BRANCH  17  18
ATOM     18  C   UNL     1      -0.008   7.233 -19.445  1.00  0.00    -0.000 C 
BRANCH  18  19
ATOM     19  C   UNL     1       0.637   8.622 -19.311  1.00  0.00    -0.003 C 
ATOM     20  C   UNL     1       0.657   9.138 -17.873  1.00  0.00     0.004 C 
ENDBRANCH  18  19
ENDBRANCH  17  18
ENDBRANCH  16  17
ENDBRANCH  15  16
ENDBRANCH  14  15
ENDBRANCH  13  14
ENDBRANCH  12  13
ENDBRANCH   1  12
TORSDOF 16
ENDMDL
MODEL 8
REMARK VINA RESULT:    -4.502      5.403      8.782
REMARK INTER + INTRA:         -10.320
REMARK INTER:                  -9.398
REMARK INTRA:                  -0.922
REMARK UNBOUND:                -1.606
REMARK SMILES CCCCCCCCCCCCCCCCCC(=O)[O-]
REMARK SMILES IDX 10 1 11 2 12 3 13 4 14 5 15 6 16 7 17 8 18 9 19 10 20 11
REMARK SMILES IDX 9 12 8 13 7 14 6 15 5 16 4 17 3 18 2 19 1 20
REMARK H PARENT
REMARK Flexibility Score: inf
ROOT
ATOM      1  C   UNL     1      -4.556  11.266 -18.802  1.00  0.00     0.000 C 
ENDROOT
BRANCH   1   2
ATOM      2  C   UNL     1      -4.156  12.699 -19.188  1.00  0.00     0.000 C 
BRANCH   2   3
ATOM      3  C   UNL     1      -2.708  12.994 -18.768  1.00  0.00     0.000 C 
BRANCH   3   4
ATOM      4  C   UNL     1      -2.264  14.423 -19.123  1.00  0.00     0.000 C 
BRANCH   4   5
ATOM      5  C   UNL     1      -1.686  15.180 -17.914  1.00  0.00     0.000 C 
BRANCH   5   6
ATOM      6  C   UNL     1      -1.027  16.510 -18.312  1.00  0.00     0.000 C 
BRANCH   6   7
ATOM      7  C   UNL     1       0.431  16.336 -18.773  1.00  0.00     0.006 C 
BRANCH   7   8
ATOM      8  C   UNL     1       1.024  17.640 -19.322  1.00  0.00     0.053 C 
BRANCH   8   9
ATOM      9  C   UNL     1       1.528  17.475 -20.723  1.00  0.00     0.041 C 
ATOM     10  O   UNL     1       1.820  18.486 -21.415  1.00  0.00    -0.550 OA
ATOM     11  O   UNL     1       1.642  16.206 -21.277  1.00  0.00    -0.550 OA
ENDBRANCH   8   9
ENDBRANCH   7   8
ENDBRANCH   6   7
ENDBRANCH   5   6
ENDBRANCH   4   5
ENDBRANCH   3   4
ENDBRANCH   2   3
ENDBRANCH   1   2
BRANCH   1  12
ATOM     12  C   UNL     1      -3.350  10.320 -18.696  1.00  0.00     0.000 C 
BRANCH  12  13
ATOM     13  C   UNL     1      -3.533   9.250 -17.606  1.00  0.00    -0.000 C 
BRANCH  13  14
ATOM     14  C   UNL     1      -2.378   8.235 -17.576  1.00  0.00    -0.000 C 
BRANCH  14  15
ATOM     15  C   UNL     1      -1.203   8.646 -18.481  1.00  0.00    -0.000 C 
BRANCH  15  16
ATOM     16  C   UNL     1       0.040   7.768 -18.267  1.00  0.00    -0.000 C 
BRANCH  16  17
ATOM     17  C   UNL     1      -0.110   6.369 -18.889  1.00  0.00    -0.000 C 
BRANCH  17  18
ATOM     18  C   UNL     1      -0.331   5.278 -17.820  1.00  0.00    -0.000 C 
BRANCH  18  19
ATOM     19  C   UNL     1      -1.740   4.662 -17.851  1.00  0.00    -0.003 C 
ATOM     20  C   UNL     1      -2.210   4.312 -19.262  1.00  0.00     0.004 C 
ENDBRANCH  18  19
ENDBRANCH  17  18
ENDBRANCH  16  17
ENDBRANCH  15  16
ENDBRANCH  14  15
ENDBRANCH  13  14
ENDBRANCH  12  13
ENDBRANCH   1  12
TORSDOF 16
ENDMDL
MODEL 9
REMARK VINA RESULT:    -4.059      4.625      6.377
REMARK INTER + INTRA:          -9.462
REMARK INTER:                  -8.526
REMARK INTRA:                  -0.936
REMARK UNBOUND:                -1.606
REMARK SMILES CCCCCCCCCCCCCCCCCC(=O)[O-]
REMARK SMILES IDX 10 1 11 2 12 3 13 4 14 5 15 6 16 7 17 8 18 9 19 10 20 11
REMARK SMILES IDX 9 12 8 13 7 14 6 15 5 16 4 17 3 18 2 19 1 20
REMARK H PARENT
REMARK Flexibility Score: inf
ROOT
ATOM      1  C   UNL     1      -2.701  12.396 -18.813  1.00  0.00     0.000 C 
ENDROOT
BRANCH   1   2
ATOM      2  C   UNL     1      -3.898  11.502 -19.175  1.00  0.00     0.000 C 
BRANCH   2   3
ATOM      3  C   UNL     1      -3.868  10.194 -18.368  1.00  0.00     0.000 C 
BRANCH   3   4
ATOM      4  C   UNL     1      -2.483   9.898 -17.769  1.00  0.00     0.000 C 
BRANCH   4   5
ATOM      5  C   UNL     1      -1.944   8.517 -18.182  1.00  0.00     0.000 C 
BRANCH   5   6
ATOM      6  C   UNL     1      -0.465   8.562 -18.597  1.00  0.00     0.000 C 
BRANCH   6   7
ATOM      7  C   UNL     1       0.173   7.163 -18.671  1.00  0.00     0.006 C 
BRANCH   7   8
ATOM      8  C   UNL     1      -0.637   6.116 -17.895  1.00  0.00     0.053 C 
BRANCH   8   9
ATOM      9  C   UNL     1      -0.995   4.942 -18.753  1.00  0.00     0.041 C 
ATOM     10  O   UNL     1      -0.556   4.860 -19.931  1.00  0.00    -0.550 OA
ATOM     11  O   UNL     1      -1.842   3.956 -18.265  1.00  0.00    -0.550 OA
ENDBRANCH   8   9
ENDBRANCH   7   8
ENDBRANCH   6   7
ENDBRANCH   5   6
ENDBRANCH   4   5
ENDBRANCH   3   4
ENDBRANCH   2   3
ENDBRANCH   1   2
BRANCH   1  12
ATOM     12  C   UNL     1      -3.042  13.894 -18.861  1.00  0.00     0.000 C 
BRANCH  12  13
ATOM     13  C   UNL     1      -2.010  14.758 -18.115  1.00  0.00    -0.000 C 
BRANCH  13  14
ATOM     14  C   UNL     1      -1.129  15.580 -19.070  1.00  0.00    -0.000 C 
BRANCH  14  15
ATOM     15  C   UNL     1       0.004  16.323 -18.341  1.00  0.00    -0.000 C 
BRANCH  15  16
ATOM     16  C   UNL     1       1.118  16.782 -19.295  1.00  0.00    -0.000 C 
BRANCH  16  17
ATOM     17  C   UNL     1       1.638  18.191 -18.962  1.00  0.00    -0.000 C 
BRANCH  17  18
ATOM     18  C   UNL     1       0.711  19.298 -19.507  1.00  0.00    -0.000 C 
BRANCH  18  19
ATOM     19  C   UNL     1      -0.162  19.958 -18.427  1.00  0.00    -0.003 C 
ATOM     20  C   UNL     1      -1.640  19.588 -18.543  1.00  0.00     0.004 C 
ENDBRANCH  18  19
ENDBRANCH  17  18
ENDBRANCH  16  17
ENDBRANCH  15  16
ENDBRANCH  14  15
ENDBRANCH  13  14
ENDBRANCH  12  13
ENDBRANCH   1  12
TORSDOF 16
ENDMDL
