MODEL 1
REMARK VINA RESULT:    -3.698      0.000      0.000
REMARK INTER + INTRA:          -4.395
REMARK INTER:                  -4.346
REMARK INTRA:                  -0.049
REMARK UNBOUND:                -0.049
REMARK SMILES O=c1c(O)c(-c2ccc(O)cc2)oc2cc(O)cc(O)c12
REMARK SMILES IDX 5 1 3 2 2 3 1 4 21 5 19 6 18 7 16 8 15 9 14 10 13 11 6 12
REMARK SMILES IDX 7 13 8 14 9 15 12 16 11 17 10 18 4 20 20 22 17 24
REMARK H PARENT 10 19 4 21 20 23 17 25
REMARK Flexibility Score: inf
ROOT
ATOM      1  C   UNL     1      -2.400  10.028 -28.513  1.00  0.00     0.180 A 
ATOM      2  C   UNL     1      -2.890   8.750 -28.832  1.00  0.00     0.208 A 
ATOM      3  C   UNL     1      -4.173   8.384 -28.393  1.00  0.00     0.238 A 
ATOM      4  O   UNL     1      -4.584   7.220 -28.635  1.00  0.00    -0.285 OA
ATOM      5  C   UNL     1      -4.955   9.306 -27.657  1.00  0.00     0.111 A 
ATOM      6  C   UNL     1      -6.283   9.056 -27.197  1.00  0.00     0.134 A 
ATOM      7  C   UNL     1      -6.912   9.990 -26.365  1.00  0.00     0.093 A 
ATOM      8  C   UNL     1      -6.288  11.194 -26.030  1.00  0.00     0.123 A 
ATOM      9  C   UNL     1      -5.015  11.473 -26.524  1.00  0.00     0.094 A 
ATOM     10  C   UNL     1      -4.347  10.545 -27.325  1.00  0.00     0.146 A 
ATOM     11  O   UNL     1      -3.131  10.846 -27.765  1.00  0.00    -0.452 OA
ENDROOT
BRANCH   1  12
ATOM     12  C   UNL     1      -1.068  10.496 -28.962  1.00  0.00     0.021 A 
ATOM     13  C   UNL     1       0.082   9.794 -28.562  1.00  0.00     0.016 A 
ATOM     14  C   UNL     1       1.350  10.231 -28.955  1.00  0.00     0.047 A 
ATOM     15  C   UNL     1       1.488  11.380 -29.739  1.00  0.00     0.115 A 
ATOM     16  C   UNL     1      -0.922  11.663 -29.734  1.00  0.00     0.016 A 
ATOM     17  C   UNL     1       0.349  12.098 -30.125  1.00  0.00     0.047 A 
BRANCH  15  18
ATOM     18  O   UNL     1       2.758  11.804 -30.124  1.00  0.00    -0.508 OA
ATOM     19  H   UNL     1       2.905  12.331 -30.977  1.00  0.00     0.293 HD
ENDBRANCH  15  18
ENDBRANCH   1  12
BRANCH   2  20
ATOM     20  O   UNL     1      -2.092   7.848 -29.542  1.00  0.00    -0.502 OA
ATOM     21  H   UNL     1      -1.253   8.133 -30.030  1.00  0.00     0.293 HD
ENDBRANCH   2  20
BRANCH   6  22
ATOM     22  O   UNL     1      -7.031   7.929 -27.548  1.00  0.00    -0.507 OA
ATOM     23  H   UNL     1      -6.881   7.001 -27.179  1.00  0.00     0.293 HD
ENDBRANCH   6  22
BRANCH   8  24
ATOM     24  O   UNL     1      -6.929  12.125 -25.215  1.00  0.00    -0.508 OA
ATOM     25  H   UNL     1      -7.761  12.614 -25.522  1.00  0.00     0.293 HD
ENDBRANCH   8  24
TORSDOF 5
ENDMDL
MODEL 2
REMARK VINA RESULT:    -2.388      3.819      6.800
REMARK INTER + INTRA:          -2.855
REMARK INTER:                  -3.360
REMARK INTRA:                   0.504
REMARK UNBOUND:                -0.049
REMARK SMILES O=c1c(O)c(-c2ccc(O)cc2)oc2cc(O)cc(O)c12
REMARK SMILES IDX 5 1 3 2 2 3 1 4 21 5 19 6 18 7 16 8 15 9 14 10 13 11 6 12
REMARK SMILES IDX 7 13 8 14 9 15 12 16 11 17 10 18 4 20 20 22 17 24
REMARK H PARENT 10 19 4 21 20 23 17 25
REMARK Flexibility Score: inf
ROOT
ATOM      1  C   UNL     1      -1.882  11.586 -25.015  1.00  0.00     0.180 A 
ATOM      2  C   UNL     1      -3.039  11.772 -25.791  1.00  0.00     0.208 A 
ATOM      3  C   UNL     1      -2.950  11.645 -27.187  1.00  0.00     0.238 A 
ATOM      4  O   UNL     1      -3.976  11.866 -27.880  1.00  0.00    -0.285 OA
ATOM      5  C   UNL     1      -1.710  11.316 -27.787  1.00  0.00     0.111 A 
ATOM      6  C   UNL     1      -1.514  11.122 -29.187  1.00  0.00     0.134 A 
ATOM      7  C   UNL     1      -0.218  10.930 -29.682  1.00  0.00     0.093 A 
ATOM      8  C   UNL     1       0.880  10.858 -28.820  1.00  0.00     0.123 A 
ATOM      9  C   UNL     1       0.690  10.987 -27.446  1.00  0.00     0.094 A 
ATOM     10  C   UNL     1      -0.586  11.216 -26.926  1.00  0.00     0.146 A 
ATOM     11  O   UNL     1      -0.721  11.344 -25.611  1.00  0.00    -0.452 OA
ENDROOT
BRANCH   1  12
ATOM     12  C   UNL     1      -1.902  11.680 -23.537  1.00  0.00     0.021 A 
ATOM     13  C   UNL     1      -0.759  11.318 -22.806  1.00  0.00     0.016 A 
ATOM     14  C   UNL     1      -0.763  11.377 -21.409  1.00  0.00     0.047 A 
ATOM     15  C   UNL     1      -1.913  11.783 -20.725  1.00  0.00     0.115 A 
ATOM     16  C   UNL     1      -3.063  12.068 -22.843  1.00  0.00     0.016 A 
ATOM     17  C   UNL     1      -3.064  12.125 -21.445  1.00  0.00     0.047 A 
BRANCH  15  18
ATOM     18  O   UNL     1      -1.903  11.838 -19.333  1.00  0.00    -0.508 OA
ATOM     19  H   UNL     1      -1.235  11.308 -18.786  1.00  0.00     0.293 HD
ENDBRANCH  15  18
ENDBRANCH   1  12
BRANCH   2  20
ATOM     20  O   UNL     1      -4.248  12.118 -25.180  1.00  0.00    -0.502 OA
ATOM     21  H   UNL     1      -5.040  12.471 -25.704  1.00  0.00     0.293 HD
ENDBRANCH   2  20
BRANCH   6  22
ATOM     22  O   UNL     1      -2.552  11.083 -30.123  1.00  0.00    -0.507 OA
ATOM     23  H   UNL     1      -2.440  10.833 -31.094  1.00  0.00     0.293 HD
ENDBRANCH   6  22
BRANCH   8  24
ATOM     24  O   UNL     1       2.163  10.650 -29.321  1.00  0.00    -0.508 OA
ATOM     25  H   UNL     1       2.342   9.980 -30.060  1.00  0.00     0.293 HD
ENDBRANCH   8  24
TORSDOF 5
ENDMDL
MODEL 3
REMARK VINA RESULT:    -1.925      1.954      3.792
REMARK INTER + INTRA:          -2.312
REMARK INTER:                  -2.503
REMARK INTRA:                   0.191
REMARK UNBOUND:                -0.049
REMARK SMILES O=c1c(O)c(-c2ccc(O)cc2)oc2cc(O)cc(O)c12
REMARK SMILES IDX 5 1 3 2 2 3 1 4 21 5 19 6 18 7 16 8 15 9 14 10 13 11 6 12
REMARK SMILES IDX 7 13 8 14 9 15 12 16 11 17 10 18 4 20 20 22 17 24
REMARK H PARENT 10 19 4 21 20 23 17 25
REMARK Flexibility Score: inf
ROOT
ATOM      1  C   UNL     1       0.055  10.477 -28.466  1.00  0.00     0.180 A 
ATOM      2  C   UNL     1      -0.329  11.308 -27.399  1.00  0.00     0.208 A 
ATOM      3  C   UNL     1      -1.679  11.339 -27.012  1.00  0.00     0.238 A 
ATOM      4  O   UNL     1      -2.025  12.125 -26.093  1.00  0.00    -0.285 OA
ATOM      5  C   UNL     1      -2.623  10.528 -27.686  1.00  0.00     0.111 A 
ATOM      6  C   UNL     1      -4.008  10.451 -27.352  1.00  0.00     0.134 A 
ATOM      7  C   UNL     1      -4.875   9.715 -28.171  1.00  0.00     0.093 A 
ATOM      8  C   UNL     1      -4.395   9.001 -29.271  1.00  0.00     0.123 A 
ATOM      9  C   UNL     1      -3.035   9.022 -29.570  1.00  0.00     0.094 A 
ATOM     10  C   UNL     1      -2.151   9.777 -28.794  1.00  0.00     0.146 A 
ATOM     11  O   UNL     1      -0.864   9.779 -29.120  1.00  0.00    -0.452 OA
ENDROOT
BRANCH   1  12
ATOM     12  C   UNL     1       1.463  10.371 -28.914  1.00  0.00     0.021 A 
ATOM     13  C   UNL     1       1.996   9.110 -29.227  1.00  0.00     0.016 A 
ATOM     14  C   UNL     1       3.329   8.984 -29.630  1.00  0.00     0.047 A 
ATOM     15  C   UNL     1       4.150  10.113 -29.711  1.00  0.00     0.115 A 
ATOM     16  C   UNL     1       2.299  11.502 -28.978  1.00  0.00     0.016 A 
ATOM     17  C   UNL     1       3.633  11.372 -29.381  1.00  0.00     0.047 A 
BRANCH  15  18
ATOM     18  O   UNL     1       5.476   9.974 -30.115  1.00  0.00    -0.508 OA
ATOM     19  H   UNL     1       5.831   9.096 -30.474  1.00  0.00     0.293 HD
ENDBRANCH  15  18
ENDBRANCH   1  12
BRANCH   2  20
ATOM     20  O   UNL     1       0.617  12.117 -26.761  1.00  0.00    -0.502 OA
ATOM     21  H   UNL     1       1.448  11.740 -26.324  1.00  0.00     0.293 HD
ENDBRANCH   2  20
BRANCH   6  22
ATOM     22  O   UNL     1      -4.574  11.049 -26.223  1.00  0.00    -0.507 OA
ATOM     23  H   UNL     1      -4.334  10.822 -25.270  1.00  0.00     0.293 HD
ENDBRANCH   6  22
BRANCH   8  24
ATOM     24  O   UNL     1      -5.263   8.258 -30.070  1.00  0.00    -0.508 OA
ATOM     25  H   UNL     1      -5.710   8.662 -30.885  1.00  0.00     0.293 HD
ENDBRANCH   8  24
TORSDOF 5
ENDMDL
MODEL 4
REMARK VINA RESULT:    -1.646      2.091      6.880
REMARK INTER + INTRA:          -1.984
REMARK INTER:                  -1.698
REMARK INTRA:                  -0.286
REMARK UNBOUND:                -0.049
REMARK SMILES O=c1c(O)c(-c2ccc(O)cc2)oc2cc(O)cc(O)c12
REMARK SMILES IDX 5 1 3 2 2 3 1 4 21 5 19 6 18 7 16 8 15 9 14 10 13 11 6 12
REMARK SMILES IDX 7 13 8 14 9 15 12 16 11 17 10 18 4 20 20 22 17 24
REMARK H PARENT 10 19 4 21 20 23 17 25
REMARK Flexibility Score: inf
ROOT
ATOM      1  C   UNL     1      -2.687  11.100 -27.534  1.00  0.00     0.180 A 
ATOM      2  C   UNL     1      -2.243  11.601 -28.770  1.00  0.00     0.208 A 
ATOM      3  C   UNL     1      -0.865  11.625 -29.039  1.00  0.00     0.238 A 
ATOM      4  O   UNL     1      -0.471  12.125 -30.124  1.00  0.00    -0.285 OA
ATOM      5  C   UNL     1       0.050  11.133 -28.077  1.00  0.00     0.111 A 
ATOM      6  C   UNL     1       1.463  11.072 -28.260  1.00  0.00     0.134 A 
ATOM      7  C   UNL     1       2.282  10.688 -27.190  1.00  0.00     0.093 A 
ATOM      8  C   UNL     1       1.733  10.300 -25.965  1.00  0.00     0.123 A 
ATOM      9  C   UNL     1       0.350  10.300 -25.797  1.00  0.00     0.094 A 
ATOM     10  C   UNL     1      -0.490  10.712 -26.833  1.00  0.00     0.146 A 
ATOM     11  O   UNL     1      -1.802  10.707 -26.626  1.00  0.00    -0.452 OA
ENDROOT
BRANCH   1  12
ATOM     12  C   UNL     1      -4.125  11.019 -27.187  1.00  0.00     0.021 A 
ATOM     13  C   UNL     1      -4.756  12.124 -26.592  1.00  0.00     0.016 A 
ATOM     14  C   UNL     1      -6.107  12.061 -26.236  1.00  0.00     0.047 A 
ATOM     15  C   UNL     1      -6.839  10.892 -26.456  1.00  0.00     0.115 A 
ATOM     16  C   UNL     1      -4.862   9.838 -27.388  1.00  0.00     0.016 A 
ATOM     17  C   UNL     1      -6.213   9.778 -27.030  1.00  0.00     0.047 A 
BRANCH  15  18
ATOM     18  O   UNL     1      -8.185  10.843 -26.098  1.00  0.00    -0.508 OA
ATOM     19  H   UNL     1      -8.806  10.134 -26.467  1.00  0.00     0.293 HD
ENDBRANCH  15  18
ENDBRANCH   1  12
BRANCH   2  20
ATOM     20  O   UNL     1      -3.162  12.103 -29.696  1.00  0.00    -0.502 OA
ATOM     21  H   UNL     1      -4.101  11.734 -29.785  1.00  0.00     0.293 HD
ENDBRANCH   2  20
BRANCH   6  22
ATOM     22  O   UNL     1       2.107  11.349 -29.470  1.00  0.00    -0.507 OA
ATOM     23  H   UNL     1       1.756  11.090 -30.380  1.00  0.00     0.293 HD
ENDBRANCH   6  22
BRANCH   8  24
ATOM     24  O   UNL     1       2.555   9.904 -24.912  1.00  0.00    -0.508 OA
ATOM     25  H   UNL     1       3.102  10.575 -24.385  1.00  0.00     0.293 HD
ENDBRANCH   8  24
TORSDOF 5
ENDMDL
MODEL 5
REMARK VINA RESULT:    -1.371      1.723      3.423
REMARK INTER + INTRA:          -1.661
REMARK INTER:                  -1.724
REMARK INTRA:                   0.063
REMARK UNBOUND:                -0.049
REMARK SMILES O=c1c(O)c(-c2ccc(O)cc2)oc2cc(O)cc(O)c12
REMARK SMILES IDX 5 1 3 2 2 3 1 4 21 5 19 6 18 7 16 8 15 9 14 10 13 11 6 12
REMARK SMILES IDX 7 13 8 14 9 15 12 16 11 17 10 18 4 20 20 22 17 24
REMARK H PARENT 10 19 4 21 20 23 17 25
REMARK Flexibility Score: inf
ROOT
ATOM      1  C   UNL     1      -1.395   9.986 -28.976  1.00  0.00     0.180 A 
ATOM      2  C   UNL     1      -2.344  10.804 -28.337  1.00  0.00     0.208 A 
ATOM      3  C   UNL     1      -3.622  10.285 -28.074  1.00  0.00     0.238 A 
ATOM      4  O   UNL     1      -4.484  11.038 -27.552  1.00  0.00    -0.285 OA
ATOM      5  C   UNL     1      -3.929   8.951 -28.437  1.00  0.00     0.111 A 
ATOM      6  C   UNL     1      -5.178   8.310 -28.182  1.00  0.00     0.134 A 
ATOM      7  C   UNL     1      -5.416   7.031 -28.702  1.00  0.00     0.093 A 
ATOM      8  C   UNL     1      -4.426   6.345 -29.410  1.00  0.00     0.123 A 
ATOM      9  C   UNL     1      -3.183   6.940 -29.613  1.00  0.00     0.094 A 
ATOM     10  C   UNL     1      -2.928   8.229 -29.138  1.00  0.00     0.146 A 
ATOM     11  O   UNL     1      -1.734   8.763 -29.362  1.00  0.00    -0.452 OA
ENDROOT
BRANCH   1  12
ATOM     12  C   UNL     1      -0.019  10.454 -29.264  1.00  0.00     0.021 A 
ATOM     13  C   UNL     1       1.076   9.674 -28.857  1.00  0.00     0.016 A 
ATOM     14  C   UNL     1       2.383  10.108 -29.098  1.00  0.00     0.047 A 
ATOM     15  C   UNL     1       2.613  11.331 -29.735  1.00  0.00     0.115 A 
ATOM     16  C   UNL     1       0.218  11.694 -29.886  1.00  0.00     0.016 A 
ATOM     17  C   UNL     1       1.527  12.125 -30.125  1.00  0.00     0.047 A 
BRANCH  15  18
ATOM     18  O   UNL     1       3.921  11.750 -29.970  1.00  0.00    -0.508 OA
ATOM     19  H   UNL     1       4.328  11.719 -30.897  1.00  0.00     0.293 HD
ENDBRANCH  15  18
ENDBRANCH   1  12
BRANCH   2  20
ATOM     20  O   UNL     1      -2.026  12.125 -28.008  1.00  0.00    -0.502 OA
ATOM     21  H   UNL     1      -1.707  12.393 -27.085  1.00  0.00     0.293 HD
ENDBRANCH   2  20
BRANCH   6  22
ATOM     22  O   UNL     1      -6.199   8.868 -27.407  1.00  0.00    -0.507 OA
ATOM     23  H   UNL     1      -6.072   9.616 -26.742  1.00  0.00     0.293 HD
ENDBRANCH   6  22
BRANCH   8  24
ATOM     24  O   UNL     1      -4.666   5.067 -29.910  1.00  0.00    -0.508 OA
ATOM     25  H   UNL     1      -5.407   4.889 -30.578  1.00  0.00     0.293 HD
ENDBRANCH   8  24
TORSDOF 5
ENDMDL
MODEL 6
REMARK VINA RESULT:    -0.977      1.699      6.540
REMARK INTER + INTRA:          -1.197
REMARK INTER:                  -1.636
REMARK INTRA:                   0.439
REMARK UNBOUND:                -0.049
REMARK SMILES O=c1c(O)c(-c2ccc(O)cc2)oc2cc(O)cc(O)c12
REMARK SMILES IDX 5 1 3 2 2 3 1 4 21 5 19 6 18 7 16 8 15 9 14 10 13 11 6 12
REMARK SMILES IDX 7 13 8 14 9 15 12 16 11 17 10 18 4 20 20 22 17 24
REMARK H PARENT 10 19 4 21 20 23 17 25
REMARK Flexibility Score: inf
ROOT
ATOM      1  C   UNL     1      -2.950  10.460 -27.584  1.00  0.00     0.180 A 
ATOM      2  C   UNL     1      -2.775   9.575 -28.662  1.00  0.00     0.208 A 
ATOM      3  C   UNL     1      -1.474   9.311 -29.122  1.00  0.00     0.238 A 
ATOM      4  O   UNL     1      -1.327   8.561 -30.121  1.00  0.00    -0.285 OA
ATOM      5  C   UNL     1      -0.365   9.923 -28.488  1.00  0.00     0.111 A 
ATOM      6  C   UNL     1       0.998   9.697 -28.845  1.00  0.00     0.134 A 
ATOM      7  C   UNL     1       2.005  10.456 -28.236  1.00  0.00     0.093 A 
ATOM      8  C   UNL     1       1.704  11.385 -27.237  1.00  0.00     0.123 A 
ATOM      9  C   UNL     1       0.382  11.570 -26.840  1.00  0.00     0.094 A 
ATOM     10  C   UNL     1      -0.649  10.854 -27.454  1.00  0.00     0.146 A 
ATOM     11  O   UNL     1      -1.896  11.069 -27.054  1.00  0.00    -0.452 OA
ENDROOT
BRANCH   1  12
ATOM     12  C   UNL     1      -4.288  10.768 -27.027  1.00  0.00     0.021 A 
ATOM     13  C   UNL     1      -4.432  11.832 -26.122  1.00  0.00     0.016 A 
ATOM     14  C   UNL     1      -5.681  12.125 -25.567  1.00  0.00     0.047 A 
ATOM     15  C   UNL     1      -6.798  11.352 -25.897  1.00  0.00     0.115 A 
ATOM     16  C   UNL     1      -5.411   9.980 -27.340  1.00  0.00     0.016 A 
ATOM     17  C   UNL     1      -6.659  10.276 -26.782  1.00  0.00     0.047 A 
BRANCH  15  18
ATOM     18  O   UNL     1      -8.037  11.656 -25.337  1.00  0.00    -0.508 OA
ATOM     19  H   UNL     1      -8.775  10.966 -25.279  1.00  0.00     0.293 HD
ENDBRANCH  15  18
ENDBRANCH   1  12
BRANCH   2  20
ATOM     20  O   UNL     1      -3.885   8.999 -29.287  1.00  0.00    -0.502 OA
ATOM     21  H   UNL     1      -4.777   8.895 -28.821  1.00  0.00     0.293 HD
ENDBRANCH   2  20
BRANCH   6  22
ATOM     22  O   UNL     1       1.414   8.729 -29.763  1.00  0.00    -0.507 OA
ATOM     23  H   UNL     1       1.376   8.833 -30.765  1.00  0.00     0.293 HD
ENDBRANCH   6  22
BRANCH   8  24
ATOM     24  O   UNL     1       2.715  12.125 -26.626  1.00  0.00    -0.508 OA
ATOM     25  H   UNL     1       3.447  12.570 -27.167  1.00  0.00     0.293 HD
ENDBRANCH   8  24
TORSDOF 5
ENDMDL
