MODEL 1
REMARK VINA RESULT:    -3.593      0.000      0.000
REMARK INTER + INTRA:          -8.086
REMARK INTER:                  -6.114
REMARK INTRA:                  -1.972
REMARK UNBOUND:                -1.972
REMARK SMILES CCCCCCCCCCCCCC(=O)[O-]
REMARK SMILES IDX 8 1 9 2 10 3 11 4 12 5 13 6 14 7 15 8 16 9 7 10 6 11 5 12
REMARK SMILES IDX 4 13 3 14 2 15 1 16
REMARK H PARENT
REMARK Flexibility Score: inf
ROOT
ATOM      1  C   UNL     1     -27.992 -50.690  29.956  1.00  0.00     0.000 C 
ENDROOT
BRANCH   1   2
ATOM      2  C   UNL     1     -26.716 -49.905  29.610  1.00  0.00     0.000 C 
BRANCH   2   3
ATOM      3  C   UNL     1     -25.967 -49.409  30.859  1.00  0.00     0.000 C 
BRANCH   3   4
ATOM      4  C   UNL     1     -24.685 -50.210  31.136  1.00  0.00     0.000 C 
BRANCH   4   5
ATOM      5  C   UNL     1     -24.814 -51.123  32.364  1.00  0.00     0.006 C 
BRANCH   5   6
ATOM      6  C   UNL     1     -25.728 -50.496  33.421  1.00  0.00     0.053 C 
BRANCH   6   7
ATOM      7  C   UNL     1     -24.969 -50.238  34.684  1.00  0.00     0.041 C 
ATOM      8  O   UNL     1     -23.927 -50.893  34.942  1.00  0.00    -0.550 OA
ATOM      9  O   UNL     1     -25.387 -49.237  35.553  1.00  0.00    -0.550 OA
ENDBRANCH   6   7
ENDBRANCH   5   6
ENDBRANCH   4   5
ENDBRANCH   3   4
ENDBRANCH   2   3
ENDBRANCH   1   2
BRANCH   1  10
ATOM     10  C   UNL     1     -27.966 -52.128  29.409  1.00  0.00     0.000 C 
BRANCH  10  11
ATOM     11  C   UNL     1     -27.214 -53.099  30.334  1.00  0.00    -0.000 C 
BRANCH  11  12
ATOM     12  C   UNL     1     -26.294 -54.060  29.562  1.00  0.00    -0.000 C 
BRANCH  12  13
ATOM     13  C   UNL     1     -24.820 -53.621  29.594  1.00  0.00    -0.000 C 
BRANCH  13  14
ATOM     14  C   UNL     1     -24.400 -52.864  28.322  1.00  0.00    -0.000 C 
BRANCH  14  15
ATOM     15  C   UNL     1     -25.144 -53.357  27.071  1.00  0.00    -0.003 C 
ATOM     16  C   UNL     1     -25.828 -52.226  26.304  1.00  0.00     0.004 C 
ENDBRANCH  14  15
ENDBRANCH  13  14
ENDBRANCH  12  13
ENDBRANCH  11  12
ENDBRANCH  10  11
ENDBRANCH   1  10
TORSDOF 12
ENDMDL
MODEL 2
REMARK VINA RESULT:    -3.583      2.790      5.024
REMARK INTER + INTRA:          -8.069
REMARK INTER:                  -6.273
REMARK INTRA:                  -1.796
REMARK UNBOUND:                -1.972
REMARK SMILES CCCCCCCCCCCCCC(=O)[O-]
REMARK SMILES IDX 8 1 9 2 10 3 11 4 12 5 13 6 14 7 15 8 16 9 7 10 6 11 5 12
REMARK SMILES IDX 4 13 3 14 2 15 1 16
REMARK H PARENT
REMARK Flexibility Score: inf
ROOT
ATOM      1  C   UNL     1     -25.726 -51.367  25.306  1.00  0.00     0.000 C 
ENDROOT
BRANCH   1   2
ATOM      2  C   UNL     1     -25.767 -51.855  26.763  1.00  0.00     0.000 C 
BRANCH   2   3
ATOM      3  C   UNL     1     -24.917 -53.117  26.991  1.00  0.00     0.000 C 
BRANCH   3   4
ATOM      4  C   UNL     1     -24.598 -53.354  28.475  1.00  0.00     0.000 C 
BRANCH   4   5
ATOM      5  C   UNL     1     -25.546 -54.370  29.128  1.00  0.00     0.006 C 
BRANCH   5   6
ATOM      6  C   UNL     1     -25.747 -54.056  30.614  1.00  0.00     0.053 C 
BRANCH   6   7
ATOM      7  C   UNL     1     -26.101 -52.615  30.803  1.00  0.00     0.041 C 
ATOM      8  O   UNL     1     -25.319 -51.847  31.421  1.00  0.00    -0.550 OA
ATOM      9  O   UNL     1     -27.271 -52.109  30.252  1.00  0.00    -0.550 OA
ENDBRANCH   6   7
ENDBRANCH   5   6
ENDBRANCH   4   5
ENDBRANCH   3   4
ENDBRANCH   2   3
ENDBRANCH   1   2
BRANCH   1  10
ATOM     10  C   UNL     1     -27.128 -51.267  24.678  1.00  0.00     0.000 C 
BRANCH  10  11
ATOM     11  C   UNL     1     -27.246 -52.063  23.367  1.00  0.00    -0.000 C 
BRANCH  11  12
ATOM     12  C   UNL     1     -27.582 -53.545  23.603  1.00  0.00    -0.000 C 
BRANCH  12  13
ATOM     13  C   UNL     1     -28.584 -53.748  24.753  1.00  0.00    -0.000 C 
BRANCH  13  14
ATOM     14  C   UNL     1     -28.035 -54.661  25.862  1.00  0.00    -0.000 C 
BRANCH  14  15
ATOM     15  C   UNL     1     -28.698 -54.397  27.223  1.00  0.00    -0.003 C 
ATOM     16  C   UNL     1     -29.204 -52.962  27.368  1.00  0.00     0.004 C 
ENDBRANCH  14  15
ENDBRANCH  13  14
ENDBRANCH  12  13
ENDBRANCH  11  12
ENDBRANCH  10  11
ENDBRANCH   1  10
TORSDOF 12
ENDMDL
MODEL 3
REMARK VINA RESULT:    -3.530      3.626      5.091
REMARK INTER + INTRA:          -7.979
REMARK INTER:                  -6.092
REMARK INTRA:                  -1.887
REMARK UNBOUND:                -1.972
REMARK SMILES CCCCCCCCCCCCCC(=O)[O-]
REMARK SMILES IDX 8 1 9 2 10 3 11 4 12 5 13 6 14 7 15 8 16 9 7 10 6 11 5 12
REMARK SMILES IDX 4 13 3 14 2 15 1 16
REMARK H PARENT
REMARK Flexibility Score: inf
ROOT
ATOM      1  C   UNL     1     -29.396 -53.139  27.482  1.00  0.00     0.000 C 
ENDROOT
BRANCH   1   2
ATOM      2  C   UNL     1     -28.547 -52.412  28.537  1.00  0.00     0.000 C 
BRANCH   2   3
ATOM      3  C   UNL     1     -27.698 -51.277  27.938  1.00  0.00     0.000 C 
BRANCH   3   4
ATOM      4  C   UNL     1     -26.217 -51.373  28.337  1.00  0.00     0.000 C 
BRANCH   4   5
ATOM      5  C   UNL     1     -25.477 -52.495  27.594  1.00  0.00     0.006 C 
BRANCH   5   6
ATOM      6  C   UNL     1     -24.641 -53.337  28.563  1.00  0.00     0.053 C 
BRANCH   6   7
ATOM      7  C   UNL     1     -25.511 -54.304  29.302  1.00  0.00     0.041 C 
ATOM      8  O   UNL     1     -25.931 -55.343  28.730  1.00  0.00    -0.550 OA
ATOM      9  O   UNL     1     -25.816 -54.082  30.639  1.00  0.00    -0.550 OA
ENDBRANCH   6   7
ENDBRANCH   5   6
ENDBRANCH   4   5
ENDBRANCH   3   4
ENDBRANCH   2   3
ENDBRANCH   1   2
BRANCH   1  10
ATOM     10  C   UNL     1     -28.861 -54.545  27.161  1.00  0.00     0.000 C 
BRANCH  10  11
ATOM     11  C   UNL     1     -27.922 -54.556  25.943  1.00  0.00    -0.000 C 
BRANCH  11  12
ATOM     12  C   UNL     1     -28.411 -53.636  24.812  1.00  0.00    -0.000 C 
BRANCH  12  13
ATOM     13  C   UNL     1     -27.254 -53.034  23.997  1.00  0.00    -0.000 C 
BRANCH  13  14
ATOM     14  C   UNL     1     -27.016 -51.548  24.314  1.00  0.00    -0.000 C 
BRANCH  14  15
ATOM     15  C   UNL     1     -25.558 -51.122  24.083  1.00  0.00    -0.003 C 
ATOM     16  C   UNL     1     -25.384 -49.605  24.031  1.00  0.00     0.004 C 
ENDBRANCH  14  15
ENDBRANCH  13  14
ENDBRANCH  12  13
ENDBRANCH  11  12
ENDBRANCH  10  11
ENDBRANCH   1  10
TORSDOF 12
ENDMDL
MODEL 4
REMARK VINA RESULT:    -3.508      9.219     10.405
REMARK INTER + INTRA:          -7.941
REMARK INTER:                  -6.509
REMARK INTRA:                  -1.432
REMARK UNBOUND:                -1.972
REMARK SMILES CCCCCCCCCCCCCC(=O)[O-]
REMARK SMILES IDX 8 1 9 2 10 3 11 4 12 5 13 6 14 7 15 8 16 9 7 10 6 11 5 12
REMARK SMILES IDX 4 13 3 14 2 15 1 16
REMARK H PARENT
REMARK Flexibility Score: inf
ROOT
ATOM      1  C   UNL     1     -34.738 -51.184  24.175  1.00  0.00     0.000 C 
ENDROOT
BRANCH   1   2
ATOM      2  C   UNL     1     -34.337 -52.233  25.225  1.00  0.00     0.000 C 
BRANCH   2   3
ATOM      3  C   UNL     1     -33.330 -51.689  26.254  1.00  0.00     0.000 C 
BRANCH   3   4
ATOM      4  C   UNL     1     -33.683 -52.091  27.694  1.00  0.00     0.000 C 
BRANCH   4   5
ATOM      5  C   UNL     1     -34.810 -53.132  27.757  1.00  0.00     0.006 C 
BRANCH   5   6
ATOM      6  C   UNL     1     -35.078 -53.563  29.203  1.00  0.00     0.053 C 
BRANCH   6   7
ATOM      7  C   UNL     1     -35.891 -54.819  29.233  1.00  0.00     0.041 C 
ATOM      8  O   UNL     1     -37.105 -54.780  29.563  1.00  0.00    -0.550 OA
ATOM      9  O   UNL     1     -35.320 -56.026  28.849  1.00  0.00    -0.550 OA
ENDBRANCH   6   7
ENDBRANCH   5   6
ENDBRANCH   4   5
ENDBRANCH   3   4
ENDBRANCH   2   3
ENDBRANCH   1   2
BRANCH   1  10
ATOM     10  C   UNL     1     -34.191 -49.783  24.503  1.00  0.00     0.000 C 
BRANCH  10  11
ATOM     11  C   UNL     1     -34.169 -48.856  23.276  1.00  0.00    -0.000 C 
BRANCH  11  12
ATOM     12  C   UNL     1     -32.753 -48.657  22.710  1.00  0.00    -0.000 C 
BRANCH  12  13
ATOM     13  C   UNL     1     -31.662 -48.792  23.786  1.00  0.00    -0.000 C 
BRANCH  13  14
ATOM     14  C   UNL     1     -30.583 -49.821  23.410  1.00  0.00    -0.000 C 
BRANCH  14  15
ATOM     15  C   UNL     1     -31.146 -50.989  22.584  1.00  0.00    -0.003 C 
ATOM     16  C   UNL     1     -31.088 -52.323  23.329  1.00  0.00     0.004 C 
ENDBRANCH  14  15
ENDBRANCH  13  14
ENDBRANCH  12  13
ENDBRANCH  11  12
ENDBRANCH  10  11
ENDBRANCH   1  10
TORSDOF 12
ENDMDL
MODEL 5
REMARK VINA RESULT:    -3.470      4.393      6.670
REMARK INTER + INTRA:          -7.876
REMARK INTER:                  -6.295
REMARK INTRA:                  -1.582
REMARK UNBOUND:                -1.972
REMARK SMILES CCCCCCCCCCCCCC(=O)[O-]
REMARK SMILES IDX 8 1 9 2 10 3 11 4 12 5 13 6 14 7 15 8 16 9 7 10 6 11 5 12
REMARK SMILES IDX 4 13 3 14 2 15 1 16
REMARK H PARENT
REMARK Flexibility Score: inf
ROOT
ATOM      1  C   UNL     1     -25.750 -54.203  29.687  1.00  0.00     0.000 C 
ENDROOT
BRANCH   1   2
ATOM      2  C   UNL     1     -24.640 -53.351  29.051  1.00  0.00     0.000 C 
BRANCH   2   3
ATOM      3  C   UNL     1     -25.016 -52.833  27.652  1.00  0.00     0.000 C 
BRANCH   3   4
ATOM      4  C   UNL     1     -26.240 -51.904  27.675  1.00  0.00     0.000 C 
BRANCH   4   5
ATOM      5  C   UNL     1     -27.373 -52.399  26.764  1.00  0.00     0.006 C 
BRANCH   5   6
ATOM      6  C   UNL     1     -27.054 -53.785  26.195  1.00  0.00     0.053 C 
BRANCH   6   7
ATOM      7  C   UNL     1     -27.256 -53.803  24.713  1.00  0.00     0.041 C 
ATOM      8  O   UNL     1     -26.961 -52.795  24.021  1.00  0.00    -0.550 OA
ATOM      9  O   UNL     1     -27.725 -54.953  24.089  1.00  0.00    -0.550 OA
ENDBRANCH   6   7
ENDBRANCH   5   6
ENDBRANCH   4   5
ENDBRANCH   3   4
ENDBRANCH   2   3
ENDBRANCH   1   2
BRANCH   1  10
ATOM     10  C   UNL     1     -25.910 -53.935  31.194  1.00  0.00     0.000 C 
BRANCH  10  11
ATOM     11  C   UNL     1     -27.146 -53.077  31.513  1.00  0.00    -0.000 C 
BRANCH  11  12
ATOM     12  C   UNL     1     -26.866 -52.017  32.592  1.00  0.00    -0.000 C 
BRANCH  12  13
ATOM     13  C   UNL     1     -25.363 -51.756  32.789  1.00  0.00    -0.000 C 
BRANCH  13  14
ATOM     14  C   UNL     1     -24.949 -50.336  32.366  1.00  0.00    -0.000 C 
BRANCH  14  15
ATOM     15  C   UNL     1     -25.001 -50.137  30.843  1.00  0.00    -0.003 C 
ATOM     16  C   UNL     1     -26.011 -49.072  30.418  1.00  0.00     0.004 C 
ENDBRANCH  14  15
ENDBRANCH  13  14
ENDBRANCH  12  13
ENDBRANCH  11  12
ENDBRANCH  10  11
ENDBRANCH   1  10
TORSDOF 12
ENDMDL
MODEL 6
REMARK VINA RESULT:    -3.468     10.501     11.709
REMARK INTER + INTRA:          -7.873
REMARK INTER:                  -5.873
REMARK INTRA:                  -2.000
REMARK UNBOUND:                -1.972
REMARK SMILES CCCCCCCCCCCCCC(=O)[O-]
REMARK SMILES IDX 8 1 9 2 10 3 11 4 12 5 13 6 14 7 15 8 16 9 7 10 6 11 5 12
REMARK SMILES IDX 4 13 3 14 2 15 1 16
REMARK H PARENT
REMARK Flexibility Score: inf
ROOT
ATOM      1  C   UNL     1     -34.634 -48.571  24.000  1.00  0.00     0.000 C 
ENDROOT
BRANCH   1   2
ATOM      2  C   UNL     1     -35.029 -47.087  23.929  1.00  0.00     0.000 C 
BRANCH   2   3
ATOM      3  C   UNL     1     -35.399 -46.504  25.304  1.00  0.00     0.000 C 
BRANCH   3   4
ATOM      4  C   UNL     1     -34.345 -46.814  26.379  1.00  0.00     0.000 C 
BRANCH   4   5
ATOM      5  C   UNL     1     -33.996 -45.587  27.235  1.00  0.00     0.006 C 
BRANCH   5   6
ATOM      6  C   UNL     1     -35.098 -44.526  27.147  1.00  0.00     0.053 C 
BRANCH   6   7
ATOM      7  C   UNL     1     -35.757 -44.343  28.478  1.00  0.00     0.041 C 
ATOM      8  O   UNL     1     -35.389 -43.416  29.245  1.00  0.00    -0.550 OA
ATOM      9  O   UNL     1     -36.812 -45.168  28.850  1.00  0.00    -0.550 OA
ENDBRANCH   6   7
ENDBRANCH   5   6
ENDBRANCH   4   5
ENDBRANCH   3   4
ENDBRANCH   2   3
ENDBRANCH   1   2
BRANCH   1  10
ATOM     10  C   UNL     1     -33.320 -48.867  23.256  1.00  0.00     0.000 C 
BRANCH  10  11
ATOM     11  C   UNL     1     -32.961 -47.776  22.234  1.00  0.00    -0.000 C 
BRANCH  11  12
ATOM     12  C   UNL     1     -31.614 -47.099  22.540  1.00  0.00    -0.000 C 
BRANCH  12  13
ATOM     13  C   UNL     1     -31.368 -46.929  24.049  1.00  0.00    -0.000 C 
BRANCH  13  14
ATOM     14  C   UNL     1     -31.428 -45.458  24.496  1.00  0.00    -0.000 C 
BRANCH  14  15
ATOM     15  C   UNL     1     -32.074 -44.548  23.439  1.00  0.00    -0.003 C 
ATOM     16  C   UNL     1     -33.187 -43.672  24.012  1.00  0.00     0.004 C 
ENDBRANCH  14  15
ENDBRANCH  13  14
ENDBRANCH  12  13
ENDBRANCH  11  12
ENDBRANCH  10  11
ENDBRANCH   1  10
TORSDOF 12
ENDMDL
MODEL 7
REMARK VINA RESULT:    -3.448      9.022     10.880
REMARK INTER + INTRA:          -7.838
REMARK INTER:                  -6.545
REMARK INTRA:                  -1.293
REMARK UNBOUND:                -1.972
REMARK SMILES CCCCCCCCCCCCCC(=O)[O-]
REMARK SMILES IDX 8 1 9 2 10 3 11 4 12 5 13 6 14 7 15 8 16 9 7 10 6 11 5 12
REMARK SMILES IDX 4 13 3 14 2 15 1 16
REMARK H PARENT
REMARK Flexibility Score: inf
ROOT
ATOM      1  C   UNL     1     -32.979 -51.839  27.060  1.00  0.00     0.000 C 
ENDROOT
BRANCH   1   2
ATOM      2  C   UNL     1     -34.234 -52.156  26.231  1.00  0.00     0.000 C 
BRANCH   2   3
ATOM      3  C   UNL     1     -34.055 -51.836  24.736  1.00  0.00     0.000 C 
BRANCH   3   4
ATOM      4  C   UNL     1     -34.992 -50.719  24.255  1.00  0.00     0.000 C 
BRANCH   4   5
ATOM      5  C   UNL     1     -34.231 -49.465  23.799  1.00  0.00     0.006 C 
BRANCH   5   6
ATOM      6  C   UNL     1     -34.015 -48.499  24.969  1.00  0.00     0.053 C 
BRANCH   6   7
ATOM      7  C   UNL     1     -34.734 -47.211  24.726  1.00  0.00     0.041 C 
ATOM      8  O   UNL     1     -34.714 -46.679  23.586  1.00  0.00    -0.550 OA
ATOM      9  O   UNL     1     -35.470 -46.622  25.748  1.00  0.00    -0.550 OA
ENDBRANCH   6   7
ENDBRANCH   5   6
ENDBRANCH   4   5
ENDBRANCH   3   4
ENDBRANCH   2   3
ENDBRANCH   1   2
BRANCH   1  10
ATOM     10  C   UNL     1     -33.289 -50.969  28.291  1.00  0.00     0.000 C 
BRANCH  10  11
ATOM     11  C   UNL     1     -34.187 -51.689  29.311  1.00  0.00    -0.000 C 
BRANCH  11  12
ATOM     12  C   UNL     1     -33.398 -52.643  30.224  1.00  0.00    -0.000 C 
BRANCH  12  13
ATOM     13  C   UNL     1     -34.069 -54.020  30.363  1.00  0.00    -0.000 C 
BRANCH  13  14
ATOM     14  C   UNL     1     -33.895 -54.893  29.108  1.00  0.00    -0.000 C 
BRANCH  14  15
ATOM     15  C   UNL     1     -35.206 -55.564  28.671  1.00  0.00    -0.003 C 
ATOM     16  C   UNL     1     -36.269 -54.558  28.231  1.00  0.00     0.004 C 
ENDBRANCH  14  15
ENDBRANCH  13  14
ENDBRANCH  12  13
ENDBRANCH  11  12
ENDBRANCH  10  11
ENDBRANCH   1  10
TORSDOF 12
ENDMDL
MODEL 8
REMARK VINA RESULT:    -3.422      3.613      6.314
REMARK INTER + INTRA:          -7.795
REMARK INTER:                  -6.166
REMARK INTRA:                  -1.629
REMARK UNBOUND:                -1.972
REMARK SMILES CCCCCCCCCCCCCC(=O)[O-]
REMARK SMILES IDX 8 1 9 2 10 3 11 4 12 5 13 6 14 7 15 8 16 9 7 10 6 11 5 12
REMARK SMILES IDX 4 13 3 14 2 15 1 16
REMARK H PARENT
REMARK Flexibility Score: inf
ROOT
ATOM      1  C   UNL     1     -24.509 -51.922  30.384  1.00  0.00     0.000 C 
ENDROOT
BRANCH   1   2
ATOM      2  C   UNL     1     -25.140 -53.128  31.099  1.00  0.00     0.000 C 
BRANCH   2   3
ATOM      3  C   UNL     1     -26.088 -53.929  30.189  1.00  0.00     0.000 C 
BRANCH   3   4
ATOM      4  C   UNL     1     -27.200 -53.058  29.584  1.00  0.00     0.000 C 
BRANCH   4   5
ATOM      5  C   UNL     1     -27.237 -53.130  28.050  1.00  0.00     0.006 C 
BRANCH   5   6
ATOM      6  C   UNL     1     -26.598 -51.885  27.427  1.00  0.00     0.053 C 
BRANCH   6   7
ATOM      7  C   UNL     1     -25.480 -52.271  26.511  1.00  0.00     0.041 C 
ATOM      8  O   UNL     1     -24.716 -53.224  26.812  1.00  0.00    -0.550 OA
ATOM      9  O   UNL     1     -25.312 -51.608  25.302  1.00  0.00    -0.550 OA
ENDBRANCH   6   7
ENDBRANCH   5   6
ENDBRANCH   4   5
ENDBRANCH   3   4
ENDBRANCH   2   3
ENDBRANCH   1   2
BRANCH   1  10
ATOM     10  C   UNL     1     -24.861 -50.585  31.060  1.00  0.00     0.000 C 
BRANCH  10  11
ATOM     11  C   UNL     1     -24.455 -50.547  32.543  1.00  0.00    -0.000 C 
BRANCH  11  12
ATOM     12  C   UNL     1     -25.630 -50.190  33.468  1.00  0.00    -0.000 C 
BRANCH  12  13
ATOM     13  C   UNL     1     -26.035 -51.355  34.387  1.00  0.00    -0.000 C 
BRANCH  13  14
ATOM     14  C   UNL     1     -27.557 -51.573  34.430  1.00  0.00    -0.000 C 
BRANCH  14  15
ATOM     15  C   UNL     1     -28.061 -52.441  33.266  1.00  0.00    -0.003 C 
ATOM     16  C   UNL     1     -27.894 -53.938  33.527  1.00  0.00     0.004 C 
ENDBRANCH  14  15
ENDBRANCH  13  14
ENDBRANCH  12  13
ENDBRANCH  11  12
ENDBRANCH  10  11
ENDBRANCH   1  10
TORSDOF 12
ENDMDL
MODEL 9
REMARK VINA RESULT:    -3.407      9.156     11.005
REMARK INTER + INTRA:          -7.769
REMARK INTER:                  -6.128
REMARK INTRA:                  -1.641
REMARK UNBOUND:                -1.972
REMARK SMILES CCCCCCCCCCCCCC(=O)[O-]
REMARK SMILES IDX 8 1 9 2 10 3 11 4 12 5 13 6 14 7 15 8 16 9 7 10 6 11 5 12
REMARK SMILES IDX 4 13 3 14 2 15 1 16
REMARK H PARENT
REMARK Flexibility Score: inf
ROOT
ATOM      1  C   UNL     1     -35.640 -44.235  29.633  1.00  0.00     0.000 C 
ENDROOT
BRANCH   1   2
ATOM      2  C   UNL     1     -35.665 -45.138  30.877  1.00  0.00     0.000 C 
BRANCH   2   3
ATOM      3  C   UNL     1     -36.258 -46.529  30.590  1.00  0.00     0.000 C 
BRANCH   3   4
ATOM      4  C   UNL     1     -36.150 -47.476  31.794  1.00  0.00     0.000 C 
BRANCH   4   5
ATOM      5  C   UNL     1     -35.732 -46.750  33.081  1.00  0.00     0.006 C 
BRANCH   5   6
ATOM      6  C   UNL     1     -36.319 -47.441  34.316  1.00  0.00     0.053 C 
BRANCH   6   7
ATOM      7  C   UNL     1     -35.328 -48.394  34.905  1.00  0.00     0.041 C 
ATOM      8  O   UNL     1     -34.131 -48.041  35.072  1.00  0.00    -0.550 OA
ATOM      9  O   UNL     1     -35.737 -49.656  35.317  1.00  0.00    -0.550 OA
ENDBRANCH   6   7
ENDBRANCH   5   6
ENDBRANCH   4   5
ENDBRANCH   3   4
ENDBRANCH   2   3
ENDBRANCH   1   2
BRANCH   1  10
ATOM     10  C   UNL     1     -36.373 -44.863  28.434  1.00  0.00     0.000 C 
BRANCH  10  11
ATOM     11  C   UNL     1     -35.614 -44.667  27.110  1.00  0.00    -0.000 C 
BRANCH  11  12
ATOM     12  C   UNL     1     -35.235 -46.001  26.445  1.00  0.00    -0.000 C 
BRANCH  12  13
ATOM     13  C   UNL     1     -33.783 -46.416  26.737  1.00  0.00    -0.000 C 
BRANCH  13  14
ATOM     14  C   UNL     1     -33.669 -47.362  27.944  1.00  0.00    -0.000 C 
BRANCH  14  15
ATOM     15  C   UNL     1     -32.855 -46.752  29.096  1.00  0.00    -0.003 C 
ATOM     16  C   UNL     1     -32.207 -45.419  28.722  1.00  0.00     0.004 C 
ENDBRANCH  14  15
ENDBRANCH  13  14
ENDBRANCH  12  13
ENDBRANCH  11  12
ENDBRANCH  10  11
ENDBRANCH   1  10
TORSDOF 12
ENDMDL
