MODEL 1
REMARK VINA RESULT:    -4.757      0.000      0.000
REMARK INTER + INTRA:         -10.380
REMARK INTER:                  -8.650
REMARK INTRA:                  -1.730
REMARK UNBOUND:                -1.730
REMARK SMILES CCCCCCCCCCCCCCCC(=O)[O-]
REMARK SMILES IDX 9 1 10 2 11 3 12 4 13 5 14 6 15 7 16 8 17 9 18 10 8 11 7 12
REMARK SMILES IDX 6 13 5 14 4 15 3 16 2 17 1 18
REMARK H PARENT
REMARK Flexibility Score: inf
ROOT
ATOM      1  C   UNL     1     -50.558 -49.999  19.723  1.00  0.00     0.000 C 
ENDROOT
BRANCH   1   2
ATOM      2  C   UNL     1     -50.323 -48.502  19.966  1.00  0.00     0.000 C 
BRANCH   2   3
ATOM      3  C   UNL     1     -48.839 -48.103  19.868  1.00  0.00     0.000 C 
BRANCH   3   4
ATOM      4  C   UNL     1     -48.290 -47.988  18.434  1.00  0.00     0.000 C 
BRANCH   4   5
ATOM      5  C   UNL     1     -47.359 -49.147  18.054  1.00  0.00     0.000 C 
BRANCH   5   6
ATOM      6  C   UNL     1     -47.402 -49.412  16.541  1.00  0.00     0.006 C 
BRANCH   6   7
ATOM      7  C   UNL     1     -48.023 -50.776  16.208  1.00  0.00     0.053 C 
BRANCH   7   8
ATOM      8  C   UNL     1     -49.299 -50.631  15.437  1.00  0.00     0.041 C 
ATOM      9  O   UNL     1     -50.339 -51.234  15.814  1.00  0.00    -0.550 OA
ATOM     10  O   UNL     1     -49.349 -49.803  14.323  1.00  0.00    -0.550 OA
ENDBRANCH   7   8
ENDBRANCH   6   7
ENDBRANCH   5   6
ENDBRANCH   4   5
ENDBRANCH   3   4
ENDBRANCH   2   3
ENDBRANCH   1   2
BRANCH   1  11
ATOM     11  C   UNL     1     -51.912 -50.444  20.299  1.00  0.00     0.000 C 
BRANCH  11  12
ATOM     12  C   UNL     1     -52.954 -49.306  20.284  1.00  0.00    -0.000 C 
BRANCH  12  13
ATOM     13  C   UNL     1     -53.739 -49.172  21.601  1.00  0.00    -0.000 C 
BRANCH  13  14
ATOM     14  C   UNL     1     -53.690 -47.749  22.182  1.00  0.00    -0.000 C 
BRANCH  14  15
ATOM     15  C   UNL     1     -52.400 -47.475  22.972  1.00  0.00    -0.000 C 
BRANCH  15  16
ATOM     16  C   UNL     1     -52.007 -48.648  23.886  1.00  0.00    -0.000 C 
BRANCH  16  17
ATOM     17  C   UNL     1     -50.485 -48.770  24.064  1.00  0.00    -0.003 C 
ATOM     18  C   UNL     1     -49.910 -50.028  23.413  1.00  0.00     0.004 C 
ENDBRANCH  16  17
ENDBRANCH  15  16
ENDBRANCH  14  15
ENDBRANCH  13  14
ENDBRANCH  12  13
ENDBRANCH  11  12
ENDBRANCH   1  11
TORSDOF 14
ENDMDL
MODEL 2
REMARK VINA RESULT:    -4.756      1.603      2.758
REMARK INTER + INTRA:         -10.379
REMARK INTER:                  -8.870
REMARK INTRA:                  -1.509
REMARK UNBOUND:                -1.730
REMARK SMILES CCCCCCCCCCCCCCCC(=O)[O-]
REMARK SMILES IDX 9 1 10 2 11 3 12 4 13 5 14 6 15 7 16 8 17 9 18 10 8 11 7 12
REMARK SMILES IDX 6 13 5 14 4 15 3 16 2 17 1 18
REMARK H PARENT
REMARK Flexibility Score: inf
ROOT
ATOM      1  C   UNL     1     -50.376 -50.164  19.816  1.00  0.00     0.000 C 
ENDROOT
BRANCH   1   2
ATOM      2  C   UNL     1     -49.841 -48.883  19.159  1.00  0.00     0.000 C 
BRANCH   2   3
ATOM      3  C   UNL     1     -48.416 -48.523  19.616  1.00  0.00     0.000 C 
BRANCH   3   4
ATOM      4  C   UNL     1     -47.318 -48.747  18.560  1.00  0.00     0.000 C 
BRANCH   4   5
ATOM      5  C   UNL     1     -47.752 -48.335  17.147  1.00  0.00     0.000 C 
BRANCH   5   6
ATOM      6  C   UNL     1     -47.314 -49.380  16.111  1.00  0.00     0.006 C 
BRANCH   6   7
ATOM      7  C   UNL     1     -48.505 -49.977  15.349  1.00  0.00     0.053 C 
BRANCH   7   8
ATOM      8  C   UNL     1     -49.226 -51.006  16.165  1.00  0.00     0.041 C 
ATOM      9  O   UNL     1     -50.479 -51.110  16.090  1.00  0.00    -0.550 OA
ATOM     10  O   UNL     1     -48.511 -51.873  16.981  1.00  0.00    -0.550 OA
ENDBRANCH   7   8
ENDBRANCH   6   7
ENDBRANCH   5   6
ENDBRANCH   4   5
ENDBRANCH   3   4
ENDBRANCH   2   3
ENDBRANCH   1   2
BRANCH   1  11
ATOM     11  C   UNL     1     -51.796 -50.484  19.321  1.00  0.00     0.000 C 
BRANCH  11  12
ATOM     12  C   UNL     1     -52.840 -49.478  19.852  1.00  0.00    -0.000 C 
BRANCH  12  13
ATOM     13  C   UNL     1     -52.742 -49.230  21.367  1.00  0.00    -0.000 C 
BRANCH  13  14
ATOM     14  C   UNL     1     -52.617 -47.739  21.720  1.00  0.00    -0.000 C 
BRANCH  14  15
ATOM     15  C   UNL     1     -53.850 -47.200  22.464  1.00  0.00    -0.000 C 
BRANCH  15  16
ATOM     16  C   UNL     1     -54.880 -46.563  21.516  1.00  0.00    -0.000 C 
BRANCH  16  17
ATOM     17  C   UNL     1     -56.247 -47.263  21.576  1.00  0.00    -0.003 C 
ATOM     18  C   UNL     1     -56.347 -48.455  20.625  1.00  0.00     0.004 C 
ENDBRANCH  16  17
ENDBRANCH  15  16
ENDBRANCH  14  15
ENDBRANCH  13  14
ENDBRANCH  12  13
ENDBRANCH  11  12
ENDBRANCH   1  11
TORSDOF 14
ENDMDL
MODEL 3
REMARK VINA RESULT:    -4.681      1.355      2.595
REMARK INTER + INTRA:         -10.242
REMARK INTER:                  -8.827
REMARK INTRA:                  -1.414
REMARK UNBOUND:                -1.730
REMARK SMILES CCCCCCCCCCCCCCCC(=O)[O-]
REMARK SMILES IDX 9 1 10 2 11 3 12 4 13 5 14 6 15 7 16 8 17 9 18 10 8 11 7 12
REMARK SMILES IDX 6 13 5 14 4 15 3 16 2 17 1 18
REMARK H PARENT
REMARK Flexibility Score: inf
ROOT
ATOM      1  C   UNL     1     -50.007 -48.968  19.277  1.00  0.00     0.000 C 
ENDROOT
BRANCH   1   2
ATOM      2  C   UNL     1     -49.293 -50.319  19.435  1.00  0.00     0.000 C 
BRANCH   2   3
ATOM      3  C   UNL     1     -48.141 -50.511  18.432  1.00  0.00     0.000 C 
BRANCH   3   4
ATOM      4  C   UNL     1     -47.427 -49.215  18.006  1.00  0.00     0.000 C 
BRANCH   4   5
ATOM      5  C   UNL     1     -47.407 -49.014  16.484  1.00  0.00     0.000 C 
BRANCH   5   6
ATOM      6  C   UNL     1     -47.828 -50.299  15.756  1.00  0.00     0.006 C 
BRANCH   6   7
ATOM      7  C   UNL     1     -48.988 -50.059  14.780  1.00  0.00     0.053 C 
BRANCH   7   8
ATOM      8  C   UNL     1     -50.133 -50.990  15.040  1.00  0.00     0.041 C 
ATOM      9  O   UNL     1     -50.480 -51.827  14.166  1.00  0.00    -0.550 OA
ATOM     10  O   UNL     1     -50.795 -50.955  16.261  1.00  0.00    -0.550 OA
ENDBRANCH   7   8
ENDBRANCH   6   7
ENDBRANCH   5   6
ENDBRANCH   4   5
ENDBRANCH   3   4
ENDBRANCH   2   3
ENDBRANCH   1   2
BRANCH   1  11
ATOM     11  C   UNL     1     -50.532 -48.462  20.629  1.00  0.00     0.000 C 
BRANCH  11  12
ATOM     12  C   UNL     1     -50.739 -49.609  21.641  1.00  0.00    -0.000 C 
BRANCH  12  13
ATOM     13  C   UNL     1     -50.399 -49.221  23.090  1.00  0.00    -0.000 C 
BRANCH  13  14
ATOM     14  C   UNL     1     -51.646 -48.903  23.931  1.00  0.00    -0.000 C 
BRANCH  14  15
ATOM     15  C   UNL     1     -51.737 -47.418  24.321  1.00  0.00    -0.000 C 
BRANCH  15  16
ATOM     16  C   UNL     1     -53.105 -46.802  23.983  1.00  0.00    -0.000 C 
BRANCH  16  17
ATOM     17  C   UNL     1     -53.281 -46.549  22.478  1.00  0.00    -0.003 C 
ATOM     18  C   UNL     1     -54.327 -47.464  21.840  1.00  0.00     0.004 C 
ENDBRANCH  16  17
ENDBRANCH  15  16
ENDBRANCH  14  15
ENDBRANCH  13  14
ENDBRANCH  12  13
ENDBRANCH  11  12
ENDBRANCH   1  11
TORSDOF 14
ENDMDL
MODEL 4
REMARK VINA RESULT:    -4.677      2.843      6.933
REMARK INTER + INTRA:         -10.235
REMARK INTER:                  -8.223
REMARK INTRA:                  -2.012
REMARK UNBOUND:                -1.730
REMARK SMILES CCCCCCCCCCCCCCCC(=O)[O-]
REMARK SMILES IDX 9 1 10 2 11 3 12 4 13 5 14 6 15 7 16 8 17 9 18 10 8 11 7 12
REMARK SMILES IDX 6 13 5 14 4 15 3 16 2 17 1 18
REMARK H PARENT
REMARK Flexibility Score: inf
ROOT
ATOM      1  C   UNL     1     -50.189 -48.988  19.152  1.00  0.00     0.000 C 
ENDROOT
BRANCH   1   2
ATOM      2  C   UNL     1     -50.428 -50.375  19.765  1.00  0.00     0.000 C 
BRANCH   2   3
ATOM      3  C   UNL     1     -51.909 -50.639  20.094  1.00  0.00     0.000 C 
BRANCH   3   4
ATOM      4  C   UNL     1     -52.804 -49.387  20.115  1.00  0.00     0.000 C 
BRANCH   4   5
ATOM      5  C   UNL     1     -53.379 -49.084  21.505  1.00  0.00     0.000 C 
BRANCH   5   6
ATOM      6  C   UNL     1     -52.502 -48.068  22.252  1.00  0.00     0.006 C 
BRANCH   6   7
ATOM      7  C   UNL     1     -51.897 -48.655  23.535  1.00  0.00     0.053 C 
BRANCH   7   8
ATOM      8  C   UNL     1     -50.444 -48.975  23.367  1.00  0.00     0.041 C 
ATOM      9  O   UNL     1     -50.075 -50.166  23.186  1.00  0.00    -0.550 OA
ATOM     10  O   UNL     1     -49.501 -47.956  23.378  1.00  0.00    -0.550 OA
ENDBRANCH   7   8
ENDBRANCH   6   7
ENDBRANCH   5   6
ENDBRANCH   4   5
ENDBRANCH   3   4
ENDBRANCH   2   3
ENDBRANCH   1   2
BRANCH   1  11
ATOM     11  C   UNL     1     -49.058 -48.249  19.884  1.00  0.00     0.000 C 
BRANCH  11  12
ATOM     12  C   UNL     1     -47.813 -48.056  18.992  1.00  0.00    -0.000 C 
BRANCH  12  13
ATOM     13  C   UNL     1     -48.034 -47.071  17.831  1.00  0.00    -0.000 C 
BRANCH  13  14
ATOM     14  C   UNL     1     -47.649 -47.663  16.466  1.00  0.00    -0.000 C 
BRANCH  14  15
ATOM     15  C   UNL     1     -47.364 -49.172  16.532  1.00  0.00    -0.000 C 
BRANCH  15  16
ATOM     16  C   UNL     1     -48.400 -50.003  15.757  1.00  0.00    -0.000 C 
BRANCH  16  17
ATOM     17  C   UNL     1     -48.365 -51.492  16.137  1.00  0.00    -0.003 C 
ATOM     18  C   UNL     1     -47.926 -51.725  17.583  1.00  0.00     0.004 C 
ENDBRANCH  16  17
ENDBRANCH  15  16
ENDBRANCH  14  15
ENDBRANCH  13  14
ENDBRANCH  12  13
ENDBRANCH  11  12
ENDBRANCH   1  11
TORSDOF 14
ENDMDL
MODEL 5
REMARK VINA RESULT:    -4.635     12.037     13.686
REMARK INTER + INTRA:         -10.159
REMARK INTER:                  -8.675
REMARK INTRA:                  -1.484
REMARK UNBOUND:                -1.730
REMARK SMILES CCCCCCCCCCCCCCCC(=O)[O-]
REMARK SMILES IDX 9 1 10 2 11 3 12 4 13 5 14 6 15 7 16 8 17 9 18 10 8 11 7 12
REMARK SMILES IDX 6 13 5 14 4 15 3 16 2 17 1 18
REMARK H PARENT
REMARK Flexibility Score: inf
ROOT
ATOM      1  C   UNL     1     -43.601 -49.153  30.377  1.00  0.00     0.000 C 
ENDROOT
BRANCH   1   2
ATOM      2  C   UNL     1     -44.222 -48.729  29.038  1.00  0.00     0.000 C 
BRANCH   2   3
ATOM      3  C   UNL     1     -43.612 -47.431  28.477  1.00  0.00     0.000 C 
BRANCH   3   4
ATOM      4  C   UNL     1     -42.827 -47.596  27.164  1.00  0.00     0.000 C 
BRANCH   4   5
ATOM      5  C   UNL     1     -41.479 -48.304  27.356  1.00  0.00     0.000 C 
BRANCH   5   6
ATOM      6  C   UNL     1     -40.495 -47.411  28.127  1.00  0.00     0.006 C 
BRANCH   6   7
ATOM      7  C   UNL     1     -39.566 -48.223  29.040  1.00  0.00     0.053 C 
BRANCH   7   8
ATOM      8  C   UNL     1     -38.157 -47.716  28.990  1.00  0.00     0.041 C 
ATOM      9  O   UNL     1     -37.222 -48.480  28.632  1.00  0.00    -0.550 OA
ATOM     10  O   UNL     1     -37.883 -46.392  29.306  1.00  0.00    -0.550 OA
ENDBRANCH   7   8
ENDBRANCH   6   7
ENDBRANCH   5   6
ENDBRANCH   4   5
ENDBRANCH   3   4
ENDBRANCH   2   3
ENDBRANCH   1   2
BRANCH   1  11
ATOM     11  C   UNL     1     -43.191 -50.634  30.348  1.00  0.00     0.000 C 
BRANCH  11  12
ATOM     12  C   UNL     1     -42.768 -51.150  31.740  1.00  0.00    -0.000 C 
BRANCH  12  13
ATOM     13  C   UNL     1     -43.943 -51.314  32.720  1.00  0.00    -0.000 C 
BRANCH  13  14
ATOM     14  C   UNL     1     -45.158 -52.006  32.082  1.00  0.00    -0.000 C 
BRANCH  14  15
ATOM     15  C   UNL     1     -46.491 -51.346  32.475  1.00  0.00    -0.000 C 
BRANCH  15  16
ATOM     16  C   UNL     1     -46.402 -50.588  33.810  1.00  0.00    -0.000 C 
BRANCH  16  17
ATOM     17  C   UNL     1     -46.987 -49.170  33.722  1.00  0.00    -0.003 C 
ATOM     18  C   UNL     1     -46.586 -48.441  32.439  1.00  0.00     0.004 C 
ENDBRANCH  16  17
ENDBRANCH  15  16
ENDBRANCH  14  15
ENDBRANCH  13  14
ENDBRANCH  12  13
ENDBRANCH  11  12
ENDBRANCH   1  11
TORSDOF 14
ENDMDL
MODEL 6
REMARK VINA RESULT:    -4.633      1.550      2.998
REMARK INTER + INTRA:         -10.155
REMARK INTER:                  -8.823
REMARK INTRA:                  -1.332
REMARK UNBOUND:                -1.730
REMARK SMILES CCCCCCCCCCCCCCCC(=O)[O-]
REMARK SMILES IDX 9 1 10 2 11 3 12 4 13 5 14 6 15 7 16 8 17 9 18 10 8 11 7 12
REMARK SMILES IDX 6 13 5 14 4 15 3 16 2 17 1 18
REMARK H PARENT
REMARK Flexibility Score: inf
ROOT
ATOM      1  C   UNL     1     -52.630 -49.680  19.768  1.00  0.00     0.000 C 
ENDROOT
BRANCH   1   2
ATOM      2  C   UNL     1     -51.798 -50.145  18.564  1.00  0.00     0.000 C 
BRANCH   2   3
ATOM      3  C   UNL     1     -50.371 -50.577  18.950  1.00  0.00     0.000 C 
BRANCH   3   4
ATOM      4  C   UNL     1     -49.248 -49.687  18.387  1.00  0.00     0.000 C 
BRANCH   4   5
ATOM      5  C   UNL     1     -47.980 -50.476  18.032  1.00  0.00     0.000 C 
BRANCH   5   6
ATOM      6  C   UNL     1     -47.714 -50.435  16.520  1.00  0.00     0.006 C 
BRANCH   6   7
ATOM      7  C   UNL     1     -48.569 -51.451  15.752  1.00  0.00     0.053 C 
BRANCH   7   8
ATOM      8  C   UNL     1     -49.541 -50.776  14.833  1.00  0.00     0.041 C 
ATOM      9  O   UNL     1     -50.666 -51.295  14.609  1.00  0.00    -0.550 OA
ATOM     10  O   UNL     1     -49.216 -49.558  14.250  1.00  0.00    -0.550 OA
ENDBRANCH   7   8
ENDBRANCH   6   7
ENDBRANCH   5   6
ENDBRANCH   4   5
ENDBRANCH   3   4
ENDBRANCH   2   3
ENDBRANCH   1   2
BRANCH   1  11
ATOM     11  C   UNL     1     -51.946 -50.061  21.090  1.00  0.00     0.000 C 
BRANCH  11  12
ATOM     12  C   UNL     1     -51.392 -48.830  21.838  1.00  0.00    -0.000 C 
BRANCH  12  13
ATOM     13  C   UNL     1     -52.286 -47.584  21.720  1.00  0.00    -0.000 C 
BRANCH  13  14
ATOM     14  C   UNL     1     -53.329 -47.491  22.845  1.00  0.00    -0.000 C 
BRANCH  14  15
ATOM     15  C   UNL     1     -54.597 -46.733  22.418  1.00  0.00    -0.000 C 
BRANCH  15  16
ATOM     16  C   UNL     1     -54.933 -46.937  20.931  1.00  0.00    -0.000 C 
BRANCH  16  17
ATOM     17  C   UNL     1     -56.310 -47.587  20.723  1.00  0.00    -0.003 C 
ATOM     18  C   UNL     1     -56.380 -49.015  21.264  1.00  0.00     0.004 C 
ENDBRANCH  16  17
ENDBRANCH  15  16
ENDBRANCH  14  15
ENDBRANCH  13  14
ENDBRANCH  12  13
ENDBRANCH  11  12
ENDBRANCH   1  11
TORSDOF 14
ENDMDL
MODEL 7
REMARK VINA RESULT:    -4.627      1.052      1.843
REMARK INTER + INTRA:         -10.144
REMARK INTER:                  -8.148
REMARK INTRA:                  -1.996
REMARK UNBOUND:                -1.730
REMARK SMILES CCCCCCCCCCCCCCCC(=O)[O-]
REMARK SMILES IDX 9 1 10 2 11 3 12 4 13 5 14 6 15 7 16 8 17 9 18 10 8 11 7 12
REMARK SMILES IDX 6 13 5 14 4 15 3 16 2 17 1 18
REMARK H PARENT
REMARK Flexibility Score: inf
ROOT
ATOM      1  C   UNL     1     -51.862 -50.331  20.558  1.00  0.00     0.000 C 
ENDROOT
BRANCH   1   2
ATOM      2  C   UNL     1     -50.968 -49.624  19.529  1.00  0.00     0.000 C 
BRANCH   2   3
ATOM      3  C   UNL     1     -49.496 -50.069  19.605  1.00  0.00     0.000 C 
BRANCH   3   4
ATOM      4  C   UNL     1     -48.465 -48.943  19.404  1.00  0.00     0.000 C 
BRANCH   4   5
ATOM      5  C   UNL     1     -47.412 -49.279  18.339  1.00  0.00     0.000 C 
BRANCH   5   6
ATOM      6  C   UNL     1     -47.712 -50.631  17.677  1.00  0.00     0.006 C 
BRANCH   6   7
ATOM      7  C   UNL     1     -47.782 -50.526  16.147  1.00  0.00     0.053 C 
BRANCH   7   8
ATOM      8  C   UNL     1     -49.040 -51.134  15.606  1.00  0.00     0.041 C 
ATOM      9  O   UNL     1     -50.096 -51.120  16.293  1.00  0.00    -0.550 OA
ATOM     10  O   UNL     1     -49.054 -51.686  14.332  1.00  0.00    -0.550 OA
ENDBRANCH   7   8
ENDBRANCH   6   7
ENDBRANCH   5   6
ENDBRANCH   4   5
ENDBRANCH   3   4
ENDBRANCH   2   3
ENDBRANCH   1   2
BRANCH   1  11
ATOM     11  C   UNL     1     -52.780 -49.327  21.272  1.00  0.00     0.000 C 
BRANCH  11  12
ATOM     12  C   UNL     1     -52.108 -47.949  21.454  1.00  0.00    -0.000 C 
BRANCH  12  13
ATOM     13  C   UNL     1     -52.047 -47.481  22.918  1.00  0.00    -0.000 C 
BRANCH  13  14
ATOM     14  C   UNL     1     -52.193 -48.638  23.920  1.00  0.00    -0.000 C 
BRANCH  14  15
ATOM     15  C   UNL     1     -50.863 -49.004  24.601  1.00  0.00    -0.000 C 
BRANCH  15  16
ATOM     16  C   UNL     1     -50.114 -50.128  23.866  1.00  0.00    -0.000 C 
BRANCH  16  17
ATOM     17  C   UNL     1     -48.879 -49.615  23.109  1.00  0.00    -0.003 C 
ATOM     18  C   UNL     1     -48.484 -48.194  23.511  1.00  0.00     0.004 C 
ENDBRANCH  16  17
ENDBRANCH  15  16
ENDBRANCH  14  15
ENDBRANCH  13  14
ENDBRANCH  12  13
ENDBRANCH  11  12
ENDBRANCH   1  11
TORSDOF 14
ENDMDL
MODEL 8
REMARK VINA RESULT:    -4.617     10.636     14.055
REMARK INTER + INTRA:         -10.125
REMARK INTER:                  -8.013
REMARK INTRA:                  -2.112
REMARK UNBOUND:                -1.730
REMARK SMILES CCCCCCCCCCCCCCCC(=O)[O-]
REMARK SMILES IDX 9 1 10 2 11 3 12 4 13 5 14 6 15 7 16 8 17 9 18 10 8 11 7 12
REMARK SMILES IDX 6 13 5 14 4 15 3 16 2 17 1 18
REMARK H PARENT
REMARK Flexibility Score: inf
ROOT
ATOM      1  C   UNL     1     -43.256 -50.948  29.891  1.00  0.00     0.000 C 
ENDROOT
BRANCH   1   2
ATOM      2  C   UNL     1     -44.742 -50.565  29.950  1.00  0.00     0.000 C 
BRANCH   2   3
ATOM      3  C   UNL     1     -44.967 -49.072  30.252  1.00  0.00     0.000 C 
BRANCH   3   4
ATOM      4  C   UNL     1     -45.869 -48.782  31.465  1.00  0.00     0.000 C 
BRANCH   4   5
ATOM      5  C   UNL     1     -46.915 -49.878  31.709  1.00  0.00     0.000 C 
BRANCH   5   6
ATOM      6  C   UNL     1     -46.915 -50.319  33.180  1.00  0.00     0.006 C 
BRANCH   6   7
ATOM      7  C   UNL     1     -45.496 -50.424  33.755  1.00  0.00     0.053 C 
BRANCH   7   8
ATOM      8  C   UNL     1     -44.895 -51.773  33.504  1.00  0.00     0.041 C 
ATOM      9  O   UNL     1     -45.617 -52.725  33.107  1.00  0.00    -0.550 OA
ATOM     10  O   UNL     1     -43.531 -51.969  33.677  1.00  0.00    -0.550 OA
ENDBRANCH   7   8
ENDBRANCH   6   7
ENDBRANCH   5   6
ENDBRANCH   4   5
ENDBRANCH   3   4
ENDBRANCH   2   3
ENDBRANCH   1   2
BRANCH   1  11
ATOM     11  C   UNL     1     -42.414 -50.024  30.785  1.00  0.00     0.000 C 
BRANCH  11  12
ATOM     12  C   UNL     1     -41.166 -49.483  30.055  1.00  0.00    -0.000 C 
BRANCH  12  13
ATOM     13  C   UNL     1     -41.178 -49.744  28.539  1.00  0.00    -0.000 C 
BRANCH  13  14
ATOM     14  C   UNL     1     -41.200 -48.449  27.711  1.00  0.00    -0.000 C 
BRANCH  14  15
ATOM     15  C   UNL     1     -42.090 -48.558  26.462  1.00  0.00    -0.000 C 
BRANCH  15  16
ATOM     16  C   UNL     1     -43.573 -48.768  26.810  1.00  0.00    -0.000 C 
BRANCH  16  17
ATOM     17  C   UNL     1     -44.114 -50.111  26.296  1.00  0.00    -0.003 C 
ATOM     18  C   UNL     1     -45.574 -50.031  25.849  1.00  0.00     0.004 C 
ENDBRANCH  16  17
ENDBRANCH  15  16
ENDBRANCH  14  15
ENDBRANCH  13  14
ENDBRANCH  12  13
ENDBRANCH  11  12
ENDBRANCH   1  11
TORSDOF 14
ENDMDL
MODEL 9
REMARK VINA RESULT:    -4.615      1.246      2.333
REMARK INTER + INTRA:         -10.123
REMARK INTER:                  -8.170
REMARK INTRA:                  -1.953
REMARK UNBOUND:                -1.730
REMARK SMILES CCCCCCCCCCCCCCCC(=O)[O-]
REMARK SMILES IDX 9 1 10 2 11 3 12 4 13 5 14 6 15 7 16 8 17 9 18 10 8 11 7 12
REMARK SMILES IDX 6 13 5 14 4 15 3 16 2 17 1 18
REMARK H PARENT
REMARK Flexibility Score: inf
ROOT
ATOM      1  C   UNL     1     -53.310 -48.975  20.369  1.00  0.00     0.000 C 
ENDROOT
BRANCH   1   2
ATOM      2  C   UNL     1     -52.267 -50.100  20.309  1.00  0.00     0.000 C 
BRANCH   2   3
ATOM      3  C   UNL     1     -51.518 -50.154  18.965  1.00  0.00     0.000 C 
BRANCH   3   4
ATOM      4  C   UNL     1     -50.072 -49.626  19.006  1.00  0.00     0.000 C 
BRANCH   4   5
ATOM      5  C   UNL     1     -49.023 -50.745  18.937  1.00  0.00     0.000 C 
BRANCH   5   6
ATOM      6  C   UNL     1     -48.039 -50.504  17.783  1.00  0.00     0.006 C 
BRANCH   6   7
ATOM      7  C   UNL     1     -48.265 -51.473  16.614  1.00  0.00     0.053 C 
BRANCH   7   8
ATOM      8  C   UNL     1     -49.275 -50.944  15.642  1.00  0.00     0.041 C 
ATOM      9  O   UNL     1     -50.486 -51.274  15.744  1.00  0.00    -0.550 OA
ATOM     10  O   UNL     1     -48.883 -50.061  14.644  1.00  0.00    -0.550 OA
ENDBRANCH   7   8
ENDBRANCH   6   7
ENDBRANCH   5   6
ENDBRANCH   4   5
ENDBRANCH   3   4
ENDBRANCH   2   3
ENDBRANCH   1   2
BRANCH   1  11
ATOM     11  C   UNL     1     -53.985 -48.923  21.749  1.00  0.00     0.000 C 
BRANCH  11  12
ATOM     12  C   UNL     1     -53.044 -48.369  22.839  1.00  0.00    -0.000 C 
BRANCH  12  13
ATOM     13  C   UNL     1     -52.505 -46.962  22.531  1.00  0.00    -0.000 C 
BRANCH  13  14
ATOM     14  C   UNL     1     -51.016 -46.804  22.881  1.00  0.00    -0.000 C 
BRANCH  14  15
ATOM     15  C   UNL     1     -50.089 -47.433  21.828  1.00  0.00    -0.000 C 
BRANCH  15  16
ATOM     16  C   UNL     1     -49.057 -48.390  22.447  1.00  0.00    -0.000 C 
BRANCH  16  17
ATOM     17  C   UNL     1     -49.650 -49.773  22.758  1.00  0.00    -0.003 C 
ATOM     18  C   UNL     1     -49.791 -50.035  24.258  1.00  0.00     0.004 C 
ENDBRANCH  16  17
ENDBRANCH  15  16
ENDBRANCH  14  15
ENDBRANCH  13  14
ENDBRANCH  12  13
ENDBRANCH  11  12
ENDBRANCH   1  11
TORSDOF 14
ENDMDL
