MODEL 1
REMARK VINA RESULT:    -4.596      0.000      0.000
REMARK INTER + INTRA:         -16.132
REMARK INTER:                 -12.119
REMARK INTRA:                  -4.013
REMARK UNBOUND:                -4.013
REMARK SMILES CCCCCCCCCCCCCCCCCCCCCCCCCCCCCC(=O)[O-]
REMARK SMILES IDX 16 1 17 2 18 3 19 4 20 5 21 6 22 7 23 8 24 9 25 10 26 11
REMARK SMILES IDX 27 12 28 13 29 14 30 15 31 16 32 17 15 18 14 19 13 20 12 21
REMARK SMILES IDX 11 22 10 23 9 24 8 25 7 26 6 27 5 28 4 29 3 30 2 31 1 32
REMARK H PARENT
REMARK Flexibility Score: inf
ROOT
ATOM      1  C   UNL     1      -3.786  -2.246   6.664  1.00  0.00     0.000 C 
ENDROOT
BRANCH   1   2
ATOM      2  C   UNL     1      -4.626  -3.516   6.458  1.00  0.00     0.000 C 
BRANCH   2   3
ATOM      3  C   UNL     1      -4.874  -3.831   4.973  1.00  0.00     0.000 C 
BRANCH   3   4
ATOM      4  C   UNL     1      -6.244  -4.486   4.732  1.00  0.00     0.000 C 
BRANCH   4   5
ATOM      5  C   UNL     1      -7.299  -3.487   4.224  1.00  0.00     0.000 C 
BRANCH   5   6
ATOM      6  C   UNL     1      -8.130  -4.052   3.055  1.00  0.00     0.000 C 
BRANCH   6   7
ATOM      7  C   UNL     1      -7.477  -5.253   2.341  1.00  0.00     0.000 C 
BRANCH   7   8
ATOM      8  C   UNL     1      -7.518  -5.170   0.803  1.00  0.00     0.000 C 
BRANCH   8   9
ATOM      9  C   UNL     1      -6.115  -5.250   0.172  1.00  0.00     0.000 C 
BRANCH   9  10
ATOM     10  C   UNL     1      -5.002  -4.783   1.133  1.00  0.00     0.000 C 
BRANCH  10  11
ATOM     11  C   UNL     1      -4.500  -3.348   0.875  1.00  0.00     0.000 C 
BRANCH  11  12
ATOM     12  C   UNL     1      -5.133  -2.288   1.797  1.00  0.00     0.000 C 
BRANCH  12  13
ATOM     13  C   UNL     1      -5.929  -1.235   1.011  1.00  0.00     0.006 C 
BRANCH  13  14
ATOM     14  C   UNL     1      -6.027  -1.610  -0.471  1.00  0.00     0.053 C 
BRANCH  14  15
ATOM     15  C   UNL     1      -6.118  -0.385  -1.326  1.00  0.00     0.041 C 
ATOM     16  O   UNL     1      -5.971  -0.471  -2.575  1.00  0.00    -0.550 OA
ATOM     17  O   UNL     1      -6.363   0.853  -0.746  1.00  0.00    -0.550 OA
ENDBRANCH  14  15
ENDBRANCH  13  14
ENDBRANCH  12  13
ENDBRANCH  11  12
ENDBRANCH  10  11
ENDBRANCH   9  10
ENDBRANCH   8   9
ENDBRANCH   7   8
ENDBRANCH   6   7
ENDBRANCH   5   6
ENDBRANCH   4   5
ENDBRANCH   3   4
ENDBRANCH   2   3
ENDBRANCH   1   2
BRANCH   1  18
ATOM     18  C   UNL     1      -4.172  -1.114   5.696  1.00  0.00     0.000 C 
BRANCH  18  19
ATOM     19  C   UNL     1      -3.032  -0.751   4.731  1.00  0.00     0.000 C 
BRANCH  19  20
ATOM     20  C   UNL     1      -2.216   0.460   5.216  1.00  0.00     0.000 C 
BRANCH  20  21
ATOM     21  C   UNL     1      -0.749   0.106   5.504  1.00  0.00     0.000 C 
BRANCH  21  22
ATOM     22  C   UNL     1      -0.397   0.204   6.999  1.00  0.00     0.000 C 
BRANCH  22  23
ATOM     23  C   UNL     1      -0.509  -1.150   7.718  1.00  0.00     0.000 C 
BRANCH  23  24
ATOM     24  C   UNL     1       0.863  -1.712   8.132  1.00  0.00    -0.000 C 
BRANCH  24  25
ATOM     25  C   UNL     1       2.019  -0.747   7.821  1.00  0.00    -0.000 C 
BRANCH  25  26
ATOM     26  C   UNL     1       2.935  -1.265   6.700  1.00  0.00    -0.000 C 
BRANCH  26  27
ATOM     27  C   UNL     1       2.548  -2.674   6.220  1.00  0.00    -0.000 C 
BRANCH  27  28
ATOM     28  C   UNL     1       2.601  -2.842   4.686  1.00  0.00    -0.000 C 
BRANCH  28  29
ATOM     29  C   UNL     1       2.281  -1.533   3.949  1.00  0.00    -0.000 C 
BRANCH  29  30
ATOM     30  C   UNL     1       3.342  -1.232   2.879  1.00  0.00    -0.000 C 
BRANCH  30  31
ATOM     31  C   UNL     1       4.440  -2.304   2.819  1.00  0.00    -0.003 C 
ATOM     32  C   UNL     1       4.871  -2.630   1.388  1.00  0.00     0.004 C 
ENDBRANCH  30  31
ENDBRANCH  29  30
ENDBRANCH  28  29
ENDBRANCH  27  28
ENDBRANCH  26  27
ENDBRANCH  25  26
ENDBRANCH  24  25
ENDBRANCH  23  24
ENDBRANCH  22  23
ENDBRANCH  21  22
ENDBRANCH  20  21
ENDBRANCH  19  20
ENDBRANCH  18  19
ENDBRANCH   1  18
TORSDOF 28
ENDMDL
MODEL 2
REMARK VINA RESULT:    -4.519      3.185      6.601
REMARK INTER + INTRA:         -15.929
REMARK INTER:                 -11.198
REMARK INTRA:                  -4.730
REMARK UNBOUND:                -4.013
REMARK SMILES CCCCCCCCCCCCCCCCCCCCCCCCCCCCCC(=O)[O-]
REMARK SMILES IDX 16 1 17 2 18 3 19 4 20 5 21 6 22 7 23 8 24 9 25 10 26 11
REMARK SMILES IDX 27 12 28 13 29 14 30 15 31 16 32 17 15 18 14 19 13 20 12 21
REMARK SMILES IDX 11 22 10 23 9 24 8 25 7 26 6 27 5 28 4 29 3 30 2 31 1 32
REMARK H PARENT
REMARK Flexibility Score: inf
ROOT
ATOM      1  C   UNL     1      -4.849  -2.684   2.113  1.00  0.00     0.000 C 
ENDROOT
BRANCH   1   2
ATOM      2  C   UNL     1      -4.614  -3.363   0.755  1.00  0.00     0.000 C 
BRANCH   2   3
ATOM      3  C   UNL     1      -4.918  -4.871   0.783  1.00  0.00     0.000 C 
BRANCH   3   4
ATOM      4  C   UNL     1      -5.506  -5.377  -0.544  1.00  0.00     0.000 C 
BRANCH   4   5
ATOM      5  C   UNL     1      -7.045  -5.388  -0.546  1.00  0.00     0.000 C 
BRANCH   5   6
ATOM      6  C   UNL     1      -7.639  -4.310  -1.475  1.00  0.00     0.000 C 
BRANCH   6   7
ATOM      7  C   UNL     1      -6.586  -3.394  -2.131  1.00  0.00     0.000 C 
BRANCH   7   8
ATOM      8  C   UNL     1      -7.124  -2.010  -2.542  1.00  0.00     0.000 C 
BRANCH   8   9
ATOM      9  C   UNL     1      -7.218  -1.038  -1.350  1.00  0.00     0.000 C 
BRANCH   9  10
ATOM     10  C   UNL     1      -5.986  -0.117  -1.233  1.00  0.00     0.000 C 
BRANCH  10  11
ATOM     11  C   UNL     1      -6.279   1.372  -1.502  1.00  0.00     0.000 C 
BRANCH  11  12
ATOM     12  C   UNL     1      -5.049   2.179  -1.963  1.00  0.00     0.000 C 
BRANCH  12  13
ATOM     13  C   UNL     1      -4.665   1.870  -3.418  1.00  0.00     0.006 C 
BRANCH  13  14
ATOM     14  C   UNL     1      -5.732   2.381  -4.392  1.00  0.00     0.053 C 
BRANCH  14  15
ATOM     15  C   UNL     1      -5.824   3.874  -4.346  1.00  0.00     0.041 C 
ATOM     16  O   UNL     1      -6.780   4.432  -3.744  1.00  0.00    -0.550 OA
ATOM     17  O   UNL     1      -4.857   4.652  -4.969  1.00  0.00    -0.550 OA
ENDBRANCH  14  15
ENDBRANCH  13  14
ENDBRANCH  12  13
ENDBRANCH  11  12
ENDBRANCH  10  11
ENDBRANCH   9  10
ENDBRANCH   8   9
ENDBRANCH   7   8
ENDBRANCH   6   7
ENDBRANCH   5   6
ENDBRANCH   4   5
ENDBRANCH   3   4
ENDBRANCH   2   3
ENDBRANCH   1   2
BRANCH   1  18
ATOM     18  C   UNL     1      -5.815  -1.490   2.022  1.00  0.00     0.000 C 
BRANCH  18  19
ATOM     19  C   UNL     1      -7.154  -1.762   2.729  1.00  0.00     0.000 C 
BRANCH  19  20
ATOM     20  C   UNL     1      -8.035  -2.755   1.951  1.00  0.00     0.000 C 
BRANCH  20  21
ATOM     21  C   UNL     1      -8.760  -3.747   2.874  1.00  0.00     0.000 C 
BRANCH  21  22
ATOM     22  C   UNL     1      -8.082  -5.129   2.910  1.00  0.00     0.000 C 
BRANCH  22  23
ATOM     23  C   UNL     1      -7.612  -5.516   4.321  1.00  0.00     0.000 C 
BRANCH  23  24
ATOM     24  C   UNL     1      -6.147  -5.987   4.345  1.00  0.00    -0.000 C 
BRANCH  24  25
ATOM     25  C   UNL     1      -5.155  -4.832   4.557  1.00  0.00    -0.000 C 
BRANCH  25  26
ATOM     26  C   UNL     1      -5.675  -3.782   5.553  1.00  0.00    -0.000 C 
BRANCH  26  27
ATOM     27  C   UNL     1      -4.609  -2.738   5.925  1.00  0.00    -0.000 C 
BRANCH  27  28
ATOM     28  C   UNL     1      -5.192  -1.342   6.235  1.00  0.00    -0.000 C 
BRANCH  28  29
ATOM     29  C   UNL     1      -4.199  -0.215   5.914  1.00  0.00    -0.000 C 
BRANCH  29  30
ATOM     30  C   UNL     1      -2.995  -0.752   5.125  1.00  0.00    -0.000 C 
BRANCH  30  31
ATOM     31  C   UNL     1      -1.846   0.263   5.038  1.00  0.00    -0.003 C 
ATOM     32  C   UNL     1      -0.964   0.266   6.287  1.00  0.00     0.004 C 
ENDBRANCH  30  31
ENDBRANCH  29  30
ENDBRANCH  28  29
ENDBRANCH  27  28
ENDBRANCH  26  27
ENDBRANCH  25  26
ENDBRANCH  24  25
ENDBRANCH  23  24
ENDBRANCH  22  23
ENDBRANCH  21  22
ENDBRANCH  20  21
ENDBRANCH  19  20
ENDBRANCH  18  19
ENDBRANCH   1  18
TORSDOF 28
ENDMDL
MODEL 3
REMARK VINA RESULT:    -4.512      3.159      5.765
REMARK INTER + INTRA:         -15.909
REMARK INTER:                 -10.778
REMARK INTRA:                  -5.131
REMARK UNBOUND:                -4.013
REMARK SMILES CCCCCCCCCCCCCCCCCCCCCCCCCCCCCC(=O)[O-]
REMARK SMILES IDX 16 1 17 2 18 3 19 4 20 5 21 6 22 7 23 8 24 9 25 10 26 11
REMARK SMILES IDX 27 12 28 13 29 14 30 15 31 16 32 17 15 18 14 19 13 20 12 21
REMARK SMILES IDX 11 22 10 23 9 24 8 25 7 26 6 27 5 28 4 29 3 30 2 31 1 32
REMARK H PARENT
REMARK Flexibility Score: inf
ROOT
ATOM      1  C   UNL     1      -4.769  -4.869   0.868  1.00  0.00     0.000 C 
ENDROOT
BRANCH   1   2
ATOM      2  C   UNL     1      -4.686  -3.351   0.650  1.00  0.00     0.000 C 
BRANCH   2   3
ATOM      3  C   UNL     1      -5.528  -2.874  -0.546  1.00  0.00     0.000 C 
BRANCH   3   4
ATOM      4  C   UNL     1      -6.038  -1.435  -0.369  1.00  0.00     0.000 C 
BRANCH   4   5
ATOM      5  C   UNL     1      -6.300  -1.074   1.104  1.00  0.00     0.000 C 
BRANCH   5   6
ATOM      6  C   UNL     1      -7.805  -0.988   1.430  1.00  0.00     0.000 C 
BRANCH   6   7
ATOM      7  C   UNL     1      -8.248  -1.887   2.601  1.00  0.00     0.000 C 
BRANCH   7   8
ATOM      8  C   UNL     1      -9.140  -3.073   2.182  1.00  0.00     0.000 C 
BRANCH   8   9
ATOM      9  C   UNL     1      -8.818  -3.578   0.763  1.00  0.00     0.000 C 
BRANCH   9  10
ATOM     10  C   UNL     1      -8.898  -5.114   0.645  1.00  0.00     0.000 C 
BRANCH  10  11
ATOM     11  C   UNL     1      -8.007  -5.713  -0.462  1.00  0.00     0.000 C 
BRANCH  11  12
ATOM     12  C   UNL     1      -8.652  -5.694  -1.863  1.00  0.00     0.000 C 
BRANCH  12  13
ATOM     13  C   UNL     1      -7.782  -4.954  -2.891  1.00  0.00     0.006 C 
BRANCH  13  14
ATOM     14  C   UNL     1      -7.517  -5.829  -4.121  1.00  0.00     0.053 C 
BRANCH  14  15
ATOM     15  C   UNL     1      -6.049  -6.053  -4.309  1.00  0.00     0.041 C 
ATOM     16  O   UNL     1      -5.320  -6.341  -3.323  1.00  0.00    -0.550 OA
ATOM     17  O   UNL     1      -5.484  -5.941  -5.573  1.00  0.00    -0.550 OA
ENDBRANCH  14  15
ENDBRANCH  13  14
ENDBRANCH  12  13
ENDBRANCH  11  12
ENDBRANCH  10  11
ENDBRANCH   9  10
ENDBRANCH   8   9
ENDBRANCH   7   8
ENDBRANCH   6   7
ENDBRANCH   5   6
ENDBRANCH   4   5
ENDBRANCH   3   4
ENDBRANCH   2   3
ENDBRANCH   1   2
BRANCH   1  18
ATOM     18  C   UNL     1      -5.579  -5.247   2.121  1.00  0.00     0.000 C 
BRANCH  18  19
ATOM     19  C   UNL     1      -5.681  -4.088   3.126  1.00  0.00     0.000 C 
BRANCH  19  20
ATOM     20  C   UNL     1      -5.190  -4.485   4.529  1.00  0.00     0.000 C 
BRANCH  20  21
ATOM     21  C   UNL     1      -4.512  -3.321   5.268  1.00  0.00     0.000 C 
BRANCH  21  22
ATOM     22  C   UNL     1      -4.445  -2.038   4.420  1.00  0.00     0.000 C 
BRANCH  22  23
ATOM     23  C   UNL     1      -5.351  -0.923   4.969  1.00  0.00     0.000 C 
BRANCH  23  24
ATOM     24  C   UNL     1      -5.645  -1.090   6.470  1.00  0.00    -0.000 C 
BRANCH  24  25
ATOM     25  C   UNL     1      -5.282   0.158   7.290  1.00  0.00    -0.000 C 
BRANCH  25  26
ATOM     26  C   UNL     1      -4.165  -0.111   8.312  1.00  0.00    -0.000 C 
BRANCH  26  27
ATOM     27  C   UNL     1      -3.665  -1.565   8.275  1.00  0.00    -0.000 C 
BRANCH  27  28
ATOM     28  C   UNL     1      -2.226  -1.711   7.735  1.00  0.00    -0.000 C 
BRANCH  28  29
ATOM     29  C   UNL     1      -1.481  -0.367   7.700  1.00  0.00    -0.000 C 
BRANCH  29  30
ATOM     30  C   UNL     1      -0.369  -0.384   6.640  1.00  0.00    -0.000 C 
BRANCH  30  31
ATOM     31  C   UNL     1      -0.887  -0.038   5.236  1.00  0.00    -0.003 C 
ATOM     32  C   UNL     1      -1.902   1.106   5.246  1.00  0.00     0.004 C 
ENDBRANCH  30  31
ENDBRANCH  29  30
ENDBRANCH  28  29
ENDBRANCH  27  28
ENDBRANCH  26  27
ENDBRANCH  25  26
ENDBRANCH  24  25
ENDBRANCH  23  24
ENDBRANCH  22  23
ENDBRANCH  21  22
ENDBRANCH  20  21
ENDBRANCH  19  20
ENDBRANCH  18  19
ENDBRANCH   1  18
TORSDOF 28
ENDMDL
MODEL 4
REMARK VINA RESULT:    -4.502      1.403      2.875
REMARK INTER + INTRA:         -15.885
REMARK INTER:                 -12.925
REMARK INTRA:                  -2.959
REMARK UNBOUND:                -4.013
REMARK SMILES CCCCCCCCCCCCCCCCCCCCCCCCCCCCCC(=O)[O-]
REMARK SMILES IDX 16 1 17 2 18 3 19 4 20 5 21 6 22 7 23 8 24 9 25 10 26 11
REMARK SMILES IDX 27 12 28 13 29 14 30 15 31 16 32 17 15 18 14 19 13 20 12 21
REMARK SMILES IDX 11 22 10 23 9 24 8 25 7 26 6 27 5 28 4 29 3 30 2 31 1 32
REMARK H PARENT
REMARK Flexibility Score: inf
ROOT
ATOM      1  C   UNL     1      -4.861  -3.353   4.508  1.00  0.00     0.000 C 
ENDROOT
BRANCH   1   2
ATOM      2  C   UNL     1      -5.273  -3.784   3.092  1.00  0.00     0.000 C 
BRANCH   2   3
ATOM      3  C   UNL     1      -4.813  -2.791   2.010  1.00  0.00     0.000 C 
BRANCH   3   4
ATOM      4  C   UNL     1      -4.679  -3.449   0.627  1.00  0.00     0.000 C 
BRANCH   4   5
ATOM      5  C   UNL     1      -4.954  -4.963   0.660  1.00  0.00     0.000 C 
BRANCH   5   6
ATOM      6  C   UNL     1      -5.644  -5.463  -0.625  1.00  0.00     0.000 C 
BRANCH   6   7
ATOM      7  C   UNL     1      -7.184  -5.481  -0.548  1.00  0.00     0.000 C 
BRANCH   7   8
ATOM      8  C   UNL     1      -7.744  -5.360   0.883  1.00  0.00     0.000 C 
BRANCH   8   9
ATOM      9  C   UNL     1      -8.490  -4.031   1.112  1.00  0.00     0.000 C 
BRANCH   9  10
ATOM     10  C   UNL     1      -8.656  -3.211  -0.184  1.00  0.00     0.000 C 
BRANCH  10  11
ATOM     11  C   UNL     1      -8.853  -1.698   0.042  1.00  0.00     0.000 C 
BRANCH  11  12
ATOM     12  C   UNL     1      -7.848  -1.078   1.033  1.00  0.00     0.000 C 
BRANCH  12  13
ATOM     13  C   UNL     1      -6.730  -0.305   0.318  1.00  0.00     0.006 C 
BRANCH  13  14
ATOM     14  C   UNL     1      -7.027  -0.162  -1.179  1.00  0.00     0.053 C 
BRANCH  14  15
ATOM     15  C   UNL     1      -5.936  -0.775  -1.999  1.00  0.00     0.041 C 
ATOM     16  O   UNL     1      -5.981  -1.996  -2.305  1.00  0.00    -0.550 OA
ATOM     17  O   UNL     1      -4.865   0.001  -2.426  1.00  0.00    -0.550 OA
ENDBRANCH  14  15
ENDBRANCH  13  14
ENDBRANCH  12  13
ENDBRANCH  11  12
ENDBRANCH  10  11
ENDBRANCH   9  10
ENDBRANCH   8   9
ENDBRANCH   7   8
ENDBRANCH   6   7
ENDBRANCH   5   6
ENDBRANCH   4   5
ENDBRANCH   3   4
ENDBRANCH   2   3
ENDBRANCH   1   2
BRANCH   1  18
ATOM     18  C   UNL     1      -4.299  -1.921   4.554  1.00  0.00     0.000 C 
BRANCH  18  19
ATOM     19  C   UNL     1      -4.404  -1.293   5.954  1.00  0.00     0.000 C 
BRANCH  19  20
ATOM     20  C   UNL     1      -3.487  -0.068   6.117  1.00  0.00     0.000 C 
BRANCH  20  21
ATOM     21  C   UNL     1      -2.378  -0.017   5.054  1.00  0.00     0.000 C 
BRANCH  21  22
ATOM     22  C   UNL     1      -1.065   0.580   5.594  1.00  0.00     0.000 C 
BRANCH  22  23
ATOM     23  C   UNL     1      -0.539  -0.176   6.825  1.00  0.00     0.000 C 
BRANCH  23  24
ATOM     24  C   UNL     1       0.827  -0.837   6.569  1.00  0.00    -0.000 C 
BRANCH  24  25
ATOM     25  C   UNL     1       1.117  -1.044   5.074  1.00  0.00    -0.000 C 
BRANCH  25  26
ATOM     26  C   UNL     1       2.450  -1.770   4.826  1.00  0.00    -0.000 C 
BRANCH  26  27
ATOM     27  C   UNL     1       2.913  -1.678   3.363  1.00  0.00    -0.000 C 
BRANCH  27  28
ATOM     28  C   UNL     1       4.291  -2.327   3.108  1.00  0.00    -0.000 C 
BRANCH  28  29
ATOM     29  C   UNL     1       4.497  -2.687   1.628  1.00  0.00    -0.000 C 
BRANCH  29  30
ATOM     30  C   UNL     1       5.894  -3.284   1.398  1.00  0.00    -0.000 C 
BRANCH  30  31
ATOM     31  C   UNL     1       6.196  -3.523  -0.089  1.00  0.00    -0.003 C 
ATOM     32  C   UNL     1       5.572  -4.816  -0.618  1.00  0.00     0.004 C 
ENDBRANCH  30  31
ENDBRANCH  29  30
ENDBRANCH  28  29
ENDBRANCH  27  28
ENDBRANCH  26  27
ENDBRANCH  25  26
ENDBRANCH  24  25
ENDBRANCH  23  24
ENDBRANCH  22  23
ENDBRANCH  21  22
ENDBRANCH  20  21
ENDBRANCH  19  20
ENDBRANCH  18  19
ENDBRANCH   1  18
TORSDOF 28
ENDMDL
MODEL 5
REMARK VINA RESULT:    -4.483      2.781      6.518
REMARK INTER + INTRA:         -15.833
REMARK INTER:                 -11.541
REMARK INTRA:                  -4.292
REMARK UNBOUND:                -4.013
REMARK SMILES CCCCCCCCCCCCCCCCCCCCCCCCCCCCCC(=O)[O-]
REMARK SMILES IDX 16 1 17 2 18 3 19 4 20 5 21 6 22 7 23 8 24 9 25 10 26 11
REMARK SMILES IDX 27 12 28 13 29 14 30 15 31 16 32 17 15 18 14 19 13 20 12 21
REMARK SMILES IDX 11 22 10 23 9 24 8 25 7 26 6 27 5 28 4 29 3 30 2 31 1 32
REMARK H PARENT
REMARK Flexibility Score: inf
ROOT
ATOM      1  C   UNL     1      -5.615  -5.341  -0.419  1.00  0.00     0.000 C 
ENDROOT
BRANCH   1   2
ATOM      2  C   UNL     1      -4.797  -4.615   0.660  1.00  0.00     0.000 C 
BRANCH   2   3
ATOM      3  C   UNL     1      -4.865  -3.084   0.529  1.00  0.00     0.000 C 
BRANCH   3   4
ATOM      4  C   UNL     1      -4.866  -2.376   1.893  1.00  0.00     0.000 C 
BRANCH   4   5
ATOM      5  C   UNL     1      -6.063  -1.425   2.069  1.00  0.00     0.000 C 
BRANCH   5   6
ATOM      6  C   UNL     1      -7.003  -1.432   0.847  1.00  0.00     0.000 C 
BRANCH   6   7
ATOM      7  C   UNL     1      -7.242  -0.040   0.228  1.00  0.00     0.000 C 
BRANCH   7   8
ATOM      8  C   UNL     1      -7.235  -0.027  -1.314  1.00  0.00     0.000 C 
BRANCH   8   9
ATOM      9  C   UNL     1      -6.863  -1.398  -1.911  1.00  0.00     0.000 C 
BRANCH   9  10
ATOM     10  C   UNL     1      -6.006  -1.278  -3.188  1.00  0.00     0.000 C 
BRANCH  10  11
ATOM     11  C   UNL     1      -4.792  -0.337  -3.053  1.00  0.00     0.000 C 
BRANCH  11  12
ATOM     12  C   UNL     1      -4.939   0.990  -3.823  1.00  0.00     0.000 C 
BRANCH  12  13
ATOM     13  C   UNL     1      -4.769   2.213  -2.908  1.00  0.00     0.006 C 
BRANCH  13  14
ATOM     14  C   UNL     1      -5.679   3.364  -3.350  1.00  0.00     0.053 C 
BRANCH  14  15
ATOM     15  C   UNL     1      -5.146   4.021  -4.584  1.00  0.00     0.041 C 
ATOM     16  O   UNL     1      -5.689   3.809  -5.701  1.00  0.00    -0.550 OA
ATOM     17  O   UNL     1      -4.047   4.867  -4.503  1.00  0.00    -0.550 OA
ENDBRANCH  14  15
ENDBRANCH  13  14
ENDBRANCH  12  13
ENDBRANCH  11  12
ENDBRANCH  10  11
ENDBRANCH   9  10
ENDBRANCH   8   9
ENDBRANCH   7   8
ENDBRANCH   6   7
ENDBRANCH   5   6
ENDBRANCH   4   5
ENDBRANCH   3   4
ENDBRANCH   2   3
ENDBRANCH   1   2
BRANCH   1  18
ATOM     18  C   UNL     1      -7.109  -4.972  -0.383  1.00  0.00     0.000 C 
BRANCH  18  19
ATOM     19  C   UNL     1      -7.813  -5.495   0.879  1.00  0.00     0.000 C 
BRANCH  19  20
ATOM     20  C   UNL     1      -8.828  -4.487   1.444  1.00  0.00     0.000 C 
BRANCH  20  21
ATOM     21  C   UNL     1      -8.509  -4.075   2.890  1.00  0.00     0.000 C 
BRANCH  21  22
ATOM     22  C   UNL     1      -7.252  -4.771   3.442  1.00  0.00     0.000 C 
BRANCH  22  23
ATOM     23  C   UNL     1      -6.792  -4.176   4.782  1.00  0.00     0.000 C 
BRANCH  23  24
ATOM     24  C   UNL     1      -5.286  -4.378   5.029  1.00  0.00    -0.000 C 
BRANCH  24  25
ATOM     25  C   UNL     1      -4.509  -3.053   5.081  1.00  0.00    -0.000 C 
BRANCH  25  26
ATOM     26  C   UNL     1      -5.309  -1.926   5.756  1.00  0.00    -0.000 C 
BRANCH  26  27
ATOM     27  C   UNL     1      -4.479  -0.645   5.953  1.00  0.00    -0.000 C 
BRANCH  27  28
ATOM     28  C   UNL     1      -3.045  -0.744   5.390  1.00  0.00    -0.000 C 
BRANCH  28  29
ATOM     29  C   UNL     1      -2.411   0.639   5.175  1.00  0.00    -0.000 C 
BRANCH  29  30
ATOM     30  C   UNL     1      -1.028   0.719   5.840  1.00  0.00    -0.000 C 
BRANCH  30  31
ATOM     31  C   UNL     1      -0.921  -0.176   7.084  1.00  0.00    -0.003 C 
ATOM     32  C   UNL     1       0.307  -1.087   7.053  1.00  0.00     0.004 C 
ENDBRANCH  30  31
ENDBRANCH  29  30
ENDBRANCH  28  29
ENDBRANCH  27  28
ENDBRANCH  26  27
ENDBRANCH  25  26
ENDBRANCH  24  25
ENDBRANCH  23  24
ENDBRANCH  22  23
ENDBRANCH  21  22
ENDBRANCH  20  21
ENDBRANCH  19  20
ENDBRANCH  18  19
ENDBRANCH   1  18
TORSDOF 28
ENDMDL
MODEL 6
REMARK VINA RESULT:    -4.481      1.562      2.837
REMARK INTER + INTRA:         -15.828
REMARK INTER:                 -12.629
REMARK INTRA:                  -3.198
REMARK UNBOUND:                -4.013
REMARK SMILES CCCCCCCCCCCCCCCCCCCCCCCCCCCCCC(=O)[O-]
REMARK SMILES IDX 16 1 17 2 18 3 19 4 20 5 21 6 22 7 23 8 24 9 25 10 26 11
REMARK SMILES IDX 27 12 28 13 29 14 30 15 31 16 32 17 15 18 14 19 13 20 12 21
REMARK SMILES IDX 11 22 10 23 9 24 8 25 7 26 6 27 5 28 4 29 3 30 2 31 1 32
REMARK H PARENT
REMARK Flexibility Score: inf
ROOT
ATOM      1  C   UNL     1      -4.925  -3.559   4.781  1.00  0.00     0.000 C 
ENDROOT
BRANCH   1   2
ATOM      2  C   UNL     1      -5.259  -3.908   3.322  1.00  0.00     0.000 C 
BRANCH   2   3
ATOM      3  C   UNL     1      -4.811  -2.819   2.332  1.00  0.00     0.000 C 
BRANCH   3   4
ATOM      4  C   UNL     1      -4.574  -3.373   0.917  1.00  0.00     0.000 C 
BRANCH   4   5
ATOM      5  C   UNL     1      -4.889  -4.875   0.806  1.00  0.00     0.000 C 
BRANCH   5   6
ATOM      6  C   UNL     1      -5.689  -5.215  -0.467  1.00  0.00     0.000 C 
BRANCH   6   7
ATOM      7  C   UNL     1      -7.155  -5.615  -0.203  1.00  0.00     0.000 C 
BRANCH   7   8
ATOM      8  C   UNL     1      -8.143  -4.432  -0.222  1.00  0.00     0.000 C 
BRANCH   8   9
ATOM      9  C   UNL     1      -8.376  -3.838   1.180  1.00  0.00     0.000 C 
BRANCH   9  10
ATOM     10  C   UNL     1      -8.346  -2.296   1.186  1.00  0.00     0.000 C 
BRANCH  10  11
ATOM     11  C   UNL     1      -7.655  -1.669  -0.042  1.00  0.00     0.000 C 
BRANCH  11  12
ATOM     12  C   UNL     1      -6.705  -0.505   0.300  1.00  0.00     0.000 C 
BRANCH  12  13
ATOM     13  C   UNL     1      -6.284   0.286  -0.948  1.00  0.00     0.006 C 
BRANCH  13  14
ATOM     14  C   UNL     1      -5.613  -0.626  -1.980  1.00  0.00     0.053 C 
BRANCH  14  15
ATOM     15  C   UNL     1      -4.919   0.180  -3.033  1.00  0.00     0.041 C 
ATOM     16  O   UNL     1      -4.873   1.436  -2.942  1.00  0.00    -0.550 OA
ATOM     17  O   UNL     1      -4.325  -0.453  -4.117  1.00  0.00    -0.550 OA
ENDBRANCH  14  15
ENDBRANCH  13  14
ENDBRANCH  12  13
ENDBRANCH  11  12
ENDBRANCH  10  11
ENDBRANCH   9  10
ENDBRANCH   8   9
ENDBRANCH   7   8
ENDBRANCH   6   7
ENDBRANCH   5   6
ENDBRANCH   4   5
ENDBRANCH   3   4
ENDBRANCH   2   3
ENDBRANCH   1   2
BRANCH   1  18
ATOM     18  C   UNL     1      -4.497  -2.091   4.958  1.00  0.00     0.000 C 
BRANCH  18  19
ATOM     19  C   UNL     1      -3.699  -1.865   6.253  1.00  0.00     0.000 C 
BRANCH  19  20
ATOM     20  C   UNL     1      -3.239  -0.405   6.409  1.00  0.00     0.000 C 
BRANCH  20  21
ATOM     21  C   UNL     1      -2.530   0.128   5.154  1.00  0.00     0.000 C 
BRANCH  21  22
ATOM     22  C   UNL     1      -1.000  -0.030   5.224  1.00  0.00     0.000 C 
BRANCH  22  23
ATOM     23  C   UNL     1      -0.472  -0.003   6.667  1.00  0.00     0.000 C 
BRANCH  23  24
ATOM     24  C   UNL     1       0.482  -1.173   6.967  1.00  0.00    -0.000 C 
BRANCH  24  25
ATOM     25  C   UNL     1       1.860  -0.999   6.308  1.00  0.00    -0.000 C 
BRANCH  25  26
ATOM     26  C   UNL     1       2.147  -2.077   5.249  1.00  0.00    -0.000 C 
BRANCH  26  27
ATOM     27  C   UNL     1       1.929  -1.571   3.813  1.00  0.00    -0.000 C 
BRANCH  27  28
ATOM     28  C   UNL     1       3.146  -1.790   2.888  1.00  0.00    -0.000 C 
BRANCH  28  29
ATOM     29  C   UNL     1       4.478  -1.626   3.635  1.00  0.00    -0.000 C 
BRANCH  29  30
ATOM     30  C   UNL     1       5.378  -0.597   2.932  1.00  0.00    -0.000 C 
BRANCH  30  31
ATOM     31  C   UNL     1       6.644  -0.271   3.739  1.00  0.00    -0.003 C 
ATOM     32  C   UNL     1       6.368   0.659   4.921  1.00  0.00     0.004 C 
ENDBRANCH  30  31
ENDBRANCH  29  30
ENDBRANCH  28  29
ENDBRANCH  27  28
ENDBRANCH  26  27
ENDBRANCH  25  26
ENDBRANCH  24  25
ENDBRANCH  23  24
ENDBRANCH  22  23
ENDBRANCH  21  22
ENDBRANCH  20  21
ENDBRANCH  19  20
ENDBRANCH  18  19
ENDBRANCH   1  18
TORSDOF 28
ENDMDL
MODEL 7
REMARK VINA RESULT:    -4.463      1.274      3.071
REMARK INTER + INTRA:         -15.782
REMARK INTER:                 -12.309
REMARK INTRA:                  -3.473
REMARK UNBOUND:                -4.013
REMARK SMILES CCCCCCCCCCCCCCCCCCCCCCCCCCCCCC(=O)[O-]
REMARK SMILES IDX 16 1 17 2 18 3 19 4 20 5 21 6 22 7 23 8 24 9 25 10 26 11
REMARK SMILES IDX 27 12 28 13 29 14 30 15 31 16 32 17 15 18 14 19 13 20 12 21
REMARK SMILES IDX 11 22 10 23 9 24 8 25 7 26 6 27 5 28 4 29 3 30 2 31 1 32
REMARK H PARENT
REMARK Flexibility Score: inf
ROOT
ATOM      1  C   UNL     1      -5.374  -4.571   4.046  1.00  0.00     0.000 C 
ENDROOT
BRANCH   1   2
ATOM      2  C   UNL     1      -5.940  -3.653   2.952  1.00  0.00     0.000 C 
BRANCH   2   3
ATOM      3  C   UNL     1      -4.841  -2.916   2.167  1.00  0.00     0.000 C 
BRANCH   3   4
ATOM      4  C   UNL     1      -4.817  -3.307   0.681  1.00  0.00     0.000 C 
BRANCH   4   5
ATOM      5  C   UNL     1      -4.749  -4.830   0.468  1.00  0.00     0.000 C 
BRANCH   5   6
ATOM      6  C   UNL     1      -5.723  -5.315  -0.624  1.00  0.00     0.000 C 
BRANCH   6   7
ATOM      7  C   UNL     1      -7.136  -5.648  -0.104  1.00  0.00     0.000 C 
BRANCH   7   8
ATOM      8  C   UNL     1      -8.181  -4.547  -0.373  1.00  0.00     0.000 C 
BRANCH   8   9
ATOM      9  C   UNL     1      -8.867  -4.060   0.918  1.00  0.00     0.000 C 
BRANCH   9  10
ATOM     10  C   UNL     1      -9.221  -2.559   0.875  1.00  0.00     0.000 C 
BRANCH  10  11
ATOM     11  C   UNL     1      -8.304  -1.717  -0.034  1.00  0.00     0.000 C 
BRANCH  11  12
ATOM     12  C   UNL     1      -7.368  -0.761   0.733  1.00  0.00     0.000 C 
BRANCH  12  13
ATOM     13  C   UNL     1      -6.639   0.213  -0.204  1.00  0.00     0.006 C 
BRANCH  13  14
ATOM     14  C   UNL     1      -6.357  -0.435  -1.564  1.00  0.00     0.053 C 
BRANCH  14  15
ATOM     15  C   UNL     1      -5.213   0.243  -2.251  1.00  0.00     0.041 C 
ATOM     16  O   UNL     1      -4.572  -0.356  -3.156  1.00  0.00    -0.550 OA
ATOM     17  O   UNL     1      -4.851   1.534  -1.891  1.00  0.00    -0.550 OA
ENDBRANCH  14  15
ENDBRANCH  13  14
ENDBRANCH  12  13
ENDBRANCH  11  12
ENDBRANCH  10  11
ENDBRANCH   9  10
ENDBRANCH   8   9
ENDBRANCH   7   8
ENDBRANCH   6   7
ENDBRANCH   5   6
ENDBRANCH   4   5
ENDBRANCH   3   4
ENDBRANCH   2   3
ENDBRANCH   1   2
BRANCH   1  18
ATOM     18  C   UNL     1      -5.065  -3.819   5.353  1.00  0.00     0.000 C 
BRANCH  18  19
ATOM     19  C   UNL     1      -6.108  -2.734   5.667  1.00  0.00     0.000 C 
BRANCH  19  20
ATOM     20  C   UNL     1      -5.463  -1.368   5.958  1.00  0.00     0.000 C 
BRANCH  20  21
ATOM     21  C   UNL     1      -3.930  -1.407   5.856  1.00  0.00     0.000 C 
BRANCH  21  22
ATOM     22  C   UNL     1      -3.297  -0.004   5.879  1.00  0.00     0.000 C 
BRANCH  22  23
ATOM     23  C   UNL     1      -2.008   0.073   5.046  1.00  0.00     0.000 C 
BRANCH  23  24
ATOM     24  C   UNL     1      -0.775   0.419   5.900  1.00  0.00    -0.000 C 
BRANCH  24  25
ATOM     25  C   UNL     1      -0.930  -0.009   7.369  1.00  0.00    -0.000 C 
BRANCH  25  26
ATOM     26  C   UNL     1      -0.037  -1.207   7.732  1.00  0.00    -0.000 C 
BRANCH  26  27
ATOM     27  C   UNL     1       1.426  -1.007   7.304  1.00  0.00    -0.000 C 
BRANCH  27  28
ATOM     28  C   UNL     1       1.933  -2.079   6.314  1.00  0.00    -0.000 C 
BRANCH  28  29
ATOM     29  C   UNL     1       2.592  -1.456   5.073  1.00  0.00    -0.000 C 
BRANCH  29  30
ATOM     30  C   UNL     1       2.268  -2.272   3.812  1.00  0.00    -0.000 C 
BRANCH  30  31
ATOM     31  C   UNL     1       3.041  -1.782   2.578  1.00  0.00    -0.003 C 
ATOM     32  C   UNL     1       4.445  -2.382   2.483  1.00  0.00     0.004 C 
ENDBRANCH  30  31
ENDBRANCH  29  30
ENDBRANCH  28  29
ENDBRANCH  27  28
ENDBRANCH  26  27
ENDBRANCH  25  26
ENDBRANCH  24  25
ENDBRANCH  23  24
ENDBRANCH  22  23
ENDBRANCH  21  22
ENDBRANCH  20  21
ENDBRANCH  19  20
ENDBRANCH  18  19
ENDBRANCH   1  18
TORSDOF 28
ENDMDL
MODEL 8
REMARK VINA RESULT:    -4.445      3.408      9.493
REMARK INTER + INTRA:         -15.734
REMARK INTER:                 -10.991
REMARK INTRA:                  -4.743
REMARK UNBOUND:                -4.013
REMARK SMILES CCCCCCCCCCCCCCCCCCCCCCCCCCCCCC(=O)[O-]
REMARK SMILES IDX 16 1 17 2 18 3 19 4 20 5 21 6 22 7 23 8 24 9 25 10 26 11
REMARK SMILES IDX 27 12 28 13 29 14 30 15 31 16 32 17 15 18 14 19 13 20 12 21
REMARK SMILES IDX 11 22 10 23 9 24 8 25 7 26 6 27 5 28 4 29 3 30 2 31 1 32
REMARK H PARENT
REMARK Flexibility Score: inf
ROOT
ATOM      1  C   UNL     1      -5.232  -4.994   5.327  1.00  0.00     0.000 C 
ENDROOT
BRANCH   1   2
ATOM      2  C   UNL     1      -4.855  -3.792   6.207  1.00  0.00     0.000 C 
BRANCH   2   3
ATOM      3  C   UNL     1      -4.387  -2.578   5.387  1.00  0.00     0.000 C 
BRANCH   3   4
ATOM      4  C   UNL     1      -4.828  -1.243   6.009  1.00  0.00     0.000 C 
BRANCH   4   5
ATOM      5  C   UNL     1      -3.668  -0.242   6.151  1.00  0.00     0.000 C 
BRANCH   5   6
ATOM      6  C   UNL     1      -2.696  -0.624   7.285  1.00  0.00     0.000 C 
BRANCH   6   7
ATOM      7  C   UNL     1      -1.278  -0.040   7.123  1.00  0.00     0.000 C 
BRANCH   7   8
ATOM      8  C   UNL     1      -0.964   0.467   5.702  1.00  0.00     0.000 C 
BRANCH   8   9
ATOM      9  C   UNL     1       0.071  -0.416   4.978  1.00  0.00     0.000 C 
BRANCH   9  10
ATOM     10  C   UNL     1       1.027  -1.134   5.953  1.00  0.00     0.000 C 
BRANCH  10  11
ATOM     11  C   UNL     1       2.357  -1.587   5.320  1.00  0.00     0.000 C 
BRANCH  11  12
ATOM     12  C   UNL     1       2.231  -2.038   3.851  1.00  0.00     0.000 C 
BRANCH  12  13
ATOM     13  C   UNL     1       3.092  -1.185   2.907  1.00  0.00     0.006 C 
BRANCH  13  14
ATOM     14  C   UNL     1       4.582  -1.496   3.087  1.00  0.00     0.053 C 
BRANCH  14  15
ATOM     15  C   UNL     1       5.147  -2.131   1.855  1.00  0.00     0.041 C 
ATOM     16  O   UNL     1       6.260  -1.753   1.400  1.00  0.00    -0.550 OA
ATOM     17  O   UNL     1       4.445  -3.138   1.205  1.00  0.00    -0.550 OA
ENDBRANCH  14  15
ENDBRANCH  13  14
ENDBRANCH  12  13
ENDBRANCH  11  12
ENDBRANCH  10  11
ENDBRANCH   9  10
ENDBRANCH   8   9
ENDBRANCH   7   8
ENDBRANCH   6   7
ENDBRANCH   5   6
ENDBRANCH   4   5
ENDBRANCH   3   4
ENDBRANCH   2   3
ENDBRANCH   1   2
BRANCH   1  18
ATOM     18  C   UNL     1      -5.282  -4.643   3.829  1.00  0.00     0.000 C 
BRANCH  18  19
ATOM     19  C   UNL     1      -6.318  -5.482   3.063  1.00  0.00     0.000 C 
BRANCH  19  20
ATOM     20  C   UNL     1      -6.342  -5.153   1.560  1.00  0.00     0.000 C 
BRANCH  20  21
ATOM     21  C   UNL     1      -4.938  -4.903   0.989  1.00  0.00     0.000 C 
BRANCH  21  22
ATOM     22  C   UNL     1      -4.827  -3.555   0.254  1.00  0.00     0.000 C 
BRANCH  22  23
ATOM     23  C   UNL     1      -5.970  -2.593   0.616  1.00  0.00     0.000 C 
BRANCH  23  24
ATOM     24  C   UNL     1      -5.569  -1.589   1.711  1.00  0.00    -0.000 C 
BRANCH  24  25
ATOM     25  C   UNL     1      -6.659  -1.409   2.780  1.00  0.00    -0.000 C 
BRANCH  25  26
ATOM     26  C   UNL     1      -8.021  -1.967   2.334  1.00  0.00    -0.000 C 
BRANCH  26  27
ATOM     27  C   UNL     1      -8.746  -2.730   3.455  1.00  0.00    -0.000 C 
BRANCH  27  28
ATOM     28  C   UNL     1      -8.169  -2.461   4.861  1.00  0.00    -0.000 C 
BRANCH  28  29
ATOM     29  C   UNL     1      -8.601  -3.527   5.879  1.00  0.00    -0.000 C 
BRANCH  29  30
ATOM     30  C   UNL     1      -9.285  -4.711   5.178  1.00  0.00    -0.000 C 
BRANCH  30  31
ATOM     31  C   UNL     1      -8.846  -6.068   5.747  1.00  0.00    -0.003 C 
ATOM     32  C   UNL     1      -9.038  -7.215   4.754  1.00  0.00     0.004 C 
ENDBRANCH  30  31
ENDBRANCH  29  30
ENDBRANCH  28  29
ENDBRANCH  27  28
ENDBRANCH  26  27
ENDBRANCH  25  26
ENDBRANCH  24  25
ENDBRANCH  23  24
ENDBRANCH  22  23
ENDBRANCH  21  22
ENDBRANCH  20  21
ENDBRANCH  19  20
ENDBRANCH  18  19
ENDBRANCH   1  18
TORSDOF 28
ENDMDL
MODEL 9
REMARK VINA RESULT:    -4.439      1.319      2.946
REMARK INTER + INTRA:         -15.717
REMARK INTER:                 -11.461
REMARK INTRA:                  -4.257
REMARK UNBOUND:                -4.013
REMARK SMILES CCCCCCCCCCCCCCCCCCCCCCCCCCCCCC(=O)[O-]
REMARK SMILES IDX 16 1 17 2 18 3 19 4 20 5 21 6 22 7 23 8 24 9 25 10 26 11
REMARK SMILES IDX 27 12 28 13 29 14 30 15 31 16 32 17 15 18 14 19 13 20 12 21
REMARK SMILES IDX 11 22 10 23 9 24 8 25 7 26 6 27 5 28 4 29 3 30 2 31 1 32
REMARK H PARENT
REMARK Flexibility Score: inf
ROOT
ATOM      1  C   UNL     1      -4.845  -3.409   4.267  1.00  0.00     0.000 C 
ENDROOT
BRANCH   1   2
ATOM      2  C   UNL     1      -4.945  -2.232   3.284  1.00  0.00     0.000 C 
BRANCH   2   3
ATOM      3  C   UNL     1      -6.361  -1.637   3.210  1.00  0.00     0.000 C 
BRANCH   3   4
ATOM      4  C   UNL     1      -6.809  -1.365   1.764  1.00  0.00     0.000 C 
BRANCH   4   5
ATOM      5  C   UNL     1      -8.062  -2.167   1.369  1.00  0.00     0.000 C 
BRANCH   5   6
ATOM      6  C   UNL     1      -8.185  -3.489   2.153  1.00  0.00     0.000 C 
BRANCH   6   7
ATOM      7  C   UNL     1      -7.740  -4.735   1.361  1.00  0.00     0.000 C 
BRANCH   7   8
ATOM      8  C   UNL     1      -6.342  -5.259   1.745  1.00  0.00     0.000 C 
BRANCH   8   9
ATOM      9  C   UNL     1      -5.280  -4.939   0.676  1.00  0.00     0.000 C 
BRANCH   9  10
ATOM     10  C   UNL     1      -5.894  -4.681  -0.716  1.00  0.00     0.000 C 
BRANCH  10  11
ATOM     11  C   UNL     1      -5.692  -3.247  -1.244  1.00  0.00     0.000 C 
BRANCH  11  12
ATOM     12  C   UNL     1      -6.868  -2.719  -2.090  1.00  0.00     0.000 C 
BRANCH  12  13
ATOM     13  C   UNL     1      -6.853  -1.188  -2.212  1.00  0.00     0.006 C 
BRANCH  13  14
ATOM     14  C   UNL     1      -5.471  -0.620  -1.872  1.00  0.00     0.053 C 
BRANCH  14  15
ATOM     15  C   UNL     1      -5.242   0.682  -2.574  1.00  0.00     0.041 C 
ATOM     16  O   UNL     1      -5.492   0.791  -3.805  1.00  0.00    -0.550 OA
ATOM     17  O   UNL     1      -4.751   1.776  -1.872  1.00  0.00    -0.550 OA
ENDBRANCH  14  15
ENDBRANCH  13  14
ENDBRANCH  12  13
ENDBRANCH  11  12
ENDBRANCH  10  11
ENDBRANCH   9  10
ENDBRANCH   8   9
ENDBRANCH   7   8
ENDBRANCH   6   7
ENDBRANCH   5   6
ENDBRANCH   4   5
ENDBRANCH   3   4
ENDBRANCH   2   3
ENDBRANCH   1   2
BRANCH   1  18
ATOM     18  C   UNL     1      -5.751  -3.234   5.499  1.00  0.00     0.000 C 
BRANCH  18  19
ATOM     19  C   UNL     1      -4.992  -3.438   6.821  1.00  0.00     0.000 C 
BRANCH  19  20
ATOM     20  C   UNL     1      -3.820  -2.454   6.981  1.00  0.00     0.000 C 
BRANCH  20  21
ATOM     21  C   UNL     1      -4.286  -1.041   7.366  1.00  0.00     0.000 C 
BRANCH  21  22
ATOM     22  C   UNL     1      -3.968   0.004   6.282  1.00  0.00     0.000 C 
BRANCH  22  23
ATOM     23  C   UNL     1      -2.860  -0.461   5.324  1.00  0.00     0.000 C 
BRANCH  23  24
ATOM     24  C   UNL     1      -1.747   0.589   5.158  1.00  0.00    -0.000 C 
BRANCH  24  25
ATOM     25  C   UNL     1      -0.347   0.022   5.445  1.00  0.00    -0.000 C 
BRANCH  25  26
ATOM     26  C   UNL     1      -0.214  -0.526   6.875  1.00  0.00    -0.000 C 
BRANCH  26  27
ATOM     27  C   UNL     1       0.866  -1.614   6.996  1.00  0.00    -0.000 C 
BRANCH  27  28
ATOM     28  C   UNL     1       2.305  -1.078   6.835  1.00  0.00    -0.000 C 
BRANCH  28  29
ATOM     29  C   UNL     1       3.174  -2.000   5.966  1.00  0.00    -0.000 C 
BRANCH  29  30
ATOM     30  C   UNL     1       4.024  -1.185   4.980  1.00  0.00    -0.000 C 
BRANCH  30  31
ATOM     31  C   UNL     1       3.642  -1.446   3.515  1.00  0.00    -0.003 C 
ATOM     32  C   UNL     1       2.190  -1.900   3.355  1.00  0.00     0.004 C 
ENDBRANCH  30  31
ENDBRANCH  29  30
ENDBRANCH  28  29
ENDBRANCH  27  28
ENDBRANCH  26  27
ENDBRANCH  25  26
ENDBRANCH  24  25
ENDBRANCH  23  24
ENDBRANCH  22  23
ENDBRANCH  21  22
ENDBRANCH  20  21
ENDBRANCH  19  20
ENDBRANCH  18  19
ENDBRANCH   1  18
TORSDOF 28
ENDMDL
