MODEL 1
REMARK VINA RESULT:    -5.555      0.000      0.000
REMARK INTER + INTRA:         -13.725
REMARK INTER:                 -12.050
REMARK INTRA:                  -1.675
REMARK UNBOUND:                -1.675
REMARK SMILES CCCCCCCCCCCCCCCCCCCCCC(=O)[O-]
REMARK SMILES IDX 12 1 11 2 10 3 9 4 8 5 7 6 6 7 5 8 4 9 3 10 2 11 1 12 13 13
REMARK SMILES IDX 14 14 15 15 16 16 17 17 18 18 19 19 20 20 21 21 22 22 23 23
REMARK SMILES IDX 24 24
REMARK H PARENT
REMARK Flexibility Score: inf
ROOT
ATOM      1  C   UNL     1     -16.509  37.322  16.674  1.00  0.00     0.000 C 
ENDROOT
BRANCH   1   2
ATOM      2  C   UNL     1     -15.924  35.916  16.480  1.00  0.00     0.000 C 
BRANCH   2   3
ATOM      3  C   UNL     1     -15.147  35.826  15.162  1.00  0.00     0.000 C 
BRANCH   3   4
ATOM      4  C   UNL     1     -14.390  37.132  14.878  1.00  0.00    -0.000 C 
BRANCH   4   5
ATOM      5  C   UNL     1     -14.382  37.502  13.385  1.00  0.00    -0.000 C 
BRANCH   5   6
ATOM      6  C   UNL     1     -15.796  37.655  12.805  1.00  0.00    -0.000 C 
BRANCH   6   7
ATOM      7  C   UNL     1     -16.041  36.646  11.677  1.00  0.00    -0.000 C 
BRANCH   7   8
ATOM      8  C   UNL     1     -16.876  35.459  12.171  1.00  0.00    -0.000 C 
BRANCH   8   9
ATOM      9  C   UNL     1     -17.901  35.905  13.222  1.00  0.00    -0.000 C 
BRANCH   9  10
ATOM     10  C   UNL     1     -18.737  34.715  13.713  1.00  0.00    -0.000 C 
BRANCH  10  11
ATOM     11  C   UNL     1     -17.967  33.386  13.650  1.00  0.00    -0.003 C 
ATOM     12  C   UNL     1     -18.873  32.169  13.842  1.00  0.00     0.004 C 
ENDBRANCH  10  11
ENDBRANCH   9  10
ENDBRANCH   8   9
ENDBRANCH   7   8
ENDBRANCH   6   7
ENDBRANCH   5   6
ENDBRANCH   4   5
ENDBRANCH   3   4
ENDBRANCH   2   3
ENDBRANCH   1   2
BRANCH   1  13
ATOM     13  C   UNL     1     -16.865  37.622  18.140  1.00  0.00     0.000 C 
BRANCH  13  14
ATOM     14  C   UNL     1     -17.090  39.113  18.459  1.00  0.00     0.000 C 
BRANCH  14  15
ATOM     15  C   UNL     1     -18.200  39.365  19.501  1.00  0.00     0.000 C 
BRANCH  15  16
ATOM     16  C   UNL     1     -18.949  40.683  19.244  1.00  0.00     0.000 C 
BRANCH  16  17
ATOM     17  C   UNL     1     -18.400  41.852  20.078  1.00  0.00     0.000 C 
BRANCH  17  18
ATOM     18  C   UNL     1     -17.629  41.386  21.321  1.00  0.00     0.000 C 
BRANCH  18  19
ATOM     19  C   UNL     1     -16.602  42.443  21.756  1.00  0.00     0.000 C 
BRANCH  19  20
ATOM     20  C   UNL     1     -17.176  43.868  21.753  1.00  0.00     0.006 C 
BRANCH  20  21
ATOM     21  C   UNL     1     -16.128  44.931  22.109  1.00  0.00     0.053 C 
BRANCH  21  22
ATOM     22  C   UNL     1     -16.200  45.275  23.563  1.00  0.00     0.041 C 
ATOM     23  O   UNL     1     -15.154  45.293  24.263  1.00  0.00    -0.550 OA
ATOM     24  O   UNL     1     -17.421  45.612  24.137  1.00  0.00    -0.550 OA
ENDBRANCH  21  22
ENDBRANCH  20  21
ENDBRANCH  19  20
ENDBRANCH  18  19
ENDBRANCH  17  18
ENDBRANCH  16  17
ENDBRANCH  15  16
ENDBRANCH  14  15
ENDBRANCH  13  14
ENDBRANCH   1  13
TORSDOF 20
ENDMDL
MODEL 2
REMARK VINA RESULT:    -5.409      4.081     10.818
REMARK INTER + INTRA:         -13.408
REMARK INTER:                 -11.713
REMARK INTRA:                  -1.696
REMARK UNBOUND:                -1.675
REMARK SMILES CCCCCCCCCCCCCCCCCCCCCC(=O)[O-]
REMARK SMILES IDX 12 1 11 2 10 3 9 4 8 5 7 6 6 7 5 8 4 9 3 10 2 11 1 12 13 13
REMARK SMILES IDX 14 14 15 15 16 16 17 17 18 18 19 19 20 20 21 21 22 22 23 23
REMARK SMILES IDX 24 24
REMARK H PARENT
REMARK Flexibility Score: inf
ROOT
ATOM      1  C   UNL     1     -17.706  39.557  18.002  1.00  0.00     0.000 C 
ENDROOT
BRANCH   1   2
ATOM      2  C   UNL     1     -17.557  40.919  18.696  1.00  0.00     0.000 C 
BRANCH   2   3
ATOM      3  C   UNL     1     -18.800  41.244  19.532  1.00  0.00     0.000 C 
BRANCH   3   4
ATOM      4  C   UNL     1     -18.425  41.517  20.996  1.00  0.00    -0.000 C 
BRANCH   4   5
ATOM      5  C   UNL     1     -17.009  41.028  21.346  1.00  0.00    -0.000 C 
BRANCH   5   6
ATOM      6  C   UNL     1     -16.197  42.071  22.127  1.00  0.00    -0.000 C 
BRANCH   6   7
ATOM      7  C   UNL     1     -16.770  43.479  21.925  1.00  0.00    -0.000 C 
BRANCH   7   8
ATOM      8  C   UNL     1     -16.033  44.504  22.794  1.00  0.00    -0.000 C 
BRANCH   8   9
ATOM      9  C   UNL     1     -17.022  45.417  23.529  1.00  0.00    -0.000 C 
BRANCH   9  10
ATOM     10  C   UNL     1     -16.624  46.892  23.379  1.00  0.00    -0.000 C 
BRANCH  10  11
ATOM     11  C   UNL     1     -15.704  47.135  22.172  1.00  0.00    -0.003 C 
ATOM     12  C   UNL     1     -16.439  47.764  20.987  1.00  0.00     0.004 C 
ENDBRANCH  10  11
ENDBRANCH   9  10
ENDBRANCH   8   9
ENDBRANCH   7   8
ENDBRANCH   6   7
ENDBRANCH   5   6
ENDBRANCH   4   5
ENDBRANCH   3   4
ENDBRANCH   2   3
ENDBRANCH   1   2
BRANCH   1  13
ATOM     13  C   UNL     1     -17.109  38.402  18.823  1.00  0.00     0.000 C 
BRANCH  13  14
ATOM     14  C   UNL     1     -16.710  37.162  18.000  1.00  0.00     0.000 C 
BRANCH  14  15
ATOM     15  C   UNL     1     -16.443  37.465  16.510  1.00  0.00     0.000 C 
BRANCH  15  16
ATOM     16  C   UNL     1     -16.159  36.189  15.700  1.00  0.00     0.000 C 
BRANCH  16  17
ATOM     17  C   UNL     1     -14.696  36.089  15.240  1.00  0.00     0.000 C 
BRANCH  17  18
ATOM     18  C   UNL     1     -14.495  36.550  13.790  1.00  0.00     0.000 C 
BRANCH  18  19
ATOM     19  C   UNL     1     -14.227  38.062  13.729  1.00  0.00     0.000 C 
BRANCH  19  20
ATOM     20  C   UNL     1     -15.328  38.832  12.984  1.00  0.00     0.006 C 
BRANCH  20  21
ATOM     21  C   UNL     1     -16.374  37.907  12.346  1.00  0.00     0.053 C 
BRANCH  21  22
ATOM     22  C   UNL     1     -17.694  38.053  13.033  1.00  0.00     0.041 C 
ATOM     23  O   UNL     1     -18.094  39.188  13.403  1.00  0.00    -0.550 OA
ATOM     24  O   UNL     1     -18.500  36.938  13.233  1.00  0.00    -0.550 OA
ENDBRANCH  21  22
ENDBRANCH  20  21
ENDBRANCH  19  20
ENDBRANCH  18  19
ENDBRANCH  17  18
ENDBRANCH  16  17
ENDBRANCH  15  16
ENDBRANCH  14  15
ENDBRANCH  13  14
ENDBRANCH   1  13
TORSDOF 20
ENDMDL
MODEL 3
REMARK VINA RESULT:    -5.380      1.471      2.222
REMARK INTER + INTRA:         -13.346
REMARK INTER:                 -11.537
REMARK INTRA:                  -1.809
REMARK UNBOUND:                -1.675
REMARK SMILES CCCCCCCCCCCCCCCCCCCCCC(=O)[O-]
REMARK SMILES IDX 12 1 11 2 10 3 9 4 8 5 7 6 6 7 5 8 4 9 3 10 2 11 1 12 13 13
REMARK SMILES IDX 14 14 15 15 16 16 17 17 18 18 19 19 20 20 21 21 22 22 23 23
REMARK SMILES IDX 24 24
REMARK H PARENT
REMARK Flexibility Score: inf
ROOT
ATOM      1  C   UNL     1     -16.747  37.806  17.544  1.00  0.00     0.000 C 
ENDROOT
BRANCH   1   2
ATOM      2  C   UNL     1     -16.316  36.344  17.743  1.00  0.00     0.000 C 
BRANCH   2   3
ATOM      3  C   UNL     1     -15.850  35.729  16.419  1.00  0.00     0.000 C 
BRANCH   3   4
ATOM      4  C   UNL     1     -14.874  36.664  15.689  1.00  0.00    -0.000 C 
BRANCH   4   5
ATOM      5  C   UNL     1     -14.123  35.963  14.545  1.00  0.00    -0.000 C 
BRANCH   5   6
ATOM      6  C   UNL     1     -14.107  36.790  13.251  1.00  0.00    -0.000 C 
BRANCH   6   7
ATOM      7  C   UNL     1     -14.080  38.292  13.558  1.00  0.00    -0.000 C 
BRANCH   7   8
ATOM      8  C   UNL     1     -15.239  39.017  12.865  1.00  0.00    -0.000 C 
BRANCH   8   9
ATOM      9  C   UNL     1     -16.337  38.030  12.447  1.00  0.00    -0.000 C 
BRANCH   9  10
ATOM     10  C   UNL     1     -17.399  37.890  13.547  1.00  0.00    -0.000 C 
BRANCH  10  11
ATOM     11  C   UNL     1     -18.353  36.711  13.299  1.00  0.00    -0.003 C 
ATOM     12  C   UNL     1     -17.662  35.354  13.434  1.00  0.00     0.004 C 
ENDBRANCH  10  11
ENDBRANCH   9  10
ENDBRANCH   8   9
ENDBRANCH   7   8
ENDBRANCH   6   7
ENDBRANCH   5   6
ENDBRANCH   4   5
ENDBRANCH   3   4
ENDBRANCH   2   3
ENDBRANCH   1   2
BRANCH   1  13
ATOM     13  C   UNL     1     -17.353  38.426  18.814  1.00  0.00     0.000 C 
BRANCH  13  14
ATOM     14  C   UNL     1     -17.365  39.967  18.838  1.00  0.00     0.000 C 
BRANCH  14  15
ATOM     15  C   UNL     1     -18.702  40.570  19.319  1.00  0.00     0.000 C 
BRANCH  15  16
ATOM     16  C   UNL     1     -18.629  41.056  20.776  1.00  0.00     0.000 C 
BRANCH  16  17
ATOM     17  C   UNL     1     -17.812  42.348  20.933  1.00  0.00     0.000 C 
BRANCH  17  18
ATOM     18  C   UNL     1     -16.554  42.155  21.791  1.00  0.00     0.000 C 
BRANCH  18  19
ATOM     19  C   UNL     1     -15.820  43.490  21.994  1.00  0.00     0.000 C 
BRANCH  19  20
ATOM     20  C   UNL     1     -16.758  44.704  21.909  1.00  0.00     0.006 C 
BRANCH  20  21
ATOM     21  C   UNL     1     -16.622  45.644  23.114  1.00  0.00     0.053 C 
BRANCH  21  22
ATOM     22  C   UNL     1     -16.391  47.051  22.661  1.00  0.00     0.041 C 
ATOM     23  O   UNL     1     -15.646  47.283  21.672  1.00  0.00    -0.550 OA
ATOM     24  O   UNL     1     -17.027  48.104  23.307  1.00  0.00    -0.550 OA
ENDBRANCH  21  22
ENDBRANCH  20  21
ENDBRANCH  19  20
ENDBRANCH  18  19
ENDBRANCH  17  18
ENDBRANCH  16  17
ENDBRANCH  15  16
ENDBRANCH  14  15
ENDBRANCH  13  14
ENDBRANCH   1  13
TORSDOF 20
ENDMDL
MODEL 4
REMARK VINA RESULT:    -5.358      4.785     11.415
REMARK INTER + INTRA:         -13.296
REMARK INTER:                 -11.918
REMARK INTRA:                  -1.379
REMARK UNBOUND:                -1.675
REMARK SMILES CCCCCCCCCCCCCCCCCCCCCC(=O)[O-]
REMARK SMILES IDX 12 1 11 2 10 3 9 4 8 5 7 6 6 7 5 8 4 9 3 10 2 11 1 12 13 13
REMARK SMILES IDX 14 14 15 15 16 16 17 17 18 18 19 19 20 20 21 21 22 22 23 23
REMARK SMILES IDX 24 24
REMARK H PARENT
REMARK Flexibility Score: inf
ROOT
ATOM      1  C   UNL     1     -16.792  37.850  17.462  1.00  0.00     0.000 C 
ENDROOT
BRANCH   1   2
ATOM      2  C   UNL     1     -17.023  38.149  18.951  1.00  0.00     0.000 C 
BRANCH   2   3
ATOM      3  C   UNL     1     -18.037  39.286  19.128  1.00  0.00     0.000 C 
BRANCH   3   4
ATOM      4  C   UNL     1     -17.438  40.434  19.954  1.00  0.00    -0.000 C 
BRANCH   4   5
ATOM      5  C   UNL     1     -18.489  41.477  20.369  1.00  0.00    -0.000 C 
BRANCH   5   6
ATOM      6  C   UNL     1     -17.863  42.740  20.978  1.00  0.00    -0.000 C 
BRANCH   6   7
ATOM      7  C   UNL     1     -16.511  42.425  21.630  1.00  0.00    -0.000 C 
BRANCH   7   8
ATOM      8  C   UNL     1     -15.911  43.675  22.283  1.00  0.00    -0.000 C 
BRANCH   8   9
ATOM      9  C   UNL     1     -16.971  44.769  22.461  1.00  0.00    -0.000 C 
BRANCH   9  10
ATOM     10  C   UNL     1     -16.698  45.600  23.722  1.00  0.00    -0.000 C 
BRANCH  10  11
ATOM     11  C   UNL     1     -16.617  47.107  23.430  1.00  0.00    -0.003 C 
ATOM     12  C   UNL     1     -15.928  47.414  22.100  1.00  0.00     0.004 C 
ENDBRANCH  10  11
ENDBRANCH   9  10
ENDBRANCH   8   9
ENDBRANCH   7   8
ENDBRANCH   6   7
ENDBRANCH   5   6
ENDBRANCH   4   5
ENDBRANCH   3   4
ENDBRANCH   2   3
ENDBRANCH   1   2
BRANCH   1  13
ATOM     13  C   UNL     1     -16.238  36.437  17.217  1.00  0.00     0.000 C 
BRANCH  13  14
ATOM     14  C   UNL     1     -15.986  36.089  15.737  1.00  0.00     0.000 C 
BRANCH  14  15
ATOM     15  C   UNL     1     -14.527  36.313  15.285  1.00  0.00     0.000 C 
BRANCH  15  16
ATOM     16  C   UNL     1     -14.420  37.365  14.169  1.00  0.00     0.000 C 
BRANCH  16  17
ATOM     17  C   UNL     1     -15.791  37.813  13.639  1.00  0.00     0.000 C 
BRANCH  17  18
ATOM     18  C   UNL     1     -15.978  37.516  12.144  1.00  0.00     0.000 C 
BRANCH  18  19
ATOM     19  C   UNL     1     -16.120  36.006  11.900  1.00  0.00     0.000 C 
BRANCH  19  20
ATOM     20  C   UNL     1     -17.309  35.390  12.653  1.00  0.00     0.006 C 
BRANCH  20  21
ATOM     21  C   UNL     1     -17.316  33.856  12.599  1.00  0.00     0.053 C 
BRANCH  21  22
ATOM     22  C   UNL     1     -18.317  33.300  13.562  1.00  0.00     0.041 C 
ATOM     23  O   UNL     1     -18.179  32.134  14.016  1.00  0.00    -0.550 OA
ATOM     24  O   UNL     1     -19.382  34.085  13.988  1.00  0.00    -0.550 OA
ENDBRANCH  21  22
ENDBRANCH  20  21
ENDBRANCH  19  20
ENDBRANCH  18  19
ENDBRANCH  17  18
ENDBRANCH  16  17
ENDBRANCH  15  16
ENDBRANCH  14  15
ENDBRANCH  13  14
ENDBRANCH   1  13
TORSDOF 20
ENDMDL
MODEL 5
REMARK VINA RESULT:    -5.275      3.736      5.846
REMARK INTER + INTRA:         -13.116
REMARK INTER:                 -11.593
REMARK INTRA:                  -1.524
REMARK UNBOUND:                -1.675
REMARK SMILES CCCCCCCCCCCCCCCCCCCCCC(=O)[O-]
REMARK SMILES IDX 12 1 11 2 10 3 9 4 8 5 7 6 6 7 5 8 4 9 3 10 2 11 1 12 13 13
REMARK SMILES IDX 14 14 15 15 16 16 17 17 18 18 19 19 20 20 21 21 22 22 23 23
REMARK SMILES IDX 24 24
REMARK H PARENT
REMARK Flexibility Score: inf
ROOT
ATOM      1  C   UNL     1     -17.582  36.409  14.222  1.00  0.00     0.000 C 
ENDROOT
BRANCH   1   2
ATOM      2  C   UNL     1     -17.352  37.097  12.867  1.00  0.00     0.000 C 
BRANCH   2   3
ATOM      3  C   UNL     1     -15.891  37.537  12.720  1.00  0.00     0.000 C 
BRANCH   3   4
ATOM      4  C   UNL     1     -15.787  39.061  12.567  1.00  0.00    -0.000 C 
BRANCH   4   5
ATOM      5  C   UNL     1     -17.161  39.739  12.430  1.00  0.00    -0.000 C 
BRANCH   5   6
ATOM      6  C   UNL     1     -17.422  40.271  11.013  1.00  0.00    -0.000 C 
BRANCH   6   7
ATOM      7  C   UNL     1     -16.421  41.374  10.647  1.00  0.00    -0.000 C 
BRANCH   7   8
ATOM      8  C   UNL     1     -15.794  41.114   9.273  1.00  0.00    -0.000 C 
BRANCH   8   9
ATOM      9  C   UNL     1     -16.573  41.834   8.165  1.00  0.00    -0.000 C 
BRANCH   9  10
ATOM     10  C   UNL     1     -17.184  43.144   8.684  1.00  0.00    -0.000 C 
BRANCH  10  11
ATOM     11  C   UNL     1     -16.495  44.388   8.101  1.00  0.00    -0.003 C 
ATOM     12  C   UNL     1     -15.567  45.073   9.106  1.00  0.00     0.004 C 
ENDBRANCH  10  11
ENDBRANCH   9  10
ENDBRANCH   8   9
ENDBRANCH   7   8
ENDBRANCH   6   7
ENDBRANCH   5   6
ENDBRANCH   4   5
ENDBRANCH   3   4
ENDBRANCH   2   3
ENDBRANCH   1   2
BRANCH   1  13
ATOM     13  C   UNL     1     -16.313  35.738  14.772  1.00  0.00     0.000 C 
BRANCH  13  14
ATOM     14  C   UNL     1     -15.873  36.231  16.164  1.00  0.00     0.000 C 
BRANCH  14  15
ATOM     15  C   UNL     1     -16.572  37.531  16.613  1.00  0.00     0.000 C 
BRANCH  15  16
ATOM     16  C   UNL     1     -16.866  37.542  18.122  1.00  0.00     0.000 C 
BRANCH  16  17
ATOM     17  C   UNL     1     -17.007  38.963  18.692  1.00  0.00     0.000 C 
BRANCH  17  18
ATOM     18  C   UNL     1     -18.350  39.189  19.400  1.00  0.00     0.000 C 
BRANCH  18  19
ATOM     19  C   UNL     1     -18.778  40.662  19.303  1.00  0.00     0.000 C 
BRANCH  19  20
ATOM     20  C   UNL     1     -18.916  41.334  20.678  1.00  0.00     0.006 C 
BRANCH  20  21
ATOM     21  C   UNL     1     -17.966  42.526  20.854  1.00  0.00     0.053 C 
BRANCH  21  22
ATOM     22  C   UNL     1     -16.766  42.129  21.654  1.00  0.00     0.041 C 
ATOM     23  O   UNL     1     -15.792  42.919  21.771  1.00  0.00    -0.550 OA
ATOM     24  O   UNL     1     -16.738  40.899  22.302  1.00  0.00    -0.550 OA
ENDBRANCH  21  22
ENDBRANCH  20  21
ENDBRANCH  19  20
ENDBRANCH  18  19
ENDBRANCH  17  18
ENDBRANCH  16  17
ENDBRANCH  15  16
ENDBRANCH  14  15
ENDBRANCH  13  14
ENDBRANCH   1  13
TORSDOF 20
ENDMDL
MODEL 6
REMARK VINA RESULT:    -5.265      5.029      9.497
REMARK INTER + INTRA:         -13.096
REMARK INTER:                 -10.898
REMARK INTRA:                  -2.198
REMARK UNBOUND:                -1.675
REMARK SMILES CCCCCCCCCCCCCCCCCCCCCC(=O)[O-]
REMARK SMILES IDX 12 1 11 2 10 3 9 4 8 5 7 6 6 7 5 8 4 9 3 10 2 11 1 12 13 13
REMARK SMILES IDX 14 14 15 15 16 16 17 17 18 18 19 19 20 20 21 21 22 22 23 23
REMARK SMILES IDX 24 24
REMARK H PARENT
REMARK Flexibility Score: inf
ROOT
ATOM      1  C   UNL     1     -17.690  36.000  14.275  1.00  0.00     0.000 C 
ENDROOT
BRANCH   1   2
ATOM      2  C   UNL     1     -16.625  35.279  15.116  1.00  0.00     0.000 C 
BRANCH   2   3
ATOM      3  C   UNL     1     -15.746  36.288  15.864  1.00  0.00     0.000 C 
BRANCH   3   4
ATOM      4  C   UNL     1     -16.604  37.341  16.581  1.00  0.00    -0.000 C 
BRANCH   4   5
ATOM      5  C   UNL     1     -16.595  37.172  18.110  1.00  0.00    -0.000 C 
BRANCH   5   6
ATOM      6  C   UNL     1     -17.471  38.211  18.826  1.00  0.00    -0.000 C 
BRANCH   6   7
ATOM      7  C   UNL     1     -17.017  39.637  18.495  1.00  0.00    -0.000 C 
BRANCH   7   8
ATOM      8  C   UNL     1     -18.185  40.624  18.597  1.00  0.00    -0.000 C 
BRANCH   8   9
ATOM      9  C   UNL     1     -18.883  40.514  19.959  1.00  0.00    -0.000 C 
BRANCH   9  10
ATOM     10  C   UNL     1     -18.498  41.688  20.870  1.00  0.00    -0.000 C 
BRANCH  10  11
ATOM     11  C   UNL     1     -17.088  41.536  21.464  1.00  0.00    -0.003 C 
ATOM     12  C   UNL     1     -16.906  40.221  22.223  1.00  0.00     0.004 C 
ENDBRANCH  10  11
ENDBRANCH   9  10
ENDBRANCH   8   9
ENDBRANCH   7   8
ENDBRANCH   6   7
ENDBRANCH   5   6
ENDBRANCH   4   5
ENDBRANCH   3   4
ENDBRANCH   2   3
ENDBRANCH   1   2
BRANCH   1  13
ATOM     13  C   UNL     1     -17.686  35.558  12.803  1.00  0.00     0.000 C 
BRANCH  13  14
ATOM     14  C   UNL     1     -16.291  35.251  12.224  1.00  0.00     0.000 C 
BRANCH  14  15
ATOM     15  C   UNL     1     -15.541  36.500  11.714  1.00  0.00     0.000 C 
BRANCH  15  16
ATOM     16  C   UNL     1     -14.458  36.969  12.700  1.00  0.00     0.000 C 
BRANCH  16  17
ATOM     17  C   UNL     1     -14.651  38.427  13.148  1.00  0.00     0.000 C 
BRANCH  17  18
ATOM     18  C   UNL     1     -16.065  38.953  12.867  1.00  0.00     0.000 C 
BRANCH  18  19
ATOM     19  C   UNL     1     -16.018  40.184  11.949  1.00  0.00     0.000 C 
BRANCH  19  20
ATOM     20  C   UNL     1     -17.242  40.286  11.026  1.00  0.00     0.006 C 
BRANCH  20  21
ATOM     21  C   UNL     1     -17.292  41.609  10.249  1.00  0.00     0.053 C 
BRANCH  21  22
ATOM     22  C   UNL     1     -16.278  41.611   9.149  1.00  0.00     0.041 C 
ATOM     23  O   UNL     1     -15.643  42.664   8.875  1.00  0.00    -0.550 OA
ATOM     24  O   UNL     1     -16.008  40.440   8.450  1.00  0.00    -0.550 OA
ENDBRANCH  21  22
ENDBRANCH  20  21
ENDBRANCH  19  20
ENDBRANCH  18  19
ENDBRANCH  17  18
ENDBRANCH  16  17
ENDBRANCH  15  16
ENDBRANCH  14  15
ENDBRANCH  13  14
ENDBRANCH   1  13
TORSDOF 20
ENDMDL
MODEL 7
REMARK VINA RESULT:    -5.258      1.183      1.480
REMARK INTER + INTRA:         -13.080
REMARK INTER:                 -11.716
REMARK INTRA:                  -1.365
REMARK UNBOUND:                -1.675
REMARK SMILES CCCCCCCCCCCCCCCCCCCCCC(=O)[O-]
REMARK SMILES IDX 12 1 11 2 10 3 9 4 8 5 7 6 6 7 5 8 4 9 3 10 2 11 1 12 13 13
REMARK SMILES IDX 14 14 15 15 16 16 17 17 18 18 19 19 20 20 21 21 22 22 23 23
REMARK SMILES IDX 24 24
REMARK H PARENT
REMARK Flexibility Score: inf
ROOT
ATOM      1  C   UNL     1     -16.320  36.676  17.721  1.00  0.00     0.000 C 
ENDROOT
BRANCH   1   2
ATOM      2  C   UNL     1     -15.923  36.151  16.333  1.00  0.00     0.000 C 
BRANCH   2   3
ATOM      3  C   UNL     1     -16.254  37.179  15.246  1.00  0.00     0.000 C 
BRANCH   3   4
ATOM      4  C   UNL     1     -15.035  37.444  14.349  1.00  0.00    -0.000 C 
BRANCH   4   5
ATOM      5  C   UNL     1     -15.177  36.813  12.953  1.00  0.00    -0.000 C 
BRANCH   5   6
ATOM      6  C   UNL     1     -16.616  36.376  12.644  1.00  0.00    -0.000 C 
BRANCH   6   7
ATOM      7  C   UNL     1     -16.633  35.155  11.717  1.00  0.00    -0.000 C 
BRANCH   7   8
ATOM      8  C   UNL     1     -17.239  33.936  12.422  1.00  0.00    -0.000 C 
BRANCH   8   9
ATOM      9  C   UNL     1     -17.884  34.334  13.756  1.00  0.00    -0.000 C 
BRANCH   9  10
ATOM     10  C   UNL     1     -19.234  33.630  13.946  1.00  0.00    -0.000 C 
BRANCH  10  11
ATOM     11  C   UNL     1     -19.111  32.098  13.906  1.00  0.00    -0.003 C 
ATOM     12  C   UNL     1     -20.453  31.393  14.109  1.00  0.00     0.004 C 
ENDBRANCH  10  11
ENDBRANCH   9  10
ENDBRANCH   8   9
ENDBRANCH   7   8
ENDBRANCH   6   7
ENDBRANCH   5   6
ENDBRANCH   4   5
ENDBRANCH   3   4
ENDBRANCH   2   3
ENDBRANCH   1   2
BRANCH   1  13
ATOM     13  C   UNL     1     -17.000  38.054  17.664  1.00  0.00     0.000 C 
BRANCH  13  14
ATOM     14  C   UNL     1     -17.379  38.645  19.036  1.00  0.00     0.000 C 
BRANCH  14  15
ATOM     15  C   UNL     1     -17.892  40.099  18.965  1.00  0.00     0.000 C 
BRANCH  15  16
ATOM     16  C   UNL     1     -18.168  40.686  20.359  1.00  0.00     0.000 C 
BRANCH  16  17
ATOM     17  C   UNL     1     -16.976  40.534  21.317  1.00  0.00     0.000 C 
BRANCH  17  18
ATOM     18  C   UNL     1     -16.695  41.809  22.124  1.00  0.00     0.000 C 
BRANCH  18  19
ATOM     19  C   UNL     1     -17.349  43.032  21.462  1.00  0.00     0.000 C 
BRANCH  19  20
ATOM     20  C   UNL     1     -16.542  44.323  21.664  1.00  0.00     0.006 C 
BRANCH  20  21
ATOM     21  C   UNL     1     -16.892  45.044  22.973  1.00  0.00     0.053 C 
BRANCH  21  22
ATOM     22  C   UNL     1     -16.068  46.283  23.128  1.00  0.00     0.041 C 
ATOM     23  O   UNL     1     -15.924  47.074  22.158  1.00  0.00    -0.550 OA
ATOM     24  O   UNL     1     -15.489  46.583  24.355  1.00  0.00    -0.550 OA
ENDBRANCH  21  22
ENDBRANCH  20  21
ENDBRANCH  19  20
ENDBRANCH  18  19
ENDBRANCH  17  18
ENDBRANCH  16  17
ENDBRANCH  15  16
ENDBRANCH  14  15
ENDBRANCH  13  14
ENDBRANCH   1  13
TORSDOF 20
ENDMDL
MODEL 8
REMARK VINA RESULT:    -5.225      3.088      6.293
REMARK INTER + INTRA:         -13.009
REMARK INTER:                 -10.912
REMARK INTRA:                  -2.097
REMARK UNBOUND:                -1.675
REMARK SMILES CCCCCCCCCCCCCCCCCCCCCC(=O)[O-]
REMARK SMILES IDX 12 1 11 2 10 3 9 4 8 5 7 6 6 7 5 8 4 9 3 10 2 11 1 12 13 13
REMARK SMILES IDX 14 14 15 15 16 16 17 17 18 18 19 19 20 20 21 21 22 22 23 23
REMARK SMILES IDX 24 24
REMARK H PARENT
REMARK Flexibility Score: inf
ROOT
ATOM      1  C   UNL     1     -16.095  36.623  11.726  1.00  0.00     0.000 C 
ENDROOT
BRANCH   1   2
ATOM      2  C   UNL     1     -16.985  35.447  12.155  1.00  0.00     0.000 C 
BRANCH   2   3
ATOM      3  C   UNL     1     -18.069  35.914  13.134  1.00  0.00     0.000 C 
BRANCH   3   4
ATOM      4  C   UNL     1     -18.611  34.736  13.958  1.00  0.00    -0.000 C 
BRANCH   4   5
ATOM      5  C   UNL     1     -17.900  33.411  13.638  1.00  0.00    -0.000 C 
BRANCH   5   6
ATOM      6  C   UNL     1     -18.821  32.191  13.793  1.00  0.00    -0.000 C 
BRANCH   6   7
ATOM      7  C   UNL     1     -20.282  32.623  13.967  1.00  0.00    -0.000 C 
BRANCH   7   8
ATOM      8  C   UNL     1     -21.221  31.412  13.936  1.00  0.00    -0.000 C 
BRANCH   8   9
ATOM      9  C   UNL     1     -21.899  31.205  15.297  1.00  0.00    -0.000 C 
BRANCH   9  10
ATOM     10  C   UNL     1     -22.941  32.301  15.564  1.00  0.00    -0.000 C 
BRANCH  10  11
ATOM     11  C   UNL     1     -22.586  33.168  16.783  1.00  0.00    -0.003 C 
ATOM     12  C   UNL     1     -23.385  32.788  18.030  1.00  0.00     0.004 C 
ENDBRANCH  10  11
ENDBRANCH   9  10
ENDBRANCH   8   9
ENDBRANCH   7   8
ENDBRANCH   6   7
ENDBRANCH   5   6
ENDBRANCH   4   5
ENDBRANCH   3   4
ENDBRANCH   2   3
ENDBRANCH   1   2
BRANCH   1  13
ATOM     13  C   UNL     1     -16.180  37.818  12.690  1.00  0.00     0.000 C 
BRANCH  13  14
ATOM     14  C   UNL     1     -14.854  38.183  13.385  1.00  0.00     0.000 C 
BRANCH  14  15
ATOM     15  C   UNL     1     -13.967  36.963  13.712  1.00  0.00     0.000 C 
BRANCH  15  16
ATOM     16  C   UNL     1     -14.092  36.532  15.183  1.00  0.00     0.000 C 
BRANCH  16  17
ATOM     17  C   UNL     1     -15.393  35.768  15.472  1.00  0.00     0.000 C 
BRANCH  17  18
ATOM     18  C   UNL     1     -15.971  36.079  16.860  1.00  0.00     0.000 C 
BRANCH  18  19
ATOM     19  C   UNL     1     -16.686  37.439  16.863  1.00  0.00     0.000 C 
BRANCH  19  20
ATOM     20  C   UNL     1     -17.073  37.905  18.274  1.00  0.00     0.006 C 
BRANCH  20  21
ATOM     21  C   UNL     1     -17.104  39.434  18.407  1.00  0.00     0.053 C 
BRANCH  21  22
ATOM     22  C   UNL     1     -17.837  39.840  19.646  1.00  0.00     0.041 C 
ATOM     23  O   UNL     1     -17.376  39.545  20.780  1.00  0.00    -0.550 OA
ATOM     24  O   UNL     1     -19.012  40.576  19.548  1.00  0.00    -0.550 OA
ENDBRANCH  21  22
ENDBRANCH  20  21
ENDBRANCH  19  20
ENDBRANCH  18  19
ENDBRANCH  17  18
ENDBRANCH  16  17
ENDBRANCH  15  16
ENDBRANCH  14  15
ENDBRANCH  13  14
ENDBRANCH   1  13
TORSDOF 20
ENDMDL
MODEL 9
REMARK VINA RESULT:    -5.179      2.029      3.632
REMARK INTER + INTRA:         -12.910
REMARK INTER:                 -11.599
REMARK INTRA:                  -1.311
REMARK UNBOUND:                -1.675
REMARK SMILES CCCCCCCCCCCCCCCCCCCCCC(=O)[O-]
REMARK SMILES IDX 12 1 11 2 10 3 9 4 8 5 7 6 6 7 5 8 4 9 3 10 2 11 1 12 13 13
REMARK SMILES IDX 14 14 15 15 16 16 17 17 18 18 19 19 20 20 21 21 22 22 23 23
REMARK SMILES IDX 24 24
REMARK H PARENT
REMARK Flexibility Score: inf
ROOT
ATOM      1  C   UNL     1     -16.833  37.995  17.360  1.00  0.00     0.000 C 
ENDROOT
BRANCH   1   2
ATOM      2  C   UNL     1     -16.236  36.628  16.996  1.00  0.00     0.000 C 
BRANCH   2   3
ATOM      3  C   UNL     1     -16.468  36.308  15.514  1.00  0.00     0.000 C 
BRANCH   3   4
ATOM      4  C   UNL     1     -15.135  36.139  14.771  1.00  0.00    -0.000 C 
BRANCH   4   5
ATOM      5  C   UNL     1     -15.098  36.903  13.437  1.00  0.00    -0.000 C 
BRANCH   5   6
ATOM      6  C   UNL     1     -16.496  37.118  12.838  1.00  0.00    -0.000 C 
BRANCH   6   7
ATOM      7  C   UNL     1     -16.797  38.611  12.664  1.00  0.00    -0.000 C 
BRANCH   7   8
ATOM      8  C   UNL     1     -15.503  39.419  12.514  1.00  0.00    -0.000 C 
BRANCH   8   9
ATOM      9  C   UNL     1     -15.758  40.736  11.769  1.00  0.00    -0.000 C 
BRANCH   9  10
ATOM     10  C   UNL     1     -17.246  40.892  11.422  1.00  0.00    -0.000 C 
BRANCH  10  11
ATOM     11  C   UNL     1     -17.473  41.233   9.941  1.00  0.00    -0.003 C 
ATOM     12  C   UNL     1     -16.218  41.033   9.090  1.00  0.00     0.004 C 
ENDBRANCH  10  11
ENDBRANCH   9  10
ENDBRANCH   8   9
ENDBRANCH   7   8
ENDBRANCH   6   7
ENDBRANCH   5   6
ENDBRANCH   4   5
ENDBRANCH   3   4
ENDBRANCH   2   3
ENDBRANCH   1   2
BRANCH   1  13
ATOM     13  C   UNL     1     -17.002  38.186  18.876  1.00  0.00     0.000 C 
BRANCH  13  14
ATOM     14  C   UNL     1     -18.137  39.145  19.285  1.00  0.00     0.000 C 
BRANCH  14  15
ATOM     15  C   UNL     1     -17.863  40.621  18.926  1.00  0.00     0.000 C 
BRANCH  15  16
ATOM     16  C   UNL     1     -18.850  41.579  19.613  1.00  0.00     0.000 C 
BRANCH  16  17
ATOM     17  C   UNL     1     -18.148  42.655  20.456  1.00  0.00     0.000 C 
BRANCH  17  18
ATOM     18  C   UNL     1     -17.138  42.066  21.452  1.00  0.00     0.000 C 
BRANCH  18  19
ATOM     19  C   UNL     1     -16.083  43.112  21.843  1.00  0.00     0.000 C 
BRANCH  19  20
ATOM     20  C   UNL     1     -16.641  44.543  21.866  1.00  0.00     0.006 C 
BRANCH  20  21
ATOM     21  C   UNL     1     -16.827  45.085  23.289  1.00  0.00     0.053 C 
BRANCH  21  22
ATOM     22  C   UNL     1     -16.160  46.416  23.437  1.00  0.00     0.041 C 
ATOM     23  O   UNL     1     -16.567  47.406  22.773  1.00  0.00    -0.550 OA
ATOM     24  O   UNL     1     -15.111  46.572  24.335  1.00  0.00    -0.550 OA
ENDBRANCH  21  22
ENDBRANCH  20  21
ENDBRANCH  19  20
ENDBRANCH  18  19
ENDBRANCH  17  18
ENDBRANCH  16  17
ENDBRANCH  15  16
ENDBRANCH  14  15
ENDBRANCH  13  14
ENDBRANCH   1  13
TORSDOF 20
ENDMDL
