MODEL 1
REMARK VINA RESULT:    -6.566      0.000      0.000
REMARK INTER + INTRA:          -7.982
REMARK INTER:                  -7.718
REMARK INTRA:                  -0.263
REMARK UNBOUND:                -0.263
REMARK SMILES O=c1cc(-c2ccc(O)c(O)c2)oc2cc(O)cc(O)c12
REMARK SMILES IDX 4 1 3 2 2 3 1 4 21 5 19 6 18 7 16 8 15 9 14 10 13 11 5 12
REMARK SMILES IDX 6 13 7 14 8 15 12 16 10 17 9 18 11 20 20 22 17 24
REMARK H PARENT 9 19 11 21 20 23 17 25
REMARK Flexibility Score: inf
ROOT
ATOM      1  C   UNL     1       6.106  43.007  37.244  1.00  0.00     0.138 A 
ATOM      2  C   UNL     1       4.837  42.964  37.847  1.00  0.00     0.100 A 
ATOM      3  C   UNL     1       4.395  44.056  38.595  1.00  0.00     0.197 A 
ATOM      4  O   UNL     1       3.254  44.008  39.130  1.00  0.00    -0.289 OA
ATOM      5  C   UNL     1       5.225  45.186  38.732  1.00  0.00     0.107 A 
ATOM      6  C   UNL     1       4.853  46.334  39.473  1.00  0.00     0.134 A 
ATOM      7  C   UNL     1       5.735  47.421  39.557  1.00  0.00     0.093 A 
ATOM      8  C   UNL     1       6.976  47.385  38.916  1.00  0.00     0.123 A 
ATOM      9  C   UNL     1       7.348  46.254  38.182  1.00  0.00     0.094 A 
ATOM     10  C   UNL     1       6.483  45.159  38.087  1.00  0.00     0.146 A 
ATOM     11  O   UNL     1       6.860  44.094  37.386  1.00  0.00    -0.456 OA
ENDROOT
BRANCH   1  12
ATOM     12  C   UNL     1       6.628  41.876  36.437  1.00  0.00     0.021 A 
ATOM     13  C   UNL     1       6.431  41.807  35.044  1.00  0.00     0.016 A 
ATOM     14  C   UNL     1       6.927  40.725  34.311  1.00  0.00     0.051 A 
ATOM     15  C   UNL     1       7.618  39.692  34.955  1.00  0.00     0.157 A 
ATOM     16  C   UNL     1       7.314  40.827  37.077  1.00  0.00     0.062 A 
ATOM     17  C   UNL     1       7.811  39.742  36.341  1.00  0.00     0.158 A 
BRANCH  15  18
ATOM     18  O   UNL     1       8.115  38.613  34.227  1.00  0.00    -0.504 OA
ATOM     19  H   UNL     1       8.473  37.783  34.687  1.00  0.00     0.293 HD
ENDBRANCH  15  18
BRANCH  17  20
ATOM     20  O   UNL     1       8.498  38.712  36.980  1.00  0.00    -0.504 OA
ATOM     21  H   UNL     1       8.052  38.134  37.684  1.00  0.00     0.293 HD
ENDBRANCH  17  20
ENDBRANCH   1  12
BRANCH   6  22
ATOM     22  O   UNL     1       3.621  46.401  40.124  1.00  0.00    -0.507 OA
ATOM     23  H   UNL     1       3.409  45.818  40.925  1.00  0.00     0.293 HD
ENDBRANCH   6  22
BRANCH   8  24
ATOM     24  O   UNL     1       7.832  48.480  39.015  1.00  0.00    -0.508 OA
ATOM     25  H   UNL     1       7.574  49.389  38.649  1.00  0.00     0.293 HD
ENDBRANCH   8  24
TORSDOF 5
ENDMDL
MODEL 2
REMARK VINA RESULT:    -6.512      1.422      6.999
REMARK INTER + INTRA:          -7.918
REMARK INTER:                  -7.652
REMARK INTRA:                  -0.266
REMARK UNBOUND:                -0.263
REMARK SMILES O=c1cc(-c2ccc(O)c(O)c2)oc2cc(O)cc(O)c12
REMARK SMILES IDX 4 1 3 2 2 3 1 4 21 5 19 6 18 7 16 8 15 9 14 10 13 11 5 12
REMARK SMILES IDX 6 13 7 14 8 15 12 16 10 17 9 18 11 20 20 22 17 24
REMARK H PARENT 9 19 11 21 20 23 17 25
REMARK Flexibility Score: inf
ROOT
ATOM      1  C   UNL     1       6.345  43.152  37.758  1.00  0.00     0.138 A 
ATOM      2  C   UNL     1       6.582  42.026  38.565  1.00  0.00     0.100 A 
ATOM      3  C   UNL     1       7.091  40.863  37.987  1.00  0.00     0.197 A 
ATOM      4  O   UNL     1       7.302  39.859  38.721  1.00  0.00    -0.289 OA
ATOM      5  C   UNL     1       7.364  40.833  36.606  1.00  0.00     0.107 A 
ATOM      6  C   UNL     1       7.880  39.695  35.942  1.00  0.00     0.134 A 
ATOM      7  C   UNL     1       8.130  39.749  34.563  1.00  0.00     0.093 A 
ATOM      8  C   UNL     1       7.875  40.915  33.837  1.00  0.00     0.123 A 
ATOM      9  C   UNL     1       7.365  42.044  34.488  1.00  0.00     0.094 A 
ATOM     10  C   UNL     1       7.109  42.009  35.862  1.00  0.00     0.146 A 
ATOM     11  O   UNL     1       6.622  43.094  36.457  1.00  0.00    -0.456 OA
ENDROOT
BRANCH   1  12
ATOM     12  C   UNL     1       5.804  44.417  38.316  1.00  0.00     0.021 A 
ATOM     13  C   UNL     1       4.425  44.599  38.537  1.00  0.00     0.016 A 
ATOM     14  C   UNL     1       3.944  45.805  39.055  1.00  0.00     0.051 A 
ATOM     15  C   UNL     1       4.828  46.849  39.354  1.00  0.00     0.157 A 
ATOM     16  C   UNL     1       6.683  45.476  38.608  1.00  0.00     0.062 A 
ATOM     17  C   UNL     1       6.199  46.685  39.129  1.00  0.00     0.158 A 
BRANCH  15  18
ATOM     18  O   UNL     1       4.351  48.052  39.873  1.00  0.00    -0.504 OA
ATOM     19  H   UNL     1       4.956  48.685  40.384  1.00  0.00     0.293 HD
ENDBRANCH  15  18
BRANCH  17  20
ATOM     20  O   UNL     1       7.077  47.726  39.425  1.00  0.00    -0.504 OA
ATOM     21  H   UNL     1       7.891  47.584  40.012  1.00  0.00     0.293 HD
ENDBRANCH  17  20
ENDBRANCH   1  12
BRANCH   6  22
ATOM     22  O   UNL     1       8.145  38.516  36.640  1.00  0.00    -0.507 OA
ATOM     23  H   UNL     1       7.450  38.081  37.236  1.00  0.00     0.293 HD
ENDBRANCH   6  22
BRANCH   8  24
ATOM     24  O   UNL     1       8.133  40.941  32.468  1.00  0.00    -0.508 OA
ATOM     25  H   UNL     1       7.599  40.376  31.818  1.00  0.00     0.293 HD
ENDBRANCH   8  24
TORSDOF 5
ENDMDL
MODEL 3
REMARK VINA RESULT:    -6.477      1.954      6.704
REMARK INTER + INTRA:          -7.876
REMARK INTER:                  -7.592
REMARK INTRA:                  -0.285
REMARK UNBOUND:                -0.263
REMARK SMILES O=c1cc(-c2ccc(O)c(O)c2)oc2cc(O)cc(O)c12
REMARK SMILES IDX 4 1 3 2 2 3 1 4 21 5 19 6 18 7 16 8 15 9 14 10 13 11 5 12
REMARK SMILES IDX 6 13 7 14 8 15 12 16 10 17 9 18 11 20 20 22 17 24
REMARK H PARENT 9 19 11 21 20 23 17 25
REMARK Flexibility Score: inf
ROOT
ATOM      1  C   UNL     1       5.925  43.382  37.589  1.00  0.00     0.138 A 
ATOM      2  C   UNL     1       4.614  43.003  37.927  1.00  0.00     0.100 A 
ATOM      3  C   UNL     1       4.055  41.868  37.339  1.00  0.00     0.197 A 
ATOM      4  O   UNL     1       2.879  41.535  37.652  1.00  0.00    -0.289 OA
ATOM      5  C   UNL     1       4.811  41.117  36.418  1.00  0.00     0.107 A 
ATOM      6  C   UNL     1       4.319  39.955  35.777  1.00  0.00     0.134 A 
ATOM      7  C   UNL     1       5.138  39.260  34.876  1.00  0.00     0.093 A 
ATOM      8  C   UNL     1       6.436  39.701  34.604  1.00  0.00     0.123 A 
ATOM      9  C   UNL     1       6.928  40.848  35.235  1.00  0.00     0.094 A 
ATOM     10  C   UNL     1       6.126  41.556  36.137  1.00  0.00     0.146 A 
ATOM     11  O   UNL     1       6.615  42.645  36.722  1.00  0.00    -0.456 OA
ENDROOT
BRANCH   1  12
ATOM     12  C   UNL     1       6.572  44.579  38.182  1.00  0.00     0.021 A 
ATOM     13  C   UNL     1       6.631  44.774  39.577  1.00  0.00     0.016 A 
ATOM     14  C   UNL     1       7.239  45.916  40.106  1.00  0.00     0.051 A 
ATOM     15  C   UNL     1       7.790  46.882  39.257  1.00  0.00     0.157 A 
ATOM     16  C   UNL     1       7.117  45.562  37.337  1.00  0.00     0.062 A 
ATOM     17  C   UNL     1       7.728  46.706  37.870  1.00  0.00     0.158 A 
BRANCH  15  18
ATOM     18  O   UNL     1       8.398  48.021  39.783  1.00  0.00    -0.504 OA
ATOM     19  H   UNL     1       8.173  48.948  39.441  1.00  0.00     0.293 HD
ENDBRANCH  15  18
BRANCH  17  20
ATOM     20  O   UNL     1       8.274  47.672  37.027  1.00  0.00    -0.504 OA
ATOM     21  H   UNL     1       7.698  48.382  36.589  1.00  0.00     0.293 HD
ENDBRANCH  17  20
ENDBRANCH   1  12
BRANCH   6  22
ATOM     22  O   UNL     1       3.028  39.489  36.027  1.00  0.00    -0.507 OA
ATOM     23  H   UNL     1       2.778  38.515  35.902  1.00  0.00     0.293 HD
ENDBRANCH   6  22
BRANCH   8  24
ATOM     24  O   UNL     1       7.228  38.991  33.705  1.00  0.00    -0.508 OA
ATOM     25  H   UNL     1       7.592  39.423  32.863  1.00  0.00     0.293 HD
ENDBRANCH   8  24
TORSDOF 5
ENDMDL
MODEL 4
REMARK VINA RESULT:    -6.458      2.322      3.561
REMARK INTER + INTRA:          -7.854
REMARK INTER:                  -7.551
REMARK INTRA:                  -0.303
REMARK UNBOUND:                -0.263
REMARK SMILES O=c1cc(-c2ccc(O)c(O)c2)oc2cc(O)cc(O)c12
REMARK SMILES IDX 4 1 3 2 2 3 1 4 21 5 19 6 18 7 16 8 15 9 14 10 13 11 5 12
REMARK SMILES IDX 6 13 7 14 8 15 12 16 10 17 9 18 11 20 20 22 17 24
REMARK H PARENT 9 19 11 21 20 23 17 25
REMARK Flexibility Score: inf
ROOT
ATOM      1  C   UNL     1       6.557  41.241  35.395  1.00  0.00     0.138 A 
ATOM      2  C   UNL     1       6.442  40.695  36.686  1.00  0.00     0.100 A 
ATOM      3  C   UNL     1       6.435  41.546  37.792  1.00  0.00     0.197 A 
ATOM      4  O   UNL     1       6.329  41.046  38.945  1.00  0.00    -0.289 OA
ATOM      5  C   UNL     1       6.539  42.938  37.600  1.00  0.00     0.107 A 
ATOM      6  C   UNL     1       6.540  43.868  38.667  1.00  0.00     0.134 A 
ATOM      7  C   UNL     1       6.642  45.239  38.392  1.00  0.00     0.093 A 
ATOM      8  C   UNL     1       6.741  45.698  37.076  1.00  0.00     0.123 A 
ATOM      9  C   UNL     1       6.740  44.783  36.017  1.00  0.00     0.094 A 
ATOM     10  C   UNL     1       6.640  43.411  36.271  1.00  0.00     0.146 A 
ATOM     11  O   UNL     1       6.644  42.561  35.249  1.00  0.00    -0.456 OA
ENDROOT
BRANCH   1  12
ATOM     12  C   UNL     1       6.570  40.386  34.181  1.00  0.00     0.021 A 
ATOM     13  C   UNL     1       7.180  39.116  34.177  1.00  0.00     0.016 A 
ATOM     14  C   UNL     1       7.185  38.337  33.016  1.00  0.00     0.051 A 
ATOM     15  C   UNL     1       6.591  38.814  31.842  1.00  0.00     0.157 A 
ATOM     16  C   UNL     1       5.986  40.862  32.994  1.00  0.00     0.062 A 
ATOM     17  C   UNL     1       5.991  40.078  31.830  1.00  0.00     0.158 A 
BRANCH  15  18
ATOM     18  O   UNL     1       6.593  38.038  30.684  1.00  0.00    -0.504 OA
ATOM     19  H   UNL     1       6.972  38.390  29.812  1.00  0.00     0.293 HD
ENDBRANCH  15  18
BRANCH  17  20
ATOM     20  O   UNL     1       5.403  40.552  30.659  1.00  0.00    -0.504 OA
ATOM     21  H   UNL     1       5.809  41.317  30.132  1.00  0.00     0.293 HD
ENDBRANCH  17  20
ENDBRANCH   1  12
BRANCH   6  22
ATOM     22  O   UNL     1       6.441  43.442  39.992  1.00  0.00    -0.507 OA
ATOM     23  H   UNL     1       7.092  43.755  40.703  1.00  0.00     0.293 HD
ENDBRANCH   6  22
BRANCH   8  24
ATOM     24  O   UNL     1       6.841  47.066  36.831  1.00  0.00    -0.508 OA
ATOM     25  H   UNL     1       6.802  47.439  35.889  1.00  0.00     0.293 HD
ENDBRANCH   8  24
TORSDOF 5
ENDMDL
MODEL 5
REMARK VINA RESULT:    -6.266     12.821     15.230
REMARK INTER + INTRA:          -7.629
REMARK INTER:                  -7.366
REMARK INTRA:                  -0.263
REMARK UNBOUND:                -0.263
REMARK SMILES O=c1cc(-c2ccc(O)c(O)c2)oc2cc(O)cc(O)c12
REMARK SMILES IDX 4 1 3 2 2 3 1 4 21 5 19 6 18 7 16 8 15 9 14 10 13 11 5 12
REMARK SMILES IDX 6 13 7 14 8 15 12 16 10 17 9 18 11 20 20 22 17 24
REMARK H PARENT 9 19 11 21 20 23 17 25
REMARK Flexibility Score: inf
ROOT
ATOM      1  C   UNL     1      19.498  39.613  30.874  1.00  0.00     0.138 A 
ATOM      2  C   UNL     1      18.110  39.649  30.658  1.00  0.00     0.100 A 
ATOM      3  C   UNL     1      17.283  40.257  31.604  1.00  0.00     0.197 A 
ATOM      4  O   UNL     1      16.039  40.286  31.400  1.00  0.00    -0.289 OA
ATOM      5  C   UNL     1      17.852  40.829  32.759  1.00  0.00     0.107 A 
ATOM      6  C   UNL     1      17.086  41.464  33.766  1.00  0.00     0.134 A 
ATOM      7  C   UNL     1      17.730  42.014  34.885  1.00  0.00     0.093 A 
ATOM      8  C   UNL     1      19.119  41.943  35.015  1.00  0.00     0.123 A 
ATOM      9  C   UNL     1      19.881  41.317  34.023  1.00  0.00     0.094 A 
ATOM     10  C   UNL     1      19.258  40.762  32.900  1.00  0.00     0.146 A 
ATOM     11  O   UNL     1      20.004  40.171  31.972  1.00  0.00    -0.456 OA
ENDROOT
BRANCH   1  12
ATOM     12  C   UNL     1      20.426  38.979  29.903  1.00  0.00     0.021 A 
ATOM     13  C   UNL     1      20.985  37.707  30.136  1.00  0.00     0.016 A 
ATOM     14  C   UNL     1      21.864  37.141  29.208  1.00  0.00     0.051 A 
ATOM     15  C   UNL     1      22.203  37.834  28.040  1.00  0.00     0.157 A 
ATOM     16  C   UNL     1      20.782  39.674  28.734  1.00  0.00     0.062 A 
ATOM     17  C   UNL     1      21.663  39.103  27.803  1.00  0.00     0.158 A 
BRANCH  15  18
ATOM     18  O   UNL     1      23.077  37.270  27.112  1.00  0.00    -0.504 OA
ATOM     19  H   UNL     1      23.318  36.286  27.141  1.00  0.00     0.293 HD
ENDBRANCH  15  18
BRANCH  17  20
ATOM     20  O   UNL     1      22.005  39.793  26.641  1.00  0.00    -0.504 OA
ATOM     21  H   UNL     1      22.946  40.136  26.485  1.00  0.00     0.293 HD
ENDBRANCH  17  20
ENDBRANCH   1  12
BRANCH   6  22
ATOM     22  O   UNL     1      15.698  41.551  33.665  1.00  0.00    -0.507 OA
ATOM     23  H   UNL     1      15.124  41.862  34.440  1.00  0.00     0.293 HD
ENDBRANCH   6  22
BRANCH   8  24
ATOM     24  O   UNL     1      19.732  42.498  36.136  1.00  0.00    -0.508 OA
ATOM     25  H   UNL     1      20.465  42.007  36.637  1.00  0.00     0.293 HD
ENDBRANCH   8  24
TORSDOF 5
ENDMDL
MODEL 6
REMARK VINA RESULT:    -6.241      1.831      3.142
REMARK INTER + INTRA:          -7.599
REMARK INTER:                  -7.305
REMARK INTRA:                  -0.294
REMARK UNBOUND:                -0.263
REMARK SMILES O=c1cc(-c2ccc(O)c(O)c2)oc2cc(O)cc(O)c12
REMARK SMILES IDX 4 1 3 2 2 3 1 4 21 5 19 6 18 7 16 8 15 9 14 10 13 11 5 12
REMARK SMILES IDX 6 13 7 14 8 15 12 16 10 17 9 18 11 20 20 22 17 24
REMARK H PARENT 9 19 11 21 20 23 17 25
REMARK Flexibility Score: inf
ROOT
ATOM      1  C   UNL     1       6.682  43.749  35.946  1.00  0.00     0.138 A 
ATOM      2  C   UNL     1       7.745  44.614  35.631  1.00  0.00     0.100 A 
ATOM      3  C   UNL     1       7.846  45.842  36.285  1.00  0.00     0.197 A 
ATOM      4  O   UNL     1       8.805  46.610  35.997  1.00  0.00    -0.289 OA
ATOM      5  C   UNL     1       6.886  46.197  37.252  1.00  0.00     0.107 A 
ATOM      6  C   UNL     1       6.915  47.423  37.960  1.00  0.00     0.134 A 
ATOM      7  C   UNL     1       5.924  47.699  38.912  1.00  0.00     0.093 A 
ATOM      8  C   UNL     1       4.907  46.776  39.172  1.00  0.00     0.123 A 
ATOM      9  C   UNL     1       4.873  45.563  38.476  1.00  0.00     0.094 A 
ATOM     10  C   UNL     1       5.852  45.270  37.521  1.00  0.00     0.146 A 
ATOM     11  O   UNL     1       5.797  44.111  36.872  1.00  0.00    -0.456 OA
ENDROOT
BRANCH   1  12
ATOM     12  C   UNL     1       6.523  42.430  35.283  1.00  0.00     0.021 A 
ATOM     13  C   UNL     1       5.370  41.643  35.469  1.00  0.00     0.016 A 
ATOM     14  C   UNL     1       5.252  40.400  34.840  1.00  0.00     0.051 A 
ATOM     15  C   UNL     1       6.283  39.920  34.024  1.00  0.00     0.157 A 
ATOM     16  C   UNL     1       7.559  41.934  34.471  1.00  0.00     0.062 A 
ATOM     17  C   UNL     1       7.439  40.687  33.840  1.00  0.00     0.158 A 
BRANCH  15  18
ATOM     18  O   UNL     1       6.167  38.682  33.394  1.00  0.00    -0.504 OA
ATOM     19  H   UNL     1       5.315  38.136  33.450  1.00  0.00     0.293 HD
ENDBRANCH  15  18
BRANCH  17  20
ATOM     20  O   UNL     1       8.465  40.206  33.029  1.00  0.00    -0.504 OA
ATOM     21  H   UNL     1       9.429  40.197  33.342  1.00  0.00     0.293 HD
ENDBRANCH  17  20
ENDBRANCH   1  12
BRANCH   6  22
ATOM     22  O   UNL     1       7.918  48.364  37.723  1.00  0.00    -0.507 OA
ATOM     23  H   UNL     1       7.717  49.356  37.673  1.00  0.00     0.293 HD
ENDBRANCH   6  22
BRANCH   8  24
ATOM     24  O   UNL     1       3.934  47.075  40.123  1.00  0.00    -0.508 OA
ATOM     25  H   UNL     1       3.894  47.983  40.572  1.00  0.00     0.293 HD
ENDBRANCH   8  24
TORSDOF 5
ENDMDL
MODEL 7
REMARK VINA RESULT:    -6.237      2.164      3.423
REMARK INTER + INTRA:          -7.594
REMARK INTER:                  -7.300
REMARK INTRA:                  -0.294
REMARK UNBOUND:                -0.263
REMARK SMILES O=c1cc(-c2ccc(O)c(O)c2)oc2cc(O)cc(O)c12
REMARK SMILES IDX 4 1 3 2 2 3 1 4 21 5 19 6 18 7 16 8 15 9 14 10 13 11 5 12
REMARK SMILES IDX 6 13 7 14 8 15 12 16 10 17 9 18 11 20 20 22 17 24
REMARK H PARENT 9 19 11 21 20 23 17 25
REMARK Flexibility Score: inf
ROOT
ATOM      1  C   UNL     1       5.826  43.498  36.406  1.00  0.00     0.138 A 
ATOM      2  C   UNL     1       7.054  43.857  35.823  1.00  0.00     0.100 A 
ATOM      3  C   UNL     1       7.632  45.086  36.145  1.00  0.00     0.197 A 
ATOM      4  O   UNL     1       8.735  45.397  35.618  1.00  0.00    -0.289 OA
ATOM      5  C   UNL     1       6.980  45.946  37.050  1.00  0.00     0.107 A 
ATOM      6  C   UNL     1       7.498  47.208  37.428  1.00  0.00     0.134 A 
ATOM      7  C   UNL     1       6.790  48.004  38.340  1.00  0.00     0.093 A 
ATOM      8  C   UNL     1       5.579  47.564  38.881  1.00  0.00     0.123 A 
ATOM      9  C   UNL     1       5.063  46.318  38.511  1.00  0.00     0.094 A 
ATOM     10  C   UNL     1       5.753  45.510  37.602  1.00  0.00     0.146 A 
ATOM     11  O   UNL     1       5.241  44.330  37.265  1.00  0.00    -0.456 OA
ENDROOT
BRANCH   1  12
ATOM     12  C   UNL     1       5.164  42.204  36.103  1.00  0.00     0.021 A 
ATOM     13  C   UNL     1       3.886  41.891  36.608  1.00  0.00     0.016 A 
ATOM     14  C   UNL     1       3.291  40.660  36.313  1.00  0.00     0.051 A 
ATOM     15  C   UNL     1       3.961  39.723  35.518  1.00  0.00     0.157 A 
ATOM     16  C   UNL     1       5.834  41.251  35.316  1.00  0.00     0.062 A 
ATOM     17  C   UNL     1       5.235  40.018  35.020  1.00  0.00     0.158 A 
BRANCH  15  18
ATOM     18  O   UNL     1       3.370  38.496  35.222  1.00  0.00    -0.504 OA
ATOM     19  H   UNL     1       3.614  37.653  35.729  1.00  0.00     0.293 HD
ENDBRANCH  15  18
BRANCH  17  20
ATOM     20  O   UNL     1       5.902  39.082  34.232  1.00  0.00    -0.504 OA
ATOM     21  H   UNL     1       5.426  38.569  33.498  1.00  0.00     0.293 HD
ENDBRANCH  17  20
ENDBRANCH   1  12
BRANCH   6  22
ATOM     22  O   UNL     1       8.705  47.675  36.906  1.00  0.00    -0.507 OA
ATOM     23  H   UNL     1       8.782  47.998  35.948  1.00  0.00     0.293 HD
ENDBRANCH   6  22
BRANCH   8  24
ATOM     24  O   UNL     1       4.896  48.375  39.785  1.00  0.00    -0.508 OA
ATOM     25  H   UNL     1       3.891  48.310  39.901  1.00  0.00     0.293 HD
ENDBRANCH   8  24
TORSDOF 5
ENDMDL
MODEL 8
REMARK VINA RESULT:    -6.198      2.335      2.805
REMARK INTER + INTRA:          -7.548
REMARK INTER:                  -7.267
REMARK INTRA:                  -0.282
REMARK UNBOUND:                -0.263
REMARK SMILES O=c1cc(-c2ccc(O)c(O)c2)oc2cc(O)cc(O)c12
REMARK SMILES IDX 4 1 3 2 2 3 1 4 21 5 19 6 18 7 16 8 15 9 14 10 13 11 5 12
REMARK SMILES IDX 6 13 7 14 8 15 12 16 10 17 9 18 11 20 20 22 17 24
REMARK H PARENT 9 19 11 21 20 23 17 25
REMARK Flexibility Score: inf
ROOT
ATOM      1  C   UNL     1       6.234  43.037  36.758  1.00  0.00     0.138 A 
ATOM      2  C   UNL     1       5.771  43.429  38.025  1.00  0.00     0.100 A 
ATOM      3  C   UNL     1       6.163  44.661  38.549  1.00  0.00     0.197 A 
ATOM      4  O   UNL     1       5.740  45.004  39.687  1.00  0.00    -0.289 OA
ATOM      5  C   UNL     1       7.015  45.496  37.799  1.00  0.00     0.107 A 
ATOM      6  C   UNL     1       7.460  46.759  38.257  1.00  0.00     0.134 A 
ATOM      7  C   UNL     1       8.303  47.533  37.447  1.00  0.00     0.093 A 
ATOM      8  C   UNL     1       8.708  47.072  36.192  1.00  0.00     0.123 A 
ATOM      9  C   UNL     1       8.270  45.824  35.734  1.00  0.00     0.094 A 
ATOM     10  C   UNL     1       7.430  45.037  36.527  1.00  0.00     0.146 A 
ATOM     11  O   UNL     1       7.029  43.854  36.071  1.00  0.00    -0.456 OA
ENDROOT
BRANCH   1  12
ATOM     12  C   UNL     1       5.849  41.738  36.149  1.00  0.00     0.021 A 
ATOM     13  C   UNL     1       6.743  41.005  35.344  1.00  0.00     0.016 A 
ATOM     14  C   UNL     1       6.349  39.789  34.777  1.00  0.00     0.051 A 
ATOM     15  C   UNL     1       5.060  39.291  34.997  1.00  0.00     0.157 A 
ATOM     16  C   UNL     1       4.552  41.236  36.354  1.00  0.00     0.062 A 
ATOM     17  C   UNL     1       4.159  40.015  35.785  1.00  0.00     0.158 A 
BRANCH  15  18
ATOM     18  O   UNL     1       4.666  38.078  34.434  1.00  0.00    -0.504 OA
ATOM     19  H   UNL     1       4.938  37.191  34.842  1.00  0.00     0.293 HD
ENDBRANCH  15  18
BRANCH  17  20
ATOM     20  O   UNL     1       2.875  39.518  36.000  1.00  0.00    -0.504 OA
ATOM     21  H   UNL     1       2.543  38.683  35.531  1.00  0.00     0.293 HD
ENDBRANCH  17  20
ENDBRANCH   1  12
BRANCH   6  22
ATOM     22  O   UNL     1       7.073  47.248  39.506  1.00  0.00    -0.507 OA
ATOM     23  H   UNL     1       6.336  46.809  40.045  1.00  0.00     0.293 HD
ENDBRANCH   6  22
BRANCH   8  24
ATOM     24  O   UNL     1       9.546  47.862  35.407  1.00  0.00    -0.508 OA
ATOM     25  H   UNL     1       9.207  48.700  34.948  1.00  0.00     0.293 HD
ENDBRANCH   8  24
TORSDOF 5
ENDMDL
MODEL 9
REMARK VINA RESULT:    -6.190     12.255     14.942
REMARK INTER + INTRA:          -7.540
REMARK INTER:                  -7.277
REMARK INTRA:                  -0.263
REMARK UNBOUND:                -0.263
REMARK SMILES O=c1cc(-c2ccc(O)c(O)c2)oc2cc(O)cc(O)c12
REMARK SMILES IDX 4 1 3 2 2 3 1 4 21 5 19 6 18 7 16 8 15 9 14 10 13 11 5 12
REMARK SMILES IDX 6 13 7 14 8 15 12 16 10 17 9 18 11 20 20 22 17 24
REMARK H PARENT 9 19 11 21 20 23 17 25
REMARK Flexibility Score: inf
ROOT
ATOM      1  C   UNL     1      18.852  42.474  34.350  1.00  0.00     0.138 A 
ATOM      2  C   UNL     1      17.574  42.054  33.945  1.00  0.00     0.100 A 
ATOM      3  C   UNL     1      17.453  41.104  32.930  1.00  0.00     0.197 A 
ATOM      4  O   UNL     1      16.302  40.731  32.576  1.00  0.00    -0.289 OA
ATOM      5  C   UNL     1      18.613  40.577  32.329  1.00  0.00     0.107 A 
ATOM      6  C   UNL     1      18.579  39.611  31.295  1.00  0.00     0.134 A 
ATOM      7  C   UNL     1      19.781  39.132  30.752  1.00  0.00     0.093 A 
ATOM      8  C   UNL     1      21.011  39.597  31.222  1.00  0.00     0.123 A 
ATOM      9  C   UNL     1      21.051  40.551  32.245  1.00  0.00     0.094 A 
ATOM     10  C   UNL     1      19.864  41.041  32.798  1.00  0.00     0.146 A 
ATOM     11  O   UNL     1      19.928  41.949  33.768  1.00  0.00    -0.456 OA
ENDROOT
BRANCH   1  12
ATOM     12  C   UNL     1      19.042  43.482  35.424  1.00  0.00     0.021 A 
ATOM     13  C   UNL     1      19.236  44.846  35.132  1.00  0.00     0.016 A 
ATOM     14  C   UNL     1      19.422  45.771  36.164  1.00  0.00     0.051 A 
ATOM     15  C   UNL     1      19.425  45.350  37.499  1.00  0.00     0.157 A 
ATOM     16  C   UNL     1      19.059  43.066  36.767  1.00  0.00     0.062 A 
ATOM     17  C   UNL     1      19.244  43.995  37.802  1.00  0.00     0.158 A 
BRANCH  15  18
ATOM     18  O   UNL     1      19.608  46.270  38.530  1.00  0.00    -0.504 OA
ATOM     19  H   UNL     1      19.148  46.159  39.427  1.00  0.00     0.293 HD
ENDBRANCH  15  18
BRANCH  17  20
ATOM     20  O   UNL     1      19.250  43.578  39.131  1.00  0.00    -0.504 OA
ATOM     21  H   UNL     1      19.907  43.957  39.804  1.00  0.00     0.293 HD
ENDBRANCH  17  20
ENDBRANCH   1  12
BRANCH   6  22
ATOM     22  O   UNL     1      17.366  39.127  30.804  1.00  0.00    -0.507 OA
ATOM     23  H   UNL     1      16.879  39.583  30.041  1.00  0.00     0.293 HD
ENDBRANCH   6  22
BRANCH   8  24
ATOM     24  O   UNL     1      22.190  39.104  30.666  1.00  0.00    -0.508 OA
ATOM     25  H   UNL     1      22.266  38.143  30.354  1.00  0.00     0.293 HD
ENDBRANCH   8  24
TORSDOF 5
ENDMDL
