MODEL 1
REMARK VINA RESULT:     5.534      0.000      0.000
REMARK INTER + INTRA:           6.325
REMARK INTER:                   6.505
REMARK INTRA:                  -0.180
REMARK UNBOUND:                -0.180
REMARK SMILES O=c1c(O)c(-c2ccc(O)cc2)oc2cc(O)cc(O)c12
REMARK SMILES IDX 5 1 3 2 2 3 1 4 21 5 19 6 18 7 16 8 15 9 14 10 13 11 6 12
REMARK SMILES IDX 7 13 8 14 9 15 12 16 11 17 10 18 4 20 20 22 17 24
REMARK H PARENT 10 19 4 21 20 23 17 25
REMARK Flexibility Score: inf
ROOT
ATOM      1  C   UNL     1     -30.789  -0.148 -24.229  1.00  0.00     0.180 A 
ATOM      2  C   UNL     1     -30.999  -1.009 -25.325  1.00  0.00     0.208 A 
ATOM      3  C   UNL     1     -31.367  -0.455 -26.562  1.00  0.00     0.238 A 
ATOM      4  O   UNL     1     -31.547  -1.215 -27.552  1.00  0.00    -0.285 OA
ATOM      5  C   UNL     1     -31.538   0.939 -26.679  1.00  0.00     0.111 A 
ATOM      6  C   UNL     1     -31.911   1.575 -27.887  1.00  0.00     0.134 A 
ATOM      7  C   UNL     1     -32.069   2.969 -27.919  1.00  0.00     0.093 A 
ATOM      8  C   UNL     1     -31.864   3.737 -26.767  1.00  0.00     0.123 A 
ATOM      9  C   UNL     1     -31.495   3.114 -25.574  1.00  0.00     0.094 A 
ATOM     10  C   UNL     1     -31.330   1.726 -25.521  1.00  0.00     0.146 A 
ATOM     11  O   UNL     1     -30.974   1.161 -24.374  1.00  0.00    -0.452 OA
ENDROOT
BRANCH   1  12
ATOM     12  C   UNL     1     -30.382  -0.653 -22.899  1.00  0.00     0.021 A 
ATOM     13  C   UNL     1     -29.122  -1.246 -22.694  1.00  0.00     0.016 A 
ATOM     14  C   UNL     1     -28.750  -1.693 -21.422  1.00  0.00     0.047 A 
ATOM     15  C   UNL     1     -29.624  -1.542 -20.339  1.00  0.00     0.115 A 
ATOM     16  C   UNL     1     -31.244  -0.486 -21.803  1.00  0.00     0.016 A 
ATOM     17  C   UNL     1     -30.869  -0.935 -20.532  1.00  0.00     0.047 A 
BRANCH  15  18
ATOM     18  O   UNL     1     -29.265  -1.985 -19.068  1.00  0.00    -0.508 OA
ATOM     19  H   UNL     1     -28.783  -2.866 -18.932  1.00  0.00     0.293 HD
ENDBRANCH  15  18
ENDBRANCH   1  12
BRANCH   2  20
ATOM     20  O   UNL     1     -30.872  -2.392 -25.171  1.00  0.00    -0.502 OA
ATOM     21  H   UNL     1     -30.058  -2.902 -25.492  1.00  0.00     0.293 HD
ENDBRANCH   2  20
BRANCH   6  22
ATOM     22  O   UNL     1     -32.124   0.836 -29.051  1.00  0.00    -0.507 OA
ATOM     23  H   UNL     1     -32.754   1.157 -29.778  1.00  0.00     0.293 HD
ENDBRANCH   6  22
BRANCH   8  24
ATOM     24  O   UNL     1     -32.023   5.120 -26.799  1.00  0.00    -0.508 OA
ATOM     25  H   UNL     1     -31.782   5.700 -26.004  1.00  0.00     0.293 HD
ENDBRANCH   8  24
TORSDOF 5
ENDMDL
MODEL 2
REMARK VINA RESULT:     5.544      1.521      3.621
REMARK INTER + INTRA:           6.336
REMARK INTER:                   6.565
REMARK INTRA:                  -0.229
REMARK UNBOUND:                -0.180
REMARK SMILES O=c1c(O)c(-c2ccc(O)cc2)oc2cc(O)cc(O)c12
REMARK SMILES IDX 5 1 3 2 2 3 1 4 21 5 19 6 18 7 16 8 15 9 14 10 13 11 6 12
REMARK SMILES IDX 7 13 8 14 9 15 12 16 11 17 10 18 4 20 20 22 17 24
REMARK H PARENT 10 19 4 21 20 23 17 25
REMARK Flexibility Score: inf
ROOT
ATOM      1  C   UNL     1     -30.897  -0.576 -24.278  1.00  0.00     0.180 A 
ATOM      2  C   UNL     1     -31.061   0.709 -24.831  1.00  0.00     0.208 A 
ATOM      3  C   UNL     1     -31.409   0.825 -26.187  1.00  0.00     0.238 A 
ATOM      4  O   UNL     1     -31.568   1.971 -26.690  1.00  0.00    -0.285 OA
ATOM      5  C   UNL     1     -31.566  -0.337 -26.969  1.00  0.00     0.111 A 
ATOM      6  C   UNL     1     -31.911  -0.307 -28.341  1.00  0.00     0.134 A 
ATOM      7  C   UNL     1     -32.040  -1.509 -29.052  1.00  0.00     0.093 A 
ATOM      8  C   UNL     1     -31.830  -2.739 -28.418  1.00  0.00     0.123 A 
ATOM      9  C   UNL     1     -31.491  -2.774 -27.065  1.00  0.00     0.094 A 
ATOM     10  C   UNL     1     -31.359  -1.587 -26.337  1.00  0.00     0.146 A 
ATOM     11  O   UNL     1     -31.040  -1.649 -25.050  1.00  0.00    -0.452 OA
ENDROOT
BRANCH   1  12
ATOM     12  C   UNL     1     -30.550  -0.781 -22.854  1.00  0.00     0.021 A 
ATOM     13  C   UNL     1     -31.487  -0.548 -21.831  1.00  0.00     0.016 A 
ATOM     14  C   UNL     1     -31.143  -0.773 -20.494  1.00  0.00     0.047 A 
ATOM     15  C   UNL     1     -29.867  -1.245 -20.164  1.00  0.00     0.115 A 
ATOM     16  C   UNL     1     -29.279  -1.275 -22.517  1.00  0.00     0.016 A 
ATOM     17  C   UNL     1     -28.938  -1.498 -21.179  1.00  0.00     0.047 A 
BRANCH  15  18
ATOM     18  O   UNL     1     -29.513  -1.471 -18.836  1.00  0.00    -0.508 OA
ATOM     19  H   UNL     1     -29.111  -2.352 -18.538  1.00  0.00     0.293 HD
ENDBRANCH  15  18
ENDBRANCH   1  12
BRANCH   2  20
ATOM     20  O   UNL     1     -30.850   1.847 -24.049  1.00  0.00    -0.502 OA
ATOM     21  H   UNL     1     -31.304   2.732 -24.243  1.00  0.00     0.293 HD
ENDBRANCH   2  20
BRANCH   6  22
ATOM     22  O   UNL     1     -32.125   0.904 -29.001  1.00  0.00    -0.507 OA
ATOM     23  H   UNL     1     -32.007   0.993 -30.004  1.00  0.00     0.293 HD
ENDBRANCH   6  22
BRANCH   8  24
ATOM     24  O   UNL     1     -31.957  -3.933 -29.125  1.00  0.00    -0.508 OA
ATOM     25  H   UNL     1     -31.155  -4.391 -29.539  1.00  0.00     0.293 HD
ENDBRANCH   8  24
TORSDOF 5
ENDMDL
MODEL 3
REMARK VINA RESULT:     6.394     17.070     20.977
REMARK INTER + INTRA:           7.335
REMARK INTER:                   7.623
REMARK INTRA:                  -0.288
REMARK UNBOUND:                -0.180
REMARK SMILES O=c1c(O)c(-c2ccc(O)cc2)oc2cc(O)cc(O)c12
REMARK SMILES IDX 5 1 3 2 2 3 1 4 21 5 19 6 18 7 16 8 15 9 14 10 13 11 6 12
REMARK SMILES IDX 7 13 8 14 9 15 12 16 11 17 10 18 4 20 20 22 17 24
REMARK H PARENT 10 19 4 21 20 23 17 25
REMARK Flexibility Score: inf
ROOT
ATOM      1  C   UNL     1     -13.884  -4.074 -16.195  1.00  0.00     0.180 A 
ATOM      2  C   UNL     1     -13.202  -2.842 -16.146  1.00  0.00     0.208 A 
ATOM      3  C   UNL     1     -12.749  -2.367 -14.904  1.00  0.00     0.238 A 
ATOM      4  O   UNL     1     -12.128  -1.271 -14.850  1.00  0.00    -0.285 OA
ATOM      5  C   UNL     1     -13.001  -3.115 -13.737  1.00  0.00     0.111 A 
ATOM      6  C   UNL     1     -12.582  -2.704 -12.449  1.00  0.00     0.134 A 
ATOM      7  C   UNL     1     -12.880  -3.502 -11.334  1.00  0.00     0.093 A 
ATOM      8  C   UNL     1     -13.589  -4.700 -11.483  1.00  0.00     0.123 A 
ATOM      9  C   UNL     1     -14.003  -5.109 -12.751  1.00  0.00     0.094 A 
ATOM     10  C   UNL     1     -13.715  -4.329 -13.875  1.00  0.00     0.146 A 
ATOM     11  O   UNL     1     -14.116  -4.745 -15.070  1.00  0.00    -0.452 OA
ENDROOT
BRANCH   1  12
ATOM     12  C   UNL     1     -14.376  -4.650 -17.466  1.00  0.00     0.021 A 
ATOM     13  C   UNL     1     -13.621  -5.597 -18.183  1.00  0.00     0.016 A 
ATOM     14  C   UNL     1     -14.117  -6.146 -19.369  1.00  0.00     0.047 A 
ATOM     15  C   UNL     1     -15.378  -5.768 -19.846  1.00  0.00     0.115 A 
ATOM     16  C   UNL     1     -15.649  -4.293 -17.941  1.00  0.00     0.016 A 
ATOM     17  C   UNL     1     -16.143  -4.843 -19.128  1.00  0.00     0.047 A 
BRANCH  15  18
ATOM     18  O   UNL     1     -15.882  -6.307 -21.028  1.00  0.00    -0.508 OA
ATOM     19  H   UNL     1     -16.347  -7.207 -21.043  1.00  0.00     0.293 HD
ENDBRANCH  15  18
ENDBRANCH   1  12
BRANCH   2  20
ATOM     20  O   UNL     1     -13.009  -2.095 -17.310  1.00  0.00    -0.502 OA
ATOM     21  H   UNL     1     -12.511  -1.212 -17.313  1.00  0.00     0.293 HD
ENDBRANCH   2  20
BRANCH   6  22
ATOM     22  O   UNL     1     -11.876  -1.515 -12.268  1.00  0.00    -0.507 OA
ATOM     23  H   UNL     1     -12.313  -0.610 -12.397  1.00  0.00     0.293 HD
ENDBRANCH   6  22
BRANCH   8  24
ATOM     24  O   UNL     1     -13.886  -5.491 -10.375  1.00  0.00    -0.508 OA
ATOM     25  H   UNL     1     -13.549  -5.255  -9.449  1.00  0.00     0.293 HD
ENDBRANCH   8  24
TORSDOF 5
ENDMDL
MODEL 4
REMARK VINA RESULT:     6.657     19.308     21.141
REMARK INTER + INTRA:           7.645
REMARK INTER:                   7.871
REMARK INTRA:                  -0.227
REMARK UNBOUND:                -0.180
REMARK SMILES O=c1c(O)c(-c2ccc(O)cc2)oc2cc(O)cc(O)c12
REMARK SMILES IDX 5 1 3 2 2 3 1 4 21 5 19 6 18 7 16 8 15 9 14 10 13 11 6 12
REMARK SMILES IDX 7 13 8 14 9 15 12 16 11 17 10 18 4 20 20 22 17 24
REMARK H PARENT 10 19 4 21 20 23 17 25
REMARK Flexibility Score: inf
ROOT
ATOM      1  C   UNL     1     -13.548  -4.373 -14.164  1.00  0.00     0.180 A 
ATOM      2  C   UNL     1     -13.750  -3.508 -15.257  1.00  0.00     0.208 A 
ATOM      3  C   UNL     1     -13.957  -4.061 -16.531  1.00  0.00     0.238 A 
ATOM      4  O   UNL     1     -14.150  -3.296 -17.515  1.00  0.00    -0.285 OA
ATOM      5  C   UNL     1     -13.937  -5.461 -16.695  1.00  0.00     0.111 A 
ATOM      6  C   UNL     1     -14.132  -6.097 -17.944  1.00  0.00     0.134 A 
ATOM      7  C   UNL     1     -14.089  -7.497 -18.026  1.00  0.00     0.093 A 
ATOM      8  C   UNL     1     -13.854  -8.271 -16.884  1.00  0.00     0.123 A 
ATOM      9  C   UNL     1     -13.662  -7.649 -15.650  1.00  0.00     0.094 A 
ATOM     10  C   UNL     1     -13.703  -6.254 -15.547  1.00  0.00     0.146 A 
ATOM     11  O   UNL     1     -13.522  -5.689 -14.360  1.00  0.00    -0.452 OA
ENDROOT
BRANCH   1  12
ATOM     12  C   UNL     1     -13.342  -3.868 -12.788  1.00  0.00     0.021 A 
ATOM     13  C   UNL     1     -14.347  -3.977 -11.809  1.00  0.00     0.016 A 
ATOM     14  C   UNL     1     -14.120  -3.515 -10.509  1.00  0.00     0.047 A 
ATOM     15  C   UNL     1     -12.885  -2.952 -10.167  1.00  0.00     0.115 A 
ATOM     16  C   UNL     1     -12.098  -3.322 -12.431  1.00  0.00     0.016 A 
ATOM     17  C   UNL     1     -11.875  -2.859 -11.130  1.00  0.00     0.047 A 
BRANCH  15  18
ATOM     18  O   UNL     1     -12.649  -2.486  -8.876  1.00  0.00    -0.508 OA
ATOM     19  H   UNL     1     -13.405  -2.171  -8.280  1.00  0.00     0.293 HD
ENDBRANCH  15  18
ENDBRANCH   1  12
BRANCH   2  20
ATOM     20  O   UNL     1     -13.715  -2.123 -15.077  1.00  0.00    -0.502 OA
ATOM     21  H   UNL     1     -14.552  -1.575 -14.916  1.00  0.00     0.293 HD
ENDBRANCH   2  20
BRANCH   6  22
ATOM     22  O   UNL     1     -14.367  -5.352 -19.100  1.00  0.00    -0.507 OA
ATOM     23  H   UNL     1     -14.597  -4.365 -19.063  1.00  0.00     0.293 HD
ENDBRANCH   6  22
BRANCH   8  24
ATOM     24  O   UNL     1     -13.810  -9.661 -16.966  1.00  0.00    -0.508 OA
ATOM     25  H   UNL     1     -12.960 -10.177 -16.771  1.00  0.00     0.293 HD
ENDBRANCH   8  24
TORSDOF 5
ENDMDL
MODEL 5
REMARK VINA RESULT:     7.180      2.576      5.394
REMARK INTER + INTRA:           8.260
REMARK INTER:                   8.187
REMARK INTRA:                   0.073
REMARK UNBOUND:                -0.180
REMARK SMILES O=c1c(O)c(-c2ccc(O)cc2)oc2cc(O)cc(O)c12
REMARK SMILES IDX 5 1 3 2 2 3 1 4 21 5 19 6 18 7 16 8 15 9 14 10 13 11 6 12
REMARK SMILES IDX 7 13 8 14 9 15 12 16 11 17 10 18 4 20 20 22 17 24
REMARK H PARENT 10 19 4 21 20 23 17 25
REMARK Flexibility Score: inf
ROOT
ATOM      1  C   UNL     1     -31.517   0.188 -26.336  1.00  0.00     0.180 A 
ATOM      2  C   UNL     1     -31.612   1.387 -27.070  1.00  0.00     0.208 A 
ATOM      3  C   UNL     1     -31.776   2.596 -26.376  1.00  0.00     0.238 A 
ATOM      4  O   UNL     1     -31.851   3.676 -27.023  1.00  0.00    -0.285 OA
ATOM      5  C   UNL     1     -31.862   2.588 -24.969  1.00  0.00     0.111 A 
ATOM      6  C   UNL     1     -32.031   3.761 -24.197  1.00  0.00     0.134 A 
ATOM      7  C   UNL     1     -32.116   3.667 -22.799  1.00  0.00     0.093 A 
ATOM      8  C   UNL     1     -32.037   2.423 -22.162  1.00  0.00     0.123 A 
ATOM      9  C   UNL     1     -31.869   1.263 -22.920  1.00  0.00     0.094 A 
ATOM     10  C   UNL     1     -31.780   1.336 -24.314  1.00  0.00     0.146 A 
ATOM     11  O   UNL     1     -31.616   0.218 -25.010  1.00  0.00    -0.452 OA
ENDROOT
BRANCH   1  12
ATOM     12  C   UNL     1     -31.325  -1.124 -26.993  1.00  0.00     0.021 A 
ATOM     13  C   UNL     1     -32.105  -1.512 -28.097  1.00  0.00     0.016 A 
ATOM     14  C   UNL     1     -31.889  -2.747 -28.717  1.00  0.00     0.047 A 
ATOM     15  C   UNL     1     -30.883  -3.602 -28.251  1.00  0.00     0.115 A 
ATOM     16  C   UNL     1     -30.304  -1.978 -26.545  1.00  0.00     0.016 A 
ATOM     17  C   UNL     1     -30.090  -3.213 -27.166  1.00  0.00     0.047 A 
BRANCH  15  18
ATOM     18  O   UNL     1     -30.659  -4.835 -28.859  1.00  0.00    -0.508 OA
ATOM     19  H   UNL     1     -31.027  -5.046 -29.779  1.00  0.00     0.293 HD
ENDBRANCH  15  18
ENDBRANCH   1  12
BRANCH   2  20
ATOM     20  O   UNL     1     -31.574   1.364 -28.467  1.00  0.00    -0.502 OA
ATOM     21  H   UNL     1     -30.707   1.406 -28.988  1.00  0.00     0.293 HD
ENDBRANCH   2  20
BRANCH   6  22
ATOM     22  O   UNL     1     -32.114   5.015 -24.803  1.00  0.00    -0.507 OA
ATOM     23  H   UNL     1     -31.505   5.779 -24.533  1.00  0.00     0.293 HD
ENDBRANCH   6  22
BRANCH   8  24
ATOM     24  O   UNL     1     -32.123   2.330 -20.775  1.00  0.00    -0.508 OA
ATOM     25  H   UNL     1     -31.398   1.882 -20.227  1.00  0.00     0.293 HD
ENDBRANCH   8  24
TORSDOF 5
ENDMDL
MODEL 6
REMARK VINA RESULT:     7.754     18.701     22.093
REMARK INTER + INTRA:           8.935
REMARK INTER:                   8.601
REMARK INTRA:                   0.334
REMARK UNBOUND:                -0.180
REMARK SMILES O=c1c(O)c(-c2ccc(O)cc2)oc2cc(O)cc(O)c12
REMARK SMILES IDX 5 1 3 2 2 3 1 4 21 5 19 6 18 7 16 8 15 9 14 10 13 11 6 12
REMARK SMILES IDX 7 13 8 14 9 15 12 16 11 17 10 18 4 20 20 22 17 24
REMARK H PARENT 10 19 4 21 20 23 17 25
REMARK Flexibility Score: inf
ROOT
ATOM      1  C   UNL     1     -13.409  -4.106 -14.634  1.00  0.00     0.180 A 
ATOM      2  C   UNL     1     -12.803  -2.841 -14.494  1.00  0.00     0.208 A 
ATOM      3  C   UNL     1     -12.482  -2.382 -13.207  1.00  0.00     0.238 A 
ATOM      4  O   UNL     1     -11.930  -1.256 -13.071  1.00  0.00    -0.285 OA
ATOM      5  C   UNL     1     -12.787  -3.179 -12.085  1.00  0.00     0.111 A 
ATOM      6  C   UNL     1     -12.500  -2.787 -10.756  1.00  0.00     0.134 A 
ATOM      7  C   UNL     1     -12.844  -3.634  -9.692  1.00  0.00     0.093 A 
ATOM      8  C   UNL     1     -13.470  -4.863  -9.932  1.00  0.00     0.123 A 
ATOM      9  C   UNL     1     -13.754  -5.254 -11.241  1.00  0.00     0.094 A 
ATOM     10  C   UNL     1     -13.418  -4.424 -12.316  1.00  0.00     0.146 A 
ATOM     11  O   UNL     1     -13.695  -4.823 -13.551  1.00  0.00    -0.452 OA
ENDROOT
BRANCH   1  12
ATOM     12  C   UNL     1     -13.760  -4.668 -15.957  1.00  0.00     0.021 A 
ATOM     13  C   UNL     1     -14.048  -3.835 -17.054  1.00  0.00     0.016 A 
ATOM     14  C   UNL     1     -14.354  -4.390 -18.301  1.00  0.00     0.047 A 
ATOM     15  C   UNL     1     -14.362  -5.780 -18.471  1.00  0.00     0.115 A 
ATOM     16  C   UNL     1     -13.750  -6.060 -16.142  1.00  0.00     0.016 A 
ATOM     17  C   UNL     1     -14.057  -6.612 -17.390  1.00  0.00     0.047 A 
BRANCH  15  18
ATOM     18  O   UNL     1     -14.667  -6.343 -19.708  1.00  0.00    -0.508 OA
ATOM     19  H   UNL     1     -14.981  -5.774 -20.486  1.00  0.00     0.293 HD
ENDBRANCH  15  18
ENDBRANCH   1  12
BRANCH   2  20
ATOM     20  O   UNL     1     -12.556  -2.049 -15.618  1.00  0.00    -0.502 OA
ATOM     21  H   UNL     1     -12.422  -2.442 -16.542  1.00  0.00     0.293 HD
ENDBRANCH   2  20
BRANCH   6  22
ATOM     22  O   UNL     1     -11.879  -1.568 -10.485  1.00  0.00    -0.507 OA
ATOM     23  H   UNL     1     -11.685  -0.893 -11.216  1.00  0.00     0.293 HD
ENDBRANCH   6  22
BRANCH   8  24
ATOM     24  O   UNL     1     -13.813  -5.703  -8.875  1.00  0.00    -0.508 OA
ATOM     25  H   UNL     1     -13.760  -6.711  -8.960  1.00  0.00     0.293 HD
ENDBRANCH   8  24
TORSDOF 5
ENDMDL
