MODEL 1
REMARK VINA RESULT:    -3.764      0.000      0.000
REMARK INTER + INTRA:         -13.743
REMARK INTER:                  -9.924
REMARK INTRA:                  -3.819
REMARK UNBOUND:                -3.819
REMARK SMILES CCCCCCCCCCCCCCCCCCCCCCCCCCCCCC(=O)[O-]
REMARK SMILES IDX 16 1 17 2 18 3 19 4 20 5 21 6 22 7 23 8 24 9 25 10 26 11
REMARK SMILES IDX 27 12 28 13 29 14 30 15 31 16 32 17 15 18 14 19 13 20 12 21
REMARK SMILES IDX 11 22 10 23 9 24 8 25 7 26 6 27 5 28 4 29 3 30 2 31 1 32
REMARK H PARENT
REMARK Flexibility Score: inf
ROOT
ATOM      1  C   UNL     1      -7.740 -12.816  -2.994  1.00  0.00     0.000 C 
ENDROOT
BRANCH   1   2
ATOM      2  C   UNL     1      -8.465 -14.070  -3.504  1.00  0.00     0.000 C 
BRANCH   2   3
ATOM      3  C   UNL     1      -9.752 -13.693  -4.252  1.00  0.00     0.000 C 
BRANCH   3   4
ATOM      4  C   UNL     1     -10.792 -13.004  -3.349  1.00  0.00     0.000 C 
BRANCH   4   5
ATOM      5  C   UNL     1     -11.351 -13.882  -2.215  1.00  0.00     0.000 C 
BRANCH   5   6
ATOM      6  C   UNL     1     -11.315 -13.188  -0.846  1.00  0.00     0.000 C 
BRANCH   6   7
ATOM      7  C   UNL     1     -12.717 -13.115  -0.231  1.00  0.00     0.000 C 
BRANCH   7   8
ATOM      8  C   UNL     1     -13.093 -11.666   0.118  1.00  0.00     0.000 C 
BRANCH   8   9
ATOM      9  C   UNL     1     -13.621 -11.512   1.555  1.00  0.00     0.000 C 
BRANCH   9  10
ATOM     10  C   UNL     1     -12.785 -12.225   2.633  1.00  0.00     0.000 C 
BRANCH  10  11
ATOM     11  C   UNL     1     -13.633 -12.720   3.817  1.00  0.00     0.000 C 
BRANCH  11  12
ATOM     12  C   UNL     1     -14.625 -11.657   4.314  1.00  0.00     0.000 C 
BRANCH  12  13
ATOM     13  C   UNL     1     -14.135 -10.941   5.586  1.00  0.00     0.006 C 
BRANCH  13  14
ATOM     14  C   UNL     1     -13.256  -9.726   5.265  1.00  0.00     0.053 C 
BRANCH  14  15
ATOM     15  C   UNL     1     -11.817  -9.981   5.591  1.00  0.00     0.041 C 
ATOM     16  O   UNL     1     -10.944  -9.942   4.684  1.00  0.00    -0.550 OA
ATOM     17  O   UNL     1     -11.432 -10.225   6.904  1.00  0.00    -0.550 OA
ENDBRANCH  14  15
ENDBRANCH  13  14
ENDBRANCH  12  13
ENDBRANCH  11  12
ENDBRANCH  10  11
ENDBRANCH   9  10
ENDBRANCH   8   9
ENDBRANCH   7   8
ENDBRANCH   6   7
ENDBRANCH   5   6
ENDBRANCH   4   5
ENDBRANCH   3   4
ENDBRANCH   2   3
ENDBRANCH   1   2
BRANCH   1  18
ATOM     18  C   UNL     1      -6.606 -12.358  -3.928  1.00  0.00     0.000 C 
BRANCH  18  19
ATOM     19  C   UNL     1      -5.628 -13.471  -4.359  1.00  0.00     0.000 C 
BRANCH  19  20
ATOM     20  C   UNL     1      -5.267 -13.477  -5.856  1.00  0.00     0.000 C 
BRANCH  20  21
ATOM     21  C   UNL     1      -5.678 -12.209  -6.633  1.00  0.00     0.000 C 
BRANCH  21  22
ATOM     22  C   UNL     1      -6.745 -12.426  -7.722  1.00  0.00     0.000 C 
BRANCH  22  23
ATOM     23  C   UNL     1      -7.930 -13.277  -7.237  1.00  0.00     0.000 C 
BRANCH  23  24
ATOM     24  C   UNL     1      -8.839 -13.745  -8.387  1.00  0.00    -0.000 C 
BRANCH  24  25
ATOM     25  C   UNL     1     -10.298 -13.251  -8.320  1.00  0.00    -0.000 C 
BRANCH  25  26
ATOM     26  C   UNL     1     -10.546 -12.051  -7.386  1.00  0.00    -0.000 C 
BRANCH  26  27
ATOM     27  C   UNL     1     -12.013 -11.940  -6.937  1.00  0.00    -0.000 C 
BRANCH  27  28
ATOM     28  C   UNL     1     -12.615 -13.293  -6.515  1.00  0.00    -0.000 C 
BRANCH  28  29
ATOM     29  C   UNL     1     -13.909 -13.201  -5.685  1.00  0.00    -0.000 C 
BRANCH  29  30
ATOM     30  C   UNL     1     -14.200 -11.777  -5.183  1.00  0.00    -0.000 C 
BRANCH  30  31
ATOM     31  C   UNL     1     -14.469 -11.729  -3.671  1.00  0.00    -0.003 C 
ATOM     32  C   UNL     1     -14.078 -10.391  -3.045  1.00  0.00     0.004 C 
ENDBRANCH  30  31
ENDBRANCH  29  30
ENDBRANCH  28  29
ENDBRANCH  27  28
ENDBRANCH  26  27
ENDBRANCH  25  26
ENDBRANCH  24  25
ENDBRANCH  23  24
ENDBRANCH  22  23
ENDBRANCH  21  22
ENDBRANCH  20  21
ENDBRANCH  19  20
ENDBRANCH  18  19
ENDBRANCH   1  18
TORSDOF 28
ENDMDL
MODEL 2
REMARK VINA RESULT:    -3.724      1.469      2.403
REMARK INTER + INTRA:         -13.639
REMARK INTER:                 -10.524
REMARK INTRA:                  -3.115
REMARK UNBOUND:                -3.819
REMARK SMILES CCCCCCCCCCCCCCCCCCCCCCCCCCCCCC(=O)[O-]
REMARK SMILES IDX 16 1 17 2 18 3 19 4 20 5 21 6 22 7 23 8 24 9 25 10 26 11
REMARK SMILES IDX 27 12 28 13 29 14 30 15 31 16 32 17 15 18 14 19 13 20 12 21
REMARK SMILES IDX 11 22 10 23 9 24 8 25 7 26 6 27 5 28 4 29 3 30 2 31 1 32
REMARK H PARENT
REMARK Flexibility Score: inf
ROOT
ATOM      1  C   UNL     1      -8.606 -12.748  -2.827  1.00  0.00     0.000 C 
ENDROOT
BRANCH   1   2
ATOM      2  C   UNL     1      -9.684 -12.980  -1.758  1.00  0.00     0.000 C 
BRANCH   2   3
ATOM      3  C   UNL     1     -10.794 -13.900  -2.288  1.00  0.00     0.000 C 
BRANCH   3   4
ATOM      4  C   UNL     1     -12.148 -13.672  -1.591  1.00  0.00     0.000 C 
BRANCH   4   5
ATOM      5  C   UNL     1     -12.093 -12.769  -0.345  1.00  0.00     0.000 C 
BRANCH   5   6
ATOM      6  C   UNL     1     -13.278 -11.796  -0.256  1.00  0.00     0.000 C 
BRANCH   6   7
ATOM      7  C   UNL     1     -14.540 -12.513   0.239  1.00  0.00     0.000 C 
BRANCH   7   8
ATOM      8  C   UNL     1     -14.554 -12.610   1.772  1.00  0.00     0.000 C 
BRANCH   8   9
ATOM      9  C   UNL     1     -14.174 -11.287   2.461  1.00  0.00     0.000 C 
BRANCH   9  10
ATOM     10  C   UNL     1     -13.066 -11.405   3.523  1.00  0.00     0.000 C 
BRANCH  10  11
ATOM     11  C   UNL     1     -12.626 -10.040   4.080  1.00  0.00     0.000 C 
BRANCH  11  12
ATOM     12  C   UNL     1     -11.451 -10.156   5.063  1.00  0.00     0.000 C 
BRANCH  12  13
ATOM     13  C   UNL     1     -11.803  -9.635   6.468  1.00  0.00     0.006 C 
BRANCH  13  14
ATOM     14  C   UNL     1     -13.318  -9.574   6.702  1.00  0.00     0.053 C 
BRANCH  14  15
ATOM     15  C   UNL     1     -13.654  -8.872   7.981  1.00  0.00     0.041 C 
ATOM     16  O   UNL     1     -12.901  -8.988   8.985  1.00  0.00    -0.550 OA
ATOM     17  O   UNL     1     -14.777  -8.058   8.056  1.00  0.00    -0.550 OA
ENDBRANCH  14  15
ENDBRANCH  13  14
ENDBRANCH  12  13
ENDBRANCH  11  12
ENDBRANCH  10  11
ENDBRANCH   9  10
ENDBRANCH   8   9
ENDBRANCH   7   8
ENDBRANCH   6   7
ENDBRANCH   5   6
ENDBRANCH   4   5
ENDBRANCH   3   4
ENDBRANCH   2   3
ENDBRANCH   1   2
BRANCH   1  18
ATOM     18  C   UNL     1      -8.238 -14.031  -3.594  1.00  0.00     0.000 C 
BRANCH  18  19
ATOM     19  C   UNL     1      -6.817 -14.044  -4.194  1.00  0.00     0.000 C 
BRANCH  19  20
ATOM     20  C   UNL     1      -6.070 -12.698  -4.131  1.00  0.00     0.000 C 
BRANCH  20  21
ATOM     21  C   UNL     1      -5.947 -11.955  -5.476  1.00  0.00     0.000 C 
BRANCH  21  22
ATOM     22  C   UNL     1      -5.124 -12.684  -6.554  1.00  0.00     0.000 C 
BRANCH  22  23
ATOM     23  C   UNL     1      -5.808 -12.684  -7.931  1.00  0.00     0.000 C 
BRANCH  23  24
ATOM     24  C   UNL     1      -7.303 -12.325  -7.855  1.00  0.00    -0.000 C 
BRANCH  24  25
ATOM     25  C   UNL     1      -8.269 -13.526  -7.796  1.00  0.00    -0.000 C 
BRANCH  25  26
ATOM     26  C   UNL     1      -9.443 -13.380  -6.810  1.00  0.00    -0.000 C 
BRANCH  26  27
ATOM     27  C   UNL     1     -10.810 -13.623  -7.471  1.00  0.00    -0.000 C 
BRANCH  27  28
ATOM     28  C   UNL     1     -11.376 -12.366  -8.158  1.00  0.00    -0.000 C 
BRANCH  28  29
ATOM     29  C   UNL     1     -12.083 -11.371  -7.220  1.00  0.00    -0.000 C 
BRANCH  29  30
ATOM     30  C   UNL     1     -13.047 -12.056  -6.236  1.00  0.00    -0.000 C 
BRANCH  30  31
ATOM     31  C   UNL     1     -12.687 -11.775  -4.768  1.00  0.00    -0.003 C 
ATOM     32  C   UNL     1     -13.889 -11.314  -3.945  1.00  0.00     0.004 C 
ENDBRANCH  30  31
ENDBRANCH  29  30
ENDBRANCH  28  29
ENDBRANCH  27  28
ENDBRANCH  26  27
ENDBRANCH  25  26
ENDBRANCH  24  25
ENDBRANCH  23  24
ENDBRANCH  22  23
ENDBRANCH  21  22
ENDBRANCH  20  21
ENDBRANCH  19  20
ENDBRANCH  18  19
ENDBRANCH   1  18
TORSDOF 28
ENDMDL
MODEL 3
REMARK VINA RESULT:    -3.627      3.375     10.976
REMARK INTER + INTRA:         -13.384
REMARK INTER:                 -10.532
REMARK INTRA:                  -2.852
REMARK UNBOUND:                -3.819
REMARK SMILES CCCCCCCCCCCCCCCCCCCCCCCCCCCCCC(=O)[O-]
REMARK SMILES IDX 16 1 17 2 18 3 19 4 20 5 21 6 22 7 23 8 24 9 25 10 26 11
REMARK SMILES IDX 27 12 28 13 29 14 30 15 31 16 32 17 15 18 14 19 13 20 12 21
REMARK SMILES IDX 11 22 10 23 9 24 8 25 7 26 6 27 5 28 4 29 3 30 2 31 1 32
REMARK H PARENT
REMARK Flexibility Score: inf
ROOT
ATOM      1  C   UNL     1     -10.682 -13.316  -1.640  1.00  0.00     0.000 C 
ENDROOT
BRANCH   1   2
ATOM      2  C   UNL     1      -9.314 -13.239  -2.335  1.00  0.00     0.000 C 
BRANCH   2   3
ATOM      3  C   UNL     1      -9.430 -13.618  -3.819  1.00  0.00     0.000 C 
BRANCH   3   4
ATOM      4  C   UNL     1      -8.062 -13.808  -4.499  1.00  0.00     0.000 C 
BRANCH   4   5
ATOM      5  C   UNL     1      -6.895 -13.057  -3.832  1.00  0.00     0.000 C 
BRANCH   5   6
ATOM      6  C   UNL     1      -5.652 -12.962  -4.729  1.00  0.00     0.000 C 
BRANCH   6   7
ATOM      7  C   UNL     1      -5.800 -11.830  -5.753  1.00  0.00     0.000 C 
BRANCH   7   8
ATOM      8  C   UNL     1      -5.823 -12.382  -7.187  1.00  0.00     0.000 C 
BRANCH   8   9
ATOM      9  C   UNL     1      -7.198 -12.235  -7.864  1.00  0.00     0.000 C 
BRANCH   9  10
ATOM     10  C   UNL     1      -7.897 -13.564  -8.206  1.00  0.00     0.000 C 
BRANCH  10  11
ATOM     11  C   UNL     1      -9.396 -13.555  -7.861  1.00  0.00     0.000 C 
BRANCH  11  12
ATOM     12  C   UNL     1      -9.894 -12.165  -7.437  1.00  0.00     0.000 C 
BRANCH  12  13
ATOM     13  C   UNL     1     -11.428 -12.047  -7.486  1.00  0.00     0.006 C 
BRANCH  13  14
ATOM     14  C   UNL     1     -12.051 -12.001  -6.085  1.00  0.00     0.053 C 
BRANCH  14  15
ATOM     15  C   UNL     1     -13.406 -12.638  -6.060  1.00  0.00     0.041 C 
ATOM     16  O   UNL     1     -13.554 -13.794  -5.582  1.00  0.00    -0.550 OA
ATOM     17  O   UNL     1     -14.513 -11.942  -6.529  1.00  0.00    -0.550 OA
ENDBRANCH  14  15
ENDBRANCH  13  14
ENDBRANCH  12  13
ENDBRANCH  11  12
ENDBRANCH  10  11
ENDBRANCH   9  10
ENDBRANCH   8   9
ENDBRANCH   7   8
ENDBRANCH   6   7
ENDBRANCH   5   6
ENDBRANCH   4   5
ENDBRANCH   3   4
ENDBRANCH   2   3
ENDBRANCH   1   2
BRANCH   1  18
ATOM     18  C   UNL     1     -11.846 -12.915  -2.563  1.00  0.00     0.000 C 
BRANCH  18  19
ATOM     19  C   UNL     1     -13.246 -13.317  -2.055  1.00  0.00     0.000 C 
BRANCH  19  20
ATOM     20  C   UNL     1     -13.908 -12.304  -1.100  1.00  0.00     0.000 C 
BRANCH  20  21
ATOM     21  C   UNL     1     -13.765 -12.631   0.400  1.00  0.00     0.000 C 
BRANCH  21  22
ATOM     22  C   UNL     1     -13.216 -11.486   1.271  1.00  0.00     0.000 C 
BRANCH  22  23
ATOM     23  C   UNL     1     -13.067 -11.878   2.750  1.00  0.00     0.000 C 
BRANCH  23  24
ATOM     24  C   UNL     1     -13.932 -11.016   3.686  1.00  0.00    -0.000 C 
BRANCH  24  25
ATOM     25  C   UNL     1     -13.236  -9.771   4.272  1.00  0.00    -0.000 C 
BRANCH  25  26
ATOM     26  C   UNL     1     -11.792  -9.991   4.760  1.00  0.00    -0.000 C 
BRANCH  26  27
ATOM     27  C   UNL     1     -11.727 -10.652   6.147  1.00  0.00    -0.000 C 
BRANCH  27  28
ATOM     28  C   UNL     1     -12.047  -9.673   7.293  1.00  0.00    -0.000 C 
BRANCH  28  29
ATOM     29  C   UNL     1     -13.444  -9.837   7.919  1.00  0.00    -0.000 C 
BRANCH  29  30
ATOM     30  C   UNL     1     -14.092  -8.494   8.298  1.00  0.00    -0.000 C 
BRANCH  30  31
ATOM     31  C   UNL     1     -13.090  -7.513   8.926  1.00  0.00    -0.003 C 
ATOM     32  C   UNL     1     -12.959  -7.694  10.438  1.00  0.00     0.004 C 
ENDBRANCH  30  31
ENDBRANCH  29  30
ENDBRANCH  28  29
ENDBRANCH  27  28
ENDBRANCH  26  27
ENDBRANCH  25  26
ENDBRANCH  24  25
ENDBRANCH  23  24
ENDBRANCH  22  23
ENDBRANCH  21  22
ENDBRANCH  20  21
ENDBRANCH  19  20
ENDBRANCH  18  19
ENDBRANCH   1  18
TORSDOF 28
ENDMDL
MODEL 4
REMARK VINA RESULT:    -3.539      3.390     10.078
REMARK INTER + INTRA:         -13.150
REMARK INTER:                  -9.593
REMARK INTRA:                  -3.558
REMARK UNBOUND:                -3.819
REMARK SMILES CCCCCCCCCCCCCCCCCCCCCCCCCCCCCC(=O)[O-]
REMARK SMILES IDX 16 1 17 2 18 3 19 4 20 5 21 6 22 7 23 8 24 9 25 10 26 11
REMARK SMILES IDX 27 12 28 13 29 14 30 15 31 16 32 17 15 18 14 19 13 20 12 21
REMARK SMILES IDX 11 22 10 23 9 24 8 25 7 26 6 27 5 28 4 29 3 30 2 31 1 32
REMARK H PARENT
REMARK Flexibility Score: inf
ROOT
ATOM      1  C   UNL     1     -10.297 -13.868  -2.012  1.00  0.00     0.000 C 
ENDROOT
BRANCH   1   2
ATOM      2  C   UNL     1      -9.095 -12.959  -2.307  1.00  0.00     0.000 C 
BRANCH   2   3
ATOM      3  C   UNL     1      -8.100 -13.654  -3.249  1.00  0.00     0.000 C 
BRANCH   3   4
ATOM      4  C   UNL     1      -6.976 -12.718  -3.732  1.00  0.00     0.000 C 
BRANCH   4   5
ATOM      5  C   UNL     1      -6.036 -13.325  -4.790  1.00  0.00     0.000 C 
BRANCH   5   6
ATOM      6  C   UNL     1      -5.377 -12.265  -5.685  1.00  0.00     0.000 C 
BRANCH   6   7
ATOM      7  C   UNL     1      -5.761 -12.473  -7.155  1.00  0.00     0.000 C 
BRANCH   7   8
ATOM      8  C   UNL     1      -7.276 -12.316  -7.357  1.00  0.00     0.000 C 
BRANCH   8   9
ATOM      9  C   UNL     1      -7.957 -13.614  -7.827  1.00  0.00     0.000 C 
BRANCH   9  10
ATOM     10  C   UNL     1      -9.116 -14.096  -6.936  1.00  0.00     0.000 C 
BRANCH  10  11
ATOM     11  C   UNL     1      -9.992 -12.942  -6.420  1.00  0.00     0.000 C 
BRANCH  11  12
ATOM     12  C   UNL     1     -11.071 -13.417  -5.434  1.00  0.00     0.000 C 
BRANCH  12  13
ATOM     13  C   UNL     1     -12.092 -12.316  -5.100  1.00  0.00     0.006 C 
BRANCH  13  14
ATOM     14  C   UNL     1     -12.685 -11.672  -6.360  1.00  0.00     0.053 C 
BRANCH  14  15
ATOM     15  C   UNL     1     -14.153 -11.945  -6.483  1.00  0.00     0.041 C 
ATOM     16  O   UNL     1     -14.855 -11.282  -7.291  1.00  0.00    -0.550 OA
ATOM     17  O   UNL     1     -14.738 -12.959  -5.735  1.00  0.00    -0.550 OA
ENDBRANCH  14  15
ENDBRANCH  13  14
ENDBRANCH  12  13
ENDBRANCH  11  12
ENDBRANCH  10  11
ENDBRANCH   9  10
ENDBRANCH   8   9
ENDBRANCH   7   8
ENDBRANCH   6   7
ENDBRANCH   5   6
ENDBRANCH   4   5
ENDBRANCH   3   4
ENDBRANCH   2   3
ENDBRANCH   1   2
BRANCH   1  18
ATOM     18  C   UNL     1     -11.217 -13.307  -0.913  1.00  0.00     0.000 C 
BRANCH  18  19
ATOM     19  C   UNL     1     -12.626 -12.899  -1.389  1.00  0.00     0.000 C 
BRANCH  19  20
ATOM     20  C   UNL     1     -13.248 -11.706  -0.638  1.00  0.00     0.000 C 
BRANCH  20  21
ATOM     21  C   UNL     1     -13.588 -11.970   0.843  1.00  0.00     0.000 C 
BRANCH  21  22
ATOM     22  C   UNL     1     -14.106 -13.387   1.153  1.00  0.00     0.000 C 
BRANCH  22  23
ATOM     23  C   UNL     1     -13.655 -13.901   2.529  1.00  0.00     0.000 C 
BRANCH  23  24
ATOM     24  C   UNL     1     -12.132 -13.811   2.730  1.00  0.00    -0.000 C 
BRANCH  24  25
ATOM     25  C   UNL     1     -11.675 -13.336   4.124  1.00  0.00    -0.000 C 
BRANCH  25  26
ATOM     26  C   UNL     1     -12.661 -13.618   5.273  1.00  0.00    -0.000 C 
BRANCH  26  27
ATOM     27  C   UNL     1     -12.955 -12.371   6.125  1.00  0.00    -0.000 C 
BRANCH  27  28
ATOM     28  C   UNL     1     -11.735 -11.441   6.268  1.00  0.00    -0.000 C 
BRANCH  28  29
ATOM     29  C   UNL     1     -11.937 -10.012   5.732  1.00  0.00    -0.000 C 
BRANCH  29  30
ATOM     30  C   UNL     1     -12.714  -9.973   4.405  1.00  0.00    -0.000 C 
BRANCH  30  31
ATOM     31  C   UNL     1     -14.188  -9.586   4.597  1.00  0.00    -0.003 C 
ATOM     32  C   UNL     1     -15.125 -10.354   3.666  1.00  0.00     0.004 C 
ENDBRANCH  30  31
ENDBRANCH  29  30
ENDBRANCH  28  29
ENDBRANCH  27  28
ENDBRANCH  26  27
ENDBRANCH  25  26
ENDBRANCH  24  25
ENDBRANCH  23  24
ENDBRANCH  22  23
ENDBRANCH  21  22
ENDBRANCH  20  21
ENDBRANCH  19  20
ENDBRANCH  18  19
ENDBRANCH   1  18
TORSDOF 28
ENDMDL
MODEL 5
REMARK VINA RESULT:    -3.462      2.612     10.810
REMARK INTER + INTRA:         -12.948
REMARK INTER:                 -10.453
REMARK INTRA:                  -2.495
REMARK UNBOUND:                -3.819
REMARK SMILES CCCCCCCCCCCCCCCCCCCCCCCCCCCCCC(=O)[O-]
REMARK SMILES IDX 16 1 17 2 18 3 19 4 20 5 21 6 22 7 23 8 24 9 25 10 26 11
REMARK SMILES IDX 27 12 28 13 29 14 30 15 31 16 32 17 15 18 14 19 13 20 12 21
REMARK SMILES IDX 11 22 10 23 9 24 8 25 7 26 6 27 5 28 4 29 3 30 2 31 1 32
REMARK H PARENT
REMARK Flexibility Score: inf
ROOT
ATOM      1  C   UNL     1     -14.168 -10.899  -3.134  1.00  0.00     0.000 C 
ENDROOT
BRANCH   1   2
ATOM      2  C   UNL     1     -14.040 -11.487  -4.547  1.00  0.00     0.000 C 
BRANCH   2   3
ATOM      3  C   UNL     1     -12.667 -12.147  -4.744  1.00  0.00     0.000 C 
BRANCH   3   4
ATOM      4  C   UNL     1     -12.072 -11.890  -6.141  1.00  0.00     0.000 C 
BRANCH   4   5
ATOM      5  C   UNL     1     -11.311 -13.081  -6.752  1.00  0.00     0.000 C 
BRANCH   5   6
ATOM      6  C   UNL     1     -10.466 -12.690  -7.973  1.00  0.00     0.000 C 
BRANCH   6   7
ATOM      7  C   UNL     1      -8.975 -12.646  -7.617  1.00  0.00     0.000 C 
BRANCH   7   8
ATOM      8  C   UNL     1      -8.158 -11.990  -8.741  1.00  0.00     0.000 C 
BRANCH   8   9
ATOM      9  C   UNL     1      -6.667 -12.368  -8.698  1.00  0.00     0.000 C 
BRANCH   9  10
ATOM     10  C   UNL     1      -6.310 -13.485  -7.700  1.00  0.00     0.000 C 
BRANCH  10  11
ATOM     11  C   UNL     1      -5.286 -13.036  -6.643  1.00  0.00     0.000 C 
BRANCH  11  12
ATOM     12  C   UNL     1      -5.867 -12.007  -5.661  1.00  0.00     0.000 C 
BRANCH  12  13
ATOM     13  C   UNL     1      -6.061 -12.584  -4.248  1.00  0.00     0.006 C 
BRANCH  13  14
ATOM     14  C   UNL     1      -7.148 -13.665  -4.206  1.00  0.00     0.053 C 
BRANCH  14  15
ATOM     15  C   UNL     1      -8.390 -13.177  -3.526  1.00  0.00     0.041 C 
ATOM     16  O   UNL     1      -9.515 -13.644  -3.847  1.00  0.00    -0.550 OA
ATOM     17  O   UNL     1      -8.303 -12.234  -2.510  1.00  0.00    -0.550 OA
ENDBRANCH  14  15
ENDBRANCH  13  14
ENDBRANCH  12  13
ENDBRANCH  11  12
ENDBRANCH  10  11
ENDBRANCH   9  10
ENDBRANCH   8   9
ENDBRANCH   7   8
ENDBRANCH   6   7
ENDBRANCH   5   6
ENDBRANCH   4   5
ENDBRANCH   3   4
ENDBRANCH   2   3
ENDBRANCH   1   2
BRANCH   1  18
ATOM     18  C   UNL     1     -14.839 -11.866  -2.142  1.00  0.00     0.000 C 
BRANCH  18  19
ATOM     19  C   UNL     1     -13.879 -12.532  -1.134  1.00  0.00     0.000 C 
BRANCH  19  20
ATOM     20  C   UNL     1     -13.223 -11.570  -0.125  1.00  0.00     0.000 C 
BRANCH  20  21
ATOM     21  C   UNL     1     -13.418 -11.946   1.358  1.00  0.00     0.000 C 
BRANCH  21  22
ATOM     22  C   UNL     1     -14.606 -12.883   1.646  1.00  0.00     0.000 C 
BRANCH  22  23
ATOM     23  C   UNL     1     -14.859 -13.083   3.149  1.00  0.00     0.000 C 
BRANCH  23  24
ATOM     24  C   UNL     1     -14.019 -12.138   4.027  1.00  0.00    -0.000 C 
BRANCH  24  25
ATOM     25  C   UNL     1     -14.650 -10.760   4.307  1.00  0.00    -0.000 C 
BRANCH  25  26
ATOM     26  C   UNL     1     -13.650  -9.610   4.531  1.00  0.00    -0.000 C 
BRANCH  26  27
ATOM     27  C   UNL     1     -12.196 -10.022   4.245  1.00  0.00    -0.000 C 
BRANCH  27  28
ATOM     28  C   UNL     1     -11.310 -10.006   5.505  1.00  0.00    -0.000 C 
BRANCH  28  29
ATOM     29  C   UNL     1     -12.049  -9.694   6.820  1.00  0.00    -0.000 C 
BRANCH  29  30
ATOM     30  C   UNL     1     -12.273 -10.941   7.692  1.00  0.00    -0.000 C 
BRANCH  30  31
ATOM     31  C   UNL     1     -13.288 -10.696   8.819  1.00  0.00    -0.003 C 
ATOM     32  C   UNL     1     -14.282  -9.585   8.485  1.00  0.00     0.004 C 
ENDBRANCH  30  31
ENDBRANCH  29  30
ENDBRANCH  28  29
ENDBRANCH  27  28
ENDBRANCH  26  27
ENDBRANCH  25  26
ENDBRANCH  24  25
ENDBRANCH  23  24
ENDBRANCH  22  23
ENDBRANCH  21  22
ENDBRANCH  20  21
ENDBRANCH  19  20
ENDBRANCH  18  19
ENDBRANCH   1  18
TORSDOF 28
ENDMDL
MODEL 6
REMARK VINA RESULT:    -3.395      2.887     10.242
REMARK INTER + INTRA:         -12.772
REMARK INTER:                  -9.236
REMARK INTRA:                  -3.535
REMARK UNBOUND:                -3.819
REMARK SMILES CCCCCCCCCCCCCCCCCCCCCCCCCCCCCC(=O)[O-]
REMARK SMILES IDX 16 1 17 2 18 3 19 4 20 5 21 6 22 7 23 8 24 9 25 10 26 11
REMARK SMILES IDX 27 12 28 13 29 14 30 15 31 16 32 17 15 18 14 19 13 20 12 21
REMARK SMILES IDX 11 22 10 23 9 24 8 25 7 26 6 27 5 28 4 29 3 30 2 31 1 32
REMARK H PARENT
REMARK Flexibility Score: inf
ROOT
ATOM      1  C   UNL     1     -10.499 -13.054  -3.279  1.00  0.00     0.000 C 
ENDROOT
BRANCH   1   2
ATOM      2  C   UNL     1     -11.200 -14.125  -4.129  1.00  0.00     0.000 C 
BRANCH   2   3
ATOM      3  C   UNL     1     -12.715 -13.878  -4.182  1.00  0.00     0.000 C 
BRANCH   3   4
ATOM      4  C   UNL     1     -13.082 -12.382  -4.140  1.00  0.00     0.000 C 
BRANCH   4   5
ATOM      5  C   UNL     1     -13.491 -11.776  -5.495  1.00  0.00     0.000 C 
BRANCH   5   6
ATOM      6  C   UNL     1     -13.658 -12.831  -6.598  1.00  0.00     0.000 C 
BRANCH   6   7
ATOM      7  C   UNL     1     -12.742 -12.529  -7.790  1.00  0.00     0.000 C 
BRANCH   7   8
ATOM      8  C   UNL     1     -11.840 -11.319  -7.500  1.00  0.00     0.000 C 
BRANCH   8   9
ATOM      9  C   UNL     1     -10.352 -11.602  -7.774  1.00  0.00     0.000 C 
BRANCH   9  10
ATOM     10  C   UNL     1      -9.958 -13.089  -7.742  1.00  0.00     0.000 C 
BRANCH  10  11
ATOM     11  C   UNL     1      -8.643 -13.342  -6.983  1.00  0.00     0.000 C 
BRANCH  11  12
ATOM     12  C   UNL     1      -7.594 -12.250  -7.245  1.00  0.00     0.000 C 
BRANCH  12  13
ATOM     13  C   UNL     1      -6.185 -12.664  -6.786  1.00  0.00     0.006 C 
BRANCH  13  14
ATOM     14  C   UNL     1      -5.748 -11.926  -5.515  1.00  0.00     0.053 C 
BRANCH  14  15
ATOM     15  C   UNL     1      -6.259 -12.600  -4.279  1.00  0.00     0.041 C 
ATOM     16  O   UNL     1      -6.929 -11.951  -3.433  1.00  0.00    -0.550 OA
ATOM     17  O   UNL     1      -6.028 -13.956  -4.079  1.00  0.00    -0.550 OA
ENDBRANCH  14  15
ENDBRANCH  13  14
ENDBRANCH  12  13
ENDBRANCH  11  12
ENDBRANCH  10  11
ENDBRANCH   9  10
ENDBRANCH   8   9
ENDBRANCH   7   8
ENDBRANCH   6   7
ENDBRANCH   5   6
ENDBRANCH   4   5
ENDBRANCH   3   4
ENDBRANCH   2   3
ENDBRANCH   1   2
BRANCH   1  18
ATOM     18  C   UNL     1      -9.924 -13.614  -1.966  1.00  0.00     0.000 C 
BRANCH  18  19
ATOM     19  C   UNL     1     -10.951 -13.788  -0.828  1.00  0.00     0.000 C 
BRANCH  19  20
ATOM     20  C   UNL     1     -11.916 -12.603  -0.635  1.00  0.00     0.000 C 
BRANCH  20  21
ATOM     21  C   UNL     1     -13.396 -12.990  -0.440  1.00  0.00     0.000 C 
BRANCH  21  22
ATOM     22  C   UNL     1     -13.955 -12.754   0.975  1.00  0.00     0.000 C 
BRANCH  22  23
ATOM     23  C   UNL     1     -13.118 -13.436   2.069  1.00  0.00     0.000 C 
BRANCH  23  24
ATOM     24  C   UNL     1     -12.822 -12.507   3.260  1.00  0.00    -0.000 C 
BRANCH  24  25
ATOM     25  C   UNL     1     -13.495 -11.121   3.202  1.00  0.00    -0.000 C 
BRANCH  25  26
ATOM     26  C   UNL     1     -12.813 -10.021   4.038  1.00  0.00    -0.000 C 
BRANCH  26  27
ATOM     27  C   UNL     1     -11.873 -10.589   5.114  1.00  0.00    -0.000 C 
BRANCH  27  28
ATOM     28  C   UNL     1     -11.684  -9.635   6.309  1.00  0.00    -0.000 C 
BRANCH  28  29
ATOM     29  C   UNL     1     -12.400 -10.060   7.604  1.00  0.00    -0.000 C 
BRANCH  29  30
ATOM     30  C   UNL     1     -13.930  -9.921   7.516  1.00  0.00    -0.000 C 
BRANCH  30  31
ATOM     31  C   UNL     1     -14.656 -11.257   7.735  1.00  0.00    -0.003 C 
ATOM     32  C   UNL     1     -13.858 -12.453   7.217  1.00  0.00     0.004 C 
ENDBRANCH  30  31
ENDBRANCH  29  30
ENDBRANCH  28  29
ENDBRANCH  27  28
ENDBRANCH  26  27
ENDBRANCH  25  26
ENDBRANCH  24  25
ENDBRANCH  23  24
ENDBRANCH  22  23
ENDBRANCH  21  22
ENDBRANCH  20  21
ENDBRANCH  19  20
ENDBRANCH  18  19
ENDBRANCH   1  18
TORSDOF 28
ENDMDL
MODEL 7
REMARK VINA RESULT:    -3.353      2.351      8.820
REMARK INTER + INTRA:         -12.660
REMARK INTER:                  -9.580
REMARK INTRA:                  -3.079
REMARK UNBOUND:                -3.819
REMARK SMILES CCCCCCCCCCCCCCCCCCCCCCCCCCCCCC(=O)[O-]
REMARK SMILES IDX 16 1 17 2 18 3 19 4 20 5 21 6 22 7 23 8 24 9 25 10 26 11
REMARK SMILES IDX 27 12 28 13 29 14 30 15 31 16 32 17 15 18 14 19 13 20 12 21
REMARK SMILES IDX 11 22 10 23 9 24 8 25 7 26 6 27 5 28 4 29 3 30 2 31 1 32
REMARK H PARENT
REMARK Flexibility Score: inf
ROOT
ATOM      1  C   UNL     1      -6.968 -13.443  -4.189  1.00  0.00     0.000 C 
ENDROOT
BRANCH   1   2
ATOM      2  C   UNL     1      -5.470 -13.782  -4.235  1.00  0.00     0.000 C 
BRANCH   2   3
ATOM      3  C   UNL     1      -4.908 -13.592  -5.652  1.00  0.00     0.000 C 
BRANCH   3   4
ATOM      4  C   UNL     1      -5.437 -12.321  -6.343  1.00  0.00     0.000 C 
BRANCH   4   5
ATOM      5  C   UNL     1      -5.847 -12.505  -7.815  1.00  0.00     0.000 C 
BRANCH   5   6
ATOM      6  C   UNL     1      -7.369 -12.562  -8.011  1.00  0.00     0.000 C 
BRANCH   6   7
ATOM      7  C   UNL     1      -7.881 -14.004  -7.920  1.00  0.00     0.000 C 
BRANCH   7   8
ATOM      8  C   UNL     1      -9.025 -14.121  -6.901  1.00  0.00     0.000 C 
BRANCH   8   9
ATOM      9  C   UNL     1      -9.867 -12.837  -6.795  1.00  0.00     0.000 C 
BRANCH   9  10
ATOM     10  C   UNL     1     -11.292 -13.039  -6.248  1.00  0.00     0.000 C 
BRANCH  10  11
ATOM     11  C   UNL     1     -12.220 -11.849  -6.544  1.00  0.00     0.000 C 
BRANCH  11  12
ATOM     12  C   UNL     1     -13.678 -12.280  -6.765  1.00  0.00     0.000 C 
BRANCH  12  13
ATOM     13  C   UNL     1     -14.583 -11.936  -5.569  1.00  0.00     0.006 C 
BRANCH  13  14
ATOM     14  C   UNL     1     -13.809 -11.262  -4.429  1.00  0.00     0.053 C 
BRANCH  14  15
ATOM     15  C   UNL     1     -14.164 -11.845  -3.097  1.00  0.00     0.041 C 
ATOM     16  O   UNL     1     -14.127 -11.130  -2.061  1.00  0.00    -0.550 OA
ATOM     17  O   UNL     1     -14.573 -13.170  -3.002  1.00  0.00    -0.550 OA
ENDBRANCH  14  15
ENDBRANCH  13  14
ENDBRANCH  12  13
ENDBRANCH  11  12
ENDBRANCH  10  11
ENDBRANCH   9  10
ENDBRANCH   8   9
ENDBRANCH   7   8
ENDBRANCH   6   7
ENDBRANCH   5   6
ENDBRANCH   4   5
ENDBRANCH   3   4
ENDBRANCH   2   3
ENDBRANCH   1   2
BRANCH   1  18
ATOM     18  C   UNL     1      -7.317 -12.417  -3.096  1.00  0.00     0.000 C 
BRANCH  18  19
ATOM     19  C   UNL     1      -8.693 -12.620  -2.430  1.00  0.00     0.000 C 
BRANCH  19  20
ATOM     20  C   UNL     1      -9.657 -13.547  -3.195  1.00  0.00     0.000 C 
BRANCH  20  21
ATOM     21  C   UNL     1     -11.028 -13.763  -2.522  1.00  0.00     0.000 C 
BRANCH  21  22
ATOM     22  C   UNL     1     -11.262 -12.950  -1.236  1.00  0.00     0.000 C 
BRANCH  22  23
ATOM     23  C   UNL     1     -11.807 -13.803  -0.080  1.00  0.00     0.000 C 
BRANCH  23  24
ATOM     24  C   UNL     1     -13.104 -13.235   0.522  1.00  0.00    -0.000 C 
BRANCH  24  25
ATOM     25  C   UNL     1     -13.006 -11.795   1.067  1.00  0.00    -0.000 C 
BRANCH  25  26
ATOM     26  C   UNL     1     -13.692 -11.555   2.425  1.00  0.00    -0.000 C 
BRANCH  26  27
ATOM     27  C   UNL     1     -13.274 -12.580   3.493  1.00  0.00    -0.000 C 
BRANCH  27  28
ATOM     28  C   UNL     1     -12.920 -11.928   4.843  1.00  0.00    -0.000 C 
BRANCH  28  29
ATOM     29  C   UNL     1     -12.611 -10.421   4.779  1.00  0.00    -0.000 C 
BRANCH  29  30
ATOM     30  C   UNL     1     -13.574  -9.575   5.631  1.00  0.00    -0.000 C 
BRANCH  30  31
ATOM     31  C   UNL     1     -13.379  -9.801   7.138  1.00  0.00    -0.003 C 
ATOM     32  C   UNL     1     -12.230  -8.973   7.714  1.00  0.00     0.004 C 
ENDBRANCH  30  31
ENDBRANCH  29  30
ENDBRANCH  28  29
ENDBRANCH  27  28
ENDBRANCH  26  27
ENDBRANCH  25  26
ENDBRANCH  24  25
ENDBRANCH  23  24
ENDBRANCH  22  23
ENDBRANCH  21  22
ENDBRANCH  20  21
ENDBRANCH  19  20
ENDBRANCH  18  19
ENDBRANCH   1  18
TORSDOF 28
ENDMDL
MODEL 8
REMARK VINA RESULT:    -3.320      2.558      9.694
REMARK INTER + INTRA:         -12.572
REMARK INTER:                  -9.878
REMARK INTRA:                  -2.694
REMARK UNBOUND:                -3.819
REMARK SMILES CCCCCCCCCCCCCCCCCCCCCCCCCCCCCC(=O)[O-]
REMARK SMILES IDX 16 1 17 2 18 3 19 4 20 5 21 6 22 7 23 8 24 9 25 10 26 11
REMARK SMILES IDX 27 12 28 13 29 14 30 15 31 16 32 17 15 18 14 19 13 20 12 21
REMARK SMILES IDX 11 22 10 23 9 24 8 25 7 26 6 27 5 28 4 29 3 30 2 31 1 32
REMARK H PARENT
REMARK Flexibility Score: inf
ROOT
ATOM      1  C   UNL     1      -8.982 -13.055  -2.443  1.00  0.00     0.000 C 
ENDROOT
BRANCH   1   2
ATOM      2  C   UNL     1      -7.796 -12.580  -3.296  1.00  0.00     0.000 C 
BRANCH   2   3
ATOM      3  C   UNL     1      -7.004 -13.774  -3.848  1.00  0.00     0.000 C 
BRANCH   3   4
ATOM      4  C   UNL     1      -5.674 -13.361  -4.505  1.00  0.00     0.000 C 
BRANCH   4   5
ATOM      5  C   UNL     1      -5.755 -12.116  -5.407  1.00  0.00     0.000 C 
BRANCH   5   6
ATOM      6  C   UNL     1      -5.711 -12.456  -6.904  1.00  0.00     0.000 C 
BRANCH   6   7
ATOM      7  C   UNL     1      -7.086 -12.257  -7.552  1.00  0.00     0.000 C 
BRANCH   7   8
ATOM      8  C   UNL     1      -7.937 -13.532  -7.447  1.00  0.00     0.000 C 
BRANCH   8   9
ATOM      9  C   UNL     1      -9.395 -13.319  -7.891  1.00  0.00     0.000 C 
BRANCH   9  10
ATOM     10  C   UNL     1     -10.291 -12.614  -6.856  1.00  0.00     0.000 C 
BRANCH  10  11
ATOM     11  C   UNL     1     -11.782 -12.656  -7.231  1.00  0.00     0.000 C 
BRANCH  11  12
ATOM     12  C   UNL     1     -12.680 -13.007  -6.035  1.00  0.00     0.000 C 
BRANCH  12  13
ATOM     13  C   UNL     1     -13.040 -11.776  -5.184  1.00  0.00     0.006 C 
BRANCH  13  14
ATOM     14  C   UNL     1     -14.523 -11.754  -4.793  1.00  0.00     0.053 C 
BRANCH  14  15
ATOM     15  C   UNL     1     -14.708 -11.434  -3.342  1.00  0.00     0.041 C 
ATOM     16  O   UNL     1     -14.522 -10.262  -2.922  1.00  0.00    -0.550 OA
ATOM     17  O   UNL     1     -15.125 -12.423  -2.459  1.00  0.00    -0.550 OA
ENDBRANCH  14  15
ENDBRANCH  13  14
ENDBRANCH  12  13
ENDBRANCH  11  12
ENDBRANCH  10  11
ENDBRANCH   9  10
ENDBRANCH   8   9
ENDBRANCH   7   8
ENDBRANCH   6   7
ENDBRANCH   5   6
ENDBRANCH   4   5
ENDBRANCH   3   4
ENDBRANCH   2   3
ENDBRANCH   1   2
BRANCH   1  18
ATOM     18  C   UNL     1     -10.257 -13.297  -3.272  1.00  0.00     0.000 C 
BRANCH  18  19
ATOM     19  C   UNL     1     -11.354 -14.109  -2.554  1.00  0.00     0.000 C 
BRANCH  19  20
ATOM     20  C   UNL     1     -12.014 -13.397  -1.358  1.00  0.00     0.000 C 
BRANCH  20  21
ATOM     21  C   UNL     1     -11.570 -13.902   0.030  1.00  0.00     0.000 C 
BRANCH  21  22
ATOM     22  C   UNL     1     -12.581 -13.666   1.167  1.00  0.00     0.000 C 
BRANCH  22  23
ATOM     23  C   UNL     1     -13.663 -12.637   0.801  1.00  0.00     0.000 C 
BRANCH  23  24
ATOM     24  C   UNL     1     -13.549 -11.334   1.612  1.00  0.00    -0.000 C 
BRANCH  24  25
ATOM     25  C   UNL     1     -12.939 -11.484   3.021  1.00  0.00    -0.000 C 
BRANCH  25  26
ATOM     26  C   UNL     1     -13.066 -10.246   3.929  1.00  0.00    -0.000 C 
BRANCH  26  27
ATOM     27  C   UNL     1     -11.793  -9.976   4.747  1.00  0.00    -0.000 C 
BRANCH  27  28
ATOM     28  C   UNL     1     -11.958 -10.311   6.242  1.00  0.00    -0.000 C 
BRANCH  28  29
ATOM     29  C   UNL     1     -13.282 -11.004   6.613  1.00  0.00    -0.000 C 
BRANCH  29  30
ATOM     30  C   UNL     1     -13.997 -10.335   7.799  1.00  0.00    -0.000 C 
BRANCH  30  31
ATOM     31  C   UNL     1     -13.853  -8.805   7.786  1.00  0.00    -0.003 C 
ATOM     32  C   UNL     1     -12.919  -8.292   8.882  1.00  0.00     0.004 C 
ENDBRANCH  30  31
ENDBRANCH  29  30
ENDBRANCH  28  29
ENDBRANCH  27  28
ENDBRANCH  26  27
ENDBRANCH  25  26
ENDBRANCH  24  25
ENDBRANCH  23  24
ENDBRANCH  22  23
ENDBRANCH  21  22
ENDBRANCH  20  21
ENDBRANCH  19  20
ENDBRANCH  18  19
ENDBRANCH   1  18
TORSDOF 28
ENDMDL
MODEL 9
REMARK VINA RESULT:    -3.093      3.074      8.736
REMARK INTER + INTRA:         -11.974
REMARK INTER:                  -8.305
REMARK INTRA:                  -3.669
REMARK UNBOUND:                -3.819
REMARK SMILES CCCCCCCCCCCCCCCCCCCCCCCCCCCCCC(=O)[O-]
REMARK SMILES IDX 16 1 17 2 18 3 19 4 20 5 21 6 22 7 23 8 24 9 25 10 26 11
REMARK SMILES IDX 27 12 28 13 29 14 30 15 31 16 32 17 15 18 14 19 13 20 12 21
REMARK SMILES IDX 11 22 10 23 9 24 8 25 7 26 6 27 5 28 4 29 3 30 2 31 1 32
REMARK H PARENT
REMARK Flexibility Score: inf
ROOT
ATOM      1  C   UNL     1     -11.484 -10.631   5.060  1.00  0.00     0.000 C 
ENDROOT
BRANCH   1   2
ATOM      2  C   UNL     1     -12.547 -10.292   4.005  1.00  0.00     0.000 C 
BRANCH   2   3
ATOM      3  C   UNL     1     -13.707  -9.503   4.629  1.00  0.00     0.000 C 
BRANCH   3   4
ATOM      4  C   UNL     1     -14.817 -10.411   5.192  1.00  0.00     0.000 C 
BRANCH   4   5
ATOM      5  C   UNL     1     -15.065 -10.272   6.705  1.00  0.00     0.000 C 
BRANCH   5   6
ATOM      6  C   UNL     1     -14.029  -9.379   7.403  1.00  0.00     0.000 C 
BRANCH   6   7
ATOM      7  C   UNL     1     -14.714  -8.277   8.218  1.00  0.00     0.000 C 
BRANCH   7   8
ATOM      8  C   UNL     1     -13.682  -7.304   8.809  1.00  0.00     0.000 C 
BRANCH   8   9
ATOM      9  C   UNL     1     -13.591  -7.386  10.344  1.00  0.00     0.000 C 
BRANCH   9  10
ATOM     10  C   UNL     1     -14.194  -8.661  10.961  1.00  0.00     0.000 C 
BRANCH  10  11
ATOM     11  C   UNL     1     -13.162  -9.790  11.125  1.00  0.00     0.000 C 
BRANCH  11  12
ATOM     12  C   UNL     1     -13.800 -11.186  11.046  1.00  0.00     0.000 C 
BRANCH  12  13
ATOM     13  C   UNL     1     -13.127 -12.084   9.993  1.00  0.00     0.006 C 
BRANCH  13  14
ATOM     14  C   UNL     1     -11.917 -11.406   9.339  1.00  0.00     0.053 C 
BRANCH  14  15
ATOM     15  C   UNL     1     -10.633 -11.813   9.993  1.00  0.00     0.041 C 
ATOM     16  O   UNL     1     -10.442 -13.012  10.326  1.00  0.00    -0.550 OA
ATOM     17  O   UNL     1      -9.629 -10.875  10.201  1.00  0.00    -0.550 OA
ENDBRANCH  14  15
ENDBRANCH  13  14
ENDBRANCH  12  13
ENDBRANCH  11  12
ENDBRANCH  10  11
ENDBRANCH   9  10
ENDBRANCH   8   9
ENDBRANCH   7   8
ENDBRANCH   6   7
ENDBRANCH   5   6
ENDBRANCH   4   5
ENDBRANCH   3   4
ENDBRANCH   2   3
ENDBRANCH   1   2
BRANCH   1  18
ATOM     18  C   UNL     1     -11.642 -12.049   5.636  1.00  0.00     0.000 C 
BRANCH  18  19
ATOM     19  C   UNL     1     -11.046 -13.175   4.766  1.00  0.00     0.000 C 
BRANCH  19  20
ATOM     20  C   UNL     1     -12.079 -14.023   4.001  1.00  0.00     0.000 C 
BRANCH  20  21
ATOM     21  C   UNL     1     -13.534 -13.880   4.490  1.00  0.00     0.000 C 
BRANCH  21  22
ATOM     22  C   UNL     1     -14.546 -13.440   3.416  1.00  0.00     0.000 C 
BRANCH  22  23
ATOM     23  C   UNL     1     -13.965 -13.486   1.993  1.00  0.00     0.000 C 
BRANCH  23  24
ATOM     24  C   UNL     1     -13.804 -12.089   1.368  1.00  0.00    -0.000 C 
BRANCH  24  25
ATOM     25  C   UNL     1     -13.043 -12.047   0.028  1.00  0.00    -0.000 C 
BRANCH  25  26
ATOM     26  C   UNL     1     -11.886 -13.054  -0.105  1.00  0.00    -0.000 C 
BRANCH  26  27
ATOM     27  C   UNL     1     -11.668 -13.522  -1.554  1.00  0.00    -0.000 C 
BRANCH  27  28
ATOM     28  C   UNL     1     -10.273 -13.163  -2.098  1.00  0.00    -0.000 C 
BRANCH  28  29
ATOM     29  C   UNL     1     -10.097 -13.346  -3.616  1.00  0.00    -0.000 C 
BRANCH  29  30
ATOM     30  C   UNL     1     -11.427 -13.289  -4.386  1.00  0.00    -0.000 C 
BRANCH  30  31
ATOM     31  C   UNL     1     -11.290 -12.592  -5.748  1.00  0.00    -0.003 C 
ATOM     32  C   UNL     1     -10.111 -13.119  -6.564  1.00  0.00     0.004 C 
ENDBRANCH  30  31
ENDBRANCH  29  30
ENDBRANCH  28  29
ENDBRANCH  27  28
ENDBRANCH  26  27
ENDBRANCH  25  26
ENDBRANCH  24  25
ENDBRANCH  23  24
ENDBRANCH  22  23
ENDBRANCH  21  22
ENDBRANCH  20  21
ENDBRANCH  19  20
ENDBRANCH  18  19
ENDBRANCH   1  18
TORSDOF 28
ENDMDL
