MODEL 1
REMARK VINA RESULT:     0.118      0.000      0.000
REMARK INTER + INTRA:          -0.217
REMARK INTER:                   0.146
REMARK INTRA:                  -0.362
REMARK UNBOUND:                -0.362
REMARK SMILES Oc1cc(O)c2cc(O)c(-c3cc(O)c(O)c(O)c3)[o+]c2c1
REMARK SMILES IDX 10 1 20 2 21 3 22 4 2 5 3 6 4 7 6 8 7 9 8 10 11 11 12 12
REMARK SMILES IDX 13 13 19 14 15 15 17 16 14 17 16 19 18 21 9 23 1 25 5 27
REMARK H PARENT 14 18 16 20 18 22 9 24 1 26 5 28
REMARK Flexibility Score: inf
ROOT
ATOM      1  C   UNL     1     -21.890 -16.126 -14.142  1.00  0.00     0.402 A 
ATOM      2  O   UNL     1     -22.515 -17.125 -13.524  1.00  0.00    -0.202 OA
ATOM      3  C   UNL     1     -23.803 -17.397 -13.697  1.00  0.00     0.368 A 
ATOM      4  C   UNL     1     -24.370 -18.471 -13.004  1.00  0.00     0.162 A 
ATOM      5  C   UNL     1     -25.724 -18.781 -13.171  1.00  0.00     0.128 A 
ATOM      6  C   UNL     1     -26.512 -18.017 -14.034  1.00  0.00     0.093 A 
ATOM      7  C   UNL     1     -25.967 -16.937 -14.739  1.00  0.00     0.136 A 
ATOM      8  C   UNL     1     -24.595 -16.615 -14.572  1.00  0.00     0.125 A 
ATOM      9  C   UNL     1     -23.968 -15.544 -15.228  1.00  0.00     0.078 A 
ATOM     10  C   UNL     1     -22.611 -15.285 -15.009  1.00  0.00     0.223 A 
ENDROOT
BRANCH   1  11
ATOM     11  C   UNL     1     -20.447 -15.929 -13.873  1.00  0.00     0.091 A 
ATOM     12  C   UNL     1     -19.468 -16.689 -14.536  1.00  0.00     0.068 A 
ATOM     13  C   UNL     1     -18.108 -16.504 -14.252  1.00  0.00     0.162 A 
ATOM     14  C   UNL     1     -20.047 -15.006 -12.895  1.00  0.00     0.068 A 
ATOM     15  C   UNL     1     -17.717 -15.561 -13.286  1.00  0.00     0.200 A 
ATOM     16  C   UNL     1     -18.693 -14.813 -12.606  1.00  0.00     0.162 A 
BRANCH  13  17
ATOM     17  O   UNL     1     -17.145 -17.259 -14.921  1.00  0.00    -0.504 OA
ATOM     18  H   UNL     1     -16.652 -16.895 -15.728  1.00  0.00     0.293 HD
ENDBRANCH  13  17
BRANCH  15  19
ATOM     19  O   UNL     1     -16.367 -15.360 -12.994  1.00  0.00    -0.502 OA
ATOM     20  H   UNL     1     -16.016 -14.479 -12.638  1.00  0.00     0.293 HD
ENDBRANCH  15  19
BRANCH  16  21
ATOM     21  O   UNL     1     -18.336 -13.875 -11.636  1.00  0.00    -0.504 OA
ATOM     22  H   UNL     1     -18.137 -14.138 -10.679  1.00  0.00     0.293 HD
ENDBRANCH  16  21
ENDBRANCH   1  11
BRANCH  10  23
ATOM     23  O   UNL     1     -22.000 -14.191 -15.621  1.00  0.00    -0.500 OA
ATOM     24  H   UNL     1     -21.586 -14.258 -16.543  1.00  0.00     0.294 HD
ENDBRANCH  10  23
BRANCH   5  25
ATOM     25  O   UNL     1     -26.295 -19.850 -12.483  1.00  0.00    -0.507 OA
ATOM     26  H   UNL     1     -25.854 -20.761 -12.458  1.00  0.00     0.293 HD
ENDBRANCH   5  25
BRANCH   7  27
ATOM     27  O   UNL     1     -26.822 -16.224 -15.585  1.00  0.00    -0.507 OA
ATOM     28  H   UNL     1     -27.157 -15.290 -15.401  1.00  0.00     0.293 HD
ENDBRANCH   7  27
TORSDOF 7
ENDMDL
