MODEL 1
REMARK VINA RESULT:    -3.819      0.000      0.000
REMARK INTER + INTRA:         -14.804
REMARK INTER:                 -10.071
REMARK INTRA:                  -4.732
REMARK UNBOUND:                -4.732
REMARK SMILES CCCCCCCCCCCCCCCCCCCCCCCCCCCCCC(=O)[O-]
REMARK SMILES IDX 16 1 17 2 18 3 19 4 20 5 21 6 22 7 23 8 24 9 25 10 26 11
REMARK SMILES IDX 27 12 28 13 29 14 30 15 31 16 32 17 15 18 14 19 13 20 12 21
REMARK SMILES IDX 11 22 10 23 9 24 8 25 7 26 6 27 5 28 4 29 3 30 2 31 1 32
REMARK H PARENT
REMARK Flexibility Score: inf
ROOT
ATOM      1  C   UNL     1       8.491  17.458  70.774  1.00  0.00     0.000 C 
ENDROOT
BRANCH   1   2
ATOM      2  C   UNL     1       9.086  18.882  70.829  1.00  0.00     0.000 C 
BRANCH   2   3
ATOM      3  C   UNL     1      10.467  18.963  70.156  1.00  0.00     0.000 C 
BRANCH   3   4
ATOM      4  C   UNL     1      10.520  18.192  68.825  1.00  0.00     0.000 C 
BRANCH   4   5
ATOM      5  C   UNL     1      11.100  19.036  67.681  1.00  0.00     0.000 C 
BRANCH   5   6
ATOM      6  C   UNL     1      11.573  18.144  66.523  1.00  0.00     0.000 C 
BRANCH   6   7
ATOM      7  C   UNL     1      11.598  16.652  66.894  1.00  0.00     0.000 C 
BRANCH   7   8
ATOM      8  C   UNL     1      12.950  15.987  66.598  1.00  0.00     0.000 C 
BRANCH   8   9
ATOM      9  C   UNL     1      13.459  15.216  67.822  1.00  0.00     0.000 C 
BRANCH   9  10
ATOM     10  C   UNL     1      13.108  15.954  69.123  1.00  0.00     0.000 C 
BRANCH  10  11
ATOM     11  C   UNL     1      14.253  15.934  70.149  1.00  0.00     0.000 C 
BRANCH  11  12
ATOM     12  C   UNL     1      14.443  14.551  70.793  1.00  0.00     0.000 C 
BRANCH  12  13
ATOM     13  C   UNL     1      15.713  13.831  70.301  1.00  0.00     0.006 C 
BRANCH  13  14
ATOM     14  C   UNL     1      16.673  14.718  69.491  1.00  0.00     0.053 C 
BRANCH  14  15
ATOM     15  C   UNL     1      18.097  14.266  69.613  1.00  0.00     0.041 C 
ATOM     16  O   UNL     1      19.038  15.095  69.495  1.00  0.00    -0.550 OA
ATOM     17  O   UNL     1      18.383  12.935  69.898  1.00  0.00    -0.550 OA
ENDBRANCH  14  15
ENDBRANCH  13  14
ENDBRANCH  12  13
ENDBRANCH  11  12
ENDBRANCH  10  11
ENDBRANCH   9  10
ENDBRANCH   8   9
ENDBRANCH   7   8
ENDBRANCH   6   7
ENDBRANCH   5   6
ENDBRANCH   4   5
ENDBRANCH   3   4
ENDBRANCH   2   3
ENDBRANCH   1   2
BRANCH   1  18
ATOM     18  C   UNL     1       7.152  17.320  71.523  1.00  0.00     0.000 C 
BRANCH  18  19
ATOM     19  C   UNL     1       6.819  18.555  72.371  1.00  0.00     0.000 C 
BRANCH  19  20
ATOM     20  C   UNL     1       6.865  18.271  73.883  1.00  0.00     0.000 C 
BRANCH  20  21
ATOM     21  C   UNL     1       8.221  17.753  74.399  1.00  0.00     0.000 C 
BRANCH  21  22
ATOM     22  C   UNL     1       8.279  16.240  74.686  1.00  0.00     0.000 C 
BRANCH  22  23
ATOM     23  C   UNL     1       9.547  15.551  74.140  1.00  0.00     0.000 C 
BRANCH  23  24
ATOM     24  C   UNL     1      10.492  16.532  73.429  1.00  0.00    -0.000 C 
BRANCH  24  25
ATOM     25  C   UNL     1      11.078  15.904  72.158  1.00  0.00    -0.000 C 
BRANCH  25  26
ATOM     26  C   UNL     1      11.116  14.371  72.263  1.00  0.00    -0.000 C 
BRANCH  26  27
ATOM     27  C   UNL     1      10.943  13.682  70.901  1.00  0.00    -0.000 C 
BRANCH  27  28
ATOM     28  C   UNL     1      10.336  14.611  69.840  1.00  0.00    -0.000 C 
BRANCH  28  29
ATOM     29  C   UNL     1       9.915  13.819  68.595  1.00  0.00    -0.000 C 
BRANCH  29  30
ATOM     30  C   UNL     1      10.847  12.619  68.368  1.00  0.00    -0.000 C 
BRANCH  30  31
ATOM     31  C   UNL     1      10.136  11.439  67.687  1.00  0.00    -0.003 C 
ATOM     32  C   UNL     1       9.273  10.631  68.657  1.00  0.00     0.004 C 
ENDBRANCH  30  31
ENDBRANCH  29  30
ENDBRANCH  28  29
ENDBRANCH  27  28
ENDBRANCH  26  27
ENDBRANCH  25  26
ENDBRANCH  24  25
ENDBRANCH  23  24
ENDBRANCH  22  23
ENDBRANCH  21  22
ENDBRANCH  20  21
ENDBRANCH  19  20
ENDBRANCH  18  19
ENDBRANCH   1  18
TORSDOF 28
ENDMDL
MODEL 2
REMARK VINA RESULT:    -3.695      2.447      6.838
REMARK INTER + INTRA:         -14.477
REMARK INTER:                 -10.279
REMARK INTRA:                  -4.198
REMARK UNBOUND:                -4.732
REMARK SMILES CCCCCCCCCCCCCCCCCCCCCCCCCCCCCC(=O)[O-]
REMARK SMILES IDX 16 1 17 2 18 3 19 4 20 5 21 6 22 7 23 8 24 9 25 10 26 11
REMARK SMILES IDX 27 12 28 13 29 14 30 15 31 16 32 17 15 18 14 19 13 20 12 21
REMARK SMILES IDX 11 22 10 23 9 24 8 25 7 26 6 27 5 28 4 29 3 30 2 31 1 32
REMARK H PARENT
REMARK Flexibility Score: inf
ROOT
ATOM      1  C   UNL     1      11.253  15.381  71.977  1.00  0.00     0.000 C 
ENDROOT
BRANCH   1   2
ATOM      2  C   UNL     1      10.484  14.961  73.249  1.00  0.00     0.000 C 
BRANCH   2   3
ATOM      3  C   UNL     1       9.810  16.157  73.945  1.00  0.00     0.000 C 
BRANCH   3   4
ATOM      4  C   UNL     1       8.451  15.789  74.564  1.00  0.00     0.000 C 
BRANCH   4   5
ATOM      5  C   UNL     1       7.717  17.010  75.138  1.00  0.00     0.000 C 
BRANCH   5   6
ATOM      6  C   UNL     1       7.002  17.795  74.029  1.00  0.00     0.000 C 
BRANCH   6   7
ATOM      7  C   UNL     1       7.794  19.029  73.569  1.00  0.00     0.000 C 
BRANCH   7   8
ATOM      8  C   UNL     1       8.405  18.858  72.170  1.00  0.00     0.000 C 
BRANCH   8   9
ATOM      9  C   UNL     1       7.710  17.725  71.405  1.00  0.00     0.000 C 
BRANCH   9  10
ATOM     10  C   UNL     1       8.606  17.193  70.277  1.00  0.00     0.000 C 
BRANCH  10  11
ATOM     11  C   UNL     1       8.049  15.917  69.624  1.00  0.00     0.000 C 
BRANCH  11  12
ATOM     12  C   UNL     1       8.867  15.477  68.398  1.00  0.00     0.000 C 
BRANCH  12  13
ATOM     13  C   UNL     1       9.888  14.370  68.726  1.00  0.00     0.006 C 
BRANCH  13  14
ATOM     14  C   UNL     1       9.260  13.022  69.117  1.00  0.00     0.053 C 
BRANCH  14  15
ATOM     15  C   UNL     1       9.843  11.881  68.340  1.00  0.00     0.041 C 
ATOM     16  O   UNL     1      10.814  12.075  67.561  1.00  0.00    -0.550 OA
ATOM     17  O   UNL     1       9.340  10.596  68.507  1.00  0.00    -0.550 OA
ENDBRANCH  14  15
ENDBRANCH  13  14
ENDBRANCH  12  13
ENDBRANCH  11  12
ENDBRANCH  10  11
ENDBRANCH   9  10
ENDBRANCH   8   9
ENDBRANCH   7   8
ENDBRANCH   6   7
ENDBRANCH   5   6
ENDBRANCH   4   5
ENDBRANCH   3   4
ENDBRANCH   2   3
ENDBRANCH   1   2
BRANCH   1  18
ATOM     18  C   UNL     1      12.272  16.509  72.218  1.00  0.00     0.000 C 
BRANCH  18  19
ATOM     19  C   UNL     1      12.665  17.239  70.927  1.00  0.00     0.000 C 
BRANCH  19  20
ATOM     20  C   UNL     1      11.479  17.434  69.966  1.00  0.00     0.000 C 
BRANCH  20  21
ATOM     21  C   UNL     1      11.330  18.862  69.408  1.00  0.00     0.000 C 
BRANCH  21  22
ATOM     22  C   UNL     1      11.321  18.967  67.870  1.00  0.00     0.000 C 
BRANCH  22  23
ATOM     23  C   UNL     1      11.100  17.617  67.156  1.00  0.00     0.000 C 
BRANCH  23  24
ATOM     24  C   UNL     1      12.406  17.012  66.619  1.00  0.00    -0.000 C 
BRANCH  24  25
ATOM     25  C   UNL     1      12.483  15.512  66.928  1.00  0.00    -0.000 C 
BRANCH  25  26
ATOM     26  C   UNL     1      13.561  15.218  67.983  1.00  0.00    -0.000 C 
BRANCH  26  27
ATOM     27  C   UNL     1      13.256  13.955  68.802  1.00  0.00    -0.000 C 
BRANCH  27  28
ATOM     28  C   UNL     1      13.981  13.937  70.155  1.00  0.00    -0.000 C 
BRANCH  28  29
ATOM     29  C   UNL     1      15.109  14.975  70.186  1.00  0.00    -0.000 C 
BRANCH  29  30
ATOM     30  C   UNL     1      16.463  14.305  70.465  1.00  0.00    -0.000 C 
BRANCH  30  31
ATOM     31  C   UNL     1      17.424  14.393  69.270  1.00  0.00    -0.003 C 
ATOM     32  C   UNL     1      18.857  14.728  69.687  1.00  0.00     0.004 C 
ENDBRANCH  30  31
ENDBRANCH  29  30
ENDBRANCH  28  29
ENDBRANCH  27  28
ENDBRANCH  26  27
ENDBRANCH  25  26
ENDBRANCH  24  25
ENDBRANCH  23  24
ENDBRANCH  22  23
ENDBRANCH  21  22
ENDBRANCH  20  21
ENDBRANCH  19  20
ENDBRANCH  18  19
ENDBRANCH   1  18
TORSDOF 28
ENDMDL
MODEL 3
REMARK VINA RESULT:    -3.689      2.084      6.086
REMARK INTER + INTRA:         -14.460
REMARK INTER:                 -10.051
REMARK INTRA:                  -4.408
REMARK UNBOUND:                -4.732
REMARK SMILES CCCCCCCCCCCCCCCCCCCCCCCCCCCCCC(=O)[O-]
REMARK SMILES IDX 16 1 17 2 18 3 19 4 20 5 21 6 22 7 23 8 24 9 25 10 26 11
REMARK SMILES IDX 27 12 28 13 29 14 30 15 31 16 32 17 15 18 14 19 13 20 12 21
REMARK SMILES IDX 11 22 10 23 9 24 8 25 7 26 6 27 5 28 4 29 3 30 2 31 1 32
REMARK H PARENT
REMARK Flexibility Score: inf
ROOT
ATOM      1  C   UNL     1      12.786  13.664  69.444  1.00  0.00     0.000 C 
ENDROOT
BRANCH   1   2
ATOM      2  C   UNL     1      12.296  12.377  68.744  1.00  0.00     0.000 C 
BRANCH   2   3
ATOM      3  C   UNL     1      10.779  12.395  68.488  1.00  0.00     0.000 C 
BRANCH   3   4
ATOM      4  C   UNL     1      10.258  13.799  68.134  1.00  0.00     0.000 C 
BRANCH   4   5
ATOM      5  C   UNL     1       8.980  14.163  68.905  1.00  0.00     0.000 C 
BRANCH   5   6
ATOM      6  C   UNL     1       8.892  15.678  69.142  1.00  0.00     0.000 C 
BRANCH   6   7
ATOM      7  C   UNL     1       9.782  16.483  68.181  1.00  0.00     0.000 C 
BRANCH   7   8
ATOM      8  C   UNL     1      10.451  17.689  68.857  1.00  0.00     0.000 C 
BRANCH   8   9
ATOM      9  C   UNL     1      11.183  18.557  67.826  1.00  0.00     0.000 C 
BRANCH   9  10
ATOM     10  C   UNL     1      11.220  17.867  66.454  1.00  0.00     0.000 C 
BRANCH  10  11
ATOM     11  C   UNL     1      12.619  17.348  66.084  1.00  0.00     0.000 C 
BRANCH  11  12
ATOM     12  C   UNL     1      12.869  15.917  66.587  1.00  0.00     0.000 C 
BRANCH  12  13
ATOM     13  C   UNL     1      14.216  15.341  66.108  1.00  0.00     0.006 C 
BRANCH  13  14
ATOM     14  C   UNL     1      14.651  15.818  64.713  1.00  0.00     0.053 C 
BRANCH  14  15
ATOM     15  C   UNL     1      16.125  15.660  64.497  1.00  0.00     0.041 C 
ATOM     16  O   UNL     1      16.779  14.824  65.174  1.00  0.00    -0.550 OA
ATOM     17  O   UNL     1      16.769  16.409  63.518  1.00  0.00    -0.550 OA
ENDBRANCH  14  15
ENDBRANCH  13  14
ENDBRANCH  12  13
ENDBRANCH  11  12
ENDBRANCH  10  11
ENDBRANCH   9  10
ENDBRANCH   8   9
ENDBRANCH   7   8
ENDBRANCH   6   7
ENDBRANCH   5   6
ENDBRANCH   4   5
ENDBRANCH   3   4
ENDBRANCH   2   3
ENDBRANCH   1   2
BRANCH   1  18
ATOM     18  C   UNL     1      14.238  13.574  69.950  1.00  0.00     0.000 C 
BRANCH  18  19
ATOM     19  C   UNL     1      14.855  14.952  70.227  1.00  0.00     0.000 C 
BRANCH  19  20
ATOM     20  C   UNL     1      13.945  16.113  69.787  1.00  0.00     0.000 C 
BRANCH  20  21
ATOM     21  C   UNL     1      13.652  17.152  70.887  1.00  0.00     0.000 C 
BRANCH  21  22
ATOM     22  C   UNL     1      12.723  16.666  72.017  1.00  0.00     0.000 C 
BRANCH  22  23
ATOM     23  C   UNL     1      11.509  15.855  71.519  1.00  0.00     0.000 C 
BRANCH  23  24
ATOM     24  C   UNL     1      10.625  15.349  72.669  1.00  0.00    -0.000 C 
BRANCH  24  25
ATOM     25  C   UNL     1       9.871  16.508  73.333  1.00  0.00    -0.000 C 
BRANCH  25  26
ATOM     26  C   UNL     1       9.288  17.464  72.281  1.00  0.00    -0.000 C 
BRANCH  26  27
ATOM     27  C   UNL     1       7.789  17.730  72.491  1.00  0.00    -0.000 C 
BRANCH  27  28
ATOM     28  C   UNL     1       7.520  18.752  73.604  1.00  0.00    -0.000 C 
BRANCH  28  29
ATOM     29  C   UNL     1       6.698  18.124  74.738  1.00  0.00    -0.000 C 
BRANCH  29  30
ATOM     30  C   UNL     1       6.512  16.617  74.508  1.00  0.00    -0.000 C 
BRANCH  30  31
ATOM     31  C   UNL     1       7.152  15.767  75.618  1.00  0.00    -0.003 C 
ATOM     32  C   UNL     1       6.631  16.126  77.010  1.00  0.00     0.004 C 
ENDBRANCH  30  31
ENDBRANCH  29  30
ENDBRANCH  28  29
ENDBRANCH  27  28
ENDBRANCH  26  27
ENDBRANCH  25  26
ENDBRANCH  24  25
ENDBRANCH  23  24
ENDBRANCH  22  23
ENDBRANCH  21  22
ENDBRANCH  20  21
ENDBRANCH  19  20
ENDBRANCH  18  19
ENDBRANCH   1  18
TORSDOF 28
ENDMDL
MODEL 4
REMARK VINA RESULT:    -3.581      3.493      7.644
REMARK INTER + INTRA:         -14.175
REMARK INTER:                 -10.114
REMARK INTRA:                  -4.061
REMARK UNBOUND:                -4.732
REMARK SMILES CCCCCCCCCCCCCCCCCCCCCCCCCCCCCC(=O)[O-]
REMARK SMILES IDX 16 1 17 2 18 3 19 4 20 5 21 6 22 7 23 8 24 9 25 10 26 11
REMARK SMILES IDX 27 12 28 13 29 14 30 15 31 16 32 17 15 18 14 19 13 20 12 21
REMARK SMILES IDX 11 22 10 23 9 24 8 25 7 26 6 27 5 28 4 29 3 30 2 31 1 32
REMARK H PARENT
REMARK Flexibility Score: inf
ROOT
ATOM      1  C   UNL     1      14.420  15.009  68.908  1.00  0.00     0.000 C 
ENDROOT
BRANCH   1   2
ATOM      2  C   UNL     1      14.172  15.329  70.399  1.00  0.00     0.000 C 
BRANCH   2   3
ATOM      3  C   UNL     1      13.488  16.694  70.596  1.00  0.00     0.000 C 
BRANCH   3   4
ATOM      4  C   UNL     1      12.718  16.780  71.925  1.00  0.00     0.000 C 
BRANCH   4   5
ATOM      5  C   UNL     1      12.056  15.447  72.307  1.00  0.00     0.000 C 
BRANCH   5   6
ATOM      6  C   UNL     1      10.776  15.681  73.123  1.00  0.00     0.000 C 
BRANCH   6   7
ATOM      7  C   UNL     1       9.744  16.541  72.376  1.00  0.00     0.000 C 
BRANCH   7   8
ATOM      8  C   UNL     1       9.390  17.834  73.126  1.00  0.00     0.000 C 
BRANCH   8   9
ATOM      9  C   UNL     1       8.282  18.603  72.396  1.00  0.00     0.000 C 
BRANCH   9  10
ATOM     10  C   UNL     1       7.265  17.639  71.768  1.00  0.00     0.000 C 
BRANCH  10  11
ATOM     11  C   UNL     1       5.824  17.904  72.235  1.00  0.00     0.000 C 
BRANCH  11  12
ATOM     12  C   UNL     1       5.756  18.910  73.396  1.00  0.00     0.000 C 
BRANCH  12  13
ATOM     13  C   UNL     1       5.647  18.228  74.774  1.00  0.00     0.006 C 
BRANCH  13  14
ATOM     14  C   UNL     1       5.712  16.692  74.729  1.00  0.00     0.053 C 
BRANCH  14  15
ATOM     15  C   UNL     1       6.790  16.147  75.615  1.00  0.00     0.041 C 
ATOM     16  O   UNL     1       7.884  15.766  75.121  1.00  0.00    -0.550 OA
ATOM     17  O   UNL     1       6.602  16.100  76.992  1.00  0.00    -0.550 OA
ENDBRANCH  14  15
ENDBRANCH  13  14
ENDBRANCH  12  13
ENDBRANCH  11  12
ENDBRANCH  10  11
ENDBRANCH   9  10
ENDBRANCH   8   9
ENDBRANCH   7   8
ENDBRANCH   6   7
ENDBRANCH   5   6
ENDBRANCH   4   5
ENDBRANCH   3   4
ENDBRANCH   2   3
ENDBRANCH   1   2
BRANCH   1  18
ATOM     18  C   UNL     1      13.127  14.890  68.081  1.00  0.00     0.000 C 
BRANCH  18  19
ATOM     19  C   UNL     1      13.148  15.762  66.818  1.00  0.00     0.000 C 
BRANCH  19  20
ATOM     20  C   UNL     1      11.831  16.529  66.600  1.00  0.00     0.000 C 
BRANCH  20  21
ATOM     21  C   UNL     1      12.006  18.017  66.237  1.00  0.00     0.000 C 
BRANCH  21  22
ATOM     22  C   UNL     1      11.182  19.000  67.092  1.00  0.00     0.000 C 
BRANCH  22  23
ATOM     23  C   UNL     1      11.281  18.740  68.609  1.00  0.00     0.000 C 
BRANCH  23  24
ATOM     24  C   UNL     1       9.963  18.223  69.207  1.00  0.00    -0.000 C 
BRANCH  24  25
ATOM     25  C   UNL     1      10.036  16.715  69.477  1.00  0.00    -0.000 C 
BRANCH  25  26
ATOM     26  C   UNL     1       9.154  15.932  68.492  1.00  0.00    -0.000 C 
BRANCH  26  27
ATOM     27  C   UNL     1       9.182  14.418  68.750  1.00  0.00    -0.000 C 
BRANCH  27  28
ATOM     28  C   UNL     1      10.405  13.978  69.568  1.00  0.00    -0.000 C 
BRANCH  28  29
ATOM     29  C   UNL     1      10.613  12.462  69.469  1.00  0.00    -0.000 C 
BRANCH  29  30
ATOM     30  C   UNL     1       9.778  11.867  68.325  1.00  0.00    -0.000 C 
BRANCH  30  31
ATOM     31  C   UNL     1       9.767  10.331  68.338  1.00  0.00    -0.003 C 
ATOM     32  C   UNL     1       8.353   9.750  68.348  1.00  0.00     0.004 C 
ENDBRANCH  30  31
ENDBRANCH  29  30
ENDBRANCH  28  29
ENDBRANCH  27  28
ENDBRANCH  26  27
ENDBRANCH  25  26
ENDBRANCH  24  25
ENDBRANCH  23  24
ENDBRANCH  22  23
ENDBRANCH  21  22
ENDBRANCH  20  21
ENDBRANCH  19  20
ENDBRANCH  18  19
ENDBRANCH   1  18
TORSDOF 28
ENDMDL
MODEL 5
REMARK VINA RESULT:    -3.485      1.049      2.775
REMARK INTER + INTRA:         -13.921
REMARK INTER:                  -9.440
REMARK INTRA:                  -4.481
REMARK UNBOUND:                -4.732
REMARK SMILES CCCCCCCCCCCCCCCCCCCCCCCCCCCCCC(=O)[O-]
REMARK SMILES IDX 16 1 17 2 18 3 19 4 20 5 21 6 22 7 23 8 24 9 25 10 26 11
REMARK SMILES IDX 27 12 28 13 29 14 30 15 31 16 32 17 15 18 14 19 13 20 12 21
REMARK SMILES IDX 11 22 10 23 9 24 8 25 7 26 6 27 5 28 4 29 3 30 2 31 1 32
REMARK H PARENT
REMARK Flexibility Score: inf
ROOT
ATOM      1  C   UNL     1      11.801  15.284  72.313  1.00  0.00     0.000 C 
ENDROOT
BRANCH   1   2
ATOM      2  C   UNL     1      11.949  16.807  72.097  1.00  0.00     0.000 C 
BRANCH   2   3
ATOM      3  C   UNL     1      12.976  17.143  71.001  1.00  0.00     0.000 C 
BRANCH   3   4
ATOM      4  C   UNL     1      12.537  18.331  70.128  1.00  0.00     0.000 C 
BRANCH   4   5
ATOM      5  C   UNL     1      11.329  17.992  69.241  1.00  0.00     0.000 C 
BRANCH   5   6
ATOM      6  C   UNL     1      11.278  18.906  68.007  1.00  0.00     0.000 C 
BRANCH   6   7
ATOM      7  C   UNL     1      11.555  18.151  66.697  1.00  0.00     0.000 C 
BRANCH   7   8
ATOM      8  C   UNL     1      11.514  16.626  66.869  1.00  0.00     0.000 C 
BRANCH   8   9
ATOM      9  C   UNL     1      12.880  16.004  66.552  1.00  0.00     0.000 C 
BRANCH   9  10
ATOM     10  C   UNL     1      13.184  14.834  67.499  1.00  0.00     0.000 C 
BRANCH  10  11
ATOM     11  C   UNL     1      13.884  15.280  68.794  1.00  0.00     0.000 C 
BRANCH  11  12
ATOM     12  C   UNL     1      14.182  14.103  69.739  1.00  0.00     0.000 C 
BRANCH  12  13
ATOM     13  C   UNL     1      15.558  14.219  70.422  1.00  0.00     0.006 C 
BRANCH  13  14
ATOM     14  C   UNL     1      16.647  14.868  69.553  1.00  0.00     0.053 C 
BRANCH  14  15
ATOM     15  C   UNL     1      17.965  14.167  69.683  1.00  0.00     0.041 C 
ATOM     16  O   UNL     1      18.031  12.915  69.568  1.00  0.00    -0.550 OA
ATOM     17  O   UNL     1      19.127  14.903  69.890  1.00  0.00    -0.550 OA
ENDBRANCH  14  15
ENDBRANCH  13  14
ENDBRANCH  12  13
ENDBRANCH  11  12
ENDBRANCH  10  11
ENDBRANCH   9  10
ENDBRANCH   8   9
ENDBRANCH   7   8
ENDBRANCH   6   7
ENDBRANCH   5   6
ENDBRANCH   4   5
ENDBRANCH   3   4
ENDBRANCH   2   3
ENDBRANCH   1   2
BRANCH   1  18
ATOM     18  C   UNL     1      10.604  14.902  73.204  1.00  0.00     0.000 C 
BRANCH  18  19
ATOM     19  C   UNL     1       9.828  16.126  73.710  1.00  0.00     0.000 C 
BRANCH  19  20
ATOM     20  C   UNL     1       8.680  15.752  74.664  1.00  0.00     0.000 C 
BRANCH  20  21
ATOM     21  C   UNL     1       7.725  16.912  75.007  1.00  0.00     0.000 C 
BRANCH  21  22
ATOM     22  C   UNL     1       6.320  16.811  74.381  1.00  0.00     0.000 C 
BRANCH  22  23
ATOM     23  C   UNL     1       6.000  17.946  73.386  1.00  0.00     0.000 C 
BRANCH  23  24
ATOM     24  C   UNL     1       6.618  17.708  72.000  1.00  0.00    -0.000 C 
BRANCH  24  25
ATOM     25  C   UNL     1       7.922  18.501  71.837  1.00  0.00    -0.000 C 
BRANCH  25  26
ATOM     26  C   UNL     1       8.840  17.849  70.792  1.00  0.00    -0.000 C 
BRANCH  26  27
ATOM     27  C   UNL     1       8.392  16.427  70.418  1.00  0.00    -0.000 C 
BRANCH  27  28
ATOM     28  C   UNL     1       8.455  16.164  68.907  1.00  0.00    -0.000 C 
BRANCH  28  29
ATOM     29  C   UNL     1       9.072  14.790  68.614  1.00  0.00    -0.000 C 
BRANCH  29  30
ATOM     30  C   UNL     1      10.261  14.515  69.546  1.00  0.00    -0.000 C 
BRANCH  30  31
ATOM     31  C   UNL     1      10.606  13.020  69.637  1.00  0.00    -0.003 C 
ATOM     32  C   UNL     1      10.606  12.330  68.272  1.00  0.00     0.004 C 
ENDBRANCH  30  31
ENDBRANCH  29  30
ENDBRANCH  28  29
ENDBRANCH  27  28
ENDBRANCH  26  27
ENDBRANCH  25  26
ENDBRANCH  24  25
ENDBRANCH  23  24
ENDBRANCH  22  23
ENDBRANCH  21  22
ENDBRANCH  20  21
ENDBRANCH  19  20
ENDBRANCH  18  19
ENDBRANCH   1  18
TORSDOF 28
ENDMDL
MODEL 6
REMARK VINA RESULT:    -3.385      2.921      5.595
REMARK INTER + INTRA:         -13.658
REMARK INTER:                  -9.782
REMARK INTRA:                  -3.877
REMARK UNBOUND:                -4.732
REMARK SMILES CCCCCCCCCCCCCCCCCCCCCCCCCCCCCC(=O)[O-]
REMARK SMILES IDX 16 1 17 2 18 3 19 4 20 5 21 6 22 7 23 8 24 9 25 10 26 11
REMARK SMILES IDX 27 12 28 13 29 14 30 15 31 16 32 17 15 18 14 19 13 20 12 21
REMARK SMILES IDX 11 22 10 23 9 24 8 25 7 26 6 27 5 28 4 29 3 30 2 31 1 32
REMARK H PARENT
REMARK Flexibility Score: inf
ROOT
ATOM      1  C   UNL     1       9.388  16.376  74.319  1.00  0.00     0.000 C 
ENDROOT
BRANCH   1   2
ATOM      2  C   UNL     1      10.114  15.437  73.330  1.00  0.00     0.000 C 
BRANCH   2   3
ATOM      3  C   UNL     1      10.861  16.213  72.231  1.00  0.00     0.000 C 
BRANCH   3   4
ATOM      4  C   UNL     1      12.390  16.109  72.373  1.00  0.00     0.000 C 
BRANCH   4   5
ATOM      5  C   UNL     1      13.132  17.106  71.471  1.00  0.00     0.000 C 
BRANCH   5   6
ATOM      6  C   UNL     1      13.559  16.444  70.152  1.00  0.00     0.000 C 
BRANCH   6   7
ATOM      7  C   UNL     1      14.970  15.837  70.221  1.00  0.00     0.000 C 
BRANCH   7   8
ATOM      8  C   UNL     1      15.044  14.430  69.612  1.00  0.00     0.000 C 
BRANCH   8   9
ATOM      9  C   UNL     1      14.004  13.502  70.253  1.00  0.00     0.000 C 
BRANCH   9  10
ATOM     10  C   UNL     1      12.755  13.380  69.368  1.00  0.00     0.000 C 
BRANCH  10  11
ATOM     11  C   UNL     1      11.450  13.645  70.137  1.00  0.00     0.000 C 
BRANCH  11  12
ATOM     12  C   UNL     1      10.202  13.230  69.341  1.00  0.00     0.000 C 
BRANCH  12  13
ATOM     13  C   UNL     1      10.322  11.819  68.732  1.00  0.00     0.006 C 
BRANCH  13  14
ATOM     14  C   UNL     1       8.984  11.197  68.300  1.00  0.00     0.053 C 
BRANCH  14  15
ATOM     15  C   UNL     1       9.070   9.706  68.171  1.00  0.00     0.041 C 
ATOM     16  O   UNL     1      10.186   9.149  67.997  1.00  0.00    -0.550 OA
ATOM     17  O   UNL     1       7.922   8.931  68.283  1.00  0.00    -0.550 OA
ENDBRANCH  14  15
ENDBRANCH  13  14
ENDBRANCH  12  13
ENDBRANCH  11  12
ENDBRANCH  10  11
ENDBRANCH   9  10
ENDBRANCH   8   9
ENDBRANCH   7   8
ENDBRANCH   6   7
ENDBRANCH   5   6
ENDBRANCH   4   5
ENDBRANCH   3   4
ENDBRANCH   2   3
ENDBRANCH   1   2
BRANCH   1  18
ATOM     18  C   UNL     1       7.881  16.521  74.037  1.00  0.00     0.000 C 
BRANCH  18  19
ATOM     19  C   UNL     1       7.250  17.704  74.784  1.00  0.00     0.000 C 
BRANCH  19  20
ATOM     20  C   UNL     1       7.254  19.003  73.958  1.00  0.00     0.000 C 
BRANCH  20  21
ATOM     21  C   UNL     1       7.373  18.796  72.436  1.00  0.00     0.000 C 
BRANCH  21  22
ATOM     22  C   UNL     1       8.763  19.100  71.840  1.00  0.00     0.000 C 
BRANCH  22  23
ATOM     23  C   UNL     1       9.007  18.445  70.465  1.00  0.00     0.000 C 
BRANCH  23  24
ATOM     24  C   UNL     1      10.409  18.742  69.910  1.00  0.00    -0.000 C 
BRANCH  24  25
ATOM     25  C   UNL     1      10.560  18.200  68.483  1.00  0.00    -0.000 C 
BRANCH  25  26
ATOM     26  C   UNL     1      10.217  16.704  68.419  1.00  0.00    -0.000 C 
BRANCH  26  27
ATOM     27  C   UNL     1      10.878  15.997  67.226  1.00  0.00    -0.000 C 
BRANCH  27  28
ATOM     28  C   UNL     1      12.159  16.701  66.757  1.00  0.00    -0.000 C 
BRANCH  28  29
ATOM     29  C   UNL     1      13.311  15.699  66.606  1.00  0.00    -0.000 C 
BRANCH  29  30
ATOM     30  C   UNL     1      14.141  16.004  65.351  1.00  0.00    -0.000 C 
BRANCH  30  31
ATOM     31  C   UNL     1      15.423  15.159  65.270  1.00  0.00    -0.003 C 
ATOM     32  C   UNL     1      16.383  15.646  64.184  1.00  0.00     0.004 C 
ENDBRANCH  30  31
ENDBRANCH  29  30
ENDBRANCH  28  29
ENDBRANCH  27  28
ENDBRANCH  26  27
ENDBRANCH  25  26
ENDBRANCH  24  25
ENDBRANCH  23  24
ENDBRANCH  22  23
ENDBRANCH  21  22
ENDBRANCH  20  21
ENDBRANCH  19  20
ENDBRANCH  18  19
ENDBRANCH   1  18
TORSDOF 28
ENDMDL
MODEL 7
REMARK VINA RESULT:    -3.366      1.243      5.071
REMARK INTER + INTRA:         -13.609
REMARK INTER:                  -9.645
REMARK INTRA:                  -3.964
REMARK UNBOUND:                -4.732
REMARK SMILES CCCCCCCCCCCCCCCCCCCCCCCCCCCCCC(=O)[O-]
REMARK SMILES IDX 16 1 17 2 18 3 19 4 20 5 21 6 22 7 23 8 24 9 25 10 26 11
REMARK SMILES IDX 27 12 28 13 29 14 30 15 31 16 32 17 15 18 14 19 13 20 12 21
REMARK SMILES IDX 11 22 10 23 9 24 8 25 7 26 6 27 5 28 4 29 3 30 2 31 1 32
REMARK H PARENT
REMARK Flexibility Score: inf
ROOT
ATOM      1  C   UNL     1      10.846  12.447  68.172  1.00  0.00     0.000 C 
ENDROOT
BRANCH   1   2
ATOM      2  C   UNL     1      12.072  13.378  68.050  1.00  0.00     0.000 C 
BRANCH   2   3
ATOM      3  C   UNL     1      11.674  14.824  67.705  1.00  0.00     0.000 C 
BRANCH   3   4
ATOM      4  C   UNL     1      12.814  15.603  67.027  1.00  0.00     0.000 C 
BRANCH   4   5
ATOM      5  C   UNL     1      12.361  16.978  66.513  1.00  0.00     0.000 C 
BRANCH   5   6
ATOM      6  C   UNL     1      10.945  17.312  67.009  1.00  0.00     0.000 C 
BRANCH   6   7
ATOM      7  C   UNL     1      10.936  18.410  68.084  1.00  0.00     0.000 C 
BRANCH   7   8
ATOM      8  C   UNL     1      11.198  17.863  69.495  1.00  0.00     0.000 C 
BRANCH   8   9
ATOM      9  C   UNL     1      12.633  18.170  69.942  1.00  0.00     0.000 C 
BRANCH   9  10
ATOM     10  C   UNL     1      13.142  17.107  70.926  1.00  0.00     0.000 C 
BRANCH  10  11
ATOM     11  C   UNL     1      14.331  16.303  70.375  1.00  0.00     0.000 C 
BRANCH  11  12
ATOM     12  C   UNL     1      14.173  14.789  70.597  1.00  0.00     0.000 C 
BRANCH  12  13
ATOM     13  C   UNL     1      15.465  14.003  70.300  1.00  0.00     0.006 C 
BRANCH  13  14
ATOM     14  C   UNL     1      16.518  14.788  69.501  1.00  0.00     0.053 C 
BRANCH  14  15
ATOM     15  C   UNL     1      17.882  14.178  69.613  1.00  0.00     0.041 C 
ATOM     16  O   UNL     1      18.885  14.905  69.838  1.00  0.00    -0.550 OA
ATOM     17  O   UNL     1      18.038  12.800  69.510  1.00  0.00    -0.550 OA
ENDBRANCH  14  15
ENDBRANCH  13  14
ENDBRANCH  12  13
ENDBRANCH  11  12
ENDBRANCH  10  11
ENDBRANCH   9  10
ENDBRANCH   8   9
ENDBRANCH   7   8
ENDBRANCH   6   7
ENDBRANCH   5   6
ENDBRANCH   4   5
ENDBRANCH   3   4
ENDBRANCH   2   3
ENDBRANCH   1   2
BRANCH   1  18
ATOM     18  C   UNL     1      10.075  12.614  69.493  1.00  0.00     0.000 C 
BRANCH  18  19
ATOM     19  C   UNL     1      10.987  12.996  70.667  1.00  0.00     0.000 C 
BRANCH  19  20
ATOM     20  C   UNL     1      10.781  14.448  71.135  1.00  0.00     0.000 C 
BRANCH  20  21
ATOM     21  C   UNL     1      10.901  14.656  72.657  1.00  0.00     0.000 C 
BRANCH  21  22
ATOM     22  C   UNL     1      10.837  16.124  73.124  1.00  0.00     0.000 C 
BRANCH  22  23
ATOM     23  C   UNL     1       9.441  16.765  72.972  1.00  0.00     0.000 C 
BRANCH  23  24
ATOM     24  C   UNL     1       9.477  18.073  72.167  1.00  0.00    -0.000 C 
BRANCH  24  25
ATOM     25  C   UNL     1       8.062  18.517  71.778  1.00  0.00    -0.000 C 
BRANCH  25  26
ATOM     26  C   UNL     1       7.125  17.309  71.622  1.00  0.00    -0.000 C 
BRANCH  26  27
ATOM     27  C   UNL     1       5.779  17.509  72.337  1.00  0.00    -0.000 C 
BRANCH  27  28
ATOM     28  C   UNL     1       5.811  18.666  73.346  1.00  0.00    -0.000 C 
BRANCH  28  29
ATOM     29  C   UNL     1       6.401  18.206  74.687  1.00  0.00    -0.000 C 
BRANCH  29  30
ATOM     30  C   UNL     1       6.213  16.694  74.878  1.00  0.00    -0.000 C 
BRANCH  30  31
ATOM     31  C   UNL     1       7.188  16.103  75.907  1.00  0.00    -0.003 C 
ATOM     32  C   UNL     1       6.556  15.931  77.289  1.00  0.00     0.004 C 
ENDBRANCH  30  31
ENDBRANCH  29  30
ENDBRANCH  28  29
ENDBRANCH  27  28
ENDBRANCH  26  27
ENDBRANCH  25  26
ENDBRANCH  24  25
ENDBRANCH  23  24
ENDBRANCH  22  23
ENDBRANCH  21  22
ENDBRANCH  20  21
ENDBRANCH  19  20
ENDBRANCH  18  19
ENDBRANCH   1  18
TORSDOF 28
ENDMDL
MODEL 8
REMARK VINA RESULT:    -3.362      2.775      4.749
REMARK INTER + INTRA:         -13.597
REMARK INTER:                  -9.792
REMARK INTRA:                  -3.806
REMARK UNBOUND:                -4.732
REMARK SMILES CCCCCCCCCCCCCCCCCCCCCCCCCCCCCC(=O)[O-]
REMARK SMILES IDX 16 1 17 2 18 3 19 4 20 5 21 6 22 7 23 8 24 9 25 10 26 11
REMARK SMILES IDX 27 12 28 13 29 14 30 15 31 16 32 17 15 18 14 19 13 20 12 21
REMARK SMILES IDX 11 22 10 23 9 24 8 25 7 26 6 27 5 28 4 29 3 30 2 31 1 32
REMARK H PARENT
REMARK Flexibility Score: inf
ROOT
ATOM      1  C   UNL     1       7.870  17.559  71.284  1.00  0.00     0.000 C 
ENDROOT
BRANCH   1   2
ATOM      2  C   UNL     1       8.684  18.857  71.484  1.00  0.00     0.000 C 
BRANCH   2   3
ATOM      3  C   UNL     1       9.755  19.046  70.395  1.00  0.00     0.000 C 
BRANCH   3   4
ATOM      4  C   UNL     1      10.914  18.044  70.529  1.00  0.00     0.000 C 
BRANCH   4   5
ATOM      5  C   UNL     1      11.950  18.191  69.405  1.00  0.00     0.000 C 
BRANCH   5   6
ATOM      6  C   UNL     1      11.327  18.850  68.164  1.00  0.00     0.000 C 
BRANCH   6   7
ATOM      7  C   UNL     1      10.937  17.830  67.083  1.00  0.00     0.000 C 
BRANCH   7   8
ATOM      8  C   UNL     1      11.990  16.727  66.896  1.00  0.00     0.000 C 
BRANCH   8   9
ATOM      9  C   UNL     1      11.602  15.464  67.675  1.00  0.00     0.000 C 
BRANCH   9  10
ATOM     10  C   UNL     1      10.114  15.488  68.057  1.00  0.00     0.000 C 
BRANCH  10  11
ATOM     11  C   UNL     1       9.557  14.092  68.378  1.00  0.00     0.000 C 
BRANCH  11  12
ATOM     12  C   UNL     1      10.340  12.969  67.677  1.00  0.00     0.000 C 
BRANCH  12  13
ATOM     13  C   UNL     1      10.507  11.716  68.559  1.00  0.00     0.006 C 
BRANCH  13  14
ATOM     14  C   UNL     1       9.185  11.056  68.982  1.00  0.00     0.053 C 
BRANCH  14  15
ATOM     15  C   UNL     1       8.969   9.738  68.301  1.00  0.00     0.041 C 
ATOM     16  O   UNL     1       7.803   9.349  68.027  1.00  0.00    -0.550 OA
ATOM     17  O   UNL     1      10.060   8.958  67.934  1.00  0.00    -0.550 OA
ENDBRANCH  14  15
ENDBRANCH  13  14
ENDBRANCH  12  13
ENDBRANCH  11  12
ENDBRANCH  10  11
ENDBRANCH   9  10
ENDBRANCH   8   9
ENDBRANCH   7   8
ENDBRANCH   6   7
ENDBRANCH   5   6
ENDBRANCH   4   5
ENDBRANCH   3   4
ENDBRANCH   2   3
ENDBRANCH   1   2
BRANCH   1  18
ATOM     18  C   UNL     1       6.474  17.602  71.934  1.00  0.00     0.000 C 
BRANCH  18  19
ATOM     19  C   UNL     1       6.178  18.946  72.613  1.00  0.00     0.000 C 
BRANCH  19  20
ATOM     20  C   UNL     1       6.175  18.850  74.149  1.00  0.00     0.000 C 
BRANCH  20  21
ATOM     21  C   UNL     1       7.407  18.148  74.752  1.00  0.00     0.000 C 
BRANCH  21  22
ATOM     22  C   UNL     1       7.134  16.759  75.364  1.00  0.00     0.000 C 
BRANCH  22  23
ATOM     23  C   UNL     1       8.242  15.724  75.075  1.00  0.00     0.000 C 
BRANCH  23  24
ATOM     24  C   UNL     1       9.164  16.153  73.923  1.00  0.00    -0.000 C 
BRANCH  24  25
ATOM     25  C   UNL     1      10.431  15.289  73.885  1.00  0.00    -0.000 C 
BRANCH  25  26
ATOM     26  C   UNL     1      11.026  15.240  72.469  1.00  0.00    -0.000 C 
BRANCH  26  27
ATOM     27  C   UNL     1      10.908  13.849  71.827  1.00  0.00    -0.000 C 
BRANCH  27  28
ATOM     28  C   UNL     1      12.065  13.540  70.867  1.00  0.00    -0.000 C 
BRANCH  28  29
ATOM     29  C   UNL     1      13.155  14.616  70.958  1.00  0.00    -0.000 C 
BRANCH  29  30
ATOM     30  C   UNL     1      14.129  14.509  69.775  1.00  0.00    -0.000 C 
BRANCH  30  31
ATOM     31  C   UNL     1      15.369  15.402  69.949  1.00  0.00    -0.003 C 
ATOM     32  C   UNL     1      16.677  14.613  69.884  1.00  0.00     0.004 C 
ENDBRANCH  30  31
ENDBRANCH  29  30
ENDBRANCH  28  29
ENDBRANCH  27  28
ENDBRANCH  26  27
ENDBRANCH  25  26
ENDBRANCH  24  25
ENDBRANCH  23  24
ENDBRANCH  22  23
ENDBRANCH  21  22
ENDBRANCH  20  21
ENDBRANCH  19  20
ENDBRANCH  18  19
ENDBRANCH   1  18
TORSDOF 28
ENDMDL
MODEL 9
REMARK VINA RESULT:    -3.329      3.500      7.929
REMARK INTER + INTRA:         -13.512
REMARK INTER:                 -10.451
REMARK INTRA:                  -3.061
REMARK UNBOUND:                -4.732
REMARK SMILES CCCCCCCCCCCCCCCCCCCCCCCCCCCCCC(=O)[O-]
REMARK SMILES IDX 16 1 17 2 18 3 19 4 20 5 21 6 22 7 23 8 24 9 25 10 26 11
REMARK SMILES IDX 27 12 28 13 29 14 30 15 31 16 32 17 15 18 14 19 13 20 12 21
REMARK SMILES IDX 11 22 10 23 9 24 8 25 7 26 6 27 5 28 4 29 3 30 2 31 1 32
REMARK H PARENT
REMARK Flexibility Score: inf
ROOT
ATOM      1  C   UNL     1      12.039  12.653  68.941  1.00  0.00     0.000 C 
ENDROOT
BRANCH   1   2
ATOM      2  C   UNL     1      12.565  13.121  70.316  1.00  0.00     0.000 C 
BRANCH   2   3
ATOM      3  C   UNL     1      11.426  13.395  71.314  1.00  0.00     0.000 C 
BRANCH   3   4
ATOM      4  C   UNL     1      11.730  14.584  72.242  1.00  0.00     0.000 C 
BRANCH   4   5
ATOM      5  C   UNL     1      10.559  14.908  73.182  1.00  0.00     0.000 C 
BRANCH   5   6
ATOM      6  C   UNL     1      10.181  16.395  73.099  1.00  0.00     0.000 C 
BRANCH   6   7
ATOM      7  C   UNL     1      10.711  17.073  71.825  1.00  0.00     0.000 C 
BRANCH   7   8
ATOM      8  C   UNL     1       9.591  17.664  70.956  1.00  0.00     0.000 C 
BRANCH   8   9
ATOM      9  C   UNL     1       8.515  18.325  71.826  1.00  0.00     0.000 C 
BRANCH   9  10
ATOM     10  C   UNL     1       7.158  17.629  71.644  1.00  0.00     0.000 C 
BRANCH  10  11
ATOM     11  C   UNL     1       6.037  18.282  72.470  1.00  0.00     0.000 C 
BRANCH  11  12
ATOM     12  C   UNL     1       6.578  19.124  73.637  1.00  0.00     0.000 C 
BRANCH  12  13
ATOM     13  C   UNL     1       7.071  18.265  74.817  1.00  0.00     0.006 C 
BRANCH  13  14
ATOM     14  C   UNL     1       6.164  17.071  75.156  1.00  0.00     0.053 C 
BRANCH  14  15
ATOM     15  C   UNL     1       6.867  16.049  75.998  1.00  0.00     0.041 C 
ATOM     16  O   UNL     1       7.876  15.444  75.549  1.00  0.00    -0.550 OA
ATOM     17  O   UNL     1       6.431  15.796  77.293  1.00  0.00    -0.550 OA
ENDBRANCH  14  15
ENDBRANCH  13  14
ENDBRANCH  12  13
ENDBRANCH  11  12
ENDBRANCH  10  11
ENDBRANCH   9  10
ENDBRANCH   8   9
ENDBRANCH   7   8
ENDBRANCH   6   7
ENDBRANCH   5   6
ENDBRANCH   4   5
ENDBRANCH   3   4
ENDBRANCH   2   3
ENDBRANCH   1   2
BRANCH   1  18
ATOM     18  C   UNL     1      10.539  12.307  68.942  1.00  0.00     0.000 C 
BRANCH  18  19
ATOM     19  C   UNL     1       9.693  13.331  68.174  1.00  0.00     0.000 C 
BRANCH  19  20
ATOM     20  C   UNL     1       9.095  14.416  69.087  1.00  0.00     0.000 C 
BRANCH  20  21
ATOM     21  C   UNL     1       8.702  15.720  68.364  1.00  0.00     0.000 C 
BRANCH  21  22
ATOM     22  C   UNL     1       9.853  16.724  68.155  1.00  0.00     0.000 C 
BRANCH  22  23
ATOM     23  C   UNL     1      10.611  16.533  66.825  1.00  0.00     0.000 C 
BRANCH  23  24
ATOM     24  C   UNL     1      12.042  17.092  66.876  1.00  0.00    -0.000 C 
BRANCH  24  25
ATOM     25  C   UNL     1      13.072  15.990  66.598  1.00  0.00    -0.000 C 
BRANCH  25  26
ATOM     26  C   UNL     1      13.588  15.372  67.907  1.00  0.00    -0.000 C 
BRANCH  26  27
ATOM     27  C   UNL     1      13.168  16.177  69.146  1.00  0.00    -0.000 C 
BRANCH  27  28
ATOM     28  C   UNL     1      14.177  16.061  70.297  1.00  0.00    -0.000 C 
BRANCH  28  29
ATOM     29  C   UNL     1      15.560  15.651  69.774  1.00  0.00    -0.000 C 
BRANCH  29  30
ATOM     30  C   UNL     1      16.002  14.313  70.386  1.00  0.00    -0.000 C 
BRANCH  30  31
ATOM     31  C   UNL     1      17.234  13.721  69.684  1.00  0.00    -0.003 C 
ATOM     32  C   UNL     1      18.422  14.683  69.666  1.00  0.00     0.004 C 
ENDBRANCH  30  31
ENDBRANCH  29  30
ENDBRANCH  28  29
ENDBRANCH  27  28
ENDBRANCH  26  27
ENDBRANCH  25  26
ENDBRANCH  24  25
ENDBRANCH  23  24
ENDBRANCH  22  23
ENDBRANCH  21  22
ENDBRANCH  20  21
ENDBRANCH  19  20
ENDBRANCH  18  19
ENDBRANCH   1  18
TORSDOF 28
ENDMDL
