MODEL 1
REMARK VINA RESULT:    -4.262      0.000      0.000
REMARK INTER + INTRA:          -5.293
REMARK INTER:                  -5.009
REMARK INTRA:                  -0.284
REMARK UNBOUND:                -0.284
REMARK SMILES O=C([O-])C=Cc1ccc(O)c(O)c1
REMARK SMILES IDX 6 1 13 2 7 3 11 4 8 5 9 6 5 7 4 8 2 9 1 10 3 11 12 12 10 14
REMARK H PARENT 12 13 10 15
REMARK Flexibility Score: inf
ROOT
ATOM      1  C   UNL     1      30.009  -5.804 -31.385  1.00  0.00    -0.022 A 
ATOM      2  C   UNL     1      29.912  -7.065 -31.991  1.00  0.00     0.058 A 
ATOM      3  C   UNL     1      28.986  -5.375 -30.522  1.00  0.00     0.012 A 
ATOM      4  C   UNL     1      28.833  -7.913 -31.700  1.00  0.00     0.157 A 
ATOM      5  C   UNL     1      27.911  -6.219 -30.231  1.00  0.00     0.051 A 
ATOM      6  C   UNL     1      27.833  -7.490 -30.814  1.00  0.00     0.157 A 
ENDROOT
BRANCH   1   7
ATOM      7  C   UNL     1      31.127  -4.910 -31.750  1.00  0.00     0.010 C 
ATOM      8  C   UNL     1      32.311  -4.851 -31.121  1.00  0.00     0.025 C 
BRANCH   8   9
ATOM      9  C   UNL     1      32.778  -5.791 -30.084  1.00  0.00     0.064 C 
ATOM     10  O   UNL     1      33.466  -6.788 -30.423  1.00  0.00    -0.545 OA
ATOM     11  O   UNL     1      32.415  -5.640 -28.752  1.00  0.00    -0.545 OA
ENDBRANCH   8   9
ENDBRANCH   1   7
BRANCH   4  12
ATOM     12  O   UNL     1      28.747  -9.173 -32.287  1.00  0.00    -0.504 OA
ATOM     13  H   UNL     1      29.127  -9.997 -31.835  1.00  0.00     0.293 HD
ENDBRANCH   4  12
BRANCH   6  14
ATOM     14  O   UNL     1      26.764  -8.336 -30.525  1.00  0.00    -0.504 OA
ATOM     15  H   UNL     1      26.453  -9.041 -31.184  1.00  0.00     0.293 HD
ENDBRANCH   6  14
TORSDOF 4
ENDMDL
MODEL 2
REMARK VINA RESULT:    -4.107      1.326      1.588
REMARK INTER + INTRA:          -5.110
REMARK INTER:                  -4.815
REMARK INTRA:                  -0.296
REMARK UNBOUND:                -0.284
REMARK SMILES O=C([O-])C=Cc1ccc(O)c(O)c1
REMARK SMILES IDX 6 1 13 2 7 3 11 4 8 5 9 6 5 7 4 8 2 9 1 10 3 11 12 12 10 14
REMARK H PARENT 12 13 10 15
REMARK Flexibility Score: inf
ROOT
ATOM      1  C   UNL     1      31.099  -6.659 -30.988  1.00  0.00    -0.022 A 
ATOM      2  C   UNL     1      30.672  -7.851 -31.590  1.00  0.00     0.058 A 
ATOM      3  C   UNL     1      30.143  -5.714 -30.578  1.00  0.00     0.012 A 
ATOM      4  C   UNL     1      29.303  -8.124 -31.735  1.00  0.00     0.157 A 
ATOM      5  C   UNL     1      28.780  -5.985 -30.721  1.00  0.00     0.051 A 
ATOM      6  C   UNL     1      28.356  -7.190 -31.295  1.00  0.00     0.157 A 
ENDROOT
BRANCH   1   7
ATOM      7  C   UNL     1      32.545  -6.372 -30.897  1.00  0.00     0.010 C 
ATOM      8  C   UNL     1      33.309  -6.569 -29.811  1.00  0.00     0.025 C 
BRANCH   8   9
ATOM      9  C   UNL     1      32.890  -7.280 -28.587  1.00  0.00     0.064 C 
ATOM     10  O   UNL     1      33.110  -8.515 -28.487  1.00  0.00    -0.545 OA
ATOM     11  O   UNL     1      32.196  -6.631 -27.574  1.00  0.00    -0.545 OA
ENDBRANCH   8   9
ENDBRANCH   1   7
BRANCH   4  12
ATOM     12  O   UNL     1      28.880  -9.317 -32.315  1.00  0.00    -0.504 OA
ATOM     13  H   UNL     1      28.135  -9.871 -31.907  1.00  0.00     0.293 HD
ENDBRANCH   4  12
BRANCH   6  14
ATOM     14  O   UNL     1      26.997  -7.466 -31.437  1.00  0.00    -0.504 OA
ATOM     15  H   UNL     1      26.635  -7.930 -32.262  1.00  0.00     0.293 HD
ENDBRANCH   6  14
TORSDOF 4
ENDMDL
MODEL 3
REMARK VINA RESULT:    -4.106      2.196      2.570
REMARK INTER + INTRA:          -5.109
REMARK INTER:                  -4.866
REMARK INTRA:                  -0.244
REMARK UNBOUND:                -0.284
REMARK SMILES O=C([O-])C=Cc1ccc(O)c(O)c1
REMARK SMILES IDX 6 1 13 2 7 3 11 4 8 5 9 6 5 7 4 8 2 9 1 10 3 11 12 12 10 14
REMARK H PARENT 12 13 10 15
REMARK Flexibility Score: inf
ROOT
ATOM      1  C   UNL     1      31.042  -7.978 -30.995  1.00  0.00    -0.022 A 
ATOM      2  C   UNL     1      29.810  -7.866 -31.656  1.00  0.00     0.058 A 
ATOM      3  C   UNL     1      31.078  -7.920 -29.591  1.00  0.00     0.012 A 
ATOM      4  C   UNL     1      28.620  -7.747 -30.924  1.00  0.00     0.157 A 
ATOM      5  C   UNL     1      29.892  -7.802 -28.862  1.00  0.00     0.051 A 
ATOM      6  C   UNL     1      28.661  -7.720 -29.525  1.00  0.00     0.157 A 
ENDROOT
BRANCH   1   7
ATOM      7  C   UNL     1      32.286  -8.048 -31.789  1.00  0.00     0.010 C 
ATOM      8  C   UNL     1      32.864  -7.015 -32.420  1.00  0.00     0.025 C 
BRANCH   8   9
ATOM      9  C   UNL     1      32.473  -5.599 -32.280  1.00  0.00     0.064 C 
ATOM     10  O   UNL     1      33.005  -4.901 -31.378  1.00  0.00    -0.545 OA
ATOM     11  O   UNL     1      31.480  -5.039 -33.073  1.00  0.00    -0.545 OA
ENDBRANCH   8   9
ENDBRANCH   1   7
BRANCH   4  12
ATOM     12  O   UNL     1      27.395  -7.654 -31.581  1.00  0.00    -0.504 OA
ATOM     13  H   UNL     1      26.685  -6.990 -31.292  1.00  0.00     0.293 HD
ENDBRANCH   4  12
BRANCH   6  14
ATOM     14  O   UNL     1      27.475  -7.605 -28.801  1.00  0.00    -0.504 OA
ATOM     15  H   UNL     1      26.570  -7.729 -29.243  1.00  0.00     0.293 HD
ENDBRANCH   6  14
TORSDOF 4
ENDMDL
MODEL 4
REMARK VINA RESULT:    -3.956      1.956      3.168
REMARK INTER + INTRA:          -4.934
REMARK INTER:                  -4.653
REMARK INTRA:                  -0.281
REMARK UNBOUND:                -0.284
REMARK SMILES O=C([O-])C=Cc1ccc(O)c(O)c1
REMARK SMILES IDX 6 1 13 2 7 3 11 4 8 5 9 6 5 7 4 8 2 9 1 10 3 11 12 12 10 14
REMARK H PARENT 12 13 10 15
REMARK Flexibility Score: inf
ROOT
ATOM      1  C   UNL     1      28.467  -5.333 -30.040  1.00  0.00    -0.022 A 
ATOM      2  C   UNL     1      27.518  -6.343 -29.832  1.00  0.00     0.058 A 
ATOM      3  C   UNL     1      29.536  -5.563 -30.924  1.00  0.00     0.012 A 
ATOM      4  C   UNL     1      27.603  -7.554 -30.536  1.00  0.00     0.157 A 
ATOM      5  C   UNL     1      29.621  -6.768 -31.626  1.00  0.00     0.051 A 
ATOM      6  C   UNL     1      28.654  -7.764 -31.438  1.00  0.00     0.157 A 
ENDROOT
BRANCH   1   7
ATOM      7  C   UNL     1      28.385  -4.089 -29.248  1.00  0.00     0.010 C 
ATOM      8  C   UNL     1      28.864  -3.926 -28.005  1.00  0.00     0.025 C 
BRANCH   8   9
ATOM      9  C   UNL     1      29.720  -4.890 -27.285  1.00  0.00     0.064 C 
ATOM     10  O   UNL     1      30.971  -4.770 -27.350  1.00  0.00    -0.545 OA
ATOM     11  O   UNL     1      29.178  -5.966 -26.594  1.00  0.00    -0.545 OA
ENDBRANCH   8   9
ENDBRANCH   1   7
BRANCH   4  12
ATOM     12  O   UNL     1      26.648  -8.550 -30.343  1.00  0.00    -0.504 OA
ATOM     13  H   UNL     1      26.302  -8.782 -29.419  1.00  0.00     0.293 HD
ENDBRANCH   4  12
BRANCH   6  14
ATOM     14  O   UNL     1      28.733  -8.967 -32.138  1.00  0.00    -0.504 OA
ATOM     15  H   UNL     1      28.848  -9.853 -31.658  1.00  0.00     0.293 HD
ENDBRANCH   6  14
TORSDOF 4
ENDMDL
MODEL 5
REMARK VINA RESULT:    -3.905      2.080      2.771
REMARK INTER + INTRA:          -4.874
REMARK INTER:                  -4.582
REMARK INTRA:                  -0.292
REMARK UNBOUND:                -0.284
REMARK SMILES O=C([O-])C=Cc1ccc(O)c(O)c1
REMARK SMILES IDX 6 1 13 2 7 3 11 4 8 5 9 6 5 7 4 8 2 9 1 10 3 11 12 12 10 14
REMARK H PARENT 12 13 10 15
REMARK Flexibility Score: inf
ROOT
ATOM      1  C   UNL     1      30.568  -7.889 -31.090  1.00  0.00    -0.022 A 
ATOM      2  C   UNL     1      30.308  -7.728 -29.722  1.00  0.00     0.058 A 
ATOM      3  C   UNL     1      29.493  -7.925 -31.995  1.00  0.00     0.012 A 
ATOM      4  C   UNL     1      28.994  -7.553 -29.263  1.00  0.00     0.157 A 
ATOM      5  C   UNL     1      28.184  -7.750 -31.539  1.00  0.00     0.051 A 
ATOM      6  C   UNL     1      27.931  -7.559 -30.175  1.00  0.00     0.157 A 
ENDROOT
BRANCH   1   7
ATOM      7  C   UNL     1      31.954  -8.125 -31.541  1.00  0.00     0.010 C 
ATOM      8  C   UNL     1      32.769  -7.198 -32.068  1.00  0.00     0.025 C 
BRANCH   8   9
ATOM      9  C   UNL     1      32.498  -5.748 -32.114  1.00  0.00     0.064 C 
ATOM     10  O   UNL     1      32.919  -5.013 -31.183  1.00  0.00    -0.545 OA
ATOM     11  O   UNL     1      31.729  -5.186 -33.125  1.00  0.00    -0.545 OA
ENDBRANCH   8   9
ENDBRANCH   1   7
BRANCH   4  12
ATOM     12  O   UNL     1      28.739  -7.373 -27.905  1.00  0.00    -0.504 OA
ATOM     13  H   UNL     1      28.051  -7.934 -27.416  1.00  0.00     0.293 HD
ENDBRANCH   4  12
BRANCH   6  14
ATOM     14  O   UNL     1      26.626  -7.381 -29.716  1.00  0.00    -0.504 OA
ATOM     15  H   UNL     1      25.829  -7.715 -30.245  1.00  0.00     0.293 HD
ENDBRANCH   6  14
TORSDOF 4
ENDMDL
MODEL 6
REMARK VINA RESULT:    -3.893      0.862      2.120
REMARK INTER + INTRA:          -4.859
REMARK INTER:                  -4.593
REMARK INTRA:                  -0.266
REMARK UNBOUND:                -0.284
REMARK SMILES O=C([O-])C=Cc1ccc(O)c(O)c1
REMARK SMILES IDX 6 1 13 2 7 3 11 4 8 5 9 6 5 7 4 8 2 9 1 10 3 11 12 12 10 14
REMARK H PARENT 12 13 10 15
REMARK Flexibility Score: inf
ROOT
ATOM      1  C   UNL     1      29.789  -5.888 -31.383  1.00  0.00    -0.022 A 
ATOM      2  C   UNL     1      28.765  -5.450 -30.532  1.00  0.00     0.058 A 
ATOM      3  C   UNL     1      29.773  -7.213 -31.853  1.00  0.00     0.012 A 
ATOM      4  C   UNL     1      27.707  -6.306 -30.193  1.00  0.00     0.157 A 
ATOM      5  C   UNL     1      28.719  -8.066 -31.517  1.00  0.00     0.051 A 
ATOM      6  C   UNL     1      27.682  -7.615 -30.690  1.00  0.00     0.157 A 
ENDROOT
BRANCH   1   7
ATOM      7  C   UNL     1      30.919  -4.985 -31.681  1.00  0.00     0.010 C 
ATOM      8  C   UNL     1      32.057  -4.904 -30.974  1.00  0.00     0.025 C 
BRANCH   8   9
ATOM      9  C   UNL     1      32.463  -5.827 -29.897  1.00  0.00     0.064 C 
ATOM     10  O   UNL     1      32.171  -5.548 -28.705  1.00  0.00    -0.545 OA
ATOM     11  O   UNL     1      33.220  -6.961 -30.160  1.00  0.00    -0.545 OA
ENDBRANCH   8   9
ENDBRANCH   1   7
BRANCH   4  12
ATOM     12  O   UNL     1      26.679  -5.863 -29.362  1.00  0.00    -0.504 OA
ATOM     13  H   UNL     1      26.372  -6.405 -28.562  1.00  0.00     0.293 HD
ENDBRANCH   4  12
BRANCH   6  14
ATOM     14  O   UNL     1      26.626  -8.462 -30.354  1.00  0.00    -0.504 OA
ATOM     15  H   UNL     1      25.689  -8.304 -30.706  1.00  0.00     0.293 HD
ENDBRANCH   6  14
TORSDOF 4
ENDMDL
MODEL 7
REMARK VINA RESULT:    -3.892      1.866      2.644
REMARK INTER + INTRA:          -4.858
REMARK INTER:                  -4.819
REMARK INTRA:                  -0.039
REMARK UNBOUND:                -0.284
REMARK SMILES O=C([O-])C=Cc1ccc(O)c(O)c1
REMARK SMILES IDX 6 1 13 2 7 3 11 4 8 5 9 6 5 7 4 8 2 9 1 10 3 11 12 12 10 14
REMARK H PARENT 12 13 10 15
REMARK Flexibility Score: inf
ROOT
ATOM      1  C   UNL     1      30.209  -5.737 -30.592  1.00  0.00    -0.022 A 
ATOM      2  C   UNL     1      28.836  -5.981 -30.748  1.00  0.00     0.058 A 
ATOM      3  C   UNL     1      31.131  -6.726 -30.976  1.00  0.00     0.012 A 
ATOM      4  C   UNL     1      28.388  -7.177 -31.328  1.00  0.00     0.157 A 
ATOM      5  C   UNL     1      30.685  -7.917 -31.555  1.00  0.00     0.051 A 
ATOM      6  C   UNL     1      29.315  -8.144 -31.736  1.00  0.00     0.157 A 
ENDROOT
BRANCH   1   7
ATOM      7  C   UNL     1      30.653  -4.494 -29.930  1.00  0.00     0.010 C 
ATOM      8  C   UNL     1      31.590  -3.656 -30.398  1.00  0.00     0.025 C 
BRANCH   8   9
ATOM      9  C   UNL     1      32.204  -3.721 -31.739  1.00  0.00     0.064 C 
ATOM     10  O   UNL     1      31.561  -3.292 -32.732  1.00  0.00    -0.545 OA
ATOM     11  O   UNL     1      33.445  -4.311 -31.939  1.00  0.00    -0.545 OA
ENDBRANCH   8   9
ENDBRANCH   1   7
BRANCH   4  12
ATOM     12  O   UNL     1      27.025  -7.410 -31.499  1.00  0.00    -0.504 OA
ATOM     13  H   UNL     1      26.683  -8.254 -31.945  1.00  0.00     0.293 HD
ENDBRANCH   4  12
BRANCH   6  14
ATOM     14  O   UNL     1      28.866  -9.330 -32.315  1.00  0.00    -0.504 OA
ATOM     15  H   UNL     1      29.163  -9.612 -33.243  1.00  0.00     0.293 HD
ENDBRANCH   6  14
TORSDOF 4
ENDMDL
MODEL 8
REMARK VINA RESULT:    -3.881      1.580      2.163
REMARK INTER + INTRA:          -4.846
REMARK INTER:                  -4.615
REMARK INTRA:                  -0.230
REMARK UNBOUND:                -0.284
REMARK SMILES O=C([O-])C=Cc1ccc(O)c(O)c1
REMARK SMILES IDX 6 1 13 2 7 3 11 4 8 5 9 6 5 7 4 8 2 9 1 10 3 11 12 12 10 14
REMARK H PARENT 12 13 10 15
REMARK Flexibility Score: inf
ROOT
ATOM      1  C   UNL     1      30.188  -7.002 -31.288  1.00  0.00    -0.022 A 
ATOM      2  C   UNL     1      29.110  -7.890 -31.156  1.00  0.00     0.058 A 
ATOM      3  C   UNL     1      30.053  -5.682 -30.826  1.00  0.00     0.012 A 
ATOM      4  C   UNL     1      27.927  -7.482 -30.523  1.00  0.00     0.157 A 
ATOM      5  C   UNL     1      28.874  -5.275 -30.194  1.00  0.00     0.051 A 
ATOM      6  C   UNL     1      27.811  -6.174 -30.037  1.00  0.00     0.157 A 
ENDROOT
BRANCH   1   7
ATOM      7  C   UNL     1      31.402  -7.440 -32.007  1.00  0.00     0.010 C 
ATOM      8  C   UNL     1      32.555  -7.812 -31.429  1.00  0.00     0.025 C 
BRANCH   8   9
ATOM      9  C   UNL     1      32.755  -8.034 -29.984  1.00  0.00     0.064 C 
ATOM     10  O   UNL     1      33.628  -7.364 -29.374  1.00  0.00    -0.545 OA
ATOM     11  O   UNL     1      32.053  -9.016 -29.297  1.00  0.00    -0.545 OA
ENDBRANCH   8   9
ENDBRANCH   1   7
BRANCH   4  12
ATOM     12  O   UNL     1      26.864  -8.371 -30.375  1.00  0.00    -0.504 OA
ATOM     13  H   UNL     1      26.953  -9.220 -29.828  1.00  0.00     0.293 HD
ENDBRANCH   4  12
BRANCH   6  14
ATOM     14  O   UNL     1      26.635  -5.773 -29.405  1.00  0.00    -0.504 OA
ATOM     15  H   UNL     1      26.614  -4.973 -28.783  1.00  0.00     0.293 HD
ENDBRANCH   6  14
TORSDOF 4
ENDMDL
MODEL 9
REMARK VINA RESULT:    -3.860     17.433     18.930
REMARK INTER + INTRA:          -4.821
REMARK INTER:                  -4.550
REMARK INTRA:                  -0.270
REMARK UNBOUND:                -0.284
REMARK SMILES O=C([O-])C=Cc1ccc(O)c(O)c1
REMARK SMILES IDX 6 1 13 2 7 3 11 4 8 5 9 6 5 7 4 8 2 9 1 10 3 11 12 12 10 14
REMARK H PARENT 12 13 10 15
REMARK Flexibility Score: inf
ROOT
ATOM      1  C   UNL     1      23.760   7.519 -20.602  1.00  0.00    -0.022 A 
ATOM      2  C   UNL     1      22.706   7.368 -19.689  1.00  0.00     0.058 A 
ATOM      3  C   UNL     1      24.922   8.203 -20.204  1.00  0.00     0.012 A 
ATOM      4  C   UNL     1      22.829   7.848 -18.377  1.00  0.00     0.157 A 
ATOM      5  C   UNL     1      25.045   8.681 -18.897  1.00  0.00     0.051 A 
ATOM      6  C   UNL     1      24.002   8.501 -17.979  1.00  0.00     0.157 A 
ENDROOT
BRANCH   1   7
ATOM      7  C   UNL     1      23.586   7.053 -21.992  1.00  0.00     0.010 C 
ATOM      8  C   UNL     1      23.968   5.856 -22.464  1.00  0.00     0.025 C 
BRANCH   8   9
ATOM      9  C   UNL     1      24.452   4.728 -21.645  1.00  0.00     0.064 C 
ATOM     10  O   UNL     1      25.648   4.355 -21.759  1.00  0.00    -0.545 OA
ATOM     11  O   UNL     1      23.600   4.024 -20.805  1.00  0.00    -0.545 OA
ENDBRANCH   8   9
ENDBRANCH   1   7
BRANCH   4  12
ATOM     12  O   UNL     1      21.788   7.681 -17.465  1.00  0.00    -0.504 OA
ATOM     13  H   UNL     1      21.843   6.999 -16.716  1.00  0.00     0.293 HD
ENDBRANCH   4  12
BRANCH   6  14
ATOM     14  O   UNL     1      24.121   8.974 -16.673  1.00  0.00    -0.504 OA
ATOM     15  H   UNL     1      24.507   9.890 -16.474  1.00  0.00     0.293 HD
ENDBRANCH   6  14
TORSDOF 4
ENDMDL
