MODEL 1
REMARK VINA RESULT:    -0.055      0.000      0.000
REMARK INTER + INTRA:          -0.365
REMARK INTER:                  -0.065
REMARK INTRA:                  -0.300
REMARK UNBOUND:                -0.300
REMARK SMILES O=c1c(O)c(-c2ccc(O)cc2)oc2cc(O)cc(O)c12
REMARK SMILES IDX 5 1 3 2 2 3 1 4 21 5 19 6 18 7 16 8 15 9 14 10 13 11 6 12
REMARK SMILES IDX 7 13 8 14 9 15 12 16 11 17 10 18 4 20 20 22 17 24
REMARK H PARENT 10 19 4 21 20 23 17 25
REMARK Flexibility Score: inf
ROOT
ATOM      1  C   UNL     1     189.464 196.654 188.741  1.00  0.00     0.180 A 
ATOM      2  C   UNL     1     189.169 197.957 188.303  1.00  0.00     0.208 A 
ATOM      3  C   UNL     1     188.699 198.145 186.994  1.00  0.00     0.238 A 
ATOM      4  O   UNL     1     188.384 199.307 186.626  1.00  0.00    -0.285 OA
ATOM      5  C   UNL     1     188.546 197.031 186.133  1.00  0.00     0.111 A 
ATOM      6  C   UNL     1     188.116 197.111 184.774  1.00  0.00     0.134 A 
ATOM      7  C   UNL     1     187.875 195.932 184.057  1.00  0.00     0.093 A 
ATOM      8  C   UNL     1     188.111 194.682 184.626  1.00  0.00     0.123 A 
ATOM      9  C   UNL     1     188.588 194.594 185.934  1.00  0.00     0.094 A 
ATOM     10  C   UNL     1     188.803 195.751 186.687  1.00  0.00     0.146 A 
ATOM     11  O   UNL     1     189.248 195.624 187.932  1.00  0.00    -0.452 OA
ENDROOT
BRANCH   1  12
ATOM     12  C   UNL     1     189.988 196.378 190.098  1.00  0.00     0.021 A 
ATOM     13  C   UNL     1     189.094 196.045 191.130  1.00  0.00     0.016 A 
ATOM     14  C   UNL     1     189.569 195.759 192.414  1.00  0.00     0.047 A 
ATOM     15  C   UNL     1     190.944 195.788 192.678  1.00  0.00     0.115 A 
ATOM     16  C   UNL     1     191.369 196.386 190.367  1.00  0.00     0.016 A 
ATOM     17  C   UNL     1     191.841 196.099 191.652  1.00  0.00     0.047 A 
BRANCH  15  18
ATOM     18  O   UNL     1     191.428 195.505 193.953  1.00  0.00    -0.508 OA
ATOM     19  H   UNL     1     191.481 194.555 194.300  1.00  0.00     0.293 HD
ENDBRANCH  15  18
ENDBRANCH   1  12
BRANCH   2  20
ATOM     20  O   UNL     1     189.306 199.040 189.176  1.00  0.00    -0.502 OA
ATOM     21  H   UNL     1     188.784 199.111 190.041  1.00  0.00     0.293 HD
ENDBRANCH   2  20
BRANCH   6  22
ATOM     22  O   UNL     1     187.938 198.311 184.080  1.00  0.00    -0.507 OA
ATOM     23  H   UNL     1     188.443 198.573 183.247  1.00  0.00     0.293 HD
ENDBRANCH   6  22
BRANCH   8  24
ATOM     24  O   UNL     1     187.875 193.530 183.877  1.00  0.00    -0.508 OA
ATOM     25  H   UNL     1     188.335 193.373 182.988  1.00  0.00     0.293 HD
ENDBRANCH   8  24
TORSDOF 5
ENDMDL
MODEL 2
REMARK VINA RESULT:    -0.047      2.584      3.119
REMARK INTER + INTRA:          -0.355
REMARK INTER:                  -0.066
REMARK INTRA:                  -0.289
REMARK UNBOUND:                -0.300
REMARK SMILES O=c1c(O)c(-c2ccc(O)cc2)oc2cc(O)cc(O)c12
REMARK SMILES IDX 5 1 3 2 2 3 1 4 21 5 19 6 18 7 16 8 15 9 14 10 13 11 6 12
REMARK SMILES IDX 7 13 8 14 9 15 12 16 11 17 10 18 4 20 20 22 17 24
REMARK H PARENT 10 19 4 21 20 23 17 25
REMARK Flexibility Score: inf
ROOT
ATOM      1  C   UNL     1     191.038 194.442 187.869  1.00  0.00     0.180 A 
ATOM      2  C   UNL     1     190.580 195.771 187.884  1.00  0.00     0.208 A 
ATOM      3  C   UNL     1     189.669 196.188 186.900  1.00  0.00     0.238 A 
ATOM      4  O   UNL     1     189.221 197.363 186.951  1.00  0.00    -0.285 OA
ATOM      5  C   UNL     1     189.241 195.277 185.905  1.00  0.00     0.111 A 
ATOM      6  C   UNL     1     188.351 195.603 184.837  1.00  0.00     0.134 A 
ATOM      7  C   UNL     1     187.893 194.589 183.987  1.00  0.00     0.093 A 
ATOM      8  C   UNL     1     188.341 193.276 184.125  1.00  0.00     0.123 A 
ATOM      9  C   UNL     1     189.256 192.958 185.129  1.00  0.00     0.094 A 
ATOM     10  C   UNL     1     189.704 193.940 186.015  1.00  0.00     0.146 A 
ATOM     11  O   UNL     1     190.567 193.594 186.963  1.00  0.00    -0.452 OA
ENDROOT
BRANCH   1  12
ATOM     12  C   UNL     1     192.017 193.934 188.858  1.00  0.00     0.021 A 
ATOM     13  C   UNL     1     193.392 194.062 188.598  1.00  0.00     0.016 A 
ATOM     14  C   UNL     1     194.334 193.610 189.528  1.00  0.00     0.047 A 
ATOM     15  C   UNL     1     193.913 193.038 190.734  1.00  0.00     0.115 A 
ATOM     16  C   UNL     1     191.602 193.376 190.081  1.00  0.00     0.016 A 
ATOM     17  C   UNL     1     192.546 192.925 191.009  1.00  0.00     0.047 A 
BRANCH  15  18
ATOM     18  O   UNL     1     194.841 192.584 191.668  1.00  0.00    -0.508 OA
ATOM     19  H   UNL     1     194.835 192.915 192.625  1.00  0.00     0.293 HD
ENDBRANCH  15  18
ENDBRANCH   1  12
BRANCH   2  20
ATOM     20  O   UNL     1     190.999 196.648 188.888  1.00  0.00    -0.502 OA
ATOM     21  H   UNL     1     191.494 196.333 189.714  1.00  0.00     0.293 HD
ENDBRANCH   2  20
BRANCH   6  22
ATOM     22  O   UNL     1     187.914 196.899 184.554  1.00  0.00    -0.507 OA
ATOM     23  H   UNL     1     187.541 197.542 185.236  1.00  0.00     0.293 HD
ENDBRANCH   6  22
BRANCH   8  24
ATOM     24  O   UNL     1     187.875 192.295 183.251  1.00  0.00    -0.508 OA
ATOM     25  H   UNL     1     188.028 192.361 182.252  1.00  0.00     0.293 HD
ENDBRANCH   8  24
TORSDOF 5
ENDMDL
MODEL 3
REMARK VINA RESULT:    -0.045      2.076      3.404
REMARK INTER + INTRA:          -0.353
REMARK INTER:                  -0.063
REMARK INTRA:                  -0.290
REMARK UNBOUND:                -0.300
REMARK SMILES O=c1c(O)c(-c2ccc(O)cc2)oc2cc(O)cc(O)c12
REMARK SMILES IDX 5 1 3 2 2 3 1 4 21 5 19 6 18 7 16 8 15 9 14 10 13 11 6 12
REMARK SMILES IDX 7 13 8 14 9 15 12 16 11 17 10 18 4 20 20 22 17 24
REMARK H PARENT 10 19 4 21 20 23 17 25
REMARK Flexibility Score: inf
ROOT
ATOM      1  C   UNL     1     189.947 195.486 188.522  1.00  0.00     0.180 A 
ATOM      2  C   UNL     1     189.838 194.098 188.717  1.00  0.00     0.208 A 
ATOM      3  C   UNL     1     189.293 193.307 187.693  1.00  0.00     0.238 A 
ATOM      4  O   UNL     1     189.248 192.059 187.851  1.00  0.00    -0.285 OA
ATOM      5  C   UNL     1     188.848 193.916 186.494  1.00  0.00     0.111 A 
ATOM      6  C   UNL     1     188.243 193.216 185.407  1.00  0.00     0.134 A 
ATOM      7  C   UNL     1     187.961 193.900 184.217  1.00  0.00     0.093 A 
ATOM      8  C   UNL     1     188.202 195.268 184.100  1.00  0.00     0.123 A 
ATOM      9  C   UNL     1     188.738 195.973 185.177  1.00  0.00     0.094 A 
ATOM     10  C   UNL     1     189.063 195.312 186.364  1.00  0.00     0.146 A 
ATOM     11  O   UNL     1     189.582 196.017 187.362  1.00  0.00    -0.452 OA
ENDROOT
BRANCH   1  12
ATOM     12  C   UNL     1     190.488 196.388 189.564  1.00  0.00     0.021 A 
ATOM     13  C   UNL     1     189.621 196.927 190.530  1.00  0.00     0.016 A 
ATOM     14  C   UNL     1     190.115 197.764 191.537  1.00  0.00     0.047 A 
ATOM     15  C   UNL     1     191.483 198.059 191.598  1.00  0.00     0.115 A 
ATOM     16  C   UNL     1     191.863 196.674 189.645  1.00  0.00     0.016 A 
ATOM     17  C   UNL     1     192.354 197.510 190.652  1.00  0.00     0.047 A 
BRANCH  15  18
ATOM     18  O   UNL     1     191.986 198.891 192.595  1.00  0.00    -0.508 OA
ATOM     19  H   UNL     1     192.760 199.520 192.419  1.00  0.00     0.293 HD
ENDBRANCH  15  18
ENDBRANCH   1  12
BRANCH   2  20
ATOM     20  O   UNL     1     190.303 193.515 189.898  1.00  0.00    -0.502 OA
ATOM     21  H   UNL     1     191.287 193.482 190.139  1.00  0.00     0.293 HD
ENDBRANCH   2  20
BRANCH   6  22
ATOM     22  O   UNL     1     187.876 191.869 185.453  1.00  0.00    -0.507 OA
ATOM     23  H   UNL     1     186.993 191.502 185.130  1.00  0.00     0.293 HD
ENDBRANCH   6  22
BRANCH   8  24
ATOM     24  O   UNL     1     187.895 195.919 182.906  1.00  0.00    -0.508 OA
ATOM     25  H   UNL     1     187.553 196.873 182.896  1.00  0.00     0.293 HD
ENDBRANCH   8  24
TORSDOF 5
ENDMDL
MODEL 4
REMARK VINA RESULT:    -0.045      4.485      5.410
REMARK INTER + INTRA:          -0.353
REMARK INTER:                  -0.063
REMARK INTRA:                  -0.290
REMARK UNBOUND:                -0.300
REMARK SMILES O=c1c(O)c(-c2ccc(O)cc2)oc2cc(O)cc(O)c12
REMARK SMILES IDX 5 1 3 2 2 3 1 4 21 5 19 6 18 7 16 8 15 9 14 10 13 11 6 12
REMARK SMILES IDX 7 13 8 14 9 15 12 16 11 17 10 18 4 20 20 22 17 24
REMARK H PARENT 10 19 4 21 20 23 17 25
REMARK Flexibility Score: inf
ROOT
ATOM      1  C   UNL     1     192.535 195.027 185.089  1.00  0.00     0.180 A 
ATOM      2  C   UNL     1     191.955 196.302 185.212  1.00  0.00     0.208 A 
ATOM      3  C   UNL     1     190.633 196.493 184.781  1.00  0.00     0.238 A 
ATOM      4  O   UNL     1     190.101 197.622 184.943  1.00  0.00    -0.285 OA
ATOM      5  C   UNL     1     189.912 195.412 184.218  1.00  0.00     0.111 A 
ATOM      6  C   UNL     1     188.580 195.502 183.712  1.00  0.00     0.134 A 
ATOM      7  C   UNL     1     187.919 194.338 183.298  1.00  0.00     0.093 A 
ATOM      8  C   UNL     1     188.562 193.102 183.311  1.00  0.00     0.123 A 
ATOM      9  C   UNL     1     189.884 193.012 183.748  1.00  0.00     0.094 A 
ATOM     10  C   UNL     1     190.558 194.149 184.201  1.00  0.00     0.146 A 
ATOM     11  O   UNL     1     191.812 194.019 184.618  1.00  0.00    -0.452 OA
ENDROOT
BRANCH   1  12
ATOM     12  C   UNL     1     193.932 194.754 185.498  1.00  0.00     0.021 A 
ATOM     13  C   UNL     1     194.974 194.957 184.578  1.00  0.00     0.016 A 
ATOM     14  C   UNL     1     196.303 194.727 184.951  1.00  0.00     0.047 A 
ATOM     15  C   UNL     1     196.606 194.304 186.251  1.00  0.00     0.115 A 
ATOM     16  C   UNL     1     194.246 194.347 186.808  1.00  0.00     0.016 A 
ATOM     17  C   UNL     1     195.575 194.118 187.177  1.00  0.00     0.047 A 
BRANCH  15  18
ATOM     18  O   UNL     1     197.925 194.070 186.633  1.00  0.00    -0.508 OA
ATOM     19  H   UNL     1     198.252 193.140 186.863  1.00  0.00     0.293 HD
ENDBRANCH  15  18
ENDBRANCH   1  12
BRANCH   2  20
ATOM     20  O   UNL     1     192.676 197.350 185.791  1.00  0.00    -0.502 OA
ATOM     21  H   UNL     1     192.652 198.294 185.426  1.00  0.00     0.293 HD
ENDBRANCH   2  20
BRANCH   6  22
ATOM     22  O   UNL     1     187.879 196.702 183.570  1.00  0.00    -0.507 OA
ATOM     23  H   UNL     1     187.602 197.299 184.335  1.00  0.00     0.293 HD
ENDBRANCH   6  22
BRANCH   8  24
ATOM     24  O   UNL     1     187.879 191.968 182.876  1.00  0.00    -0.508 OA
ATOM     25  H   UNL     1     187.264 191.995 182.072  1.00  0.00     0.293 HD
ENDBRANCH   8  24
TORSDOF 5
ENDMDL
MODEL 5
REMARK VINA RESULT:    -0.037     15.334     17.968
REMARK INTER + INTRA:          -0.343
REMARK INTER:                  -0.045
REMARK INTRA:                  -0.299
REMARK UNBOUND:                -0.300
REMARK SMILES O=c1c(O)c(-c2ccc(O)cc2)oc2cc(O)cc(O)c12
REMARK SMILES IDX 5 1 3 2 2 3 1 4 21 5 19 6 18 7 16 8 15 9 14 10 13 11 6 12
REMARK SMILES IDX 7 13 8 14 9 15 12 16 11 17 10 18 4 20 20 22 17 24
REMARK H PARENT 10 19 4 21 20 23 17 25
REMARK Flexibility Score: inf
ROOT
ATOM      1  C   UNL     1     205.867 198.862 187.478  1.00  0.00     0.180 A 
ATOM      2  C   UNL     1     204.787 197.973 187.340  1.00  0.00     0.208 A 
ATOM      3  C   UNL     1     204.329 197.277 188.470  1.00  0.00     0.238 A 
ATOM      4  O   UNL     1     203.328 196.524 188.352  1.00  0.00    -0.285 OA
ATOM      5  C   UNL     1     204.967 197.466 189.720  1.00  0.00     0.111 A 
ATOM      6  C   UNL     1     204.612 196.784 190.923  1.00  0.00     0.134 A 
ATOM      7  C   UNL     1     205.225 197.146 192.129  1.00  0.00     0.093 A 
ATOM      8  C   UNL     1     206.223 198.119 192.165  1.00  0.00     0.123 A 
ATOM      9  C   UNL     1     206.620 198.750 190.986  1.00  0.00     0.094 A 
ATOM     10  C   UNL     1     206.002 198.436 189.773  1.00  0.00     0.146 A 
ATOM     11  O   UNL     1     206.401 199.067 188.675  1.00  0.00    -0.452 OA
ENDROOT
BRANCH   1  12
ATOM     12  C   UNL     1     206.422 199.612 186.328  1.00  0.00     0.021 A 
ATOM     13  C   UNL     1     205.988 200.926 186.084  1.00  0.00     0.016 A 
ATOM     14  C   UNL     1     206.516 201.660 185.017  1.00  0.00     0.047 A 
ATOM     15  C   UNL     1     207.493 201.095 184.190  1.00  0.00     0.115 A 
ATOM     16  C   UNL     1     207.419 199.058 185.503  1.00  0.00     0.016 A 
ATOM     17  C   UNL     1     207.945 199.795 184.438  1.00  0.00     0.047 A 
BRANCH  15  18
ATOM     18  O   UNL     1     208.026 201.816 183.124  1.00  0.00    -0.508 OA
ATOM     19  H   UNL     1     207.549 202.623 182.740  1.00  0.00     0.293 HD
ENDBRANCH  15  18
ENDBRANCH   1  12
BRANCH   2  20
ATOM     20  O   UNL     1     204.158 197.817 186.102  1.00  0.00    -0.502 OA
ATOM     21  H   UNL     1     203.275 197.332 185.997  1.00  0.00     0.293 HD
ENDBRANCH   2  20
BRANCH   6  22
ATOM     22  O   UNL     1     203.693 195.733 190.981  1.00  0.00    -0.507 OA
ATOM     23  H   UNL     1     203.802 194.848 190.511  1.00  0.00     0.293 HD
ENDBRANCH   6  22
BRANCH   8  24
ATOM     24  O   UNL     1     206.822 198.443 193.381  1.00  0.00    -0.508 OA
ATOM     25  H   UNL     1     206.316 198.939 194.105  1.00  0.00     0.293 HD
ENDBRANCH   8  24
TORSDOF 5
ENDMDL
MODEL 6
REMARK VINA RESULT:    -0.035      2.453      7.313
REMARK INTER + INTRA:          -0.342
REMARK INTER:                  -0.042
REMARK INTRA:                  -0.300
REMARK UNBOUND:                -0.300
REMARK SMILES O=c1c(O)c(-c2ccc(O)cc2)oc2cc(O)cc(O)c12
REMARK SMILES IDX 5 1 3 2 2 3 1 4 21 5 19 6 18 7 16 8 15 9 14 10 13 11 6 12
REMARK SMILES IDX 7 13 8 14 9 15 12 16 11 17 10 18 4 20 20 22 17 24
REMARK H PARENT 10 19 4 21 20 23 17 25
REMARK Flexibility Score: inf
ROOT
ATOM      1  C   UNL     1     190.717 194.895 187.854  1.00  0.00     0.180 A 
ATOM      2  C   UNL     1     191.317 193.740 188.384  1.00  0.00     0.208 A 
ATOM      3  C   UNL     1     192.009 193.830 189.602  1.00  0.00     0.238 A 
ATOM      4  O   UNL     1     192.498 192.781 190.099  1.00  0.00    -0.285 OA
ATOM      5  C   UNL     1     192.106 195.076 190.267  1.00  0.00     0.111 A 
ATOM      6  C   UNL     1     192.816 195.290 191.487  1.00  0.00     0.134 A 
ATOM      7  C   UNL     1     192.735 196.536 192.123  1.00  0.00     0.093 A 
ATOM      8  C   UNL     1     192.024 197.590 191.552  1.00  0.00     0.123 A 
ATOM      9  C   UNL     1     191.376 197.409 190.330  1.00  0.00     0.094 A 
ATOM     10  C   UNL     1     191.408 196.168 189.690  1.00  0.00     0.146 A 
ATOM     11  O   UNL     1     190.769 196.034 188.534  1.00  0.00    -0.452 OA
ENDROOT
BRANCH   1  12
ATOM     12  C   UNL     1     189.993 194.885 186.562  1.00  0.00     0.021 A 
ATOM     13  C   UNL     1     188.602 194.689 186.551  1.00  0.00     0.016 A 
ATOM     14  C   UNL     1     187.895 194.699 185.343  1.00  0.00     0.047 A 
ATOM     15  C   UNL     1     188.568 194.919 184.136  1.00  0.00     0.115 A 
ATOM     16  C   UNL     1     190.659 195.125 185.346  1.00  0.00     0.016 A 
ATOM     17  C   UNL     1     189.950 195.135 184.141  1.00  0.00     0.047 A 
BRANCH  15  18
ATOM     18  O   UNL     1     187.875 194.930 182.927  1.00  0.00    -0.508 OA
ATOM     19  H   UNL     1     187.325 195.730 182.641  1.00  0.00     0.293 HD
ENDBRANCH  15  18
ENDBRANCH   1  12
BRANCH   2  20
ATOM     20  O   UNL     1     191.191 192.515 187.722  1.00  0.00    -0.502 OA
ATOM     21  H   UNL     1     191.603 192.343 186.813  1.00  0.00     0.293 HD
ENDBRANCH   2  20
BRANCH   6  22
ATOM     22  O   UNL     1     193.630 194.331 192.095  1.00  0.00    -0.507 OA
ATOM     23  H   UNL     1     193.755 193.388 191.760  1.00  0.00     0.293 HD
ENDBRANCH   6  22
BRANCH   8  24
ATOM     24  O   UNL     1     191.978 198.821 192.205  1.00  0.00    -0.508 OA
ATOM     25  H   UNL     1     192.261 198.918 193.173  1.00  0.00     0.293 HD
ENDBRANCH   8  24
TORSDOF 5
ENDMDL
MODEL 7
REMARK VINA RESULT:    -0.031      3.119      7.016
REMARK INTER + INTRA:          -0.337
REMARK INTER:                  -0.037
REMARK INTRA:                  -0.300
REMARK UNBOUND:                -0.300
REMARK SMILES O=c1c(O)c(-c2ccc(O)cc2)oc2cc(O)cc(O)c12
REMARK SMILES IDX 5 1 3 2 2 3 1 4 21 5 19 6 18 7 16 8 15 9 14 10 13 11 6 12
REMARK SMILES IDX 7 13 8 14 9 15 12 16 11 17 10 18 4 20 20 22 17 24
REMARK H PARENT 10 19 4 21 20 23 17 25
REMARK Flexibility Score: inf
ROOT
ATOM      1  C   UNL     1     190.687 197.677 187.705  1.00  0.00     0.180 A 
ATOM      2  C   UNL     1     190.923 197.092 188.961  1.00  0.00     0.208 A 
ATOM      3  C   UNL     1     191.637 197.819 189.927  1.00  0.00     0.238 A 
ATOM      4  O   UNL     1     191.799 197.312 191.067  1.00  0.00    -0.285 OA
ATOM      5  C   UNL     1     192.120 199.114 189.619  1.00  0.00     0.111 A 
ATOM      6  C   UNL     1     192.890 199.924 190.508  1.00  0.00     0.134 A 
ATOM      7  C   UNL     1     193.202 201.240 190.146  1.00  0.00     0.093 A 
ATOM      8  C   UNL     1     192.830 201.753 188.905  1.00  0.00     0.123 A 
ATOM      9  C   UNL     1     192.129 200.951 188.005  1.00  0.00     0.094 A 
ATOM     10  C   UNL     1     191.771 199.645 188.351  1.00  0.00     0.146 A 
ATOM     11  O   UNL     1     191.095 198.918 187.470  1.00  0.00    -0.452 OA
ENDROOT
BRANCH   1  12
ATOM     12  C   UNL     1     189.963 196.964 186.627  1.00  0.00     0.021 A 
ATOM     13  C   UNL     1     188.578 197.147 186.484  1.00  0.00     0.016 A 
ATOM     14  C   UNL     1     187.879 196.501 185.459  1.00  0.00     0.047 A 
ATOM     15  C   UNL     1     188.560 195.675 184.556  1.00  0.00     0.115 A 
ATOM     16  C   UNL     1     190.643 196.147 185.703  1.00  0.00     0.016 A 
ATOM     17  C   UNL     1     189.942 195.503 184.679  1.00  0.00     0.047 A 
BRANCH  15  18
ATOM     18  O   UNL     1     187.875 195.026 183.532  1.00  0.00    -0.508 OA
ATOM     19  H   UNL     1     188.220 194.164 183.128  1.00  0.00     0.293 HD
ENDBRANCH  15  18
ENDBRANCH   1  12
BRANCH   2  20
ATOM     20  O   UNL     1     190.419 195.822 189.251  1.00  0.00    -0.502 OA
ATOM     21  H   UNL     1     190.760 194.983 188.796  1.00  0.00     0.293 HD
ENDBRANCH   2  20
BRANCH   6  22
ATOM     22  O   UNL     1     193.391 199.478 191.734  1.00  0.00    -0.507 OA
ATOM     23  H   UNL     1     192.826 199.128 192.492  1.00  0.00     0.293 HD
ENDBRANCH   6  22
BRANCH   8  24
ATOM     24  O   UNL     1     193.171 203.063 188.572  1.00  0.00    -0.508 OA
ATOM     25  H   UNL     1     193.266 203.357 187.607  1.00  0.00     0.293 HD
ENDBRANCH   8  24
TORSDOF 5
ENDMDL
MODEL 8
REMARK VINA RESULT:    -0.030     15.712     17.995
REMARK INTER + INTRA:          -0.336
REMARK INTER:                  -0.036
REMARK INTRA:                  -0.300
REMARK UNBOUND:                -0.300
REMARK SMILES O=c1c(O)c(-c2ccc(O)cc2)oc2cc(O)cc(O)c12
REMARK SMILES IDX 5 1 3 2 2 3 1 4 21 5 19 6 18 7 16 8 15 9 14 10 13 11 6 12
REMARK SMILES IDX 7 13 8 14 9 15 12 16 11 17 10 18 4 20 20 22 17 24
REMARK H PARENT 10 19 4 21 20 23 17 25
REMARK Flexibility Score: inf
ROOT
ATOM      1  C   UNL     1     205.776 199.817 188.101  1.00  0.00     0.180 A 
ATOM      2  C   UNL     1     204.638 200.632 188.221  1.00  0.00     0.208 A 
ATOM      3  C   UNL     1     204.121 200.895 189.500  1.00  0.00     0.238 A 
ATOM      4  O   UNL     1     203.134 201.669 189.605  1.00  0.00    -0.285 OA
ATOM      5  C   UNL     1     204.739 200.327 190.640  1.00  0.00     0.111 A 
ATOM      6  C   UNL     1     204.276 200.494 191.980  1.00  0.00     0.134 A 
ATOM      7  C   UNL     1     205.041 199.995 193.042  1.00  0.00     0.093 A 
ATOM      8  C   UNL     1     206.215 199.280 192.809  1.00  0.00     0.123 A 
ATOM      9  C   UNL     1     206.645 199.059 191.500  1.00  0.00     0.094 A 
ATOM     10  C   UNL     1     205.923 199.576 190.422  1.00  0.00     0.146 A 
ATOM     11  O   UNL     1     206.372 199.353 189.193  1.00  0.00    -0.452 OA
ENDROOT
BRANCH   1  12
ATOM     12  C   UNL     1     206.365 199.473 186.786  1.00  0.00     0.021 A 
ATOM     13  C   UNL     1     207.425 200.244 186.279  1.00  0.00     0.016 A 
ATOM     14  C   UNL     1     208.010 199.923 185.050  1.00  0.00     0.047 A 
ATOM     15  C   UNL     1     207.551 198.821 184.319  1.00  0.00     0.115 A 
ATOM     16  C   UNL     1     205.922 198.355 186.054  1.00  0.00     0.016 A 
ATOM     17  C   UNL     1     206.509 198.037 184.825  1.00  0.00     0.047 A 
BRANCH  15  18
ATOM     18  O   UNL     1     208.125 198.492 183.093  1.00  0.00    -0.508 OA
ATOM     19  H   UNL     1     208.977 198.935 182.772  1.00  0.00     0.293 HD
ENDBRANCH  15  18
ENDBRANCH   1  12
BRANCH   2  20
ATOM     20  O   UNL     1     204.056 201.200 187.085  1.00  0.00    -0.502 OA
ATOM     21  H   UNL     1     204.087 200.754 186.176  1.00  0.00     0.293 HD
ENDBRANCH   2  20
BRANCH   6  22
ATOM     22  O   UNL     1     203.070 201.113 192.318  1.00  0.00    -0.507 OA
ATOM     23  H   UNL     1     202.420 201.506 191.654  1.00  0.00     0.293 HD
ENDBRANCH   6  22
BRANCH   8  24
ATOM     24  O   UNL     1     206.943 198.784 193.889  1.00  0.00    -0.508 OA
ATOM     25  H   UNL     1     206.860 197.818 194.185  1.00  0.00     0.293 HD
ENDBRANCH   8  24
TORSDOF 5
ENDMDL
MODEL 9
REMARK VINA RESULT:     0.222      4.277      5.920
REMARK INTER + INTRA:          -0.039
REMARK INTER:                   0.251
REMARK INTRA:                  -0.290
REMARK UNBOUND:                -0.300
REMARK SMILES O=c1c(O)c(-c2ccc(O)cc2)oc2cc(O)cc(O)c12
REMARK SMILES IDX 5 1 3 2 2 3 1 4 21 5 19 6 18 7 16 8 15 9 14 10 13 11 6 12
REMARK SMILES IDX 7 13 8 14 9 15 12 16 11 17 10 18 4 20 20 22 17 24
REMARK H PARENT 10 19 4 21 20 23 17 25
REMARK Flexibility Score: inf
ROOT
ATOM      1  C   UNL     1     192.260 193.306 185.631  1.00  0.00     0.180 A 
ATOM      2  C   UNL     1     191.829 192.326 184.720  1.00  0.00     0.208 A 
ATOM      3  C   UNL     1     190.615 192.515 184.040  1.00  0.00     0.238 A 
ATOM      4  O   UNL     1     190.261 191.660 183.186  1.00  0.00    -0.285 OA
ATOM      5  C   UNL     1     189.839 193.672 184.292  1.00  0.00     0.111 A 
ATOM      6  C   UNL     1     188.575 193.946 183.689  1.00  0.00     0.134 A 
ATOM      7  C   UNL     1     187.958 195.184 183.913  1.00  0.00     0.093 A 
ATOM      8  C   UNL     1     188.527 196.129 184.765  1.00  0.00     0.123 A 
ATOM      9  C   UNL     1     189.734 195.847 185.405  1.00  0.00     0.094 A 
ATOM     10  C   UNL     1     190.391 194.636 185.175  1.00  0.00     0.146 A 
ATOM     11  O   UNL     1     191.543 194.411 185.796  1.00  0.00    -0.452 OA
ENDROOT
BRANCH   1  12
ATOM     12  C   UNL     1     193.516 193.166 186.404  1.00  0.00     0.021 A 
ATOM     13  C   UNL     1     193.496 192.501 187.641  1.00  0.00     0.016 A 
ATOM     14  C   UNL     1     194.674 192.338 188.377  1.00  0.00     0.047 A 
ATOM     15  C   UNL     1     195.888 192.826 187.877  1.00  0.00     0.115 A 
ATOM     16  C   UNL     1     194.743 193.636 185.900  1.00  0.00     0.016 A 
ATOM     17  C   UNL     1     195.919 193.471 186.637  1.00  0.00     0.047 A 
BRANCH  15  18
ATOM     18  O   UNL     1     197.068 192.671 188.601  1.00  0.00    -0.508 OA
ATOM     19  H   UNL     1     197.421 193.406 189.202  1.00  0.00     0.293 HD
ENDBRANCH  15  18
ENDBRANCH   1  12
BRANCH   2  20
ATOM     20  O   UNL     1     192.620 191.201 184.470  1.00  0.00    -0.502 OA
ATOM     21  H   UNL     1     192.629 190.395 185.083  1.00  0.00     0.293 HD
ENDBRANCH   2  20
BRANCH   6  22
ATOM     22  O   UNL     1     187.875 193.035 182.894  1.00  0.00    -0.507 OA
ATOM     23  H   UNL     1     187.626 193.188 181.928  1.00  0.00     0.293 HD
ENDBRANCH   6  22
BRANCH   8  24
ATOM     24  O   UNL     1     187.878 197.343 184.976  1.00  0.00    -0.508 OA
ATOM     25  H   UNL     1     188.186 198.195 184.521  1.00  0.00     0.293 HD
ENDBRANCH   8  24
TORSDOF 5
ENDMDL
