MODEL 1
REMARK VINA RESULT:    -2.713      0.000      0.000
REMARK INTER + INTRA:          -5.123
REMARK INTER:                  -5.092
REMARK INTRA:                  -0.031
REMARK UNBOUND:                -0.031
REMARK SMILES CCCCCCCCC=CCCCCCCCC(=O)[O-]
REMARK SMILES IDX 10 1 9 2 11 3 12 4 13 5 14 6 15 7 16 8 17 9 18 10 19 11
REMARK SMILES IDX 20 12 8 13 7 14 6 15 5 16 4 17 3 18 2 19 1 20
REMARK H PARENT
REMARK Flexibility Score: inf
ROOT
ATOM      1  C   UNL     1      41.901  13.933 -35.966  1.00  0.00    -0.031 C 
ATOM      2  C   UNL     1      40.760  14.615 -35.753  1.00  0.00    -0.031 C 
ENDROOT
BRANCH   1   3
ATOM      3  C   UNL     1      42.031  12.430 -36.007  1.00  0.00     0.027 C 
BRANCH   3   4
ATOM      4  C   UNL     1      43.473  11.939 -36.232  1.00  0.00     0.004 C 
BRANCH   4   5
ATOM      5  C   UNL     1      44.267  11.696 -34.934  1.00  0.00     0.000 C 
BRANCH   5   6
ATOM      6  C   UNL     1      43.620  12.347 -33.701  1.00  0.00     0.000 C 
BRANCH   6   7
ATOM      7  C   UNL     1      44.686  12.867 -32.728  1.00  0.00     0.000 C 
BRANCH   7   8
ATOM      8  C   UNL     1      46.073  12.314 -33.087  1.00  0.00     0.006 C 
BRANCH   8   9
ATOM      9  C   UNL     1      46.899  11.963 -31.842  1.00  0.00     0.053 C 
BRANCH   9  10
ATOM     10  C   UNL     1      46.057  11.948 -30.603  1.00  0.00     0.041 C 
ATOM     11  O   UNL     1      46.009  10.916 -29.884  1.00  0.00    -0.550 OA
ATOM     12  O   UNL     1      45.351  13.084 -30.226  1.00  0.00    -0.550 OA
ENDBRANCH   9  10
ENDBRANCH   8   9
ENDBRANCH   7   8
ENDBRANCH   6   7
ENDBRANCH   5   6
ENDBRANCH   4   5
ENDBRANCH   3   4
ENDBRANCH   1   3
BRANCH   2  13
ATOM     13  C   UNL     1      39.405  13.999 -35.494  1.00  0.00     0.027 C 
BRANCH  13  14
ATOM     14  C   UNL     1      38.361  15.045 -35.062  1.00  0.00     0.004 C 
BRANCH  14  15
ATOM     15  C   UNL     1      37.200  14.496 -34.213  1.00  0.00     0.000 C 
BRANCH  15  16
ATOM     16  C   UNL     1      37.489  13.105 -33.630  1.00  0.00     0.000 C 
BRANCH  16  17
ATOM     17  C   UNL     1      36.879  12.960 -32.229  1.00  0.00    -0.000 C 
BRANCH  17  18
ATOM     18  C   UNL     1      36.883  14.278 -31.434  1.00  0.00    -0.000 C 
BRANCH  18  19
ATOM     19  C   UNL     1      37.123  14.120 -29.921  1.00  0.00    -0.003 C 
ATOM     20  C   UNL     1      36.881  12.696 -29.423  1.00  0.00     0.004 C 
ENDBRANCH  18  19
ENDBRANCH  17  18
ENDBRANCH  16  17
ENDBRANCH  15  16
ENDBRANCH  14  15
ENDBRANCH  13  14
ENDBRANCH   2  13
TORSDOF 15
ENDMDL
MODEL 2
REMARK VINA RESULT:    -2.094      1.079      2.007
REMARK INTER + INTRA:          -3.960
REMARK INTER:                  -2.949
REMARK INTRA:                  -1.011
REMARK UNBOUND:                -0.031
REMARK SMILES CCCCCCCCC=CCCCCCCCC(=O)[O-]
REMARK SMILES IDX 10 1 9 2 11 3 12 4 13 5 14 6 15 7 16 8 17 9 18 10 19 11
REMARK SMILES IDX 20 12 8 13 7 14 6 15 5 16 4 17 3 18 2 19 1 20
REMARK H PARENT
REMARK Flexibility Score: inf
ROOT
ATOM      1  C   UNL     1      39.964  14.485 -35.312  1.00  0.00    -0.031 C 
ATOM      2  C   UNL     1      38.700  14.903 -35.111  1.00  0.00    -0.031 C 
ENDROOT
BRANCH   1   3
ATOM      3  C   UNL     1      40.366  13.176 -35.946  1.00  0.00     0.027 C 
BRANCH   3   4
ATOM      4  C   UNL     1      41.887  13.013 -36.122  1.00  0.00     0.004 C 
BRANCH   4   5
ATOM      5  C   UNL     1      42.420  11.618 -35.745  1.00  0.00     0.000 C 
BRANCH   5   6
ATOM      6  C   UNL     1      43.844  11.651 -35.167  1.00  0.00     0.000 C 
BRANCH   6   7
ATOM      7  C   UNL     1      43.990  12.766 -34.123  1.00  0.00     0.000 C 
BRANCH   7   8
ATOM      8  C   UNL     1      45.200  12.510 -33.212  1.00  0.00     0.006 C 
BRANCH   8   9
ATOM      9  C   UNL     1      44.786  11.983 -31.831  1.00  0.00     0.053 C 
BRANCH   9  10
ATOM     10  C   UNL     1      45.918  12.043 -30.852  1.00  0.00     0.041 C 
ATOM     11  O   UNL     1      45.890  12.870 -29.902  1.00  0.00    -0.550 OA
ATOM     12  O   UNL     1      46.988  11.165 -30.969  1.00  0.00    -0.550 OA
ENDBRANCH   9  10
ENDBRANCH   8   9
ENDBRANCH   7   8
ENDBRANCH   6   7
ENDBRANCH   5   6
ENDBRANCH   4   5
ENDBRANCH   3   4
ENDBRANCH   1   3
BRANCH   2  13
ATOM     13  C   UNL     1      37.453  14.128 -35.465  1.00  0.00     0.027 C 
BRANCH  13  14
ATOM     14  C   UNL     1      37.155  13.006 -34.453  1.00  0.00     0.004 C 
BRANCH  14  15
ATOM     15  C   UNL     1      36.906  13.480 -33.009  1.00  0.00     0.000 C 
BRANCH  15  16
ATOM     16  C   UNL     1      36.957  12.336 -31.986  1.00  0.00     0.000 C 
BRANCH  16  17
ATOM     17  C   UNL     1      37.447  12.844 -30.622  1.00  0.00    -0.000 C 
BRANCH  17  18
ATOM     18  C   UNL     1      36.875  14.225 -30.254  1.00  0.00    -0.000 C 
BRANCH  18  19
ATOM     19  C   UNL     1      37.925  15.268 -29.833  1.00  0.00    -0.003 C 
ATOM     20  C   UNL     1      38.339  16.195 -30.975  1.00  0.00     0.004 C 
ENDBRANCH  18  19
ENDBRANCH  17  18
ENDBRANCH  16  17
ENDBRANCH  15  16
ENDBRANCH  14  15
ENDBRANCH  13  14
ENDBRANCH   2  13
TORSDOF 15
ENDMDL
MODEL 3
REMARK VINA RESULT:    -1.240      4.043      8.009
REMARK INTER + INTRA:          -2.358
REMARK INTER:                  -1.656
REMARK INTRA:                  -0.702
REMARK UNBOUND:                -0.031
REMARK SMILES CCCCCCCCC=CCCCCCCCC(=O)[O-]
REMARK SMILES IDX 10 1 9 2 11 3 12 4 13 5 14 6 15 7 16 8 17 9 18 10 19 11
REMARK SMILES IDX 20 12 8 13 7 14 6 15 5 16 4 17 3 18 2 19 1 20
REMARK H PARENT
REMARK Flexibility Score: inf
ROOT
ATOM      1  C   UNL     1      44.640  12.766 -33.095  1.00  0.00    -0.031 C 
ATOM      2  C   UNL     1      45.153  12.549 -31.869  1.00  0.00    -0.031 C 
ENDROOT
BRANCH   1   3
ATOM      3  C   UNL     1      45.266  12.334 -34.398  1.00  0.00     0.027 C 
BRANCH   3   4
ATOM      4  C   UNL     1      44.261  12.205 -35.557  1.00  0.00     0.004 C 
BRANCH   4   5
ATOM      5  C   UNL     1      42.885  11.651 -35.140  1.00  0.00     0.000 C 
BRANCH   5   6
ATOM      6  C   UNL     1      41.776  11.961 -36.158  1.00  0.00     0.000 C 
BRANCH   6   7
ATOM      7  C   UNL     1      41.462  13.462 -36.192  1.00  0.00     0.000 C 
BRANCH   7   8
ATOM      8  C   UNL     1      39.956  13.705 -36.370  1.00  0.00     0.006 C 
BRANCH   8   9
ATOM      9  C   UNL     1      39.399  14.689 -35.332  1.00  0.00     0.053 C 
BRANCH   9  10
ATOM     10  C   UNL     1      37.927  14.502 -35.124  1.00  0.00     0.041 C 
ATOM     11  O   UNL     1      37.289  15.290 -34.378  1.00  0.00    -0.550 OA
ATOM     12  O   UNL     1      37.255  13.477 -35.779  1.00  0.00    -0.550 OA
ENDBRANCH   9  10
ENDBRANCH   8   9
ENDBRANCH   7   8
ENDBRANCH   6   7
ENDBRANCH   5   6
ENDBRANCH   4   5
ENDBRANCH   3   4
ENDBRANCH   1   3
BRANCH   2  13
ATOM     13  C   UNL     1      46.461  11.852 -31.576  1.00  0.00     0.027 C 
BRANCH  13  14
ATOM     14  C   UNL     1      46.350  10.878 -30.388  1.00  0.00     0.004 C 
BRANCH  14  15
ATOM     15  C   UNL     1      46.569  11.513 -29.002  1.00  0.00     0.000 C 
BRANCH  15  16
ATOM     16  C   UNL     1      45.702  10.875 -27.907  1.00  0.00     0.000 C 
BRANCH  16  17
ATOM     17  C   UNL     1      45.059  11.953 -27.022  1.00  0.00    -0.000 C 
BRANCH  17  18
ATOM     18  C   UNL     1      44.435  11.380 -25.736  1.00  0.00    -0.000 C 
BRANCH  18  19
ATOM     19  C   UNL     1      44.413  12.350 -24.541  1.00  0.00    -0.003 C 
ATOM     20  C   UNL     1      43.645  13.639 -24.831  1.00  0.00     0.004 C 
ENDBRANCH  18  19
ENDBRANCH  17  18
ENDBRANCH  16  17
ENDBRANCH  15  16
ENDBRANCH  14  15
ENDBRANCH  13  14
ENDBRANCH   2  13
TORSDOF 15
ENDMDL
MODEL 4
REMARK VINA RESULT:    -1.031      4.366      8.377
REMARK INTER + INTRA:          -1.966
REMARK INTER:                  -1.253
REMARK INTRA:                  -0.713
REMARK UNBOUND:                -0.031
REMARK SMILES CCCCCCCCC=CCCCCCCCC(=O)[O-]
REMARK SMILES IDX 10 1 9 2 11 3 12 4 13 5 14 6 15 7 16 8 17 9 18 10 19 11
REMARK SMILES IDX 20 12 8 13 7 14 6 15 5 16 4 17 3 18 2 19 1 20
REMARK H PARENT
REMARK Flexibility Score: inf
ROOT
ATOM      1  C   UNL     1      45.189  12.975 -31.316  1.00  0.00    -0.031 C 
ATOM      2  C   UNL     1      45.370  12.279 -30.178  1.00  0.00    -0.031 C 
ENDROOT
BRANCH   1   3
ATOM      3  C   UNL     1      46.095  12.938 -32.522  1.00  0.00     0.027 C 
BRANCH   3   4
ATOM      4  C   UNL     1      45.497  12.187 -33.725  1.00  0.00     0.004 C 
BRANCH   4   5
ATOM      5  C   UNL     1      43.969  12.330 -33.862  1.00  0.00     0.000 C 
BRANCH   5   6
ATOM      6  C   UNL     1      43.454  11.981 -35.268  1.00  0.00     0.000 C 
BRANCH   6   7
ATOM      7  C   UNL     1      41.965  12.320 -35.410  1.00  0.00     0.000 C 
BRANCH   7   8
ATOM      8  C   UNL     1      41.764  13.529 -36.336  1.00  0.00     0.006 C 
BRANCH   8   9
ATOM      9  C   UNL     1      40.817  14.575 -35.728  1.00  0.00     0.053 C 
BRANCH   9  10
ATOM     10  C   UNL     1      39.383  14.160 -35.846  1.00  0.00     0.041 C 
ATOM     11  O   UNL     1      39.055  13.233 -36.632  1.00  0.00    -0.550 OA
ATOM     12  O   UNL     1      38.413  14.775 -35.063  1.00  0.00    -0.550 OA
ENDBRANCH   9  10
ENDBRANCH   8   9
ENDBRANCH   7   8
ENDBRANCH   6   7
ENDBRANCH   5   6
ENDBRANCH   4   5
ENDBRANCH   3   4
ENDBRANCH   1   3
BRANCH   2  13
ATOM     13  C   UNL     1      46.526  11.348 -29.893  1.00  0.00     0.027 C 
BRANCH  13  14
ATOM     14  C   UNL     1      46.562  10.897 -28.421  1.00  0.00     0.004 C 
BRANCH  14  15
ATOM     15  C   UNL     1      45.217  10.986 -27.678  1.00  0.00     0.000 C 
BRANCH  15  16
ATOM     16  C   UNL     1      45.378  11.273 -26.178  1.00  0.00     0.000 C 
BRANCH  16  17
ATOM     17  C   UNL     1      44.097  11.888 -25.598  1.00  0.00    -0.000 C 
BRANCH  17  18
ATOM     18  C   UNL     1      44.303  12.497 -24.200  1.00  0.00    -0.000 C 
BRANCH  18  19
ATOM     19  C   UNL     1      45.771  12.757 -23.818  1.00  0.00    -0.003 C 
ATOM     20  C   UNL     1      46.284  11.807 -22.736  1.00  0.00     0.004 C 
ENDBRANCH  18  19
ENDBRANCH  17  18
ENDBRANCH  16  17
ENDBRANCH  15  16
ENDBRANCH  14  15
ENDBRANCH  13  14
ENDBRANCH   2  13
TORSDOF 15
ENDMDL
MODEL 5
REMARK VINA RESULT:     0.244     17.537     20.246
REMARK INTER + INTRA:           0.427
REMARK INTER:                   1.250
REMARK INTRA:                  -0.823
REMARK UNBOUND:                -0.031
REMARK SMILES CCCCCCCCC=CCCCCCCCC(=O)[O-]
REMARK SMILES IDX 10 1 9 2 11 3 12 4 13 5 14 6 15 7 16 8 17 9 18 10 19 11
REMARK SMILES IDX 20 12 8 13 7 14 6 15 5 16 4 17 3 18 2 19 1 20
REMARK H PARENT
REMARK Flexibility Score: inf
ROOT
ATOM      1  C   UNL     1      55.284  25.799 -34.711  1.00  0.00    -0.031 C 
ATOM      2  C   UNL     1      55.026  25.332 -35.947  1.00  0.00    -0.031 C 
ENDROOT
BRANCH   1   3
ATOM      3  C   UNL     1      55.511  27.246 -34.349  1.00  0.00     0.027 C 
BRANCH   3   4
ATOM      4  C   UNL     1      56.771  27.855 -34.990  1.00  0.00     0.004 C 
BRANCH   4   5
ATOM      5  C   UNL     1      56.505  29.119 -35.830  1.00  0.00     0.000 C 
BRANCH   5   6
ATOM      6  C   UNL     1      56.583  30.416 -35.009  1.00  0.00     0.000 C 
BRANCH   6   7
ATOM      7  C   UNL     1      57.122  30.146 -33.599  1.00  0.00     0.000 C 
BRANCH   7   8
ATOM      8  C   UNL     1      56.040  30.401 -32.539  1.00  0.00     0.006 C 
BRANCH   8   9
ATOM      9  C   UNL     1      56.026  29.319 -31.450  1.00  0.00     0.053 C 
BRANCH   9  10
ATOM     10  C   UNL     1      56.391  29.878 -30.108  1.00  0.00     0.041 C 
ATOM     11  O   UNL     1      56.643  31.105 -29.981  1.00  0.00    -0.550 OA
ATOM     12  O   UNL     1      56.420  29.049 -28.993  1.00  0.00    -0.550 OA
ENDBRANCH   9  10
ENDBRANCH   8   9
ENDBRANCH   7   8
ENDBRANCH   6   7
ENDBRANCH   5   6
ENDBRANCH   4   5
ENDBRANCH   3   4
ENDBRANCH   1   3
BRANCH   2  13
ATOM     13  C   UNL     1      54.937  26.169 -37.201  1.00  0.00     0.027 C 
BRANCH  13  14
ATOM     14  C   UNL     1      54.491  25.345 -38.423  1.00  0.00     0.004 C 
BRANCH  14  15
ATOM     15  C   UNL     1      55.321  24.075 -38.691  1.00  0.00     0.000 C 
BRANCH  15  16
ATOM     16  C   UNL     1      54.454  22.821 -38.874  1.00  0.00     0.000 C 
BRANCH  16  17
ATOM     17  C   UNL     1      54.487  21.945 -37.613  1.00  0.00    -0.000 C 
BRANCH  17  18
ATOM     18  C   UNL     1      53.597  20.694 -37.727  1.00  0.00    -0.000 C 
BRANCH  18  19
ATOM     19  C   UNL     1      54.301  19.367 -37.390  1.00  0.00    -0.003 C 
ATOM     20  C   UNL     1      53.915  18.229 -38.334  1.00  0.00     0.004 C 
ENDBRANCH  18  19
ENDBRANCH  17  18
ENDBRANCH  16  17
ENDBRANCH  15  16
ENDBRANCH  14  15
ENDBRANCH  13  14
ENDBRANCH   2  13
TORSDOF 15
ENDMDL
