MODEL 1
REMARK VINA RESULT:    -1.447      0.000      0.000
REMARK INTER + INTRA:          -9.929
REMARK INTER:                  -3.647
REMARK INTRA:                  -6.281
REMARK UNBOUND:                -6.281
REMARK SMILES CCCCCCCCCCCCCCCCCCCCCCCCCCCC(=O)[O-]
REMARK SMILES IDX 15 1 16 2 17 3 18 4 19 5 20 6 21 7 22 8 23 9 24 10 25 11
REMARK SMILES IDX 26 12 27 13 28 14 29 15 30 16 14 17 13 18 12 19 11 20 10 21
REMARK SMILES IDX 9 22 8 23 7 24 6 25 5 26 4 27 3 28 2 29 1 30
REMARK H PARENT
REMARK Flexibility Score: inf
ROOT
ATOM      1  C   UNL     1     178.077 188.281 183.990  1.00  0.00     0.000 C 
ENDROOT
BRANCH   1   2
ATOM      2  C   UNL     1     178.772 189.645 184.170  1.00  0.00     0.000 C 
BRANCH   2   3
ATOM      3  C   UNL     1     178.114 190.814 183.416  1.00  0.00     0.000 C 
BRANCH   3   4
ATOM      4  C   UNL     1     176.903 191.452 184.126  1.00  0.00     0.000 C 
BRANCH   4   5
ATOM      5  C   UNL     1     177.009 191.458 185.666  1.00  0.00     0.000 C 
BRANCH   5   6
ATOM      6  C   UNL     1     175.744 190.903 186.345  1.00  0.00     0.000 C 
BRANCH   6   7
ATOM      7  C   UNL     1     174.928 189.968 185.432  1.00  0.00     0.000 C 
BRANCH   7   8
ATOM      8  C   UNL     1     174.646 188.571 186.014  1.00  0.00     0.000 C 
BRANCH   8   9
ATOM      9  C   UNL     1     175.817 188.017 186.844  1.00  0.00     0.000 C 
BRANCH   9  10
ATOM     10  C   UNL     1     176.095 186.533 186.563  1.00  0.00     0.000 C 
BRANCH  10  11
ATOM     11  C   UNL     1     175.276 185.989 185.378  1.00  0.00     0.000 C 
BRANCH  11  12
ATOM     12  C   UNL     1     174.318 184.858 185.785  1.00  0.00     0.006 C 
BRANCH  12  13
ATOM     13  C   UNL     1     172.913 185.368 186.138  1.00  0.00     0.053 C 
BRANCH  13  14
ATOM     14  C   UNL     1     172.680 185.346 187.619  1.00  0.00     0.041 C 
ATOM     15  O   UNL     1     173.072 186.301 188.343  1.00  0.00    -0.550 OA
ATOM     16  O   UNL     1     172.077 184.242 188.209  1.00  0.00    -0.550 OA
ENDBRANCH  13  14
ENDBRANCH  12  13
ENDBRANCH  11  12
ENDBRANCH  10  11
ENDBRANCH   9  10
ENDBRANCH   8   9
ENDBRANCH   7   8
ENDBRANCH   6   7
ENDBRANCH   5   6
ENDBRANCH   4   5
ENDBRANCH   3   4
ENDBRANCH   2   3
ENDBRANCH   1   2
BRANCH   1  17
ATOM     17  C   UNL     1     177.487 188.067 182.580  1.00  0.00     0.000 C 
BRANCH  17  18
ATOM     18  C   UNL     1     175.949 188.114 182.573  1.00  0.00     0.000 C 
BRANCH  18  19
ATOM     19  C   UNL     1     175.340 187.227 181.474  1.00  0.00     0.000 C 
BRANCH  19  20
ATOM     20  C   UNL     1     173.810 187.367 181.385  1.00  0.00     0.000 C 
BRANCH  20  21
ATOM     21  C   UNL     1     173.141 187.466 182.765  1.00  0.00     0.000 C 
BRANCH  21  22
ATOM     22  C   UNL     1     171.865 188.326 182.748  1.00  0.00    -0.000 C 
BRANCH  22  23
ATOM     23  C   UNL     1     172.013 189.596 181.893  1.00  0.00    -0.000 C 
BRANCH  23  24
ATOM     24  C   UNL     1     172.475 190.813 182.714  1.00  0.00    -0.000 C 
BRANCH  24  25
ATOM     25  C   UNL     1     173.801 191.407 182.206  1.00  0.00    -0.000 C 
BRANCH  25  26
ATOM     26  C   UNL     1     174.167 191.046 180.752  1.00  0.00    -0.000 C 
BRANCH  26  27
ATOM     27  C   UNL     1     175.610 191.383 180.335  1.00  0.00    -0.000 C 
BRANCH  27  28
ATOM     28  C   UNL     1     176.298 190.235 179.583  1.00  0.00    -0.000 C 
BRANCH  28  29
ATOM     29  C   UNL     1     177.823 190.327 179.716  1.00  0.00    -0.003 C 
ATOM     30  C   UNL     1     178.504 189.102 179.112  1.00  0.00     0.004 C 
ENDBRANCH  28  29
ENDBRANCH  27  28
ENDBRANCH  26  27
ENDBRANCH  25  26
ENDBRANCH  24  25
ENDBRANCH  23  24
ENDBRANCH  22  23
ENDBRANCH  21  22
ENDBRANCH  20  21
ENDBRANCH  19  20
ENDBRANCH  18  19
ENDBRANCH  17  18
ENDBRANCH   1  17
TORSDOF 26
ENDMDL
MODEL 2
REMARK VINA RESULT:    -1.440      2.802      5.849
REMARK INTER + INTRA:          -9.910
REMARK INTER:                  -3.578
REMARK INTRA:                  -6.332
REMARK UNBOUND:                -6.281
REMARK SMILES CCCCCCCCCCCCCCCCCCCCCCCCCCCC(=O)[O-]
REMARK SMILES IDX 15 1 16 2 17 3 18 4 19 5 20 6 21 7 22 8 23 9 24 10 25 11
REMARK SMILES IDX 26 12 27 13 28 14 29 15 30 16 14 17 13 18 12 19 11 20 10 21
REMARK SMILES IDX 9 22 8 23 7 24 6 25 5 26 4 27 3 28 2 29 1 30
REMARK H PARENT
REMARK Flexibility Score: inf
ROOT
ATOM      1  C   UNL     1     174.916 187.832 180.716  1.00  0.00     0.000 C 
ENDROOT
BRANCH   1   2
ATOM      2  C   UNL     1     174.533 187.954 179.228  1.00  0.00     0.000 C 
BRANCH   2   3
ATOM      3  C   UNL     1     173.789 189.248 178.853  1.00  0.00     0.000 C 
BRANCH   3   4
ATOM      4  C   UNL     1     172.302 189.289 179.256  1.00  0.00     0.000 C 
BRANCH   4   5
ATOM      5  C   UNL     1     171.879 190.593 179.966  1.00  0.00     0.000 C 
BRANCH   5   6
ATOM      6  C   UNL     1     173.085 191.435 180.419  1.00  0.00     0.000 C 
BRANCH   6   7
ATOM      7  C   UNL     1     173.205 191.544 181.950  1.00  0.00     0.000 C 
BRANCH   7   8
ATOM      8  C   UNL     1     172.152 190.750 182.746  1.00  0.00     0.000 C 
BRANCH   8   9
ATOM      9  C   UNL     1     172.708 189.446 183.344  1.00  0.00     0.000 C 
BRANCH   9  10
ATOM     10  C   UNL     1     171.677 188.699 184.203  1.00  0.00     0.000 C 
BRANCH  10  11
ATOM     11  C   UNL     1     171.069 187.484 183.478  1.00  0.00     0.000 C 
BRANCH  11  12
ATOM     12  C   UNL     1     171.880 187.059 182.245  1.00  0.00     0.006 C 
BRANCH  12  13
ATOM     13  C   UNL     1     171.023 186.354 181.183  1.00  0.00     0.053 C 
BRANCH  13  14
ATOM     14  C   UNL     1     171.870 185.549 180.243  1.00  0.00     0.041 C 
ATOM     15  O   UNL     1     172.793 184.811 180.685  1.00  0.00    -0.550 OA
ATOM     16  O   UNL     1     171.676 185.657 178.871  1.00  0.00    -0.550 OA
ENDBRANCH  13  14
ENDBRANCH  12  13
ENDBRANCH  11  12
ENDBRANCH  10  11
ENDBRANCH   9  10
ENDBRANCH   8   9
ENDBRANCH   7   8
ENDBRANCH   6   7
ENDBRANCH   5   6
ENDBRANCH   4   5
ENDBRANCH   3   4
ENDBRANCH   2   3
ENDBRANCH   1   2
BRANCH   1  17
ATOM     17  C   UNL     1     176.329 188.364 181.039  1.00  0.00     0.000 C 
BRANCH  17  18
ATOM     18  C   UNL     1     176.298 189.754 181.697  1.00  0.00     0.000 C 
BRANCH  18  19
ATOM     19  C   UNL     1     176.769 189.721 183.160  1.00  0.00     0.000 C 
BRANCH  19  20
ATOM     20  C   UNL     1     176.107 190.814 184.018  1.00  0.00     0.000 C 
BRANCH  20  21
ATOM     21  C   UNL     1     176.247 190.551 185.525  1.00  0.00     0.000 C 
BRANCH  21  22
ATOM     22  C   UNL     1     175.076 189.735 186.099  1.00  0.00    -0.000 C 
BRANCH  22  23
ATOM     23  C   UNL     1     175.465 188.286 186.436  1.00  0.00    -0.000 C 
BRANCH  23  24
ATOM     24  C   UNL     1     174.243 187.368 186.610  1.00  0.00    -0.000 C 
BRANCH  24  25
ATOM     25  C   UNL     1     174.091 186.351 185.464  1.00  0.00    -0.000 C 
BRANCH  25  26
ATOM     26  C   UNL     1     174.989 186.609 184.236  1.00  0.00    -0.000 C 
BRANCH  26  27
ATOM     27  C   UNL     1     175.399 185.353 183.448  1.00  0.00    -0.000 C 
BRANCH  27  28
ATOM     28  C   UNL     1     176.892 185.019 183.589  1.00  0.00    -0.000 C 
BRANCH  28  29
ATOM     29  C   UNL     1     177.727 186.294 183.756  1.00  0.00    -0.003 C 
ATOM     30  C   UNL     1     178.385 186.345 185.132  1.00  0.00     0.004 C 
ENDBRANCH  28  29
ENDBRANCH  27  28
ENDBRANCH  26  27
ENDBRANCH  25  26
ENDBRANCH  24  25
ENDBRANCH  23  24
ENDBRANCH  22  23
ENDBRANCH  21  22
ENDBRANCH  20  21
ENDBRANCH  19  20
ENDBRANCH  18  19
ENDBRANCH  17  18
ENDBRANCH   1  17
TORSDOF 26
ENDMDL
MODEL 3
REMARK VINA RESULT:    -1.439      1.797      3.387
REMARK INTER + INTRA:          -9.908
REMARK INTER:                  -4.051
REMARK INTRA:                  -5.857
REMARK UNBOUND:                -6.281
REMARK SMILES CCCCCCCCCCCCCCCCCCCCCCCCCCCC(=O)[O-]
REMARK SMILES IDX 15 1 16 2 17 3 18 4 19 5 20 6 21 7 22 8 23 9 24 10 25 11
REMARK SMILES IDX 26 12 27 13 28 14 29 15 30 16 14 17 13 18 12 19 11 20 10 21
REMARK SMILES IDX 9 22 8 23 7 24 6 25 5 26 4 27 3 28 2 29 1 30
REMARK H PARENT
REMARK Flexibility Score: inf
ROOT
ATOM      1  C   UNL     1     175.829 186.554 183.271  1.00  0.00     0.000 C 
ENDROOT
BRANCH   1   2
ATOM      2  C   UNL     1     176.048 187.779 182.363  1.00  0.00     0.000 C 
BRANCH   2   3
ATOM      3  C   UNL     1     177.136 188.757 182.843  1.00  0.00     0.000 C 
BRANCH   3   4
ATOM      4  C   UNL     1     176.935 190.224 182.412  1.00  0.00     0.000 C 
BRANCH   4   5
ATOM      5  C   UNL     1     176.533 191.168 183.566  1.00  0.00     0.000 C 
BRANCH   5   6
ATOM      6  C   UNL     1     176.784 190.545 184.951  1.00  0.00     0.000 C 
BRANCH   6   7
ATOM      7  C   UNL     1     175.539 190.566 185.857  1.00  0.00     0.000 C 
BRANCH   7   8
ATOM      8  C   UNL     1     174.890 189.192 186.108  1.00  0.00     0.000 C 
BRANCH   8   9
ATOM      9  C   UNL     1     175.894 188.133 186.594  1.00  0.00     0.000 C 
BRANCH   9  10
ATOM     10  C   UNL     1     175.210 186.860 187.113  1.00  0.00     0.000 C 
BRANCH  10  11
ATOM     11  C   UNL     1     173.677 186.914 186.985  1.00  0.00     0.000 C 
BRANCH  11  12
ATOM     12  C   UNL     1     173.013 185.545 187.195  1.00  0.00     0.006 C 
BRANCH  12  13
ATOM     13  C   UNL     1     171.993 185.204 186.098  1.00  0.00     0.053 C 
BRANCH  13  14
ATOM     14  C   UNL     1     172.101 183.768 185.680  1.00  0.00     0.041 C 
ATOM     15  O   UNL     1     171.103 183.001 185.763  1.00  0.00    -0.550 OA
ATOM     16  O   UNL     1     173.321 183.261 185.248  1.00  0.00    -0.550 OA
ENDBRANCH  13  14
ENDBRANCH  12  13
ENDBRANCH  11  12
ENDBRANCH  10  11
ENDBRANCH   9  10
ENDBRANCH   8   9
ENDBRANCH   7   8
ENDBRANCH   6   7
ENDBRANCH   5   6
ENDBRANCH   4   5
ENDBRANCH   3   4
ENDBRANCH   2   3
ENDBRANCH   1   2
BRANCH   1  17
ATOM     17  C   UNL     1     174.343 186.183 183.465  1.00  0.00     0.000 C 
BRANCH  17  18
ATOM     18  C   UNL     1     173.847 185.172 182.417  1.00  0.00     0.000 C 
BRANCH  18  19
ATOM     19  C   UNL     1     172.534 185.612 181.751  1.00  0.00     0.000 C 
BRANCH  19  20
ATOM     20  C   UNL     1     172.697 185.879 180.244  1.00  0.00     0.000 C 
BRANCH  20  21
ATOM     21  C   UNL     1     173.389 187.220 179.950  1.00  0.00     0.000 C 
BRANCH  21  22
ATOM     22  C   UNL     1     172.639 188.058 178.899  1.00  0.00    -0.000 C 
BRANCH  22  23
ATOM     23  C   UNL     1     171.931 189.281 179.504  1.00  0.00    -0.000 C 
BRANCH  23  24
ATOM     24  C   UNL     1     172.710 190.589 179.279  1.00  0.00    -0.000 C 
BRANCH  24  25
ATOM     25  C   UNL     1     173.826 190.806 180.317  1.00  0.00    -0.000 C 
BRANCH  25  26
ATOM     26  C   UNL     1     173.492 191.814 181.436  1.00  0.00    -0.000 C 
BRANCH  26  27
ATOM     27  C   UNL     1     172.703 191.237 182.625  1.00  0.00    -0.000 C 
BRANCH  27  28
ATOM     28  C   UNL     1     173.114 189.798 182.973  1.00  0.00    -0.000 C 
BRANCH  28  29
ATOM     29  C   UNL     1     171.891 188.873 183.022  1.00  0.00    -0.003 C 
ATOM     30  C   UNL     1     171.531 188.512 184.460  1.00  0.00     0.004 C 
ENDBRANCH  28  29
ENDBRANCH  27  28
ENDBRANCH  26  27
ENDBRANCH  25  26
ENDBRANCH  24  25
ENDBRANCH  23  24
ENDBRANCH  22  23
ENDBRANCH  21  22
ENDBRANCH  20  21
ENDBRANCH  19  20
ENDBRANCH  18  19
ENDBRANCH  17  18
ENDBRANCH   1  17
TORSDOF 26
ENDMDL
MODEL 4
REMARK VINA RESULT:    -1.404      2.858      5.403
REMARK INTER + INTRA:          -9.820
REMARK INTER:                  -3.937
REMARK INTRA:                  -5.884
REMARK UNBOUND:                -6.281
REMARK SMILES CCCCCCCCCCCCCCCCCCCCCCCCCCCC(=O)[O-]
REMARK SMILES IDX 15 1 16 2 17 3 18 4 19 5 20 6 21 7 22 8 23 9 24 10 25 11
REMARK SMILES IDX 26 12 27 13 28 14 29 15 30 16 14 17 13 18 12 19 11 20 10 21
REMARK SMILES IDX 9 22 8 23 7 24 6 25 5 26 4 27 3 28 2 29 1 30
REMARK H PARENT
REMARK Flexibility Score: inf
ROOT
ATOM      1  C   UNL     1     171.179 187.645 182.775  1.00  0.00     0.000 C 
ENDROOT
BRANCH   1   2
ATOM      2  C   UNL     1     171.438 187.880 184.277  1.00  0.00     0.000 C 
BRANCH   2   3
ATOM      3  C   UNL     1     172.817 188.476 184.612  1.00  0.00     0.000 C 
BRANCH   3   4
ATOM      4  C   UNL     1     173.546 187.813 185.798  1.00  0.00     0.000 C 
BRANCH   4   5
ATOM      5  C   UNL     1     174.901 188.465 186.146  1.00  0.00     0.000 C 
BRANCH   5   6
ATOM      6  C   UNL     1     174.970 189.943 185.722  1.00  0.00     0.000 C 
BRANCH   6   7
ATOM      7  C   UNL     1     175.760 190.819 186.712  1.00  0.00     0.000 C 
BRANCH   7   8
ATOM      8  C   UNL     1     176.917 191.624 186.092  1.00  0.00     0.000 C 
BRANCH   8   9
ATOM      9  C   UNL     1     176.970 191.515 184.558  1.00  0.00     0.000 C 
BRANCH   9  10
ATOM     10  C   UNL     1     178.264 190.858 184.053  1.00  0.00     0.000 C 
BRANCH  10  11
ATOM     11  C   UNL     1     178.524 189.484 184.698  1.00  0.00     0.000 C 
BRANCH  11  12
ATOM     12  C   UNL     1     179.202 188.494 183.738  1.00  0.00     0.006 C 
BRANCH  12  13
ATOM     13  C   UNL     1     179.733 187.242 184.452  1.00  0.00     0.053 C 
BRANCH  13  14
ATOM     14  C   UNL     1     180.416 186.315 183.492  1.00  0.00     0.041 C 
ATOM     15  O   UNL     1     181.611 186.519 183.145  1.00  0.00    -0.550 OA
ATOM     16  O   UNL     1     179.713 185.252 182.936  1.00  0.00    -0.550 OA
ENDBRANCH  13  14
ENDBRANCH  12  13
ENDBRANCH  11  12
ENDBRANCH  10  11
ENDBRANCH   9  10
ENDBRANCH   8   9
ENDBRANCH   7   8
ENDBRANCH   6   7
ENDBRANCH   5   6
ENDBRANCH   4   5
ENDBRANCH   3   4
ENDBRANCH   2   3
ENDBRANCH   1   2
BRANCH   1  17
ATOM     17  C   UNL     1     172.418 187.143 182.003  1.00  0.00     0.000 C 
BRANCH  17  18
ATOM     18  C   UNL     1     172.393 187.554 180.520  1.00  0.00     0.000 C 
BRANCH  18  19
ATOM     19  C   UNL     1     171.144 188.374 180.160  1.00  0.00     0.000 C 
BRANCH  19  20
ATOM     20  C   UNL     1     171.493 189.756 179.581  1.00  0.00     0.000 C 
BRANCH  20  21
ATOM     21  C   UNL     1     170.884 190.911 180.391  1.00  0.00     0.000 C 
BRANCH  21  22
ATOM     22  C   UNL     1     171.633 191.173 181.710  1.00  0.00    -0.000 C 
BRANCH  22  23
ATOM     23  C   UNL     1     173.083 191.635 181.491  1.00  0.00    -0.000 C 
BRANCH  23  24
ATOM     24  C   UNL     1     174.096 190.820 182.314  1.00  0.00    -0.000 C 
BRANCH  24  25
ATOM     25  C   UNL     1     174.968 189.897 181.443  1.00  0.00    -0.000 C 
BRANCH  25  26
ATOM     26  C   UNL     1     175.775 188.835 182.217  1.00  0.00    -0.000 C 
BRANCH  26  27
ATOM     27  C   UNL     1     176.534 187.821 181.343  1.00  0.00    -0.000 C 
BRANCH  27  28
ATOM     28  C   UNL     1     176.432 186.383 181.871  1.00  0.00    -0.000 C 
BRANCH  28  29
ATOM     29  C   UNL     1     175.663 186.336 183.197  1.00  0.00    -0.003 C 
ATOM     30  C   UNL     1     176.464 185.607 184.272  1.00  0.00     0.004 C 
ENDBRANCH  28  29
ENDBRANCH  27  28
ENDBRANCH  26  27
ENDBRANCH  25  26
ENDBRANCH  24  25
ENDBRANCH  23  24
ENDBRANCH  22  23
ENDBRANCH  21  22
ENDBRANCH  20  21
ENDBRANCH  19  20
ENDBRANCH  18  19
ENDBRANCH  17  18
ENDBRANCH   1  17
TORSDOF 26
ENDMDL
MODEL 5
REMARK VINA RESULT:    -1.398      2.675      6.420
REMARK INTER + INTRA:          -9.805
REMARK INTER:                  -3.472
REMARK INTRA:                  -6.333
REMARK UNBOUND:                -6.281
REMARK SMILES CCCCCCCCCCCCCCCCCCCCCCCCCCCC(=O)[O-]
REMARK SMILES IDX 15 1 16 2 17 3 18 4 19 5 20 6 21 7 22 8 23 9 24 10 25 11
REMARK SMILES IDX 26 12 27 13 28 14 29 15 30 16 14 17 13 18 12 19 11 20 10 21
REMARK SMILES IDX 9 22 8 23 7 24 6 25 5 26 4 27 3 28 2 29 1 30
REMARK H PARENT
REMARK Flexibility Score: inf
ROOT
ATOM      1  C   UNL     1     172.632 187.378 180.975  1.00  0.00     0.000 C 
ENDROOT
BRANCH   1   2
ATOM      2  C   UNL     1     172.636 187.867 179.513  1.00  0.00     0.000 C 
BRANCH   2   3
ATOM      3  C   UNL     1     171.587 188.945 179.186  1.00  0.00     0.000 C 
BRANCH   3   4
ATOM      4  C   UNL     1     172.108 190.137 178.358  1.00  0.00     0.000 C 
BRANCH   4   5
ATOM      5  C   UNL     1     172.039 191.491 179.094  1.00  0.00     0.000 C 
BRANCH   5   6
ATOM      6  C   UNL     1     171.499 191.355 180.529  1.00  0.00     0.000 C 
BRANCH   6   7
ATOM      7  C   UNL     1     172.504 191.818 181.600  1.00  0.00     0.000 C 
BRANCH   7   8
ATOM      8  C   UNL     1     173.961 191.942 181.117  1.00  0.00     0.000 C 
BRANCH   8   9
ATOM      9  C   UNL     1     174.792 190.676 181.385  1.00  0.00     0.000 C 
BRANCH   9  10
ATOM     10  C   UNL     1     175.526 190.171 180.133  1.00  0.00     0.000 C 
BRANCH  10  11
ATOM     11  C   UNL     1     176.171 188.788 180.339  1.00  0.00     0.000 C 
BRANCH  11  12
ATOM     12  C   UNL     1     176.131 188.325 181.803  1.00  0.00     0.006 C 
BRANCH  12  13
ATOM     13  C   UNL     1     177.436 187.649 182.249  1.00  0.00     0.053 C 
BRANCH  13  14
ATOM     14  C   UNL     1     177.591 186.295 181.623  1.00  0.00     0.041 C 
ATOM     15  O   UNL     1     176.708 185.410 181.784  1.00  0.00    -0.550 OA
ATOM     16  O   UNL     1     178.741 185.992 180.904  1.00  0.00    -0.550 OA
ENDBRANCH  13  14
ENDBRANCH  12  13
ENDBRANCH  11  12
ENDBRANCH  10  11
ENDBRANCH   9  10
ENDBRANCH   8   9
ENDBRANCH   7   8
ENDBRANCH   6   7
ENDBRANCH   5   6
ENDBRANCH   4   5
ENDBRANCH   3   4
ENDBRANCH   2   3
ENDBRANCH   1   2
BRANCH   1  17
ATOM     17  C   UNL     1     171.285 187.596 181.698  1.00  0.00     0.000 C 
BRANCH  17  18
ATOM     18  C   UNL     1     171.405 188.576 182.879  1.00  0.00     0.000 C 
BRANCH  18  19
ATOM     19  C   UNL     1     172.754 188.456 183.606  1.00  0.00     0.000 C 
BRANCH  19  20
ATOM     20  C   UNL     1     172.603 187.937 185.046  1.00  0.00     0.000 C 
BRANCH  20  21
ATOM     21  C   UNL     1     173.289 186.578 185.262  1.00  0.00     0.000 C 
BRANCH  21  22
ATOM     22  C   UNL     1     174.571 186.419 184.425  1.00  0.00    -0.000 C 
BRANCH  22  23
ATOM     23  C   UNL     1     175.838 186.307 185.289  1.00  0.00    -0.000 C 
BRANCH  23  24
ATOM     24  C   UNL     1     175.528 186.277 186.796  1.00  0.00    -0.000 C 
BRANCH  24  25
ATOM     25  C   UNL     1     176.095 187.496 187.547  1.00  0.00    -0.000 C 
BRANCH  25  26
ATOM     26  C   UNL     1     176.576 188.653 186.648  1.00  0.00    -0.000 C 
BRANCH  26  27
ATOM     27  C   UNL     1     175.555 189.784 186.431  1.00  0.00    -0.000 C 
BRANCH  27  28
ATOM     28  C   UNL     1     175.566 190.332 184.996  1.00  0.00    -0.000 C 
BRANCH  28  29
ATOM     29  C   UNL     1     176.997 190.634 184.534  1.00  0.00    -0.003 C 
ATOM     30  C   UNL     1     177.092 192.025 183.914  1.00  0.00     0.004 C 
ENDBRANCH  28  29
ENDBRANCH  27  28
ENDBRANCH  26  27
ENDBRANCH  25  26
ENDBRANCH  24  25
ENDBRANCH  23  24
ENDBRANCH  22  23
ENDBRANCH  21  22
ENDBRANCH  20  21
ENDBRANCH  19  20
ENDBRANCH  18  19
ENDBRANCH  17  18
ENDBRANCH   1  17
TORSDOF 26
ENDMDL
MODEL 6
REMARK VINA RESULT:    -1.397      3.546      7.230
REMARK INTER + INTRA:          -9.802
REMARK INTER:                  -4.469
REMARK INTRA:                  -5.333
REMARK UNBOUND:                -6.281
REMARK SMILES CCCCCCCCCCCCCCCCCCCCCCCCCCCC(=O)[O-]
REMARK SMILES IDX 15 1 16 2 17 3 18 4 19 5 20 6 21 7 22 8 23 9 24 10 25 11
REMARK SMILES IDX 26 12 27 13 28 14 29 15 30 16 14 17 13 18 12 19 11 20 10 21
REMARK SMILES IDX 9 22 8 23 7 24 6 25 5 26 4 27 3 28 2 29 1 30
REMARK H PARENT
REMARK Flexibility Score: inf
ROOT
ATOM      1  C   UNL     1     175.892 190.632 184.232  1.00  0.00     0.000 C 
ENDROOT
BRANCH   1   2
ATOM      2  C   UNL     1     175.700 189.181 184.715  1.00  0.00     0.000 C 
BRANCH   2   3
ATOM      3  C   UNL     1     174.535 188.972 185.698  1.00  0.00     0.000 C 
BRANCH   3   4
ATOM      4  C   UNL     1     174.700 187.783 186.667  1.00  0.00     0.000 C 
BRANCH   4   5
ATOM      5  C   UNL     1     173.448 186.888 186.780  1.00  0.00     0.000 C 
BRANCH   5   6
ATOM      6  C   UNL     1     173.421 185.775 185.717  1.00  0.00     0.000 C 
BRANCH   6   7
ATOM      7  C   UNL     1     172.552 186.127 184.495  1.00  0.00     0.000 C 
BRANCH   7   8
ATOM      8  C   UNL     1     171.287 186.947 184.809  1.00  0.00     0.000 C 
BRANCH   8   9
ATOM      9  C   UNL     1     171.301 188.343 184.164  1.00  0.00     0.000 C 
BRANCH   9  10
ATOM     10  C   UNL     1     171.685 188.307 182.677  1.00  0.00     0.000 C 
BRANCH  10  11
ATOM     11  C   UNL     1     172.815 189.294 182.330  1.00  0.00     0.000 C 
BRANCH  11  12
ATOM     12  C   UNL     1     172.497 190.736 182.757  1.00  0.00     0.006 C 
BRANCH  12  13
ATOM     13  C   UNL     1     172.952 191.776 181.722  1.00  0.00     0.053 C 
BRANCH  13  14
ATOM     14  C   UNL     1     172.202 191.628 180.432  1.00  0.00     0.041 C 
ATOM     15  O   UNL     1     170.948 191.756 180.403  1.00  0.00    -0.550 OA
ATOM     16  O   UNL     1     172.885 191.294 179.269  1.00  0.00    -0.550 OA
ENDBRANCH  13  14
ENDBRANCH  12  13
ENDBRANCH  11  12
ENDBRANCH  10  11
ENDBRANCH   9  10
ENDBRANCH   8   9
ENDBRANCH   7   8
ENDBRANCH   6   7
ENDBRANCH   5   6
ENDBRANCH   4   5
ENDBRANCH   3   4
ENDBRANCH   2   3
ENDBRANCH   1   2
BRANCH   1  17
ATOM     17  C   UNL     1     177.070 191.362 184.912  1.00  0.00     0.000 C 
BRANCH  17  18
ATOM     18  C   UNL     1     176.767 191.732 186.374  1.00  0.00     0.000 C 
BRANCH  18  19
ATOM     19  C   UNL     1     177.849 191.229 187.343  1.00  0.00     0.000 C 
BRANCH  19  20
ATOM     20  C   UNL     1     177.457 189.911 188.033  1.00  0.00     0.000 C 
BRANCH  20  21
ATOM     21  C   UNL     1     178.197 188.695 187.453  1.00  0.00     0.000 C 
BRANCH  21  22
ATOM     22  C   UNL     1     178.393 187.570 188.486  1.00  0.00    -0.000 C 
BRANCH  22  23
ATOM     23  C   UNL     1     177.275 187.524 189.539  1.00  0.00    -0.000 C 
BRANCH  23  24
ATOM     24  C   UNL     1     176.420 186.249 189.441  1.00  0.00    -0.000 C 
BRANCH  24  25
ATOM     25  C   UNL     1     177.143 185.099 188.715  1.00  0.00    -0.000 C 
BRANCH  25  26
ATOM     26  C   UNL     1     176.427 184.563 187.459  1.00  0.00    -0.000 C 
BRANCH  26  27
ATOM     27  C   UNL     1     177.287 184.515 186.184  1.00  0.00    -0.000 C 
BRANCH  27  28
ATOM     28  C   UNL     1     177.222 185.816 185.370  1.00  0.00    -0.000 C 
BRANCH  28  29
ATOM     29  C   UNL     1     176.788 185.541 183.926  1.00  0.00    -0.003 C 
ATOM     30  C   UNL     1     176.130 184.171 183.800  1.00  0.00     0.004 C 
ENDBRANCH  28  29
ENDBRANCH  27  28
ENDBRANCH  26  27
ENDBRANCH  25  26
ENDBRANCH  24  25
ENDBRANCH  23  24
ENDBRANCH  22  23
ENDBRANCH  21  22
ENDBRANCH  20  21
ENDBRANCH  19  20
ENDBRANCH  18  19
ENDBRANCH  17  18
ENDBRANCH   1  17
TORSDOF 26
ENDMDL
MODEL 7
REMARK VINA RESULT:    -1.394      2.703      5.166
REMARK INTER + INTRA:          -9.794
REMARK INTER:                  -3.563
REMARK INTRA:                  -6.231
REMARK UNBOUND:                -6.281
REMARK SMILES CCCCCCCCCCCCCCCCCCCCCCCCCCCC(=O)[O-]
REMARK SMILES IDX 15 1 16 2 17 3 18 4 19 5 20 6 21 7 22 8 23 9 24 10 25 11
REMARK SMILES IDX 26 12 27 13 28 14 29 15 30 16 14 17 13 18 12 19 11 20 10 21
REMARK SMILES IDX 9 22 8 23 7 24 6 25 5 26 4 27 3 28 2 29 1 30
REMARK H PARENT
REMARK Flexibility Score: inf
ROOT
ATOM      1  C   UNL     1     174.165 185.707 182.083  1.00  0.00     0.000 C 
ENDROOT
BRANCH   1   2
ATOM      2  C   UNL     1     174.096 186.018 183.591  1.00  0.00     0.000 C 
BRANCH   2   3
ATOM      3  C   UNL     1     172.861 186.826 184.031  1.00  0.00     0.000 C 
BRANCH   3   4
ATOM      4  C   UNL     1     172.333 186.499 185.442  1.00  0.00     0.000 C 
BRANCH   4   5
ATOM      5  C   UNL     1     172.988 185.258 186.086  1.00  0.00     0.000 C 
BRANCH   5   6
ATOM      6  C   UNL     1     173.664 185.580 187.431  1.00  0.00     0.000 C 
BRANCH   6   7
ATOM      7  C   UNL     1     174.413 186.926 187.424  1.00  0.00     0.000 C 
BRANCH   7   8
ATOM      8  C   UNL     1     175.804 186.895 186.765  1.00  0.00     0.000 C 
BRANCH   8   9
ATOM      9  C   UNL     1     176.122 188.173 185.971  1.00  0.00     0.000 C 
BRANCH   9  10
ATOM     10  C   UNL     1     174.951 189.167 185.951  1.00  0.00     0.000 C 
BRANCH  10  11
ATOM     11  C   UNL     1     175.395 190.614 186.232  1.00  0.00     0.000 C 
BRANCH  11  12
ATOM     12  C   UNL     1     176.914 190.806 186.106  1.00  0.00     0.006 C 
BRANCH  12  13
ATOM     13  C   UNL     1     177.309 191.647 184.883  1.00  0.00     0.053 C 
BRANCH  13  14
ATOM     14  C   UNL     1     178.427 191.006 184.117  1.00  0.00     0.041 C 
ATOM     15  O   UNL     1     179.137 190.111 184.651  1.00  0.00    -0.550 OA
ATOM     16  O   UNL     1     178.720 191.436 182.828  1.00  0.00    -0.550 OA
ENDBRANCH  13  14
ENDBRANCH  12  13
ENDBRANCH  11  12
ENDBRANCH  10  11
ENDBRANCH   9  10
ENDBRANCH   8   9
ENDBRANCH   7   8
ENDBRANCH   6   7
ENDBRANCH   5   6
ENDBRANCH   4   5
ENDBRANCH   3   4
ENDBRANCH   2   3
ENDBRANCH   1   2
BRANCH   1  17
ATOM     17  C   UNL     1     173.054 186.389 181.257  1.00  0.00     0.000 C 
BRANCH  17  18
ATOM     18  C   UNL     1     173.550 186.854 179.876  1.00  0.00     0.000 C 
BRANCH  18  19
ATOM     19  C   UNL     1     172.575 187.832 179.201  1.00  0.00     0.000 C 
BRANCH  19  20
ATOM     20  C   UNL     1     173.149 189.255 179.091  1.00  0.00     0.000 C 
BRANCH  20  21
ATOM     21  C   UNL     1     172.228 190.317 179.713  1.00  0.00     0.000 C 
BRANCH  21  22
ATOM     22  C   UNL     1     171.388 189.766 180.880  1.00  0.00    -0.000 C 
BRANCH  22  23
ATOM     23  C   UNL     1     172.101 189.884 182.237  1.00  0.00    -0.000 C 
BRANCH  23  24
ATOM     24  C   UNL     1     172.898 191.193 182.376  1.00  0.00    -0.000 C 
BRANCH  24  25
ATOM     25  C   UNL     1     174.389 190.956 182.681  1.00  0.00    -0.000 C 
BRANCH  25  26
ATOM     26  C   UNL     1     174.905 189.538 182.361  1.00  0.00    -0.000 C 
BRANCH  26  27
ATOM     27  C   UNL     1     176.125 189.479 181.425  1.00  0.00    -0.000 C 
BRANCH  27  28
ATOM     28  C   UNL     1     176.710 188.065 181.294  1.00  0.00    -0.000 C 
BRANCH  28  29
ATOM     29  C   UNL     1     177.840 187.842 182.307  1.00  0.00    -0.003 C 
ATOM     30  C   UNL     1     177.705 186.485 182.992  1.00  0.00     0.004 C 
ENDBRANCH  28  29
ENDBRANCH  27  28
ENDBRANCH  26  27
ENDBRANCH  25  26
ENDBRANCH  24  25
ENDBRANCH  23  24
ENDBRANCH  22  23
ENDBRANCH  21  22
ENDBRANCH  20  21
ENDBRANCH  19  20
ENDBRANCH  18  19
ENDBRANCH  17  18
ENDBRANCH   1  17
TORSDOF 26
ENDMDL
MODEL 8
REMARK VINA RESULT:    -1.366      2.398      6.160
REMARK INTER + INTRA:          -9.725
REMARK INTER:                  -3.961
REMARK INTRA:                  -5.764
REMARK UNBOUND:                -6.281
REMARK SMILES CCCCCCCCCCCCCCCCCCCCCCCCCCCC(=O)[O-]
REMARK SMILES IDX 15 1 16 2 17 3 18 4 19 5 20 6 21 7 22 8 23 9 24 10 25 11
REMARK SMILES IDX 26 12 27 13 28 14 29 15 30 16 14 17 13 18 12 19 11 20 10 21
REMARK SMILES IDX 9 22 8 23 7 24 6 25 5 26 4 27 3 28 2 29 1 30
REMARK H PARENT
REMARK Flexibility Score: inf
ROOT
ATOM      1  C   UNL     1     171.471 188.302 184.225  1.00  0.00     0.000 C 
ENDROOT
BRANCH   1   2
ATOM      2  C   UNL     1     171.572 187.378 182.995  1.00  0.00     0.000 C 
BRANCH   2   3
ATOM      3  C   UNL     1     170.997 187.965 181.693  1.00  0.00     0.000 C 
BRANCH   3   4
ATOM      4  C   UNL     1     172.023 188.181 180.563  1.00  0.00     0.000 C 
BRANCH   4   5
ATOM      5  C   UNL     1     172.443 189.653 180.369  1.00  0.00     0.000 C 
BRANCH   5   6
ATOM      6  C   UNL     1     171.636 190.618 181.256  1.00  0.00     0.000 C 
BRANCH   6   7
ATOM      7  C   UNL     1     172.494 191.316 182.327  1.00  0.00     0.000 C 
BRANCH   7   8
ATOM      8  C   UNL     1     173.984 191.473 181.969  1.00  0.00     0.000 C 
BRANCH   8   9
ATOM      9  C   UNL     1     174.912 190.667 182.894  1.00  0.00     0.000 C 
BRANCH   9  10
ATOM     10  C   UNL     1     176.129 190.088 182.157  1.00  0.00     0.000 C 
BRANCH  10  11
ATOM     11  C   UNL     1     176.388 188.611 182.507  1.00  0.00     0.000 C 
BRANCH  11  12
ATOM     12  C   UNL     1     175.133 187.736 182.367  1.00  0.00     0.006 C 
BRANCH  12  13
ATOM     13  C   UNL     1     175.363 186.287 182.823  1.00  0.00     0.053 C 
BRANCH  13  14
ATOM     14  C   UNL     1     174.781 185.309 181.847  1.00  0.00     0.041 C 
ATOM     15  O   UNL     1     174.533 185.658 180.661  1.00  0.00    -0.550 OA
ATOM     16  O   UNL     1     174.461 184.022 182.264  1.00  0.00    -0.550 OA
ENDBRANCH  13  14
ENDBRANCH  12  13
ENDBRANCH  11  12
ENDBRANCH  10  11
ENDBRANCH   9  10
ENDBRANCH   8   9
ENDBRANCH   7   8
ENDBRANCH   6   7
ENDBRANCH   5   6
ENDBRANCH   4   5
ENDBRANCH   3   4
ENDBRANCH   2   3
ENDBRANCH   1   2
BRANCH   1  17
ATOM     17  C   UNL     1     172.794 188.437 185.010  1.00  0.00     0.000 C 
BRANCH  17  18
ATOM     18  C   UNL     1     173.144 187.160 185.794  1.00  0.00     0.000 C 
BRANCH  18  19
ATOM     19  C   UNL     1     174.321 187.370 186.761  1.00  0.00     0.000 C 
BRANCH  19  20
ATOM     20  C   UNL     1     175.541 188.008 186.075  1.00  0.00     0.000 C 
BRANCH  20  21
ATOM     21  C   UNL     1     176.143 189.164 186.890  1.00  0.00     0.000 C 
BRANCH  21  22
ATOM     22  C   UNL     1     175.609 190.541 186.455  1.00  0.00    -0.000 C 
BRANCH  22  23
ATOM     23  C   UNL     1     176.712 191.468 185.921  1.00  0.00    -0.000 C 
BRANCH  23  24
ATOM     24  C   UNL     1     178.114 190.842 186.021  1.00  0.00    -0.000 C 
BRANCH  24  25
ATOM     25  C   UNL     1     178.752 190.580 184.644  1.00  0.00    -0.000 C 
BRANCH  25  26
ATOM     26  C   UNL     1     180.055 189.756 184.671  1.00  0.00    -0.000 C 
BRANCH  26  27
ATOM     27  C   UNL     1     179.952 188.345 184.067  1.00  0.00    -0.000 C 
BRANCH  27  28
ATOM     28  C   UNL     1     178.908 187.467 184.774  1.00  0.00    -0.000 C 
BRANCH  28  29
ATOM     29  C   UNL     1     179.553 186.635 185.888  1.00  0.00    -0.003 C 
ATOM     30  C   UNL     1     179.262 187.233 187.261  1.00  0.00     0.004 C 
ENDBRANCH  28  29
ENDBRANCH  27  28
ENDBRANCH  26  27
ENDBRANCH  25  26
ENDBRANCH  24  25
ENDBRANCH  23  24
ENDBRANCH  22  23
ENDBRANCH  21  22
ENDBRANCH  20  21
ENDBRANCH  19  20
ENDBRANCH  18  19
ENDBRANCH  17  18
ENDBRANCH   1  17
TORSDOF 26
ENDMDL
MODEL 9
REMARK VINA RESULT:    -1.358      1.677      3.288
REMARK INTER + INTRA:          -9.703
REMARK INTER:                  -4.017
REMARK INTRA:                  -5.686
REMARK UNBOUND:                -6.281
REMARK SMILES CCCCCCCCCCCCCCCCCCCCCCCCCCCC(=O)[O-]
REMARK SMILES IDX 15 1 16 2 17 3 18 4 19 5 20 6 21 7 22 8 23 9 24 10 25 11
REMARK SMILES IDX 26 12 27 13 28 14 29 15 30 16 14 17 13 18 12 19 11 20 10 21
REMARK SMILES IDX 9 22 8 23 7 24 6 25 5 26 4 27 3 28 2 29 1 30
REMARK H PARENT
REMARK Flexibility Score: inf
ROOT
ATOM      1  C   UNL     1     175.387 190.561 185.933  1.00  0.00     0.000 C 
ENDROOT
BRANCH   1   2
ATOM      2  C   UNL     1     176.396 190.552 184.767  1.00  0.00     0.000 C 
BRANCH   2   3
ATOM      3  C   UNL     1     177.827 190.978 185.144  1.00  0.00     0.000 C 
BRANCH   3   4
ATOM      4  C   UNL     1     178.782 189.821 185.500  1.00  0.00     0.000 C 
BRANCH   4   5
ATOM      5  C   UNL     1     178.561 189.236 186.911  1.00  0.00     0.000 C 
BRANCH   5   6
ATOM      6  C   UNL     1     178.121 187.761 186.875  1.00  0.00     0.000 C 
BRANCH   6   7
ATOM      7  C   UNL     1     178.087 187.175 185.452  1.00  0.00     0.000 C 
BRANCH   7   8
ATOM      8  C   UNL     1     176.841 186.332 185.123  1.00  0.00     0.000 C 
BRANCH   8   9
ATOM      9  C   UNL     1     176.160 185.753 186.375  1.00  0.00     0.000 C 
BRANCH   9  10
ATOM     10  C   UNL     1     174.843 185.031 186.055  1.00  0.00     0.000 C 
BRANCH  10  11
ATOM     11  C   UNL     1     173.908 184.931 187.275  1.00  0.00     0.000 C 
BRANCH  11  12
ATOM     12  C   UNL     1     173.914 186.203 188.135  1.00  0.00     0.006 C 
BRANCH  12  13
ATOM     13  C   UNL     1     174.409 185.951 189.568  1.00  0.00     0.053 C 
BRANCH  13  14
ATOM     14  C   UNL     1     173.279 186.000 190.552  1.00  0.00     0.041 C 
ATOM     15  O   UNL     1     173.494 185.820 191.782  1.00  0.00    -0.550 OA
ATOM     16  O   UNL     1     171.977 186.191 190.104  1.00  0.00    -0.550 OA
ENDBRANCH  13  14
ENDBRANCH  12  13
ENDBRANCH  11  12
ENDBRANCH  10  11
ENDBRANCH   9  10
ENDBRANCH   8   9
ENDBRANCH   7   8
ENDBRANCH   6   7
ENDBRANCH   5   6
ENDBRANCH   4   5
ENDBRANCH   3   4
ENDBRANCH   2   3
ENDBRANCH   1   2
BRANCH   1  17
ATOM     17  C   UNL     1     174.676 189.208 186.148  1.00  0.00     0.000 C 
BRANCH  17  18
ATOM     18  C   UNL     1     174.080 188.644 184.846  1.00  0.00     0.000 C 
BRANCH  18  19
ATOM     19  C   UNL     1     172.725 187.954 185.072  1.00  0.00     0.000 C 
BRANCH  19  20
ATOM     20  C   UNL     1     171.592 188.598 184.254  1.00  0.00     0.000 C 
BRANCH  20  21
ATOM     21  C   UNL     1     171.572 188.123 182.792  1.00  0.00     0.000 C 
BRANCH  21  22
ATOM     22  C   UNL     1     171.945 189.237 181.798  1.00  0.00    -0.000 C 
BRANCH  22  23
ATOM     23  C   UNL     1     172.052 190.619 182.463  1.00  0.00    -0.000 C 
BRANCH  23  24
ATOM     24  C   UNL     1     173.460 191.229 182.340  1.00  0.00    -0.000 C 
BRANCH  24  25
ATOM     25  C   UNL     1     174.193 190.786 181.061  1.00  0.00    -0.000 C 
BRANCH  25  26
ATOM     26  C   UNL     1     175.537 190.065 181.291  1.00  0.00    -0.000 C 
BRANCH  26  27
ATOM     27  C   UNL     1     175.623 188.639 180.719  1.00  0.00    -0.000 C 
BRANCH  27  28
ATOM     28  C   UNL     1     175.498 187.554 181.798  1.00  0.00    -0.000 C 
BRANCH  28  29
ATOM     29  C   UNL     1     174.557 186.431 181.342  1.00  0.00    -0.003 C 
ATOM     30  C   UNL     1     174.187 185.517 182.506  1.00  0.00     0.004 C 
ENDBRANCH  28  29
ENDBRANCH  27  28
ENDBRANCH  26  27
ENDBRANCH  25  26
ENDBRANCH  24  25
ENDBRANCH  23  24
ENDBRANCH  22  23
ENDBRANCH  21  22
ENDBRANCH  20  21
ENDBRANCH  19  20
ENDBRANCH  18  19
ENDBRANCH  17  18
ENDBRANCH   1  17
TORSDOF 26
ENDMDL
