MODEL 1
REMARK VINA RESULT:   132.149      0.000      0.000
REMARK INTER + INTRA:         143.450
REMARK INTER:                 143.737
REMARK INTRA:                  -0.288
REMARK UNBOUND:                -0.288
REMARK SMILES CC1(C)CC[C@]2(C(=O)[O-])CC[C@]3(C)C(=CC[C@@H]4[C@@]5(C)CC[C@H](O)C(C)(C)[C@H]5CC[C@@]43C)[C@@H]2C1
REMARK SMILES IDX 6 1 5 2 10 3 32 4 4 5 11 6 14 7 33 8 2 9 12 10 15 11 1 12
REMARK SMILES IDX 3 13 13 14 30 15 16 16 17 17 29 18 31 19 18 20 28 21 27 22
REMARK SMILES IDX 20 23 19 24 24 25 21 26 22 27 25 28 26 29 7 30 8 31 9 32
REMARK SMILES IDX 23 33
REMARK H PARENT 23 34
REMARK Flexibility Score: inf
ROOT
ATOM      1  C   UNL     1       8.374  40.728  13.875  1.00  0.00     0.017 C 
ATOM      2  C   UNL     1       7.909  41.228  15.265  1.00  0.00     0.014 C 
ATOM      3  C   UNL     1       8.746  42.024  13.019  1.00  0.00     0.014 C 
ATOM      4  C   UNL     1       7.259  39.874  13.168  1.00  0.00     0.028 C 
ATOM      5  C   UNL     1       7.198  40.161  16.125  1.00  0.00     0.007 C 
ATOM      6  C   UNL     1       7.554  42.702  12.244  1.00  0.00     0.013 C 
ATOM      7  C   UNL     1       7.122  40.333  11.716  1.00  0.00    -0.064 C 
ATOM      8  C   UNL     1       5.917  39.854  13.943  1.00  0.00     0.015 C 
ATOM      9  C   UNL     1       6.018  39.416  15.409  1.00  0.00    -0.035 C 
ATOM     10  C   UNL     1       6.590  41.751  11.421  1.00  0.00    -0.006 C 
ATOM     11  C   UNL     1       8.056  39.815  10.867  1.00  0.00    -0.027 C 
ATOM     12  C   UNL     1       4.677  39.791  16.091  1.00  0.00     0.011 C 
ATOM     13  C   UNL     1       6.181  37.895  15.504  1.00  0.00     0.011 C 
ATOM     14  C   UNL     1       5.105  42.007  11.976  1.00  0.00     0.017 C 
ATOM     15  C   UNL     1       6.515  41.916   9.803  1.00  0.00    -0.020 C 
ATOM     16  C   UNL     1       8.776  40.616   9.805  1.00  0.00     0.032 C 
ATOM     17  C   UNL     1       7.860  41.591   9.048  1.00  0.00     0.006 C 
ATOM     18  C   UNL     1       5.992  43.332   9.367  1.00  0.00     0.008 C 
ATOM     19  C   UNL     1       5.450  40.859   9.308  1.00  0.00     0.012 C 
ATOM     20  C   UNL     1       8.612  42.781   8.323  1.00  0.00    -0.025 C 
ATOM     21  C   UNL     1       6.148  43.579   7.855  1.00  0.00     0.005 C 
ATOM     22  C   UNL     1       7.616  43.485   7.317  1.00  0.00     0.003 C 
ATOM     23  C   UNL     1       9.858  42.221   7.541  1.00  0.00     0.010 C 
ATOM     24  C   UNL     1       9.149  43.852   9.335  1.00  0.00     0.012 C 
ATOM     25  C   UNL     1       7.689  42.991   5.792  1.00  0.00    -0.006 C 
ATOM     26  C   UNL     1      10.239  43.115   6.343  1.00  0.00     0.033 C 
ATOM     27  C   UNL     1       9.159  43.153   5.244  1.00  0.00     0.120 C 
ATOM     28  C   UNL     1       7.293  41.510   5.607  1.00  0.00     0.014 C 
ATOM     29  C   UNL     1       6.682  43.826   4.932  1.00  0.00     0.014 C 
ENDROOT
BRANCH   1  30
ATOM     30  C   UNL     1       9.610  39.839  14.026  1.00  0.00     0.048 C 
ATOM     31  O   UNL     1       9.465  38.594  14.154  1.00  0.00    -0.550 OA
ATOM     32  O   UNL     1      10.907  40.352  13.965  1.00  0.00    -0.550 OA
ENDBRANCH   1  30
BRANCH  27  33
ATOM     33  O   UNL     1       9.278  44.388   4.558  1.00  0.00    -0.393 OA
ATOM     34  H   UNL     1       9.075  44.250   3.599  1.00  0.00     0.210 HD
ENDBRANCH  27  33
TORSDOF 2
ENDMDL
MODEL 2
REMARK VINA RESULT:   133.071     14.536     15.942
REMARK INTER + INTRA:         144.453
REMARK INTER:                 144.587
REMARK INTRA:                  -0.135
REMARK UNBOUND:                -0.288
REMARK SMILES CC1(C)CC[C@]2(C(=O)[O-])CC[C@]3(C)C(=CC[C@@H]4[C@@]5(C)CC[C@H](O)C(C)(C)[C@H]5CC[C@@]43C)[C@@H]2C1
REMARK SMILES IDX 6 1 5 2 10 3 32 4 4 5 11 6 14 7 33 8 2 9 12 10 15 11 1 12
REMARK SMILES IDX 3 13 13 14 30 15 16 16 17 17 29 18 31 19 18 20 28 21 27 22
REMARK SMILES IDX 20 23 19 24 24 25 21 26 22 27 25 28 26 29 7 30 8 31 9 32
REMARK SMILES IDX 23 33
REMARK H PARENT 23 34
REMARK Flexibility Score: inf
ROOT
ATOM      1  C   UNL     1       0.607  55.747  13.499  1.00  0.00     0.017 C 
ATOM      2  C   UNL     1      -0.445  56.496  14.354  1.00  0.00     0.014 C 
ATOM      3  C   UNL     1       1.631  56.846  12.958  1.00  0.00     0.014 C 
ATOM      4  C   UNL     1      -0.069  54.959  12.317  1.00  0.00     0.028 C 
ATOM      5  C   UNL     1      -1.702  55.667  14.696  1.00  0.00     0.007 C 
ATOM      6  C   UNL     1       1.224  57.563  11.616  1.00  0.00     0.013 C 
ATOM      7  C   UNL     1       0.714  55.223  11.030  1.00  0.00    -0.064 C 
ATOM      8  C   UNL     1      -1.589  55.231  12.187  1.00  0.00     0.015 C 
ATOM      9  C   UNL     1      -2.403  54.995  13.465  1.00  0.00    -0.035 C 
ATOM     10  C   UNL     1       0.718  56.644  10.427  1.00  0.00    -0.006 C 
ATOM     11  C   UNL     1       1.841  54.468  10.887  1.00  0.00    -0.027 C 
ATOM     12  C   UNL     1      -3.796  55.641  13.245  1.00  0.00     0.011 C 
ATOM     13  C   UNL     1      -2.615  53.495  13.696  1.00  0.00     0.011 C 
ATOM     14  C   UNL     1      -0.744  57.174  10.026  1.00  0.00     0.017 C 
ATOM     15  C   UNL     1       1.586  56.587   9.052  1.00  0.00    -0.020 C 
ATOM     16  C   UNL     1       3.166  55.007  10.394  1.00  0.00     0.032 C 
ATOM     17  C   UNL     1       3.031  55.980   9.213  1.00  0.00     0.006 C 
ATOM     18  C   UNL     1       1.674  57.985   8.339  1.00  0.00     0.008 C 
ATOM     19  C   UNL     1       0.795  55.625   8.080  1.00  0.00     0.012 C 
ATOM     20  C   UNL     1       4.270  56.942   8.999  1.00  0.00    -0.025 C 
ATOM     21  C   UNL     1       2.686  57.992   7.179  1.00  0.00     0.005 C 
ATOM     22  C   UNL     1       4.156  57.626   7.578  1.00  0.00     0.003 C 
ATOM     23  C   UNL     1       5.605  56.115   9.091  1.00  0.00     0.010 C 
ATOM     24  C   UNL     1       4.349  58.064  10.093  1.00  0.00     0.012 C 
ATOM     25  C   UNL     1       4.965  56.916   6.389  1.00  0.00    -0.006 C 
ATOM     26  C   UNL     1       6.749  56.771   8.291  1.00  0.00     0.033 C 
ATOM     27  C   UNL     1       6.490  56.798   6.771  1.00  0.00     0.120 C 
ATOM     28  C   UNL     1       4.463  55.491   6.070  1.00  0.00     0.014 C 
ATOM     29  C   UNL     1       4.786  57.749   5.075  1.00  0.00     0.014 C 
ENDROOT
BRANCH   1  30
ATOM     30  C   UNL     1       1.354  54.728  14.363  1.00  0.00     0.048 C 
ATOM     31  O   UNL     1       2.583  54.889  14.585  1.00  0.00    -0.550 OA
ATOM     32  O   UNL     1       0.706  53.651  14.971  1.00  0.00    -0.550 OA
ENDBRANCH   1  30
BRANCH  27  33
ATOM     33  O   UNL     1       7.204  57.896   6.228  1.00  0.00    -0.393 OA
ATOM     34  H   UNL     1       8.107  57.931   6.632  1.00  0.00     0.210 HD
ENDBRANCH  27  33
TORSDOF 2
ENDMDL
MODEL 3
REMARK VINA RESULT:   135.063      4.754      6.682
REMARK INTER + INTRA:         146.619
REMARK INTER:                 146.415
REMARK INTRA:                   0.205
REMARK UNBOUND:                -0.288
REMARK SMILES CC1(C)CC[C@]2(C(=O)[O-])CC[C@]3(C)C(=CC[C@@H]4[C@@]5(C)CC[C@H](O)C(C)(C)[C@H]5CC[C@@]43C)[C@@H]2C1
REMARK SMILES IDX 6 1 5 2 10 3 32 4 4 5 11 6 14 7 33 8 2 9 12 10 15 11 1 12
REMARK SMILES IDX 3 13 13 14 30 15 16 16 17 17 29 18 31 19 18 20 28 21 27 22
REMARK SMILES IDX 20 23 19 24 24 25 21 26 22 27 25 28 26 29 7 30 8 31 9 32
REMARK SMILES IDX 23 33
REMARK H PARENT 23 34
REMARK Flexibility Score: inf
ROOT
ATOM      1  C   UNL     1       4.705  43.249   8.580  1.00  0.00     0.017 C 
ATOM      2  C   UNL     1       4.602  43.378  10.120  1.00  0.00     0.014 C 
ATOM      3  C   UNL     1       5.451  41.869   8.280  1.00  0.00     0.014 C 
ATOM      4  C   UNL     1       5.476  44.467   7.951  1.00  0.00     0.028 C 
ATOM      5  C   UNL     1       4.212  44.784  10.621  1.00  0.00     0.007 C 
ATOM      6  C   UNL     1       7.025  41.928   8.261  1.00  0.00     0.013 C 
ATOM      7  C   UNL     1       6.500  43.944   6.942  1.00  0.00    -0.064 C 
ATOM      8  C   UNL     1       6.080  45.424   9.009  1.00  0.00     0.015 C 
ATOM      9  C   UNL     1       5.086  45.954  10.050  1.00  0.00    -0.035 C 
ATOM     10  C   UNL     1       7.697  43.110   7.446  1.00  0.00    -0.006 C 
ATOM     11  C   UNL     1       5.983  43.639   5.717  1.00  0.00    -0.027 C 
ATOM     12  C   UNL     1       5.918  46.588  11.196  1.00  0.00     0.011 C 
ATOM     13  C   UNL     1       4.212  47.057   9.442  1.00  0.00     0.011 C 
ATOM     14  C   UNL     1       8.641  43.901   8.476  1.00  0.00     0.017 C 
ATOM     15  C   UNL     1       8.618  42.750   6.153  1.00  0.00    -0.020 C 
ATOM     16  C   UNL     1       6.343  42.400   4.928  1.00  0.00     0.032 C 
ATOM     17  C   UNL     1       7.843  42.063   4.966  1.00  0.00     0.006 C 
ATOM     18  C   UNL     1       9.876  41.888   6.533  1.00  0.00     0.008 C 
ATOM     19  C   UNL     1       9.155  44.131   5.606  1.00  0.00     0.012 C 
ATOM     20  C   UNL     1       8.195  40.559   4.619  1.00  0.00    -0.025 C 
ATOM     21  C   UNL     1      10.613  41.344   5.296  1.00  0.00     0.005 C 
ATOM     22  C   UNL     1       9.749  40.439   4.354  1.00  0.00     0.003 C 
ATOM     23  C   UNL     1       7.396  40.110   3.340  1.00  0.00     0.010 C 
ATOM     24  C   UNL     1       7.803  39.573   5.774  1.00  0.00     0.012 C 
ATOM     25  C   UNL     1      10.209  40.521   2.819  1.00  0.00    -0.006 C 
ATOM     26  C   UNL     1       8.115  38.979   2.576  1.00  0.00     0.033 C 
ATOM     27  C   UNL     1       9.467  39.414   1.976  1.00  0.00     0.120 C 
ATOM     28  C   UNL     1       9.903  41.882   2.158  1.00  0.00     0.014 C 
ATOM     29  C   UNL     1      11.761  40.331   2.737  1.00  0.00     0.014 C 
ENDROOT
BRANCH   1  30
ATOM     30  C   UNL     1       3.305  43.222   7.963  1.00  0.00     0.048 C 
ATOM     31  O   UNL     1       2.300  43.112   8.714  1.00  0.00    -0.550 OA
ATOM     32  O   UNL     1       3.094  43.378   6.591  1.00  0.00    -0.550 OA
ENDBRANCH   1  30
BRANCH  27  33
ATOM     33  O   UNL     1      10.288  38.263   1.872  1.00  0.00    -0.393 OA
ATOM     34  H   UNL     1       9.992  37.720   1.099  1.00  0.00     0.210 HD
ENDBRANCH  27  33
TORSDOF 2
ENDMDL
