MODEL 1
REMARK VINA RESULT:    -5.874      0.000      0.000
REMARK INTER + INTRA:          -7.517
REMARK INTER:                  -7.248
REMARK INTRA:                  -0.270
REMARK UNBOUND:                -0.270
REMARK SMILES Oc1cc(O)c2cc(O)c(-c3cc(O)c(O)c(O)c3)[o+]c2c1
REMARK SMILES IDX 10 1 20 2 21 3 22 4 2 5 3 6 4 7 6 8 7 9 8 10 11 11 12 12
REMARK SMILES IDX 13 13 19 14 15 15 17 16 14 17 16 19 18 21 9 23 1 25 5 27
REMARK H PARENT 14 18 16 20 18 22 9 24 1 26 5 28
REMARK Flexibility Score: inf
ROOT
ATOM      1  C   UNL     1      32.979 -65.368  -6.197  1.00  0.00     0.402 A 
ATOM      2  O   UNL     1      33.820 -66.373  -6.441  1.00  0.00    -0.202 OA
ATOM      3  C   UNL     1      33.542 -67.639  -6.152  1.00  0.00     0.368 A 
ATOM      4  C   UNL     1      34.481 -68.636  -6.435  1.00  0.00     0.162 A 
ATOM      5  C   UNL     1      34.202 -69.975  -6.132  1.00  0.00     0.128 A 
ATOM      6  C   UNL     1      32.980 -70.316  -5.543  1.00  0.00     0.093 A 
ATOM      7  C   UNL     1      32.027 -69.328  -5.253  1.00  0.00     0.136 A 
ATOM      8  C   UNL     1      32.308 -67.982  -5.558  1.00  0.00     0.125 A 
ATOM      9  C   UNL     1      31.393 -66.955  -5.299  1.00  0.00     0.078 A 
ATOM     10  C   UNL     1      31.718 -65.636  -5.627  1.00  0.00     0.223 A 
ENDROOT
BRANCH   1  11
ATOM     11  C   UNL     1      33.404 -63.996  -6.557  1.00  0.00     0.091 A 
ATOM     12  C   UNL     1      32.801 -63.350  -7.647  1.00  0.00     0.068 A 
ATOM     13  C   UNL     1      33.199 -62.059  -8.022  1.00  0.00     0.162 A 
ATOM     14  C   UNL     1      34.441 -63.346  -5.865  1.00  0.00     0.068 A 
ATOM     15  C   UNL     1      34.222 -61.408  -7.310  1.00  0.00     0.200 A 
ATOM     16  C   UNL     1      34.844 -62.056  -6.236  1.00  0.00     0.162 A 
BRANCH  13  17
ATOM     17  O   UNL     1      32.583 -61.421  -9.098  1.00  0.00    -0.504 OA
ATOM     18  H   UNL     1      32.323 -60.443  -9.057  1.00  0.00     0.293 HD
ENDBRANCH  13  17
BRANCH  15  19
ATOM     19  O   UNL     1      34.633 -60.123  -7.662  1.00  0.00    -0.502 OA
ATOM     20  H   UNL     1      34.832 -59.412  -6.968  1.00  0.00     0.293 HD
ENDBRANCH  15  19
BRANCH  16  21
ATOM     21  O   UNL     1      35.867 -61.412  -5.543  1.00  0.00    -0.504 OA
ATOM     22  H   UNL     1      36.842 -61.568  -5.769  1.00  0.00     0.293 HD
ENDBRANCH  16  21
ENDBRANCH   1  11
BRANCH  10  23
ATOM     23  O   UNL     1      30.792 -64.615  -5.418  1.00  0.00    -0.500 OA
ATOM     24  H   UNL     1      30.840 -64.012  -4.604  1.00  0.00     0.294 HD
ENDBRANCH  10  23
BRANCH   5  25
ATOM     25  O   UNL     1      35.131 -70.974  -6.412  1.00  0.00    -0.507 OA
ATOM     26  H   UNL     1      35.899 -71.175  -5.780  1.00  0.00     0.293 HD
ENDBRANCH   5  25
BRANCH   7  27
ATOM     27  O   UNL     1      30.812 -69.682  -4.667  1.00  0.00    -0.507 OA
ATOM     28  H   UNL     1      29.929 -69.527  -5.139  1.00  0.00     0.293 HD
ENDBRANCH   7  27
TORSDOF 7
ENDMDL
MODEL 2
REMARK VINA RESULT:    -5.840      9.253     12.865
REMARK INTER + INTRA:          -7.475
REMARK INTER:                  -7.233
REMARK INTRA:                  -0.242
REMARK UNBOUND:                -0.270
REMARK SMILES Oc1cc(O)c2cc(O)c(-c3cc(O)c(O)c(O)c3)[o+]c2c1
REMARK SMILES IDX 10 1 20 2 21 3 22 4 2 5 3 6 4 7 6 8 7 9 8 10 11 11 12 12
REMARK SMILES IDX 13 13 19 14 15 15 17 16 14 17 16 19 18 21 9 23 1 25 5 27
REMARK H PARENT 14 18 16 20 18 22 9 24 1 26 5 28
REMARK Flexibility Score: inf
ROOT
ATOM      1  C   UNL     1      30.879 -56.993 -12.808  1.00  0.00     0.402 A 
ATOM      2  O   UNL     1      29.676 -56.813 -12.265  1.00  0.00    -0.202 OA
ATOM      3  C   UNL     1      29.274 -55.652 -11.758  1.00  0.00     0.368 A 
ATOM      4  C   UNL     1      27.996 -55.545 -11.202  1.00  0.00     0.162 A 
ATOM      5  C   UNL     1      27.561 -54.328 -10.662  1.00  0.00     0.128 A 
ATOM      6  C   UNL     1      28.409 -53.215 -10.678  1.00  0.00     0.093 A 
ATOM      7  C   UNL     1      29.694 -53.306 -11.233  1.00  0.00     0.136 A 
ATOM      8  C   UNL     1      30.130 -54.530 -11.777  1.00  0.00     0.125 A 
ATOM      9  C   UNL     1      31.398 -54.677 -12.351  1.00  0.00     0.078 A 
ATOM     10  C   UNL     1      31.781 -55.912 -12.883  1.00  0.00     0.223 A 
ENDROOT
BRANCH   1  11
ATOM     11  C   UNL     1      31.216 -58.336 -13.333  1.00  0.00     0.091 A 
ATOM     12  C   UNL     1      30.436 -58.892 -14.359  1.00  0.00     0.068 A 
ATOM     13  C   UNL     1      30.720 -60.171 -14.859  1.00  0.00     0.162 A 
ATOM     14  C   UNL     1      32.267 -59.093 -12.787  1.00  0.00     0.068 A 
ATOM     15  C   UNL     1      31.786 -60.911 -14.322  1.00  0.00     0.200 A 
ATOM     16  C   UNL     1      32.555 -60.372 -13.283  1.00  0.00     0.162 A 
BRANCH  13  17
ATOM     17  O   UNL     1      29.946 -60.707 -15.888  1.00  0.00    -0.504 OA
ATOM     18  H   UNL     1      30.278 -60.730 -16.845  1.00  0.00     0.293 HD
ENDBRANCH  13  17
BRANCH  15  19
ATOM     19  O   UNL     1      32.090 -62.184 -14.805  1.00  0.00    -0.502 OA
ATOM     20  H   UNL     1      31.492 -62.667 -15.465  1.00  0.00     0.293 HD
ENDBRANCH  15  19
BRANCH  16  21
ATOM     21  O   UNL     1      33.602 -61.116 -12.743  1.00  0.00    -0.504 OA
ATOM     22  H   UNL     1      33.482 -61.674 -11.906  1.00  0.00     0.293 HD
ENDBRANCH  16  21
ENDBRANCH   1  11
BRANCH  10  23
ATOM     23  O   UNL     1      33.022 -56.052 -13.502  1.00  0.00    -0.500 OA
ATOM     24  H   UNL     1      33.133 -55.938 -14.503  1.00  0.00     0.294 HD
ENDBRANCH  10  23
BRANCH   5  25
ATOM     25  O   UNL     1      26.289 -54.213 -10.105  1.00  0.00    -0.507 OA
ATOM     26  H   UNL     1      26.145 -54.251  -9.102  1.00  0.00     0.293 HD
ENDBRANCH   5  25
BRANCH   7  27
ATOM     27  O   UNL     1      30.529 -52.189 -11.245  1.00  0.00    -0.507 OA
ATOM     28  H   UNL     1      30.953 -51.852 -12.101  1.00  0.00     0.293 HD
ENDBRANCH   7  27
TORSDOF 7
ENDMDL
MODEL 3
REMARK VINA RESULT:    -5.729     10.414     13.585
REMARK INTER + INTRA:          -7.338
REMARK INTER:                  -7.254
REMARK INTRA:                  -0.085
REMARK UNBOUND:                -0.270
REMARK SMILES Oc1cc(O)c2cc(O)c(-c3cc(O)c(O)c(O)c3)[o+]c2c1
REMARK SMILES IDX 10 1 20 2 21 3 22 4 2 5 3 6 4 7 6 8 7 9 8 10 11 11 12 12
REMARK SMILES IDX 13 13 19 14 15 15 17 16 14 17 16 19 18 21 9 23 1 25 5 27
REMARK H PARENT 14 18 16 20 18 22 9 24 1 26 5 28
REMARK Flexibility Score: inf
ROOT
ATOM      1  C   UNL     1      29.372 -56.257 -12.369  1.00  0.00     0.402 A 
ATOM      2  O   UNL     1      30.197 -55.224 -12.203  1.00  0.00    -0.202 OA
ATOM      3  C   UNL     1      29.861 -54.126 -11.535  1.00  0.00     0.368 A 
ATOM      4  C   UNL     1      30.784 -53.083 -11.408  1.00  0.00     0.162 A 
ATOM      5  C   UNL     1      30.441 -51.919 -10.709  1.00  0.00     0.128 A 
ATOM      6  C   UNL     1      29.171 -51.799 -10.135  1.00  0.00     0.093 A 
ATOM      7  C   UNL     1      28.234 -52.836 -10.253  1.00  0.00     0.136 A 
ATOM      8  C   UNL     1      28.580 -54.007 -10.956  1.00  0.00     0.125 A 
ATOM      9  C   UNL     1      27.689 -55.077 -11.098  1.00  0.00     0.078 A 
ATOM     10  C   UNL     1      28.083 -56.220 -11.800  1.00  0.00     0.223 A 
ENDROOT
BRANCH   1  11
ATOM     11  C   UNL     1      29.857 -57.424 -13.142  1.00  0.00     0.091 A 
ATOM     12  C   UNL     1      31.131 -57.948 -12.872  1.00  0.00     0.068 A 
ATOM     13  C   UNL     1      31.624 -59.039 -13.603  1.00  0.00     0.162 A 
ATOM     14  C   UNL     1      29.093 -57.984 -14.180  1.00  0.00     0.068 A 
ATOM     15  C   UNL     1      30.843 -59.606 -14.624  1.00  0.00     0.200 A 
ATOM     16  C   UNL     1      29.581 -59.074 -14.914  1.00  0.00     0.162 A 
BRANCH  13  17
ATOM     17  O   UNL     1      32.885 -59.560 -13.316  1.00  0.00    -0.504 OA
ATOM     18  H   UNL     1      33.710 -58.974 -13.301  1.00  0.00     0.293 HD
ENDBRANCH  13  17
BRANCH  15  19
ATOM     19  O   UNL     1      31.310 -60.693 -15.363  1.00  0.00    -0.502 OA
ATOM     20  H   UNL     1      30.683 -61.382 -15.764  1.00  0.00     0.293 HD
ENDBRANCH  15  19
BRANCH  16  21
ATOM     21  O   UNL     1      28.817 -59.630 -15.938  1.00  0.00    -0.504 OA
ATOM     22  H   UNL     1      28.911 -59.323 -16.899  1.00  0.00     0.293 HD
ENDBRANCH  16  21
ENDBRANCH   1  11
BRANCH  10  23
ATOM     23  O   UNL     1      27.220 -57.310 -11.902  1.00  0.00    -0.500 OA
ATOM     24  H   UNL     1      26.849 -57.773 -11.081  1.00  0.00     0.294 HD
ENDBRANCH  10  23
BRANCH   5  25
ATOM     25  O   UNL     1      31.355 -50.875 -10.578  1.00  0.00    -0.507 OA
ATOM     26  H   UNL     1      32.349 -51.023 -10.706  1.00  0.00     0.293 HD
ENDBRANCH   5  25
BRANCH   7  27
ATOM     27  O   UNL     1      26.972 -52.704  -9.675  1.00  0.00    -0.507 OA
ATOM     28  H   UNL     1      26.396 -53.511  -9.466  1.00  0.00     0.293 HD
ENDBRANCH   7  27
TORSDOF 7
ENDMDL
MODEL 4
REMARK VINA RESULT:    -5.724      1.824      2.881
REMARK INTER + INTRA:          -7.333
REMARK INTER:                  -6.964
REMARK INTRA:                  -0.369
REMARK UNBOUND:                -0.270
REMARK SMILES Oc1cc(O)c2cc(O)c(-c3cc(O)c(O)c(O)c3)[o+]c2c1
REMARK SMILES IDX 10 1 20 2 21 3 22 4 2 5 3 6 4 7 6 8 7 9 8 10 11 11 12 12
REMARK SMILES IDX 13 13 19 14 15 15 17 16 14 17 16 19 18 21 9 23 1 25 5 27
REMARK H PARENT 14 18 16 20 18 22 9 24 1 26 5 28
REMARK Flexibility Score: inf
ROOT
ATOM      1  C   UNL     1      34.409 -65.104  -6.841  1.00  0.00     0.402 A 
ATOM      2  O   UNL     1      33.219 -65.636  -7.115  1.00  0.00    -0.202 OA
ATOM      3  C   UNL     1      33.001 -66.946  -7.157  1.00  0.00     0.368 A 
ATOM      4  C   UNL     1      31.722 -67.426  -7.457  1.00  0.00     0.162 A 
ATOM      5  C   UNL     1      31.481 -68.805  -7.507  1.00  0.00     0.128 A 
ATOM      6  C   UNL     1      32.521 -69.705  -7.258  1.00  0.00     0.093 A 
ATOM      7  C   UNL     1      33.810 -69.240  -6.956  1.00  0.00     0.136 A 
ATOM      8  C   UNL     1      34.053 -67.853  -6.904  1.00  0.00     0.125 A 
ATOM      9  C   UNL     1      35.315 -67.332  -6.600  1.00  0.00     0.078 A 
ATOM     10  C   UNL     1      35.503 -65.947  -6.555  1.00  0.00     0.223 A 
ENDROOT
BRANCH   1  11
ATOM     11  C   UNL     1      34.531 -63.628  -6.831  1.00  0.00     0.091 A 
ATOM     12  C   UNL     1      34.800 -62.950  -8.030  1.00  0.00     0.068 A 
ATOM     13  C   UNL     1      34.941 -61.555  -8.046  1.00  0.00     0.162 A 
ATOM     14  C   UNL     1      34.439 -62.894  -5.637  1.00  0.00     0.068 A 
ATOM     15  C   UNL     1      34.826 -60.827  -6.850  1.00  0.00     0.200 A 
ATOM     16  C   UNL     1      34.580 -61.499  -5.646  1.00  0.00     0.162 A 
BRANCH  13  17
ATOM     17  O   UNL     1      35.194 -60.891  -9.246  1.00  0.00    -0.504 OA
ATOM     18  H   UNL     1      35.206 -59.880  -9.300  1.00  0.00     0.293 HD
ENDBRANCH  13  17
BRANCH  15  19
ATOM     19  O   UNL     1      34.959 -59.439  -6.840  1.00  0.00    -0.502 OA
ATOM     20  H   UNL     1      34.500 -58.848  -7.524  1.00  0.00     0.293 HD
ENDBRANCH  15  19
BRANCH  16  21
ATOM     21  O   UNL     1      34.482 -60.774  -4.460  1.00  0.00    -0.504 OA
ATOM     22  H   UNL     1      33.600 -60.671  -3.972  1.00  0.00     0.293 HD
ENDBRANCH  16  21
ENDBRANCH   1  11
BRANCH  10  23
ATOM     23  O   UNL     1      36.744 -65.421  -6.203  1.00  0.00    -0.500 OA
ATOM     24  H   UNL     1      37.252 -65.753  -5.391  1.00  0.00     0.294 HD
ENDBRANCH  10  23
BRANCH   5  25
ATOM     25  O   UNL     1      30.209 -69.291  -7.805  1.00  0.00    -0.507 OA
ATOM     26  H   UNL     1      30.057 -69.941  -8.568  1.00  0.00     0.293 HD
ENDBRANCH   5  25
BRANCH   7  27
ATOM     27  O   UNL     1      34.839 -70.148  -6.708  1.00  0.00    -0.507 OA
ATOM     28  H   UNL     1      35.811 -69.899  -6.842  1.00  0.00     0.293 HD
ENDBRANCH   7  27
TORSDOF 7
ENDMDL
MODEL 5
REMARK VINA RESULT:    -5.724      9.163     11.350
REMARK INTER + INTRA:          -7.332
REMARK INTER:                  -6.979
REMARK INTRA:                  -0.354
REMARK UNBOUND:                -0.270
REMARK SMILES Oc1cc(O)c2cc(O)c(-c3cc(O)c(O)c(O)c3)[o+]c2c1
REMARK SMILES IDX 10 1 20 2 21 3 22 4 2 5 3 6 4 7 6 8 7 9 8 10 11 11 12 12
REMARK SMILES IDX 13 13 19 14 15 15 17 16 14 17 16 19 18 21 9 23 1 25 5 27
REMARK H PARENT 14 18 16 20 18 22 9 24 1 26 5 28
REMARK Flexibility Score: inf
ROOT
ATOM      1  C   UNL     1      30.296 -57.885 -13.828  1.00  0.00     0.402 A 
ATOM      2  O   UNL     1      31.087 -58.853 -13.368  1.00  0.00    -0.202 OA
ATOM      3  C   UNL     1      31.428 -59.916 -14.088  1.00  0.00     0.368 A 
ATOM      4  C   UNL     1      32.261 -60.891 -13.531  1.00  0.00     0.162 A 
ATOM      5  C   UNL     1      32.626 -62.018 -14.278  1.00  0.00     0.128 A 
ATOM      6  C   UNL     1      32.155 -62.169 -15.587  1.00  0.00     0.093 A 
ATOM      7  C   UNL     1      31.320 -61.200 -16.161  1.00  0.00     0.136 A 
ATOM      8  C   UNL     1      30.954 -60.066 -15.409  1.00  0.00     0.125 A 
ATOM      9  C   UNL     1      30.130 -59.063 -15.932  1.00  0.00     0.078 A 
ATOM     10  C   UNL     1      29.801 -57.954 -15.147  1.00  0.00     0.223 A 
ENDROOT
BRANCH   1  11
ATOM     11  C   UNL     1      29.979 -56.753 -12.928  1.00  0.00     0.091 A 
ATOM     12  C   UNL     1      30.957 -55.779 -12.672  1.00  0.00     0.068 A 
ATOM     13  C   UNL     1      30.691 -54.709 -11.807  1.00  0.00     0.162 A 
ATOM     14  C   UNL     1      28.736 -56.660 -12.278  1.00  0.00     0.068 A 
ATOM     15  C   UNL     1      29.437 -54.613 -11.179  1.00  0.00     0.200 A 
ATOM     16  C   UNL     1      28.464 -55.591 -11.412  1.00  0.00     0.162 A 
BRANCH  13  17
ATOM     17  O   UNL     1      31.666 -53.741 -11.571  1.00  0.00    -0.504 OA
ATOM     18  H   UNL     1      32.650 -53.977 -11.531  1.00  0.00     0.293 HD
ENDBRANCH  13  17
BRANCH  15  19
ATOM     19  O   UNL     1      29.147 -53.555 -10.316  1.00  0.00    -0.502 OA
ATOM     20  H   UNL     1      28.506 -52.813 -10.571  1.00  0.00     0.293 HD
ENDBRANCH  15  19
BRANCH  16  21
ATOM     21  O   UNL     1      27.228 -55.500 -10.775  1.00  0.00    -0.504 OA
ATOM     22  H   UNL     1      26.638 -56.313 -10.641  1.00  0.00     0.293 HD
ENDBRANCH  16  21
ENDBRANCH   1  11
BRANCH  10  23
ATOM     23  O   UNL     1      29.023 -56.927 -15.678  1.00  0.00    -0.500 OA
ATOM     24  H   UNL     1      28.275 -56.497 -15.146  1.00  0.00     0.294 HD
ENDBRANCH  10  23
BRANCH   5  25
ATOM     25  O   UNL     1      33.455 -62.995 -13.730  1.00  0.00    -0.507 OA
ATOM     26  H   UNL     1      34.441 -63.041 -13.959  1.00  0.00     0.293 HD
ENDBRANCH   5  25
BRANCH   7  27
ATOM     27  O   UNL     1      30.859 -61.362 -17.467  1.00  0.00    -0.507 OA
ATOM     28  H   UNL     1      30.504 -62.250 -17.799  1.00  0.00     0.293 HD
ENDBRANCH   7  27
TORSDOF 7
ENDMDL
MODEL 6
REMARK VINA RESULT:    -5.719      1.816      3.216
REMARK INTER + INTRA:          -7.326
REMARK INTER:                  -6.972
REMARK INTRA:                  -0.354
REMARK UNBOUND:                -0.270
REMARK SMILES Oc1cc(O)c2cc(O)c(-c3cc(O)c(O)c(O)c3)[o+]c2c1
REMARK SMILES IDX 10 1 20 2 21 3 22 4 2 5 3 6 4 7 6 8 7 9 8 10 11 11 12 12
REMARK SMILES IDX 13 13 19 14 15 15 17 16 14 17 16 19 18 21 9 23 1 25 5 27
REMARK H PARENT 14 18 16 20 18 22 9 24 1 26 5 28
REMARK Flexibility Score: inf
ROOT
ATOM      1  C   UNL     1      34.452 -65.183  -6.828  1.00  0.00     0.402 A 
ATOM      2  O   UNL     1      33.262 -65.707  -7.120  1.00  0.00    -0.202 OA
ATOM      3  C   UNL     1      33.036 -67.015  -7.163  1.00  0.00     0.368 A 
ATOM      4  C   UNL     1      31.758 -67.487  -7.482  1.00  0.00     0.162 A 
ATOM      5  C   UNL     1      31.508 -68.864  -7.535  1.00  0.00     0.128 A 
ATOM      6  C   UNL     1      32.538 -69.771  -7.268  1.00  0.00     0.093 A 
ATOM      7  C   UNL     1      33.824 -69.314  -6.946  1.00  0.00     0.136 A 
ATOM      8  C   UNL     1      34.077 -67.929  -6.893  1.00  0.00     0.125 A 
ATOM      9  C   UNL     1      35.338 -67.416  -6.569  1.00  0.00     0.078 A 
ATOM     10  C   UNL     1      35.534 -66.033  -6.523  1.00  0.00     0.223 A 
ENDROOT
BRANCH   1  11
ATOM     11  C   UNL     1      34.584 -63.708  -6.818  1.00  0.00     0.091 A 
ATOM     12  C   UNL     1      34.500 -63.015  -5.600  1.00  0.00     0.068 A 
ATOM     13  C   UNL     1      34.600 -61.617  -5.565  1.00  0.00     0.162 A 
ATOM     14  C   UNL     1      34.735 -62.979  -8.010  1.00  0.00     0.068 A 
ATOM     15  C   UNL     1      34.773 -60.898  -6.760  1.00  0.00     0.200 A 
ATOM     16  C   UNL     1      34.835 -61.581  -7.981  1.00  0.00     0.162 A 
BRANCH  13  17
ATOM     17  O   UNL     1      34.530 -60.941  -4.348  1.00  0.00    -0.504 OA
ATOM     18  H   UNL     1      35.111 -60.134  -4.154  1.00  0.00     0.293 HD
ENDBRANCH  13  17
BRANCH  15  19
ATOM     19  O   UNL     1      34.878 -59.507  -6.751  1.00  0.00    -0.502 OA
ATOM     20  H   UNL     1      34.188 -58.912  -7.194  1.00  0.00     0.293 HD
ENDBRANCH  15  19
BRANCH  16  21
ATOM     21  O   UNL     1      34.991 -60.862  -9.165  1.00  0.00    -0.504 OA
ATOM     22  H   UNL     1      35.230 -61.320 -10.037  1.00  0.00     0.293 HD
ENDBRANCH  16  21
ENDBRANCH   1  11
BRANCH  10  23
ATOM     23  O   UNL     1      36.774 -65.515  -6.153  1.00  0.00    -0.500 OA
ATOM     24  H   UNL     1      37.602 -65.660  -6.720  1.00  0.00     0.294 HD
ENDBRANCH  10  23
BRANCH   5  25
ATOM     25  O   UNL     1      30.238 -69.342  -7.852  1.00  0.00    -0.507 OA
ATOM     26  H   UNL     1      29.969 -70.300  -7.658  1.00  0.00     0.293 HD
ENDBRANCH   5  25
BRANCH   7  27
ATOM     27  O   UNL     1      34.843 -70.230  -6.680  1.00  0.00    -0.507 OA
ATOM     28  H   UNL     1      35.146 -70.904  -7.374  1.00  0.00     0.293 HD
ENDBRANCH   7  27
TORSDOF 7
ENDMDL
MODEL 7
REMARK VINA RESULT:    -5.653      2.286      2.831
REMARK INTER + INTRA:          -7.245
REMARK INTER:                  -7.029
REMARK INTRA:                  -0.216
REMARK UNBOUND:                -0.270
REMARK SMILES Oc1cc(O)c2cc(O)c(-c3cc(O)c(O)c(O)c3)[o+]c2c1
REMARK SMILES IDX 10 1 20 2 21 3 22 4 2 5 3 6 4 7 6 8 7 9 8 10 11 11 12 12
REMARK SMILES IDX 13 13 19 14 15 15 17 16 14 17 16 19 18 21 9 23 1 25 5 27
REMARK H PARENT 14 18 16 20 18 22 9 24 1 26 5 28
REMARK Flexibility Score: inf
ROOT
ATOM      1  C   UNL     1      34.199 -65.224  -6.092  1.00  0.00     0.402 A 
ATOM      2  O   UNL     1      34.340 -66.467  -6.551  1.00  0.00    -0.202 OA
ATOM      3  C   UNL     1      34.699 -67.489  -5.782  1.00  0.00     0.368 A 
ATOM      4  C   UNL     1      34.829 -68.765  -6.341  1.00  0.00     0.162 A 
ATOM      5  C   UNL     1      35.211 -69.850  -5.542  1.00  0.00     0.128 A 
ATOM      6  C   UNL     1      35.463 -69.658  -4.179  1.00  0.00     0.093 A 
ATOM      7  C   UNL     1      35.336 -68.385  -3.603  1.00  0.00     0.136 A 
ATOM      8  C   UNL     1      34.953 -67.294  -4.407  1.00  0.00     0.125 A 
ATOM      9  C   UNL     1      34.802 -66.004  -3.885  1.00  0.00     0.078 A 
ATOM     10  C   UNL     1      34.413 -64.956  -4.725  1.00  0.00     0.223 A 
ENDROOT
BRANCH   1  11
ATOM     11  C   UNL     1      33.802 -64.166  -7.049  1.00  0.00     0.091 A 
ATOM     12  C   UNL     1      34.688 -63.790  -8.070  1.00  0.00     0.068 A 
ATOM     13  C   UNL     1      34.346 -62.777  -8.976  1.00  0.00     0.162 A 
ATOM     14  C   UNL     1      32.577 -63.488  -6.923  1.00  0.00     0.068 A 
ATOM     15  C   UNL     1      33.110 -62.119  -8.855  1.00  0.00     0.200 A 
ATOM     16  C   UNL     1      32.230 -62.473  -7.826  1.00  0.00     0.162 A 
BRANCH  13  17
ATOM     17  O   UNL     1      35.229 -62.422  -9.995  1.00  0.00    -0.504 OA
ATOM     18  H   UNL     1      36.203 -62.219  -9.806  1.00  0.00     0.293 HD
ENDBRANCH  13  17
BRANCH  15  19
ATOM     19  O   UNL     1      32.746 -61.109  -9.746  1.00  0.00    -0.502 OA
ATOM     20  H   UNL     1      33.434 -60.547 -10.234  1.00  0.00     0.293 HD
ENDBRANCH  15  19
BRANCH  16  21
ATOM     21  O   UNL     1      31.012 -61.807  -7.701  1.00  0.00    -0.504 OA
ATOM     22  H   UNL     1      30.137 -62.246  -7.965  1.00  0.00     0.293 HD
ENDBRANCH  16  21
ENDBRANCH   1  11
BRANCH  10  23
ATOM     23  O   UNL     1      34.212 -63.679  -4.202  1.00  0.00    -0.500 OA
ATOM     24  H   UNL     1      34.699 -62.871  -4.573  1.00  0.00     0.294 HD
ENDBRANCH  10  23
BRANCH   5  25
ATOM     25  O   UNL     1      35.343 -71.123  -6.091  1.00  0.00    -0.507 OA
ATOM     26  H   UNL     1      35.260 -71.281  -7.089  1.00  0.00     0.293 HD
ENDBRANCH   5  25
BRANCH   7  27
ATOM     27  O   UNL     1      35.590 -68.207  -2.243  1.00  0.00    -0.507 OA
ATOM     28  H   UNL     1      34.863 -67.914  -1.601  1.00  0.00     0.293 HD
ENDBRANCH   7  27
TORSDOF 7
ENDMDL
MODEL 8
REMARK VINA RESULT:    -5.624      2.162      2.513
REMARK INTER + INTRA:          -7.209
REMARK INTER:                  -6.830
REMARK INTRA:                  -0.379
REMARK UNBOUND:                -0.270
REMARK SMILES Oc1cc(O)c2cc(O)c(-c3cc(O)c(O)c(O)c3)[o+]c2c1
REMARK SMILES IDX 10 1 20 2 21 3 22 4 2 5 3 6 4 7 6 8 7 9 8 10 11 11 12 12
REMARK SMILES IDX 13 13 19 14 15 15 17 16 14 17 16 19 18 21 9 23 1 25 5 27
REMARK H PARENT 14 18 16 20 18 22 9 24 1 26 5 28
REMARK Flexibility Score: inf
ROOT
ATOM      1  C   UNL     1      32.768 -65.668  -6.140  1.00  0.00     0.402 A 
ATOM      2  O   UNL     1      32.044 -66.698  -6.577  1.00  0.00    -0.202 OA
ATOM      3  C   UNL     1      31.928 -67.840  -5.907  1.00  0.00     0.368 A 
ATOM      4  C   UNL     1      31.152 -68.877  -6.435  1.00  0.00     0.162 A 
ATOM      5  C   UNL     1      31.024 -70.086  -5.740  1.00  0.00     0.128 A 
ATOM      6  C   UNL     1      31.674 -70.258  -4.513  1.00  0.00     0.093 A 
ATOM      7  C   UNL     1      32.455 -69.228  -3.970  1.00  0.00     0.136 A 
ATOM      8  C   UNL     1      32.584 -68.011  -4.669  1.00  0.00     0.125 A 
ATOM      9  C   UNL     1      33.343 -66.946  -4.171  1.00  0.00     0.078 A 
ATOM     10  C   UNL     1      33.433 -65.757  -4.900  1.00  0.00     0.223 A 
ENDROOT
BRANCH   1  11
ATOM     11  C   UNL     1      32.829 -64.450  -6.980  1.00  0.00     0.091 A 
ATOM     12  C   UNL     1      31.769 -63.530  -6.940  1.00  0.00     0.068 A 
ATOM     13  C   UNL     1      31.792 -62.379  -7.740  1.00  0.00     0.162 A 
ATOM     14  C   UNL     1      33.899 -64.221  -7.861  1.00  0.00     0.068 A 
ATOM     15  C   UNL     1      32.877 -62.148  -8.602  1.00  0.00     0.200 A 
ATOM     16  C   UNL     1      33.927 -63.072  -8.664  1.00  0.00     0.162 A 
BRANCH  13  17
ATOM     17  O   UNL     1      30.740 -61.466  -7.681  1.00  0.00    -0.504 OA
ATOM     18  H   UNL     1      30.905 -60.466  -7.678  1.00  0.00     0.293 HD
ENDBRANCH  13  17
BRANCH  15  19
ATOM     19  O   UNL     1      32.924 -61.009  -9.406  1.00  0.00    -0.502 OA
ATOM     20  H   UNL     1      32.471 -60.142  -9.139  1.00  0.00     0.293 HD
ENDBRANCH  15  19
BRANCH  16  21
ATOM     21  O   UNL     1      34.994 -62.846  -9.532  1.00  0.00    -0.504 OA
ATOM     22  H   UNL     1      35.901 -62.547  -9.192  1.00  0.00     0.293 HD
ENDBRANCH  16  21
ENDBRANCH   1  11
BRANCH  10  23
ATOM     23  O   UNL     1      34.146 -64.674  -4.387  1.00  0.00    -0.500 OA
ATOM     24  H   UNL     1      33.775 -63.731  -4.419  1.00  0.00     0.294 HD
ENDBRANCH  10  23
BRANCH   5  25
ATOM     25  O   UNL     1      30.253 -71.124  -6.259  1.00  0.00    -0.507 OA
ATOM     26  H   UNL     1      29.297 -70.974  -6.562  1.00  0.00     0.293 HD
ENDBRANCH   5  25
BRANCH   7  27
ATOM     27  O   UNL     1      33.097 -69.412  -2.745  1.00  0.00    -0.507 OA
ATOM     28  H   UNL     1      32.589 -69.700  -1.917  1.00  0.00     0.293 HD
ENDBRANCH   7  27
TORSDOF 7
ENDMDL
MODEL 9
REMARK VINA RESULT:    -5.516      1.759      7.154
REMARK INTER + INTRA:          -7.076
REMARK INTER:                  -6.745
REMARK INTRA:                  -0.331
REMARK UNBOUND:                -0.270
REMARK SMILES Oc1cc(O)c2cc(O)c(-c3cc(O)c(O)c(O)c3)[o+]c2c1
REMARK SMILES IDX 10 1 20 2 21 3 22 4 2 5 3 6 4 7 6 8 7 9 8 10 11 11 12 12
REMARK SMILES IDX 13 13 19 14 15 15 17 16 14 17 16 19 18 21 9 23 1 25 5 27
REMARK H PARENT 14 18 16 20 18 22 9 24 1 26 5 28
REMARK Flexibility Score: inf
ROOT
ATOM      1  C   UNL     1      33.551 -65.645  -6.515  1.00  0.00     0.402 A 
ATOM      2  O   UNL     1      33.832 -64.877  -7.567  1.00  0.00    -0.202 OA
ATOM      3  C   UNL     1      34.130 -63.586  -7.465  1.00  0.00     0.368 A 
ATOM      4  C   UNL     1      34.409 -62.847  -8.619  1.00  0.00     0.162 A 
ATOM      5  C   UNL     1      34.721 -61.485  -8.526  1.00  0.00     0.128 A 
ATOM      6  C   UNL     1      34.754 -60.861  -7.274  1.00  0.00     0.093 A 
ATOM      7  C   UNL     1      34.477 -61.588  -6.107  1.00  0.00     0.136 A 
ATOM      8  C   UNL     1      34.163 -62.958  -6.202  1.00  0.00     0.125 A 
ATOM      9  C   UNL     1      33.887 -63.736  -5.071  1.00  0.00     0.078 A 
ATOM     10  C   UNL     1      33.587 -65.093  -5.218  1.00  0.00     0.223 A 
ENDROOT
BRANCH   1  11
ATOM     11  C   UNL     1      33.225 -67.069  -6.756  1.00  0.00     0.091 A 
ATOM     12  C   UNL     1      34.203 -68.050  -6.526  1.00  0.00     0.068 A 
ATOM     13  C   UNL     1      33.928 -69.403  -6.766  1.00  0.00     0.162 A 
ATOM     14  C   UNL     1      31.974 -67.458  -7.264  1.00  0.00     0.068 A 
ATOM     15  C   UNL     1      32.666 -69.785  -7.253  1.00  0.00     0.200 A 
ATOM     16  C   UNL     1      31.693 -68.810  -7.506  1.00  0.00     0.162 A 
BRANCH  13  17
ATOM     17  O   UNL     1      34.903 -70.369  -6.520  1.00  0.00    -0.504 OA
ATOM     18  H   UNL     1      35.879 -70.122  -6.410  1.00  0.00     0.293 HD
ENDBRANCH  13  17
BRANCH  15  19
ATOM     19  O   UNL     1      32.368 -71.125  -7.496  1.00  0.00    -0.502 OA
ATOM     20  H   UNL     1      31.416 -71.450  -7.628  1.00  0.00     0.293 HD
ENDBRANCH  15  19
BRANCH  16  21
ATOM     21  O   UNL     1      30.448 -69.192  -8.003  1.00  0.00    -0.504 OA
ATOM     22  H   UNL     1      30.352 -69.641  -8.906  1.00  0.00     0.293 HD
ENDBRANCH  16  21
ENDBRANCH   1  11
BRANCH  10  23
ATOM     23  O   UNL     1      33.360 -65.885  -4.094  1.00  0.00    -0.500 OA
ATOM     24  H   UNL     1      33.718 -66.832  -4.029  1.00  0.00     0.294 HD
ENDBRANCH  10  23
BRANCH   5  25
ATOM     25  O   UNL     1      35.000 -60.741  -9.670  1.00  0.00    -0.507 OA
ATOM     26  H   UNL     1      35.880 -60.838 -10.164  1.00  0.00     0.293 HD
ENDBRANCH   5  25
BRANCH   7  27
ATOM     27  O   UNL     1      34.515 -60.955  -4.865  1.00  0.00    -0.507 OA
ATOM     28  H   UNL     1      35.371 -60.890  -4.328  1.00  0.00     0.293 HD
ENDBRANCH   7  27
TORSDOF 7
ENDMDL
