MODEL 1
REMARK VINA RESULT:    -5.364      0.000      0.000
REMARK INTER + INTRA:         -10.394
REMARK INTER:                  -9.128
REMARK INTRA:                  -1.266
REMARK UNBOUND:                -1.266
REMARK SMILES CCCCCCCCCCCCCC(=O)[O-]
REMARK SMILES IDX 8 1 9 2 10 3 11 4 12 5 13 6 14 7 15 8 16 9 7 10 6 11 5 12
REMARK SMILES IDX 4 13 3 14 2 15 1 16
REMARK H PARENT
REMARK Flexibility Score: inf
ROOT
ATOM      1  C   UNL     1      88.066 325.395 192.973  1.00  0.00     0.000 C 
ENDROOT
BRANCH   1   2
ATOM      2  C   UNL     1      86.776 324.620 192.660  1.00  0.00     0.000 C 
BRANCH   2   3
ATOM      3  C   UNL     1      86.962 323.615 191.510  1.00  0.00     0.000 C 
BRANCH   3   4
ATOM      4  C   UNL     1      88.341 323.729 190.842  1.00  0.00     0.000 C 
BRANCH   4   5
ATOM      5  C   UNL     1      88.352 323.194 189.402  1.00  0.00     0.006 C 
BRANCH   5   6
ATOM      6  C   UNL     1      89.703 323.462 188.730  1.00  0.00     0.053 C 
BRANCH   6   7
ATOM      7  C   UNL     1      90.483 322.192 188.573  1.00  0.00     0.041 C 
ATOM      8  O   UNL     1      90.425 321.545 187.494  1.00  0.00    -0.550 OA
ATOM      9  O   UNL     1      91.273 321.724 189.616  1.00  0.00    -0.550 OA
ENDBRANCH   6   7
ENDBRANCH   5   6
ENDBRANCH   4   5
ENDBRANCH   3   4
ENDBRANCH   2   3
ENDBRANCH   1   2
BRANCH   1  10
ATOM     10  C   UNL     1      87.800 326.694 193.752  1.00  0.00     0.000 C 
BRANCH  10  11
ATOM     11  C   UNL     1      86.573 326.596 194.677  1.00  0.00    -0.000 C 
BRANCH  11  12
ATOM     12  C   UNL     1      86.880 326.142 196.119  1.00  0.00    -0.000 C 
BRANCH  12  13
ATOM     13  C   UNL     1      88.375 326.116 196.489  1.00  0.00    -0.000 C 
BRANCH  13  14
ATOM     14  C   UNL     1      88.875 324.715 196.873  1.00  0.00    -0.000 C 
BRANCH  14  15
ATOM     15  C   UNL     1      88.005 323.628 196.231  1.00  0.00    -0.003 C 
ATOM     16  C   UNL     1      88.835 322.707 195.343  1.00  0.00     0.004 C 
ENDBRANCH  14  15
ENDBRANCH  13  14
ENDBRANCH  12  13
ENDBRANCH  11  12
ENDBRANCH  10  11
ENDBRANCH   1  10
TORSDOF 12
ENDMDL
MODEL 2
REMARK VINA RESULT:    -5.322     18.919     21.295
REMARK INTER + INTRA:         -10.321
REMARK INTER:                  -9.650
REMARK INTRA:                  -0.671
REMARK UNBOUND:                -1.266
REMARK SMILES CCCCCCCCCCCCCC(=O)[O-]
REMARK SMILES IDX 8 1 9 2 10 3 11 4 12 5 13 6 14 7 15 8 16 9 7 10 6 11 5 12
REMARK SMILES IDX 4 13 3 14 2 15 1 16
REMARK H PARENT
REMARK Flexibility Score: inf
ROOT
ATOM      1  C   UNL     1     103.847 313.074 195.823  1.00  0.00     0.000 C 
ENDROOT
BRANCH   1   2
ATOM      2  C   UNL     1     103.724 311.551 195.992  1.00  0.00     0.000 C 
BRANCH   2   3
ATOM      3  C   UNL     1     103.918 311.108 197.452  1.00  0.00     0.000 C 
BRANCH   3   4
ATOM      4  C   UNL     1     103.620 312.232 198.457  1.00  0.00     0.000 C 
BRANCH   4   5
ATOM      5  C   UNL     1     102.933 311.724 199.734  1.00  0.00     0.006 C 
BRANCH   5   6
ATOM      6  C   UNL     1     103.897 311.766 200.925  1.00  0.00     0.053 C 
BRANCH   6   7
ATOM      7  C   UNL     1     103.297 311.091 202.121  1.00  0.00     0.041 C 
ATOM      8  O   UNL     1     102.052 310.922 202.193  1.00  0.00    -0.550 OA
ATOM      9  O   UNL     1     104.115 310.648 203.155  1.00  0.00    -0.550 OA
ENDBRANCH   6   7
ENDBRANCH   5   6
ENDBRANCH   4   5
ENDBRANCH   3   4
ENDBRANCH   2   3
ENDBRANCH   1   2
BRANCH   1  10
ATOM     10  C   UNL     1     104.958 313.471 194.836  1.00  0.00     0.000 C 
BRANCH  10  11
ATOM     11  C   UNL     1     105.791 312.267 194.359  1.00  0.00    -0.000 C 
BRANCH  11  12
ATOM     12  C   UNL     1     105.471 311.779 192.931  1.00  0.00    -0.000 C 
BRANCH  12  13
ATOM     13  C   UNL     1     104.270 312.473 192.260  1.00  0.00    -0.000 C 
BRANCH  13  14
ATOM     14  C   UNL     1     104.687 313.532 191.228  1.00  0.00    -0.000 C 
BRANCH  14  15
ATOM     15  C   UNL     1     103.532 314.496 190.934  1.00  0.00    -0.003 C 
ATOM     16  C   UNL     1     103.134 314.449 189.462  1.00  0.00     0.004 C 
ENDBRANCH  14  15
ENDBRANCH  13  14
ENDBRANCH  12  13
ENDBRANCH  11  12
ENDBRANCH  10  11
ENDBRANCH   1  10
TORSDOF 12
ENDMDL
MODEL 3
REMARK VINA RESULT:    -5.273     17.339     20.516
REMARK INTER + INTRA:         -10.239
REMARK INTER:                  -9.611
REMARK INTRA:                  -0.628
REMARK UNBOUND:                -1.266
REMARK SMILES CCCCCCCCCCCCCC(=O)[O-]
REMARK SMILES IDX 8 1 9 2 10 3 11 4 12 5 13 6 14 7 15 8 16 9 7 10 6 11 5 12
REMARK SMILES IDX 4 13 3 14 2 15 1 16
REMARK H PARENT
REMARK Flexibility Score: inf
ROOT
ATOM      1  C   UNL     1     105.399 311.333 193.258  1.00  0.00     0.000 C 
ENDROOT
BRANCH   1   2
ATOM      2  C   UNL     1     105.554 311.894 194.680  1.00  0.00     0.000 C 
BRANCH   2   3
ATOM      3  C   UNL     1     104.240 311.837 195.478  1.00  0.00     0.000 C 
BRANCH   3   4
ATOM      4  C   UNL     1     103.823 313.209 196.030  1.00  0.00     0.000 C 
BRANCH   4   5
ATOM      5  C   UNL     1     103.492 313.174 197.530  1.00  0.00     0.006 C 
BRANCH   5   6
ATOM      6  C   UNL     1     103.578 311.745 198.075  1.00  0.00     0.053 C 
BRANCH   6   7
ATOM      7  C   UNL     1     103.495 311.738 199.571  1.00  0.00     0.041 C 
ATOM      8  O   UNL     1     102.443 311.350 200.144  1.00  0.00    -0.550 OA
ATOM      9  O   UNL     1     104.581 312.157 200.332  1.00  0.00    -0.550 OA
ENDBRANCH   6   7
ENDBRANCH   5   6
ENDBRANCH   4   5
ENDBRANCH   3   4
ENDBRANCH   2   3
ENDBRANCH   1   2
BRANCH   1  10
ATOM     10  C   UNL     1     104.222 311.968 192.497  1.00  0.00     0.000 C 
BRANCH  10  11
ATOM     11  C   UNL     1     104.576 313.335 191.883  1.00  0.00    -0.000 C 
BRANCH  11  12
ATOM     12  C   UNL     1     103.800 313.692 190.598  1.00  0.00    -0.000 C 
BRANCH  12  13
ATOM     13  C   UNL     1     104.379 314.874 189.798  1.00  0.00    -0.000 C 
BRANCH  13  14
ATOM     14  C   UNL     1     103.637 315.126 188.477  1.00  0.00    -0.000 C 
BRANCH  14  15
ATOM     15  C   UNL     1     102.309 314.360 188.439  1.00  0.00    -0.003 C 
ATOM     16  C   UNL     1     101.131 315.305 188.228  1.00  0.00     0.004 C 
ENDBRANCH  14  15
ENDBRANCH  13  14
ENDBRANCH  12  13
ENDBRANCH  11  12
ENDBRANCH  10  11
ENDBRANCH   1  10
TORSDOF 12
ENDMDL
MODEL 4
REMARK VINA RESULT:    -5.259     16.336     18.841
REMARK INTER + INTRA:         -10.215
REMARK INTER:                  -8.835
REMARK INTRA:                  -1.380
REMARK UNBOUND:                -1.266
REMARK SMILES CCCCCCCCCCCCCC(=O)[O-]
REMARK SMILES IDX 8 1 9 2 10 3 11 4 12 5 13 6 14 7 15 8 16 9 7 10 6 11 5 12
REMARK SMILES IDX 4 13 3 14 2 15 1 16
REMARK H PARENT
REMARK Flexibility Score: inf
ROOT
ATOM      1  C   UNL     1     104.231 313.011 191.795  1.00  0.00     0.000 C 
ENDROOT
BRANCH   1   2
ATOM      2  C   UNL     1     105.648 313.447 191.391  1.00  0.00     0.000 C 
BRANCH   2   3
ATOM      3  C   UNL     1     105.639 314.647 190.429  1.00  0.00     0.000 C 
BRANCH   3   4
ATOM      4  C   UNL     1     104.223 315.189 190.173  1.00  0.00     0.000 C 
BRANCH   4   5
ATOM      5  C   UNL     1     103.784 315.045 188.708  1.00  0.00     0.006 C 
BRANCH   5   6
ATOM      6  C   UNL     1     102.334 314.561 188.618  1.00  0.00     0.053 C 
BRANCH   6   7
ATOM      7  C   UNL     1     101.396 315.714 188.432  1.00  0.00     0.041 C 
ATOM      8  O   UNL     1     100.871 315.928 187.307  1.00  0.00    -0.550 OA
ATOM      9  O   UNL     1     101.100 316.552 189.502  1.00  0.00    -0.550 OA
ENDBRANCH   6   7
ENDBRANCH   5   6
ENDBRANCH   4   5
ENDBRANCH   3   4
ENDBRANCH   2   3
ENDBRANCH   1   2
BRANCH   1  10
ATOM     10  C   UNL     1     104.220 311.684 192.574  1.00  0.00     0.000 C 
BRANCH  10  11
ATOM     11  C   UNL     1     105.514 311.453 193.376  1.00  0.00    -0.000 C 
BRANCH  11  12
ATOM     12  C   UNL     1     105.514 312.049 194.799  1.00  0.00    -0.000 C 
BRANCH  12  13
ATOM     13  C   UNL     1     104.164 311.968 195.537  1.00  0.00    -0.000 C 
BRANCH  13  14
ATOM     14  C   UNL     1     103.626 313.343 195.959  1.00  0.00    -0.000 C 
BRANCH  14  15
ATOM     15  C   UNL     1     104.416 314.471 195.284  1.00  0.00    -0.003 C 
ATOM     16  C   UNL     1     103.510 315.337 194.415  1.00  0.00     0.004 C 
ENDBRANCH  14  15
ENDBRANCH  13  14
ENDBRANCH  12  13
ENDBRANCH  11  12
ENDBRANCH  10  11
ENDBRANCH   1  10
TORSDOF 12
ENDMDL
MODEL 5
REMARK VINA RESULT:    -5.184     17.541     19.259
REMARK INTER + INTRA:         -10.087
REMARK INTER:                  -8.345
REMARK INTRA:                  -1.742
REMARK UNBOUND:                -1.266
REMARK SMILES CCCCCCCCCCCCCC(=O)[O-]
REMARK SMILES IDX 8 1 9 2 10 3 11 4 12 5 13 6 14 7 15 8 16 9 7 10 6 11 5 12
REMARK SMILES IDX 4 13 3 14 2 15 1 16
REMARK H PARENT
REMARK Flexibility Score: inf
ROOT
ATOM      1  C   UNL     1     105.561 311.804 193.186  1.00  0.00     0.000 C 
ENDROOT
BRANCH   1   2
ATOM      2  C   UNL     1     104.198 312.097 192.539  1.00  0.00     0.000 C 
BRANCH   2   3
ATOM      3  C   UNL     1     104.308 313.088 191.368  1.00  0.00     0.000 C 
BRANCH   3   4
ATOM      4  C   UNL     1     105.682 313.773 191.299  1.00  0.00     0.000 C 
BRANCH   4   5
ATOM      5  C   UNL     1     105.701 314.981 190.350  1.00  0.00     0.006 C 
BRANCH   5   6
ATOM      6  C   UNL     1     104.310 315.231 189.757  1.00  0.00     0.053 C 
BRANCH   6   7
ATOM      7  C   UNL     1     104.412 315.791 188.372  1.00  0.00     0.041 C 
ATOM      8  O   UNL     1     103.379 315.917 187.663  1.00  0.00    -0.550 OA
ATOM      9  O   UNL     1     105.648 316.176 187.864  1.00  0.00    -0.550 OA
ENDBRANCH   6   7
ENDBRANCH   5   6
ENDBRANCH   4   5
ENDBRANCH   3   4
ENDBRANCH   2   3
ENDBRANCH   1   2
BRANCH   1  10
ATOM     10  C   UNL     1     105.497 311.804 194.723  1.00  0.00     0.000 C 
BRANCH  10  11
ATOM     11  C   UNL     1     104.055 311.803 195.261  1.00  0.00    -0.000 C 
BRANCH  11  12
ATOM     12  C   UNL     1     103.808 312.733 196.467  1.00  0.00    -0.000 C 
BRANCH  12  13
ATOM     13  C   UNL     1     103.307 314.145 196.108  1.00  0.00    -0.000 C 
BRANCH  13  14
ATOM     14  C   UNL     1     104.443 315.169 195.971  1.00  0.00    -0.000 C 
BRANCH  14  15
ATOM     15  C   UNL     1     104.760 315.443 194.496  1.00  0.00    -0.003 C 
ATOM     16  C   UNL     1     103.486 315.686 193.693  1.00  0.00     0.004 C 
ENDBRANCH  14  15
ENDBRANCH  13  14
ENDBRANCH  12  13
ENDBRANCH  11  12
ENDBRANCH  10  11
ENDBRANCH   1  10
TORSDOF 12
ENDMDL
MODEL 6
REMARK VINA RESULT:    -5.139      7.239     10.616
REMARK INTER + INTRA:         -10.011
REMARK INTER:                  -9.377
REMARK INTRA:                  -0.634
REMARK UNBOUND:                -1.266
REMARK SMILES CCCCCCCCCCCCCC(=O)[O-]
REMARK SMILES IDX 8 1 9 2 10 3 11 4 12 5 13 6 14 7 15 8 16 9 7 10 6 11 5 12
REMARK SMILES IDX 4 13 3 14 2 15 1 16
REMARK H PARENT
REMARK Flexibility Score: inf
ROOT
ATOM      1  C   UNL     1      89.290 324.798 198.523  1.00  0.00     0.000 C 
ENDROOT
BRANCH   1   2
ATOM      2  C   UNL     1      88.993 326.147 199.195  1.00  0.00     0.000 C 
BRANCH   2   3
ATOM      3  C   UNL     1      89.910 326.416 200.399  1.00  0.00     0.000 C 
BRANCH   3   4
ATOM      4  C   UNL     1      89.138 326.493 201.726  1.00  0.00     0.000 C 
BRANCH   4   5
ATOM      5  C   UNL     1      90.041 326.819 202.925  1.00  0.00     0.006 C 
BRANCH   5   6
ATOM      6  C   UNL     1      89.239 327.486 204.047  1.00  0.00     0.053 C 
BRANCH   6   7
ATOM      7  C   UNL     1      89.886 327.250 205.378  1.00  0.00     0.041 C 
ATOM      8  O   UNL     1      89.224 326.740 206.321  1.00  0.00    -0.550 OA
ATOM      9  O   UNL     1      91.218 327.593 205.577  1.00  0.00    -0.550 OA
ENDBRANCH   6   7
ENDBRANCH   5   6
ENDBRANCH   4   5
ENDBRANCH   3   4
ENDBRANCH   2   3
ENDBRANCH   1   2
BRANCH   1  10
ATOM     10  C   UNL     1      88.891 324.776 197.037  1.00  0.00     0.000 C 
BRANCH  10  11
ATOM     11  C   UNL     1      88.524 326.170 196.498  1.00  0.00    -0.000 C 
BRANCH  11  12
ATOM     12  C   UNL     1      87.184 326.242 195.735  1.00  0.00    -0.000 C 
BRANCH  12  13
ATOM     13  C   UNL     1      87.305 326.601 194.242  1.00  0.00    -0.000 C 
BRANCH  13  14
ATOM     14  C   UNL     1      86.739 325.516 193.315  1.00  0.00    -0.000 C 
BRANCH  14  15
ATOM     15  C   UNL     1      87.861 324.825 192.531  1.00  0.00    -0.003 C 
ATOM     16  C   UNL     1      88.466 323.674 193.330  1.00  0.00     0.004 C 
ENDBRANCH  14  15
ENDBRANCH  13  14
ENDBRANCH  12  13
ENDBRANCH  11  12
ENDBRANCH  10  11
ENDBRANCH   1  10
TORSDOF 12
ENDMDL
MODEL 7
REMARK VINA RESULT:    -5.122      5.405      8.776
REMARK INTER + INTRA:          -9.982
REMARK INTER:                  -9.052
REMARK INTRA:                  -0.929
REMARK UNBOUND:                -1.266
REMARK SMILES CCCCCCCCCCCCCC(=O)[O-]
REMARK SMILES IDX 8 1 9 2 10 3 11 4 12 5 13 6 14 7 15 8 16 9 7 10 6 11 5 12
REMARK SMILES IDX 4 13 3 14 2 15 1 16
REMARK H PARENT
REMARK Flexibility Score: inf
ROOT
ATOM      1  C   UNL     1      88.774 324.996 196.773  1.00  0.00     0.000 C 
ENDROOT
BRANCH   1   2
ATOM      2  C   UNL     1      88.686 326.520 196.948  1.00  0.00     0.000 C 
BRANCH   2   3
ATOM      3  C   UNL     1      88.836 326.951 198.417  1.00  0.00     0.000 C 
BRANCH   3   4
ATOM      4  C   UNL     1      89.193 325.777 199.344  1.00  0.00     0.000 C 
BRANCH   4   5
ATOM      5  C   UNL     1      89.858 326.231 200.652  1.00  0.00     0.006 C 
BRANCH   5   6
ATOM      6  C   UNL     1      88.816 326.406 201.762  1.00  0.00     0.053 C 
BRANCH   6   7
ATOM      7  C   UNL     1      88.451 325.083 202.364  1.00  0.00     0.041 C 
ATOM      8  O   UNL     1      89.224 324.529 203.190  1.00  0.00    -0.550 OA
ATOM      9  O   UNL     1      87.256 324.464 202.015  1.00  0.00    -0.550 OA
ENDBRANCH   6   7
ENDBRANCH   5   6
ENDBRANCH   4   5
ENDBRANCH   3   4
ENDBRANCH   2   3
ENDBRANCH   1   2
BRANCH   1  10
ATOM     10  C   UNL     1      87.669 324.440 195.859  1.00  0.00     0.000 C 
BRANCH  10  11
ATOM     11  C   UNL     1      86.633 325.507 195.460  1.00  0.00    -0.000 C 
BRANCH  11  12
ATOM     12  C   UNL     1      86.497 325.746 193.941  1.00  0.00    -0.000 C 
BRANCH  12  13
ATOM     13  C   UNL     1      87.821 325.696 193.155  1.00  0.00    -0.000 C 
BRANCH  13  14
ATOM     14  C   UNL     1      87.856 324.571 192.110  1.00  0.00    -0.000 C 
BRANCH  14  15
ATOM     15  C   UNL     1      86.484 323.898 191.982  1.00  0.00    -0.003 C 
ATOM     16  C   UNL     1      86.476 322.867 190.857  1.00  0.00     0.004 C 
ENDBRANCH  14  15
ENDBRANCH  13  14
ENDBRANCH  12  13
ENDBRANCH  11  12
ENDBRANCH  10  11
ENDBRANCH   1  10
TORSDOF 12
ENDMDL
MODEL 8
REMARK VINA RESULT:    -5.086      5.061      8.139
REMARK INTER + INTRA:          -9.920
REMARK INTER:                  -9.160
REMARK INTRA:                  -0.760
REMARK UNBOUND:                -1.266
REMARK SMILES CCCCCCCCCCCCCC(=O)[O-]
REMARK SMILES IDX 8 1 9 2 10 3 11 4 12 5 13 6 14 7 15 8 16 9 7 10 6 11 5 12
REMARK SMILES IDX 4 13 3 14 2 15 1 16
REMARK H PARENT
REMARK Flexibility Score: inf
ROOT
ATOM      1  C   UNL     1      88.507 326.195 195.619  1.00  0.00     0.000 C 
ENDROOT
BRANCH   1   2
ATOM      2  C   UNL     1      88.132 324.799 196.140  1.00  0.00     0.000 C 
BRANCH   2   3
ATOM      3  C   UNL     1      89.279 324.140 196.926  1.00  0.00     0.000 C 
BRANCH   3   4
ATOM      4  C   UNL     1      88.909 323.862 198.391  1.00  0.00     0.000 C 
BRANCH   4   5
ATOM      5  C   UNL     1      89.801 324.619 199.387  1.00  0.00     0.006 C 
BRANCH   5   6
ATOM      6  C   UNL     1      89.286 326.046 199.606  1.00  0.00     0.053 C 
BRANCH   6   7
ATOM      7  C   UNL     1      89.538 326.495 201.013  1.00  0.00     0.041 C 
ATOM      8  O   UNL     1      88.609 326.461 201.863  1.00  0.00    -0.550 OA
ATOM      9  O   UNL     1      90.799 326.948 201.385  1.00  0.00    -0.550 OA
ENDBRANCH   6   7
ENDBRANCH   5   6
ENDBRANCH   4   5
ENDBRANCH   3   4
ENDBRANCH   2   3
ENDBRANCH   1   2
BRANCH   1  10
ATOM     10  C   UNL     1      87.842 326.521 194.271  1.00  0.00     0.000 C 
BRANCH  10  11
ATOM     11  C   UNL     1      86.545 325.725 194.037  1.00  0.00    -0.000 C 
BRANCH  11  12
ATOM     12  C   UNL     1      86.545 324.836 192.776  1.00  0.00    -0.000 C 
BRANCH  12  13
ATOM     13  C   UNL     1      87.892 324.764 192.031  1.00  0.00    -0.000 C 
BRANCH  13  14
ATOM     14  C   UNL     1      88.262 323.339 191.594  1.00  0.00    -0.000 C 
BRANCH  14  15
ATOM     15  C   UNL     1      87.970 323.130 190.103  1.00  0.00    -0.003 C 
ATOM     16  C   UNL     1      89.117 323.644 189.238  1.00  0.00     0.004 C 
ENDBRANCH  14  15
ENDBRANCH  13  14
ENDBRANCH  12  13
ENDBRANCH  11  12
ENDBRANCH  10  11
ENDBRANCH   1  10
TORSDOF 12
ENDMDL
MODEL 9
REMARK VINA RESULT:    -5.071     18.875     21.517
REMARK INTER + INTRA:          -9.895
REMARK INTER:                  -9.106
REMARK INTRA:                  -0.789
REMARK UNBOUND:                -1.266
REMARK SMILES CCCCCCCCCCCCCC(=O)[O-]
REMARK SMILES IDX 8 1 9 2 10 3 11 4 12 5 13 6 14 7 15 8 16 9 7 10 6 11 5 12
REMARK SMILES IDX 4 13 3 14 2 15 1 16
REMARK H PARENT
REMARK Flexibility Score: inf
ROOT
ATOM      1  C   UNL     1     103.870 311.887 195.478  1.00  0.00     0.000 C 
ENDROOT
BRANCH   1   2
ATOM      2  C   UNL     1     103.878 311.198 196.851  1.00  0.00     0.000 C 
BRANCH   2   3
ATOM      3  C   UNL     1     103.619 312.184 198.003  1.00  0.00     0.000 C 
BRANCH   3   4
ATOM      4  C   UNL     1     103.514 311.484 199.368  1.00  0.00     0.000 C 
BRANCH   4   5
ATOM      5  C   UNL     1     104.124 312.311 200.510  1.00  0.00     0.006 C 
BRANCH   5   6
ATOM      6  C   UNL     1     103.130 312.461 201.666  1.00  0.00     0.053 C 
BRANCH   6   7
ATOM      7  C   UNL     1     103.384 311.434 202.727  1.00  0.00     0.041 C 
ATOM      8  O   UNL     1     104.419 311.506 203.441  1.00  0.00    -0.550 OA
ATOM      9  O   UNL     1     102.479 310.397 202.926  1.00  0.00    -0.550 OA
ENDBRANCH   6   7
ENDBRANCH   5   6
ENDBRANCH   4   5
ENDBRANCH   3   4
ENDBRANCH   2   3
ENDBRANCH   1   2
BRANCH   1  10
ATOM     10  C   UNL     1     105.250 311.867 194.798  1.00  0.00     0.000 C 
BRANCH  10  11
ATOM     11  C   UNL     1     105.166 311.577 193.288  1.00  0.00    -0.000 C 
BRANCH  11  12
ATOM     12  C   UNL     1     106.125 312.409 192.411  1.00  0.00    -0.000 C 
BRANCH  12  13
ATOM     13  C   UNL     1     105.434 313.383 191.438  1.00  0.00    -0.000 C 
BRANCH  13  14
ATOM     14  C   UNL     1     103.916 313.473 191.654  1.00  0.00    -0.000 C 
BRANCH  14  15
ATOM     15  C   UNL     1     103.511 314.878 192.118  1.00  0.00    -0.003 C 
ATOM     16  C   UNL     1     103.913 315.118 193.569  1.00  0.00     0.004 C 
ENDBRANCH  14  15
ENDBRANCH  13  14
ENDBRANCH  12  13
ENDBRANCH  11  12
ENDBRANCH  10  11
ENDBRANCH   1  10
TORSDOF 12
ENDMDL
