MODEL 1
REMARK VINA RESULT:    -6.008      0.000      0.000
REMARK INTER + INTRA:          -7.473
REMARK INTER:                  -7.237
REMARK INTRA:                  -0.236
REMARK UNBOUND:                -0.236
REMARK SMILES O=c1c(O)c(-c2ccc(O)c(O)c2)oc2cc(O)cc(O)c12
REMARK SMILES IDX 5 1 3 2 2 3 1 4 22 5 20 6 19 7 17 8 16 9 15 10 14 11 6 12
REMARK SMILES IDX 7 13 8 14 9 15 13 16 11 17 10 18 12 20 4 22 21 24 18 26
REMARK H PARENT 10 19 12 21 4 23 21 25 18 27
REMARK Flexibility Score: inf
ROOT
ATOM      1  C   UNL     1      71.318  38.509  20.244  1.00  0.00     0.180 A 
ATOM      2  C   UNL     1      71.647  37.337  19.541  1.00  0.00     0.208 A 
ATOM      3  C   UNL     1      70.613  36.528  19.044  1.00  0.00     0.238 A 
ATOM      4  O   UNL     1      70.914  35.453  18.463  1.00  0.00    -0.285 OA
ATOM      5  C   UNL     1      69.263  36.909  19.240  1.00  0.00     0.111 A 
ATOM      6  C   UNL     1      68.137  36.186  18.746  1.00  0.00     0.134 A 
ATOM      7  C   UNL     1      66.846  36.584  19.112  1.00  0.00     0.093 A 
ATOM      8  C   UNL     1      66.637  37.715  19.900  1.00  0.00     0.123 A 
ATOM      9  C   UNL     1      67.729  38.463  20.341  1.00  0.00     0.094 A 
ATOM     10  C   UNL     1      69.031  38.071  20.022  1.00  0.00     0.146 A 
ATOM     11  O   UNL     1      70.043  38.804  20.469  1.00  0.00    -0.452 OA
ENDROOT
BRANCH   1  12
ATOM     12  C   UNL     1      72.352  39.425  20.777  1.00  0.00     0.025 A 
ATOM     13  C   UNL     1      72.571  40.690  20.208  1.00  0.00     0.016 A 
ATOM     14  C   UNL     1      73.536  41.546  20.743  1.00  0.00     0.051 A 
ATOM     15  C   UNL     1      74.289  41.166  21.858  1.00  0.00     0.157 A 
ATOM     16  C   UNL     1      73.091  39.050  21.909  1.00  0.00     0.062 A 
ATOM     17  C   UNL     1      74.061  39.903  22.452  1.00  0.00     0.158 A 
BRANCH  15  18
ATOM     18  O   UNL     1      75.241  42.067  22.341  1.00  0.00    -0.504 OA
ATOM     19  H   UNL     1      75.275  42.393  23.296  1.00  0.00     0.293 HD
ENDBRANCH  15  18
BRANCH  17  20
ATOM     20  O   UNL     1      74.767  39.458  23.572  1.00  0.00    -0.504 OA
ATOM     21  H   UNL     1      75.553  38.825  23.530  1.00  0.00     0.293 HD
ENDBRANCH  17  20
ENDBRANCH   1  12
BRANCH   2  22
ATOM     22  O   UNL     1      72.986  36.969  19.377  1.00  0.00    -0.502 OA
ATOM     23  H   UNL     1      73.620  37.480  18.775  1.00  0.00     0.293 HD
ENDBRANCH   2  22
BRANCH   6  24
ATOM     24  O   UNL     1      68.230  35.095  17.876  1.00  0.00    -0.507 OA
ATOM     25  H   UNL     1      68.596  35.139  16.937  1.00  0.00     0.293 HD
ENDBRANCH   6  24
BRANCH   8  26
ATOM     26  O   UNL     1      65.337  38.091  20.233  1.00  0.00    -0.508 OA
ATOM     27  H   UNL     1      64.535  37.550  19.930  1.00  0.00     0.293 HD
ENDBRANCH   8  26
TORSDOF 6
ENDMDL
MODEL 2
REMARK VINA RESULT:    -5.423      1.324      2.973
REMARK INTER + INTRA:          -6.768
REMARK INTER:                  -6.492
REMARK INTRA:                  -0.275
REMARK UNBOUND:                -0.236
REMARK SMILES O=c1c(O)c(-c2ccc(O)c(O)c2)oc2cc(O)cc(O)c12
REMARK SMILES IDX 5 1 3 2 2 3 1 4 22 5 20 6 19 7 17 8 16 9 15 10 14 11 6 12
REMARK SMILES IDX 7 13 8 14 9 15 13 16 11 17 10 18 12 20 4 22 21 24 18 26
REMARK H PARENT 10 19 12 21 4 23 21 25 18 27
REMARK Flexibility Score: inf
ROOT
ATOM      1  C   UNL     1      70.656  39.675  20.431  1.00  0.00     0.180 A 
ATOM      2  C   UNL     1      69.544  40.505  20.657  1.00  0.00     0.208 A 
ATOM      3  C   UNL     1      68.265  40.036  20.317  1.00  0.00     0.238 A 
ATOM      4  O   UNL     1      67.279  40.805  20.471  1.00  0.00    -0.285 OA
ATOM      5  C   UNL     1      68.110  38.738  19.773  1.00  0.00     0.111 A 
ATOM      6  C   UNL     1      66.858  38.147  19.430  1.00  0.00     0.134 A 
ATOM      7  C   UNL     1      66.834  36.909  18.777  1.00  0.00     0.093 A 
ATOM      8  C   UNL     1      68.013  36.211  18.512  1.00  0.00     0.123 A 
ATOM      9  C   UNL     1      69.240  36.754  18.896  1.00  0.00     0.094 A 
ATOM     10  C   UNL     1      69.298  38.004  19.517  1.00  0.00     0.146 A 
ATOM     11  O   UNL     1      70.485  38.489  19.858  1.00  0.00    -0.452 OA
ENDROOT
BRANCH   1  12
ATOM     12  C   UNL     1      72.032  40.089  20.785  1.00  0.00     0.025 A 
ATOM     13  C   UNL     1      72.750  40.998  19.991  1.00  0.00     0.016 A 
ATOM     14  C   UNL     1      74.038  41.391  20.359  1.00  0.00     0.051 A 
ATOM     15  C   UNL     1      74.630  40.898  21.526  1.00  0.00     0.157 A 
ATOM     16  C   UNL     1      72.616  39.610  21.968  1.00  0.00     0.062 A 
ATOM     17  C   UNL     1      73.908  39.999  22.345  1.00  0.00     0.158 A 
BRANCH  15  18
ATOM     18  O   UNL     1      75.922  41.328  21.835  1.00  0.00    -0.504 OA
ATOM     19  H   UNL     1      76.169  41.810  22.687  1.00  0.00     0.293 HD
ENDBRANCH  15  18
BRANCH  17  20
ATOM     20  O   UNL     1      74.428  39.472  23.528  1.00  0.00    -0.504 OA
ATOM     21  H   UNL     1      75.078  38.700  23.565  1.00  0.00     0.293 HD
ENDBRANCH  17  20
ENDBRANCH   1  12
BRANCH   2  22
ATOM     22  O   UNL     1      69.721  41.791  21.175  1.00  0.00    -0.502 OA
ATOM     23  H   UNL     1      70.619  42.258  21.175  1.00  0.00     0.293 HD
ENDBRANCH   2  22
BRANCH   6  24
ATOM     24  O   UNL     1      65.617  38.716  19.731  1.00  0.00    -0.507 OA
ATOM     25  H   UNL     1      65.460  39.699  19.895  1.00  0.00     0.293 HD
ENDBRANCH   6  24
BRANCH   8  26
ATOM     26  O   UNL     1      67.951  34.974  17.875  1.00  0.00    -0.508 OA
ATOM     27  H   UNL     1      67.128  34.386  17.937  1.00  0.00     0.293 HD
ENDBRANCH   8  26
TORSDOF 6
ENDMDL
MODEL 3
REMARK VINA RESULT:    -5.395      1.298      1.861
REMARK INTER + INTRA:          -6.735
REMARK INTER:                  -6.412
REMARK INTRA:                  -0.323
REMARK UNBOUND:                -0.236
REMARK SMILES O=c1c(O)c(-c2ccc(O)c(O)c2)oc2cc(O)cc(O)c12
REMARK SMILES IDX 5 1 3 2 2 3 1 4 22 5 20 6 19 7 17 8 16 9 15 10 14 11 6 12
REMARK SMILES IDX 7 13 8 14 9 15 13 16 11 17 10 18 12 20 4 22 21 24 18 26
REMARK H PARENT 10 19 12 21 4 23 21 25 18 27
REMARK Flexibility Score: inf
ROOT
ATOM      1  C   UNL     1      71.473  38.339  19.499  1.00  0.00     0.180 A 
ATOM      2  C   UNL     1      71.658  37.074  18.915  1.00  0.00     0.208 A 
ATOM      3  C   UNL     1      70.532  36.288  18.624  1.00  0.00     0.238 A 
ATOM      4  O   UNL     1      70.707  35.134  18.151  1.00  0.00    -0.285 OA
ATOM      5  C   UNL     1      69.235  36.783  18.902  1.00  0.00     0.111 A 
ATOM      6  C   UNL     1      68.023  36.089  18.611  1.00  0.00     0.134 A 
ATOM      7  C   UNL     1      66.802  36.616  19.049  1.00  0.00     0.093 A 
ATOM      8  C   UNL     1      66.743  37.842  19.711  1.00  0.00     0.123 A 
ATOM      9  C   UNL     1      67.918  38.558  19.949  1.00  0.00     0.094 A 
ATOM     10  C   UNL     1      69.154  38.040  19.555  1.00  0.00     0.146 A 
ATOM     11  O   UNL     1      70.248  38.747  19.809  1.00  0.00    -0.452 OA
ENDROOT
BRANCH   1  12
ATOM     12  C   UNL     1      72.609  39.235  19.813  1.00  0.00     0.025 A 
ATOM     13  C   UNL     1      73.250  39.193  21.062  1.00  0.00     0.016 A 
ATOM     14  C   UNL     1      74.335  40.032  21.326  1.00  0.00     0.051 A 
ATOM     15  C   UNL     1      74.808  40.917  20.352  1.00  0.00     0.157 A 
ATOM     16  C   UNL     1      73.097  40.106  18.827  1.00  0.00     0.062 A 
ATOM     17  C   UNL     1      74.184  40.951  19.083  1.00  0.00     0.158 A 
BRANCH  15  18
ATOM     18  O   UNL     1      75.894  41.730  20.682  1.00  0.00    -0.504 OA
ATOM     19  H   UNL     1      75.819  42.717  20.883  1.00  0.00     0.293 HD
ENDBRANCH  15  18
BRANCH  17  20
ATOM     20  O   UNL     1      74.606  41.800  18.058  1.00  0.00    -0.504 OA
ATOM     21  H   UNL     1      74.785  41.497  17.111  1.00  0.00     0.293 HD
ENDBRANCH  17  20
ENDBRANCH   1  12
BRANCH   2  22
ATOM     22  O   UNL     1      72.948  36.595  18.668  1.00  0.00    -0.502 OA
ATOM     23  H   UNL     1      73.630  36.466  19.406  1.00  0.00     0.293 HD
ENDBRANCH   2  22
BRANCH   6  24
ATOM     24  O   UNL     1      67.960  34.902  17.875  1.00  0.00    -0.507 OA
ATOM     25  H   UNL     1      68.218  33.993  18.228  1.00  0.00     0.293 HD
ENDBRANCH   6  24
BRANCH   8  26
ATOM     26  O   UNL     1      65.510  38.345  20.120  1.00  0.00    -0.508 OA
ATOM     27  H   UNL     1      64.656  38.121  19.622  1.00  0.00     0.293 HD
ENDBRANCH   8  26
TORSDOF 6
ENDMDL
MODEL 4
REMARK VINA RESULT:    -5.265      1.518      3.173
REMARK INTER + INTRA:          -6.577
REMARK INTER:                  -6.268
REMARK INTRA:                  -0.309
REMARK UNBOUND:                -0.236
REMARK SMILES O=c1c(O)c(-c2ccc(O)c(O)c2)oc2cc(O)cc(O)c12
REMARK SMILES IDX 5 1 3 2 2 3 1 4 22 5 20 6 19 7 17 8 16 9 15 10 14 11 6 12
REMARK SMILES IDX 7 13 8 14 9 15 13 16 11 17 10 18 12 20 4 22 21 24 18 26
REMARK H PARENT 10 19 12 21 4 23 21 25 18 27
REMARK Flexibility Score: inf
ROOT
ATOM      1  C   UNL     1      71.898  39.780  21.218  1.00  0.00     0.180 A 
ATOM      2  C   UNL     1      70.686  40.337  21.663  1.00  0.00     0.208 A 
ATOM      3  C   UNL     1      69.479  39.723  21.296  1.00  0.00     0.238 A 
ATOM      4  O   UNL     1      68.396  40.258  21.652  1.00  0.00    -0.285 OA
ATOM      5  C   UNL     1      69.496  38.550  20.504  1.00  0.00     0.111 A 
ATOM      6  C   UNL     1      68.335  37.822  20.107  1.00  0.00     0.134 A 
ATOM      7  C   UNL     1      68.463  36.751  19.214  1.00  0.00     0.093 A 
ATOM      8  C   UNL     1      69.714  36.340  18.756  1.00  0.00     0.123 A 
ATOM      9  C   UNL     1      70.862  37.008  19.184  1.00  0.00     0.094 A 
ATOM     10  C   UNL     1      70.764  38.103  20.046  1.00  0.00     0.146 A 
ATOM     11  O   UNL     1      71.879  38.717  20.421  1.00  0.00    -0.452 OA
ENDROOT
BRANCH   1  12
ATOM     12  C   UNL     1      73.212  40.356  21.584  1.00  0.00     0.025 A 
ATOM     13  C   UNL     1      73.763  41.431  20.869  1.00  0.00     0.016 A 
ATOM     14  C   UNL     1      74.993  41.973  21.248  1.00  0.00     0.051 A 
ATOM     15  C   UNL     1      75.689  41.464  22.349  1.00  0.00     0.157 A 
ATOM     16  C   UNL     1      73.898  39.859  22.702  1.00  0.00     0.062 A 
ATOM     17  C   UNL     1      75.132  40.396  23.089  1.00  0.00     0.158 A 
BRANCH  15  18
ATOM     18  O   UNL     1      76.916  42.049  22.672  1.00  0.00    -0.504 OA
ATOM     19  H   UNL     1      77.625  42.284  21.993  1.00  0.00     0.293 HD
ENDBRANCH  15  18
BRANCH  17  20
ATOM     20  O   UNL     1      75.763  39.842  24.205  1.00  0.00    -0.504 OA
ATOM     21  H   UNL     1      75.502  38.961  24.623  1.00  0.00     0.293 HD
ENDBRANCH  17  20
ENDBRANCH   1  12
BRANCH   2  22
ATOM     22  O   UNL     1      70.691  41.509  22.426  1.00  0.00    -0.502 OA
ATOM     23  H   UNL     1      71.324  42.277  22.239  1.00  0.00     0.293 HD
ENDBRANCH   2  22
BRANCH   6  24
ATOM     24  O   UNL     1      67.047  38.091  20.578  1.00  0.00    -0.507 OA
ATOM     25  H   UNL     1      66.344  38.604  20.068  1.00  0.00     0.293 HD
ENDBRANCH   6  24
BRANCH   8  26
ATOM     26  O   UNL     1      69.805  35.260  17.881  1.00  0.00    -0.508 OA
ATOM     27  H   UNL     1      68.978  34.802  17.516  1.00  0.00     0.293 HD
ENDBRANCH   8  26
TORSDOF 6
ENDMDL
MODEL 5
REMARK VINA RESULT:    -5.147      1.886      7.167
REMARK INTER + INTRA:          -6.436
REMARK INTER:                  -6.120
REMARK INTRA:                  -0.316
REMARK UNBOUND:                -0.236
REMARK SMILES O=c1c(O)c(-c2ccc(O)c(O)c2)oc2cc(O)cc(O)c12
REMARK SMILES IDX 5 1 3 2 2 3 1 4 22 5 20 6 19 7 17 8 16 9 15 10 14 11 6 12
REMARK SMILES IDX 7 13 8 14 9 15 13 16 11 17 10 18 12 20 4 22 21 24 18 26
REMARK H PARENT 10 19 12 21 4 23 21 25 18 27
REMARK Flexibility Score: inf
ROOT
ATOM      1  C   UNL     1      72.009  39.316  20.139  1.00  0.00     0.180 A 
ATOM      2  C   UNL     1      72.502  40.101  19.082  1.00  0.00     0.208 A 
ATOM      3  C   UNL     1      73.682  40.837  19.273  1.00  0.00     0.238 A 
ATOM      4  O   UNL     1      74.088  41.580  18.342  1.00  0.00    -0.285 OA
ATOM      5  C   UNL     1      74.365  40.765  20.511  1.00  0.00     0.111 A 
ATOM      6  C   UNL     1      75.590  41.436  20.801  1.00  0.00     0.134 A 
ATOM      7  C   UNL     1      76.108  41.399  22.102  1.00  0.00     0.093 A 
ATOM      8  C   UNL     1      75.480  40.663  23.106  1.00  0.00     0.123 A 
ATOM      9  C   UNL     1      74.313  39.954  22.819  1.00  0.00     0.094 A 
ATOM     10  C   UNL     1      73.753  40.001  21.539  1.00  0.00     0.146 A 
ATOM     11  O   UNL     1      72.637  39.322  21.310  1.00  0.00    -0.452 OA
ENDROOT
BRANCH   1  12
ATOM     12  C   UNL     1      70.785  38.494  20.006  1.00  0.00     0.025 A 
ATOM     13  C   UNL     1      70.815  37.233  19.389  1.00  0.00     0.016 A 
ATOM     14  C   UNL     1      69.652  36.466  19.296  1.00  0.00     0.051 A 
ATOM     15  C   UNL     1      68.444  36.932  19.826  1.00  0.00     0.157 A 
ATOM     16  C   UNL     1      69.580  38.954  20.557  1.00  0.00     0.062 A 
ATOM     17  C   UNL     1      68.408  38.191  20.469  1.00  0.00     0.158 A 
BRANCH  15  18
ATOM     18  O   UNL     1      67.317  36.117  19.697  1.00  0.00    -0.504 OA
ATOM     19  H   UNL     1      66.907  35.596  20.458  1.00  0.00     0.293 HD
ENDBRANCH  15  18
BRANCH  17  20
ATOM     20  O   UNL     1      67.243  38.719  21.030  1.00  0.00    -0.504 OA
ATOM     21  H   UNL     1      67.217  39.552  21.600  1.00  0.00     0.293 HD
ENDBRANCH  17  20
ENDBRANCH   1  12
BRANCH   2  22
ATOM     22  O   UNL     1      71.800  40.175  17.875  1.00  0.00    -0.502 OA
ATOM     23  H   UNL     1      71.423  41.044  17.518  1.00  0.00     0.293 HD
ENDBRANCH   2  22
BRANCH   6  24
ATOM     24  O   UNL     1      76.348  42.125  19.849  1.00  0.00    -0.507 OA
ATOM     25  H   UNL     1      77.342  42.282  19.910  1.00  0.00     0.293 HD
ENDBRANCH   6  24
BRANCH   8  26
ATOM     26  O   UNL     1      76.032  40.635  24.385  1.00  0.00    -0.508 OA
ATOM     27  H   UNL     1      76.491  39.807  24.746  1.00  0.00     0.293 HD
ENDBRANCH   8  26
TORSDOF 6
ENDMDL
MODEL 6
REMARK VINA RESULT:    -5.124      1.775      6.598
REMARK INTER + INTRA:          -6.408
REMARK INTER:                  -6.174
REMARK INTRA:                  -0.234
REMARK UNBOUND:                -0.236
REMARK SMILES O=c1c(O)c(-c2ccc(O)c(O)c2)oc2cc(O)cc(O)c12
REMARK SMILES IDX 5 1 3 2 2 3 1 4 22 5 20 6 19 7 17 8 16 9 15 10 14 11 6 12
REMARK SMILES IDX 7 13 8 14 9 15 13 16 11 17 10 18 12 20 4 22 21 24 18 26
REMARK H PARENT 10 19 12 21 4 23 21 25 18 27
REMARK Flexibility Score: inf
ROOT
ATOM      1  C   UNL     1      70.216  39.434  19.716  1.00  0.00     0.180 A 
ATOM      2  C   UNL     1      70.961  38.345  19.232  1.00  0.00     0.208 A 
ATOM      3  C   UNL     1      72.286  38.180  19.664  1.00  0.00     0.238 A 
ATOM      4  O   UNL     1      72.964  37.234  19.185  1.00  0.00    -0.285 OA
ATOM      5  C   UNL     1      72.845  39.094  20.590  1.00  0.00     0.111 A 
ATOM      6  C   UNL     1      74.163  38.999  21.127  1.00  0.00     0.134 A 
ATOM      7  C   UNL     1      74.657  40.032  21.933  1.00  0.00     0.093 A 
ATOM      8  C   UNL     1      73.858  41.123  22.275  1.00  0.00     0.123 A 
ATOM      9  C   UNL     1      72.547  41.197  21.803  1.00  0.00     0.094 A 
ATOM     10  C   UNL     1      72.039  40.199  20.967  1.00  0.00     0.146 A 
ATOM     11  O   UNL     1      70.790  40.312  20.532  1.00  0.00    -0.452 OA
ENDROOT
BRANCH   1  12
ATOM     12  C   UNL     1      68.807  39.661  19.325  1.00  0.00     0.025 A 
ATOM     13  C   UNL     1      68.451  40.688  18.437  1.00  0.00     0.016 A 
ATOM     14  C   UNL     1      67.117  40.868  18.064  1.00  0.00     0.051 A 
ATOM     15  C   UNL     1      66.117  40.024  18.558  1.00  0.00     0.157 A 
ATOM     16  C   UNL     1      67.808  38.800  19.805  1.00  0.00     0.062 A 
ATOM     17  C   UNL     1      66.468  38.972  19.437  1.00  0.00     0.158 A 
BRANCH  15  18
ATOM     18  O   UNL     1      64.803  40.260  18.149  1.00  0.00    -0.504 OA
ATOM     19  H   UNL     1      64.278  39.640  17.550  1.00  0.00     0.293 HD
ENDBRANCH  15  18
BRANCH  17  20
ATOM     20  O   UNL     1      65.527  38.084  19.963  1.00  0.00    -0.504 OA
ATOM     21  H   UNL     1      65.761  37.193  20.376  1.00  0.00     0.293 HD
ENDBRANCH  17  20
ENDBRANCH   1  12
BRANCH   2  22
ATOM     22  O   UNL     1      70.397  37.466  18.302  1.00  0.00    -0.502 OA
ATOM     23  H   UNL     1      69.789  36.704  18.574  1.00  0.00     0.293 HD
ENDBRANCH   2  22
BRANCH   6  24
ATOM     24  O   UNL     1      75.013  37.908  20.923  1.00  0.00    -0.507 OA
ATOM     25  H   UNL     1      76.014  37.927  21.049  1.00  0.00     0.293 HD
ENDBRANCH   6  24
BRANCH   8  26
ATOM     26  O   UNL     1      74.376  42.125  23.093  1.00  0.00    -0.508 OA
ATOM     27  H   UNL     1      74.851  42.932  22.705  1.00  0.00     0.293 HD
ENDBRANCH   8  26
TORSDOF 6
ENDMDL
MODEL 7
REMARK VINA RESULT:    -5.116      1.577      2.089
REMARK INTER + INTRA:          -6.398
REMARK INTER:                  -6.154
REMARK INTRA:                  -0.244
REMARK UNBOUND:                -0.236
REMARK SMILES O=c1c(O)c(-c2ccc(O)c(O)c2)oc2cc(O)cc(O)c12
REMARK SMILES IDX 5 1 3 2 2 3 1 4 22 5 20 6 19 7 17 8 16 9 15 10 14 11 6 12
REMARK SMILES IDX 7 13 8 14 9 15 13 16 11 17 10 18 12 20 4 22 21 24 18 26
REMARK H PARENT 10 19 12 21 4 23 21 25 18 27
REMARK Flexibility Score: inf
ROOT
ATOM      1  C   UNL     1      72.919  39.412  20.878  1.00  0.00     0.180 A 
ATOM      2  C   UNL     1      73.043  38.555  19.771  1.00  0.00     0.208 A 
ATOM      3  C   UNL     1      71.890  37.952  19.244  1.00  0.00     0.238 A 
ATOM      4  O   UNL     1      72.015  37.144  18.287  1.00  0.00    -0.285 OA
ATOM      5  C   UNL     1      70.625  38.228  19.818  1.00  0.00     0.111 A 
ATOM      6  C   UNL     1      69.387  37.705  19.340  1.00  0.00     0.134 A 
ATOM      7  C   UNL     1      68.212  37.939  20.064  1.00  0.00     0.093 A 
ATOM      8  C   UNL     1      68.219  38.731  21.212  1.00  0.00     0.123 A 
ATOM      9  C   UNL     1      69.416  39.296  21.656  1.00  0.00     0.094 A 
ATOM     10  C   UNL     1      70.610  39.051  20.974  1.00  0.00     0.146 A 
ATOM     11  O   UNL     1      71.728  39.599  21.435  1.00  0.00    -0.452 OA
ENDROOT
BRANCH   1  12
ATOM     12  C   UNL     1      74.085  40.103  21.475  1.00  0.00     0.025 A 
ATOM     13  C   UNL     1      74.741  41.145  20.800  1.00  0.00     0.016 A 
ATOM     14  C   UNL     1      75.824  41.798  21.393  1.00  0.00     0.051 A 
ATOM     15  C   UNL     1      76.264  41.435  22.670  1.00  0.00     0.157 A 
ATOM     16  C   UNL     1      74.511  39.753  22.765  1.00  0.00     0.062 A 
ATOM     17  C   UNL     1      75.596  40.402  23.368  1.00  0.00     0.158 A 
BRANCH  15  18
ATOM     18  O   UNL     1      77.355  42.125  23.204  1.00  0.00    -0.504 OA
ATOM     19  H   UNL     1      78.312  41.810  23.133  1.00  0.00     0.293 HD
ENDBRANCH  15  18
BRANCH  17  20
ATOM     20  O   UNL     1      75.972  39.991  24.648  1.00  0.00    -0.504 OA
ATOM     21  H   UNL     1      76.256  40.623  25.384  1.00  0.00     0.293 HD
ENDBRANCH  17  20
ENDBRANCH   1  12
BRANCH   2  22
ATOM     22  O   UNL     1      74.304  38.280  19.234  1.00  0.00    -0.502 OA
ATOM     23  H   UNL     1      74.931  39.009  18.918  1.00  0.00     0.293 HD
ENDBRANCH   2  22
BRANCH   6  24
ATOM     24  O   UNL     1      69.253  36.978  18.153  1.00  0.00    -0.507 OA
ATOM     25  H   UNL     1      70.017  36.551  17.651  1.00  0.00     0.293 HD
ENDBRANCH   6  24
BRANCH   8  26
ATOM     26  O   UNL     1      67.029  38.956  21.900  1.00  0.00    -0.508 OA
ATOM     27  H   UNL     1      66.162  39.148  21.410  1.00  0.00     0.293 HD
ENDBRANCH   8  26
TORSDOF 6
ENDMDL
MODEL 8
REMARK VINA RESULT:    -4.905      2.176      7.663
REMARK INTER + INTRA:          -6.144
REMARK INTER:                  -5.827
REMARK INTRA:                  -0.317
REMARK UNBOUND:                -0.236
REMARK SMILES O=c1c(O)c(-c2ccc(O)c(O)c2)oc2cc(O)cc(O)c12
REMARK SMILES IDX 5 1 3 2 2 3 1 4 22 5 20 6 19 7 17 8 16 9 15 10 14 11 6 12
REMARK SMILES IDX 7 13 8 14 9 15 13 16 11 17 10 18 12 20 4 22 21 24 18 26
REMARK H PARENT 10 19 12 21 4 23 21 25 18 27
REMARK Flexibility Score: inf
ROOT
ATOM      1  C   UNL     1      73.234  39.033  20.155  1.00  0.00     0.180 A 
ATOM      2  C   UNL     1      73.432  39.272  21.526  1.00  0.00     0.208 A 
ATOM      3  C   UNL     1      74.485  40.110  21.926  1.00  0.00     0.238 A 
ATOM      4  O   UNL     1      74.690  40.276  23.157  1.00  0.00    -0.285 OA
ATOM      5  C   UNL     1      75.316  40.713  20.951  1.00  0.00     0.111 A 
ATOM      6  C   UNL     1      76.386  41.610  21.242  1.00  0.00     0.134 A 
ATOM      7  C   UNL     1      77.225  42.043  20.207  1.00  0.00     0.093 A 
ATOM      8  C   UNL     1      76.994  41.663  18.886  1.00  0.00     0.123 A 
ATOM      9  C   UNL     1      75.914  40.832  18.583  1.00  0.00     0.094 A 
ATOM     10  C   UNL     1      75.081  40.355  19.598  1.00  0.00     0.146 A 
ATOM     11  O   UNL     1      74.071  39.560  19.269  1.00  0.00    -0.452 OA
ENDROOT
BRANCH   1  12
ATOM     12  C   UNL     1      72.131  38.181  19.655  1.00  0.00     0.025 A 
ATOM     13  C   UNL     1      70.828  38.683  19.510  1.00  0.00     0.016 A 
ATOM     14  C   UNL     1      69.809  37.868  19.013  1.00  0.00     0.051 A 
ATOM     15  C   UNL     1      70.070  36.545  18.641  1.00  0.00     0.157 A 
ATOM     16  C   UNL     1      72.400  36.861  19.261  1.00  0.00     0.062 A 
ATOM     17  C   UNL     1      71.385  36.036  18.762  1.00  0.00     0.158 A 
BRANCH  15  18
ATOM     18  O   UNL     1      69.007  35.782  18.156  1.00  0.00    -0.504 OA
ATOM     19  H   UNL     1      68.922  34.784  18.286  1.00  0.00     0.293 HD
ENDBRANCH  15  18
BRANCH  17  20
ATOM     20  O   UNL     1      71.723  34.730  18.402  1.00  0.00    -0.504 OA
ATOM     21  H   UNL     1      71.639  34.362  17.465  1.00  0.00     0.293 HD
ENDBRANCH  17  20
ENDBRANCH   1  12
BRANCH   2  22
ATOM     22  O   UNL     1      72.613  38.650  22.473  1.00  0.00    -0.502 OA
ATOM     23  H   UNL     1      71.612  38.800  22.509  1.00  0.00     0.293 HD
ENDBRANCH   2  22
BRANCH   6  24
ATOM     24  O   UNL     1      76.650  42.125  22.514  1.00  0.00    -0.507 OA
ATOM     25  H   UNL     1      76.507  43.086  22.787  1.00  0.00     0.293 HD
ENDBRANCH   6  24
BRANCH   8  26
ATOM     26  O   UNL     1      77.839  42.125  17.879  1.00  0.00    -0.508 OA
ATOM     27  H   UNL     1      78.837  42.222  18.029  1.00  0.00     0.293 HD
ENDBRANCH   8  26
TORSDOF 6
ENDMDL
MODEL 9
REMARK VINA RESULT:    -4.800      1.936      7.277
REMARK INTER + INTRA:          -6.018
REMARK INTER:                  -5.864
REMARK INTRA:                  -0.153
REMARK UNBOUND:                -0.236
REMARK SMILES O=c1c(O)c(-c2ccc(O)c(O)c2)oc2cc(O)cc(O)c12
REMARK SMILES IDX 5 1 3 2 2 3 1 4 22 5 20 6 19 7 17 8 16 9 15 10 14 11 6 12
REMARK SMILES IDX 7 13 8 14 9 15 13 16 11 17 10 18 12 20 4 22 21 24 18 26
REMARK H PARENT 10 19 12 21 4 23 21 25 18 27
REMARK Flexibility Score: inf
ROOT
ATOM      1  C   UNL     1      70.476  39.333  20.163  1.00  0.00     0.180 A 
ATOM      2  C   UNL     1      70.667  40.220  21.237  1.00  0.00     0.208 A 
ATOM      3  C   UNL     1      71.928  40.810  21.417  1.00  0.00     0.238 A 
ATOM      4  O   UNL     1      72.108  41.560  22.412  1.00  0.00    -0.285 OA
ATOM      5  C   UNL     1      72.978  40.521  20.511  1.00  0.00     0.111 A 
ATOM      6  C   UNL     1      74.283  41.093  20.574  1.00  0.00     0.134 A 
ATOM      7  C   UNL     1      75.281  40.635  19.705  1.00  0.00     0.093 A 
ATOM      8  C   UNL     1      75.004  39.674  18.734  1.00  0.00     0.123 A 
ATOM      9  C   UNL     1      73.716  39.150  18.625  1.00  0.00     0.094 A 
ATOM     10  C   UNL     1      72.708  39.561  19.501  1.00  0.00     0.146 A 
ATOM     11  O   UNL     1      71.498  39.031  19.370  1.00  0.00    -0.452 OA
ENDROOT
BRANCH   1  12
ATOM     12  C   UNL     1      69.170  38.691  19.894  1.00  0.00     0.025 A 
ATOM     13  C   UNL     1      68.999  37.302  20.013  1.00  0.00     0.016 A 
ATOM     14  C   UNL     1      67.751  36.723  19.778  1.00  0.00     0.051 A 
ATOM     15  C   UNL     1      66.650  37.513  19.432  1.00  0.00     0.157 A 
ATOM     16  C   UNL     1      68.061  39.488  19.570  1.00  0.00     0.062 A 
ATOM     17  C   UNL     1      66.805  38.915  19.331  1.00  0.00     0.158 A 
BRANCH  15  18
ATOM     18  O   UNL     1      65.431  36.870  19.206  1.00  0.00    -0.504 OA
ATOM     19  H   UNL     1      64.529  37.298  19.360  1.00  0.00     0.293 HD
ENDBRANCH  15  18
BRANCH  17  20
ATOM     20  O   UNL     1      65.751  39.769  19.001  1.00  0.00    -0.504 OA
ATOM     21  H   UNL     1      65.517  40.604  19.517  1.00  0.00     0.293 HD
ENDBRANCH  17  20
ENDBRANCH   1  12
BRANCH   2  22
ATOM     22  O   UNL     1      69.624  40.475  22.132  1.00  0.00    -0.502 OA
ATOM     23  H   UNL     1      69.768  40.528  23.133  1.00  0.00     0.293 HD
ENDBRANCH   2  22
BRANCH   6  24
ATOM     24  O   UNL     1      74.642  42.125  21.446  1.00  0.00    -0.507 OA
ATOM     25  H   UNL     1      74.095  42.424  22.239  1.00  0.00     0.293 HD
ENDBRANCH   6  24
BRANCH   8  26
ATOM     26  O   UNL     1      76.017  39.252  17.875  1.00  0.00    -0.508 OA
ATOM     27  H   UNL     1      76.959  39.623  17.944  1.00  0.00     0.293 HD
ENDBRANCH   8  26
TORSDOF 6
ENDMDL
