MODEL 1
REMARK VINA RESULT:    -5.459      0.000      0.000
REMARK INTER + INTRA:         -12.152
REMARK INTER:                 -10.247
REMARK INTRA:                  -1.905
REMARK UNBOUND:                -1.905
REMARK SMILES CCCCCCCCC=CCCCCCCCC(=O)[O-]
REMARK SMILES IDX 10 1 9 2 11 3 12 4 13 5 14 6 15 7 16 8 17 9 18 10 19 11
REMARK SMILES IDX 20 12 8 13 7 14 6 15 5 16 4 17 3 18 2 19 1 20
REMARK H PARENT
REMARK Flexibility Score: inf
ROOT
ATOM      1  C   UNL     1       1.533  -2.689  -4.728  1.00  0.00    -0.031 C 
ATOM      2  C   UNL     1       2.727  -2.382  -5.266  1.00  0.00    -0.031 C 
ENDROOT
BRANCH   1   3
ATOM      3  C   UNL     1       1.367  -3.535  -3.489  1.00  0.00     0.027 C 
BRANCH   3   4
ATOM      4  C   UNL     1      -0.082  -3.496  -2.985  1.00  0.00     0.004 C 
BRANCH   4   5
ATOM      5  C   UNL     1      -0.241  -4.106  -1.581  1.00  0.00     0.000 C 
BRANCH   5   6
ATOM      6  C   UNL     1       0.446  -5.471  -1.387  1.00  0.00     0.000 C 
BRANCH   6   7
ATOM      7  C   UNL     1      -0.450  -6.672  -1.761  1.00  0.00     0.000 C 
BRANCH   7   8
ATOM      8  C   UNL     1      -1.871  -6.536  -1.194  1.00  0.00     0.006 C 
BRANCH   8   9
ATOM      9  C   UNL     1      -2.921  -6.922  -2.241  1.00  0.00     0.053 C 
BRANCH   9  10
ATOM     10  C   UNL     1      -2.925  -5.942  -3.372  1.00  0.00     0.041 C 
ATOM     11  O   UNL     1      -2.350  -6.222  -4.457  1.00  0.00    -0.550 OA
ATOM     12  O   UNL     1      -3.574  -4.721  -3.233  1.00  0.00    -0.550 OA
ENDBRANCH   9  10
ENDBRANCH   8   9
ENDBRANCH   7   8
ENDBRANCH   6   7
ENDBRANCH   5   6
ENDBRANCH   4   5
ENDBRANCH   3   4
ENDBRANCH   1   3
BRANCH   2  13
ATOM     13  C   UNL     1       4.051  -2.871  -4.733  1.00  0.00     0.027 C 
BRANCH  13  14
ATOM     14  C   UNL     1       4.880  -3.526  -5.844  1.00  0.00     0.004 C 
BRANCH  14  15
ATOM     15  C   UNL     1       4.134  -4.719  -6.456  1.00  0.00     0.000 C 
BRANCH  15  16
ATOM     16  C   UNL     1       4.851  -6.036  -6.139  1.00  0.00     0.000 C 
BRANCH  16  17
ATOM     17  C   UNL     1       4.770  -6.361  -4.643  1.00  0.00    -0.000 C 
BRANCH  17  18
ATOM     18  C   UNL     1       3.313  -6.571  -4.204  1.00  0.00    -0.000 C 
BRANCH  18  19
ATOM     19  C   UNL     1       3.167  -7.679  -3.151  1.00  0.00    -0.003 C 
ATOM     20  C   UNL     1       4.482  -7.990  -2.434  1.00  0.00     0.004 C 
ENDBRANCH  18  19
ENDBRANCH  17  18
ENDBRANCH  16  17
ENDBRANCH  15  16
ENDBRANCH  14  15
ENDBRANCH  13  14
ENDBRANCH   2  13
TORSDOF 15
ENDMDL
MODEL 2
REMARK VINA RESULT:    -5.429      2.792      6.387
REMARK INTER + INTRA:         -12.095
REMARK INTER:                  -9.284
REMARK INTRA:                  -2.811
REMARK UNBOUND:                -1.905
REMARK SMILES CCCCCCCCC=CCCCCCCCC(=O)[O-]
REMARK SMILES IDX 10 1 9 2 11 3 12 4 13 5 14 6 15 7 16 8 17 9 18 10 19 11
REMARK SMILES IDX 20 12 8 13 7 14 6 15 5 16 4 17 3 18 2 19 1 20
REMARK H PARENT
REMARK Flexibility Score: inf
ROOT
ATOM      1  C   UNL     1       0.511  -5.432  -1.504  1.00  0.00    -0.031 C 
ATOM      2  C   UNL     1       0.012  -6.657  -1.258  1.00  0.00    -0.031 C 
ENDROOT
BRANCH   1   3
ATOM      3  C   UNL     1      -0.299  -4.163  -1.396  1.00  0.00     0.027 C 
BRANCH   3   4
ATOM      4  C   UNL     1      -0.272  -3.378  -2.715  1.00  0.00     0.004 C 
BRANCH   4   5
ATOM      5  C   UNL     1       1.157  -3.103  -3.217  1.00  0.00     0.000 C 
BRANCH   5   6
ATOM      6  C   UNL     1       1.252  -2.671  -4.692  1.00  0.00     0.000 C 
BRANCH   6   7
ATOM      7  C   UNL     1       2.390  -3.369  -5.469  1.00  0.00     0.000 C 
BRANCH   7   8
ATOM      8  C   UNL     1       3.768  -3.100  -4.846  1.00  0.00     0.006 C 
BRANCH   8   9
ATOM      9  C   UNL     1       4.889  -3.664  -5.724  1.00  0.00     0.053 C 
BRANCH   9  10
ATOM     10  C   UNL     1       4.692  -5.129  -5.958  1.00  0.00     0.041 C 
ATOM     11  O   UNL     1       4.549  -5.572  -7.129  1.00  0.00    -0.550 OA
ATOM     12  O   UNL     1       4.677  -6.009  -4.883  1.00  0.00    -0.550 OA
ENDBRANCH   9  10
ENDBRANCH   8   9
ENDBRANCH   7   8
ENDBRANCH   6   7
ENDBRANCH   5   6
ENDBRANCH   4   5
ENDBRANCH   3   4
ENDBRANCH   1   3
BRANCH   2  13
ATOM     13  C   UNL     1      -1.423  -6.931  -0.886  1.00  0.00     0.027 C 
BRANCH  13  14
ATOM     14  C   UNL     1      -2.245  -7.316  -2.122  1.00  0.00     0.004 C 
BRANCH  14  15
ATOM     15  C   UNL     1      -3.066  -6.124  -2.629  1.00  0.00     0.000 C 
BRANCH  15  16
ATOM     16  C   UNL     1      -2.775  -5.844  -4.108  1.00  0.00     0.000 C 
BRANCH  16  17
ATOM     17  C   UNL     1      -1.613  -6.709  -4.613  1.00  0.00    -0.000 C 
BRANCH  17  18
ATOM     18  C   UNL     1      -0.506  -5.839  -5.227  1.00  0.00    -0.000 C 
BRANCH  18  19
ATOM     19  C   UNL     1       0.715  -6.660  -5.668  1.00  0.00    -0.003 C 
ATOM     20  C   UNL     1       1.316  -7.483  -4.528  1.00  0.00     0.004 C 
ENDBRANCH  18  19
ENDBRANCH  17  18
ENDBRANCH  16  17
ENDBRANCH  15  16
ENDBRANCH  14  15
ENDBRANCH  13  14
ENDBRANCH   2  13
TORSDOF 15
ENDMDL
MODEL 3
REMARK VINA RESULT:    -5.302      2.928      6.247
REMARK INTER + INTRA:         -11.855
REMARK INTER:                  -9.004
REMARK INTRA:                  -2.851
REMARK UNBOUND:                -1.905
REMARK SMILES CCCCCCCCC=CCCCCCCCC(=O)[O-]
REMARK SMILES IDX 10 1 9 2 11 3 12 4 13 5 14 6 15 7 16 8 17 9 18 10 19 11
REMARK SMILES IDX 20 12 8 13 7 14 6 15 5 16 4 17 3 18 2 19 1 20
REMARK H PARENT
REMARK Flexibility Score: inf
ROOT
ATOM      1  C   UNL     1       0.909  -4.115  -5.956  1.00  0.00    -0.031 C 
ATOM      2  C   UNL     1       1.412  -3.155  -5.160  1.00  0.00    -0.031 C 
ENDROOT
BRANCH   1   3
ATOM      3  C   UNL     1       0.211  -5.348  -5.438  1.00  0.00     0.027 C 
BRANCH   3   4
ATOM      4  C   UNL     1       1.170  -6.546  -5.388  1.00  0.00     0.004 C 
BRANCH   4   5
ATOM      5  C   UNL     1       1.920  -6.654  -4.049  1.00  0.00     0.000 C 
BRANCH   5   6
ATOM      6  C   UNL     1       3.450  -6.787  -4.174  1.00  0.00     0.000 C 
BRANCH   6   7
ATOM      7  C   UNL     1       3.923  -7.172  -5.592  1.00  0.00     0.000 C 
BRANCH   7   8
ATOM      8  C   UNL     1       4.992  -6.209  -6.130  1.00  0.00     0.006 C 
BRANCH   8   9
ATOM      9  C   UNL     1       4.353  -4.929  -6.678  1.00  0.00     0.053 C 
BRANCH   9  10
ATOM     10  C   UNL     1       4.993  -3.718  -6.075  1.00  0.00     0.041 C 
ATOM     11  O   UNL     1       5.675  -2.937  -6.790  1.00  0.00    -0.550 OA
ATOM     12  O   UNL     1       4.827  -3.444  -4.723  1.00  0.00    -0.550 OA
ENDBRANCH   9  10
ENDBRANCH   8   9
ENDBRANCH   7   8
ENDBRANCH   6   7
ENDBRANCH   5   6
ENDBRANCH   4   5
ENDBRANCH   3   4
ENDBRANCH   1   3
BRANCH   2  13
ATOM     13  C   UNL     1       1.386  -3.198  -3.653  1.00  0.00     0.027 C 
BRANCH  13  14
ATOM     14  C   UNL     1       0.188  -2.415  -3.103  1.00  0.00     0.004 C 
BRANCH  14  15
ATOM     15  C   UNL     1      -0.838  -3.357  -2.462  1.00  0.00     0.000 C 
BRANCH  15  16
ATOM     16  C   UNL     1      -0.144  -4.514  -1.735  1.00  0.00     0.000 C 
BRANCH  16  17
ATOM     17  C   UNL     1      -0.982  -5.795  -1.813  1.00  0.00    -0.000 C 
BRANCH  17  18
ATOM     18  C   UNL     1      -2.257  -5.569  -2.638  1.00  0.00    -0.000 C 
BRANCH  18  19
ATOM     19  C   UNL     1      -2.893  -6.883  -3.116  1.00  0.00    -0.003 C 
ATOM     20  C   UNL     1      -2.859  -7.037  -4.637  1.00  0.00     0.004 C 
ENDBRANCH  18  19
ENDBRANCH  17  18
ENDBRANCH  16  17
ENDBRANCH  15  16
ENDBRANCH  14  15
ENDBRANCH  13  14
ENDBRANCH   2  13
TORSDOF 15
ENDMDL
MODEL 4
REMARK VINA RESULT:    -5.271      0.979      3.586
REMARK INTER + INTRA:         -11.799
REMARK INTER:                  -9.628
REMARK INTRA:                  -2.170
REMARK UNBOUND:                -1.905
REMARK SMILES CCCCCCCCC=CCCCCCCCC(=O)[O-]
REMARK SMILES IDX 10 1 9 2 11 3 12 4 13 5 14 6 15 7 16 8 17 9 18 10 19 11
REMARK SMILES IDX 20 12 8 13 7 14 6 15 5 16 4 17 3 18 2 19 1 20
REMARK H PARENT
REMARK Flexibility Score: inf
ROOT
ATOM      1  C   UNL     1       4.115  -6.714  -4.323  1.00  0.00    -0.031 C 
ATOM      2  C   UNL     1       4.871  -5.939  -5.120  1.00  0.00    -0.031 C 
ENDROOT
BRANCH   1   3
ATOM      3  C   UNL     1       2.606  -6.690  -4.321  1.00  0.00     0.027 C 
BRANCH   3   4
ATOM      4  C   UNL     1       2.050  -7.010  -2.927  1.00  0.00     0.004 C 
BRANCH   4   5
ATOM      5  C   UNL     1       0.566  -7.414  -2.954  1.00  0.00     0.000 C 
BRANCH   5   6
ATOM      6  C   UNL     1       0.144  -8.401  -1.849  1.00  0.00     0.000 C 
BRANCH   6   7
ATOM      7  C   UNL     1      -0.927  -7.837  -0.891  1.00  0.00     0.000 C 
BRANCH   7   8
ATOM      8  C   UNL     1      -1.469  -6.479  -1.362  1.00  0.00     0.006 C 
BRANCH   8   9
ATOM      9  C   UNL     1      -2.908  -6.607  -1.873  1.00  0.00     0.053 C 
BRANCH   9  10
ATOM     10  C   UNL     1      -3.031  -6.045  -3.255  1.00  0.00     0.041 C 
ATOM     11  O   UNL     1      -3.444  -4.867  -3.426  1.00  0.00    -0.550 OA
ATOM     12  O   UNL     1      -2.678  -6.817  -4.354  1.00  0.00    -0.550 OA
ENDBRANCH   9  10
ENDBRANCH   8   9
ENDBRANCH   7   8
ENDBRANCH   6   7
ENDBRANCH   5   6
ENDBRANCH   4   5
ENDBRANCH   3   4
ENDBRANCH   1   3
BRANCH   2  13
ATOM     13  C   UNL     1       4.321  -4.917  -6.083  1.00  0.00     0.027 C 
BRANCH  13  14
ATOM     14  C   UNL     1       4.827  -3.511  -5.738  1.00  0.00     0.004 C 
BRANCH  14  15
ATOM     15  C   UNL     1       3.940  -2.852  -4.675  1.00  0.00     0.000 C 
BRANCH  15  16
ATOM     16  C   UNL     1       2.853  -1.989  -5.325  1.00  0.00     0.000 C 
BRANCH  16  17
ATOM     17  C   UNL     1       1.453  -2.512  -4.979  1.00  0.00    -0.000 C 
BRANCH  17  18
ATOM     18  C   UNL     1       1.462  -3.260  -3.637  1.00  0.00    -0.000 C 
BRANCH  18  19
ATOM     19  C   UNL     1       0.080  -3.811  -3.258  1.00  0.00    -0.003 C 
ATOM     20  C   UNL     1      -0.702  -2.868  -2.344  1.00  0.00     0.004 C 
ENDBRANCH  18  19
ENDBRANCH  17  18
ENDBRANCH  16  17
ENDBRANCH  15  16
ENDBRANCH  14  15
ENDBRANCH  13  14
ENDBRANCH   2  13
TORSDOF 15
ENDMDL
MODEL 5
REMARK VINA RESULT:    -5.208      2.883      6.204
REMARK INTER + INTRA:         -11.679
REMARK INTER:                  -8.953
REMARK INTRA:                  -2.727
REMARK UNBOUND:                -1.905
REMARK SMILES CCCCCCCCC=CCCCCCCCC(=O)[O-]
REMARK SMILES IDX 10 1 9 2 11 3 12 4 13 5 14 6 15 7 16 8 17 9 18 10 19 11
REMARK SMILES IDX 20 12 8 13 7 14 6 15 5 16 4 17 3 18 2 19 1 20
REMARK H PARENT
REMARK Flexibility Score: inf
ROOT
ATOM      1  C   UNL     1      -2.988  -6.259  -3.423  1.00  0.00    -0.031 C 
ATOM      2  C   UNL     1      -2.930  -7.183  -2.448  1.00  0.00    -0.031 C 
ENDROOT
BRANCH   1   3
ATOM      3  C   UNL     1      -2.589  -4.816  -3.231  1.00  0.00     0.027 C 
BRANCH   3   4
ATOM      4  C   UNL     1      -1.144  -4.577  -3.692  1.00  0.00     0.004 C 
BRANCH   4   5
ATOM      5  C   UNL     1      -0.379  -3.606  -2.776  1.00  0.00     0.000 C 
BRANCH   5   6
ATOM      6  C   UNL     1       1.045  -3.256  -3.251  1.00  0.00     0.000 C 
BRANCH   6   7
ATOM      7  C   UNL     1       1.075  -2.392  -4.530  1.00  0.00     0.000 C 
BRANCH   7   8
ATOM      8  C   UNL     1       2.300  -2.694  -5.406  1.00  0.00     0.006 C 
BRANCH   8   9
ATOM      9  C   UNL     1       3.540  -2.959  -4.547  1.00  0.00     0.053 C 
BRANCH   9  10
ATOM     10  C   UNL     1       4.620  -3.601  -5.360  1.00  0.00     0.041 C 
ATOM     11  O   UNL     1       4.993  -4.776  -5.105  1.00  0.00    -0.550 OA
ATOM     12  O   UNL     1       5.209  -2.905  -6.409  1.00  0.00    -0.550 OA
ENDBRANCH   9  10
ENDBRANCH   8   9
ENDBRANCH   7   8
ENDBRANCH   6   7
ENDBRANCH   5   6
ENDBRANCH   4   5
ENDBRANCH   3   4
ENDBRANCH   1   3
BRANCH   2  13
ATOM     13  C   UNL     1      -2.502  -6.899  -1.031  1.00  0.00     0.027 C 
BRANCH  13  14
ATOM     14  C   UNL     1      -1.217  -7.660  -0.683  1.00  0.00     0.004 C 
BRANCH  14  15
ATOM     15  C   UNL     1       0.025  -6.843  -1.059  1.00  0.00     0.000 C 
BRANCH  15  16
ATOM     16  C   UNL     1       0.701  -7.413  -2.311  1.00  0.00     0.000 C 
BRANCH  16  17
ATOM     17  C   UNL     1       2.103  -6.822  -2.498  1.00  0.00    -0.000 C 
BRANCH  17  18
ATOM     18  C   UNL     1       2.362  -6.473  -3.971  1.00  0.00    -0.000 C 
BRANCH  18  19
ATOM     19  C   UNL     1       1.320  -7.090  -4.916  1.00  0.00    -0.003 C 
ATOM     20  C   UNL     1       0.922  -6.148  -6.053  1.00  0.00     0.004 C 
ENDBRANCH  18  19
ENDBRANCH  17  18
ENDBRANCH  16  17
ENDBRANCH  15  16
ENDBRANCH  14  15
ENDBRANCH  13  14
ENDBRANCH   2  13
TORSDOF 15
ENDMDL
MODEL 6
REMARK VINA RESULT:    -5.193      2.392      5.967
REMARK INTER + INTRA:         -11.651
REMARK INTER:                  -8.943
REMARK INTRA:                  -2.709
REMARK UNBOUND:                -1.905
REMARK SMILES CCCCCCCCC=CCCCCCCCC(=O)[O-]
REMARK SMILES IDX 10 1 9 2 11 3 12 4 13 5 14 6 15 7 16 8 17 9 18 10 19 11
REMARK SMILES IDX 20 12 8 13 7 14 6 15 5 16 4 17 3 18 2 19 1 20
REMARK H PARENT
REMARK Flexibility Score: inf
ROOT
ATOM      1  C   UNL     1       1.531  -3.005  -5.492  1.00  0.00    -0.031 C 
ATOM      2  C   UNL     1       0.761  -4.062  -5.806  1.00  0.00    -0.031 C 
ENDROOT
BRANCH   1   3
ATOM      3  C   UNL     1       2.625  -3.047  -4.453  1.00  0.00     0.027 C 
BRANCH   3   4
ATOM      4  C   UNL     1       3.944  -2.502  -5.019  1.00  0.00     0.004 C 
BRANCH   4   5
ATOM      5  C   UNL     1       4.992  -3.604  -5.253  1.00  0.00     0.000 C 
BRANCH   5   6
ATOM      6  C   UNL     1       4.800  -4.414  -6.549  1.00  0.00     0.000 C 
BRANCH   6   7
ATOM      7  C   UNL     1       4.607  -5.927  -6.309  1.00  0.00     0.000 C 
BRANCH   7   8
ATOM      8  C   UNL     1       4.614  -6.284  -4.815  1.00  0.00     0.006 C 
BRANCH   8   9
ATOM      9  C   UNL     1       3.636  -7.426  -4.517  1.00  0.00     0.053 C 
BRANCH   9  10
ATOM     10  C   UNL     1       3.419  -7.565  -3.043  1.00  0.00     0.041 C 
ATOM     11  O   UNL     1       4.338  -8.010  -2.305  1.00  0.00    -0.550 OA
ATOM     12  O   UNL     1       2.205  -7.191  -2.480  1.00  0.00    -0.550 OA
ENDBRANCH   9  10
ENDBRANCH   8   9
ENDBRANCH   7   8
ENDBRANCH   6   7
ENDBRANCH   5   6
ENDBRANCH   4   5
ENDBRANCH   3   4
ENDBRANCH   1   3
BRANCH   2  13
ATOM     13  C   UNL     1       0.856  -5.411  -5.140  1.00  0.00     0.027 C 
BRANCH  13  14
ATOM     14  C   UNL     1      -0.345  -6.290  -5.507  1.00  0.00     0.004 C 
BRANCH  14  15
ATOM     15  C   UNL     1      -1.077  -6.775  -4.250  1.00  0.00     0.000 C 
BRANCH  15  16
ATOM     16  C   UNL     1      -2.394  -6.015  -4.053  1.00  0.00     0.000 C 
BRANCH  16  17
ATOM     17  C   UNL     1      -2.243  -4.918  -2.992  1.00  0.00    -0.000 C 
BRANCH  17  18
ATOM     18  C   UNL     1      -1.077  -5.230  -2.041  1.00  0.00    -0.000 C 
BRANCH  18  19
ATOM     19  C   UNL     1      -0.247  -3.984  -1.697  1.00  0.00    -0.003 C 
ATOM     20  C   UNL     1      -0.693  -2.744  -2.471  1.00  0.00     0.004 C 
ENDBRANCH  18  19
ENDBRANCH  17  18
ENDBRANCH  16  17
ENDBRANCH  15  16
ENDBRANCH  14  15
ENDBRANCH  13  14
ENDBRANCH   2  13
TORSDOF 15
ENDMDL
MODEL 7
REMARK VINA RESULT:    -5.163      2.629      6.608
REMARK INTER + INTRA:         -11.596
REMARK INTER:                  -8.917
REMARK INTRA:                  -2.679
REMARK UNBOUND:                -1.905
REMARK SMILES CCCCCCCCC=CCCCCCCCC(=O)[O-]
REMARK SMILES IDX 10 1 9 2 11 3 12 4 13 5 14 6 15 7 16 8 17 9 18 10 19 11
REMARK SMILES IDX 20 12 8 13 7 14 6 15 5 16 4 17 3 18 2 19 1 20
REMARK H PARENT
REMARK Flexibility Score: inf
ROOT
ATOM      1  C   UNL     1       0.766  -5.344  -4.655  1.00  0.00    -0.031 C 
ATOM      2  C   UNL     1       1.143  -6.509  -4.100  1.00  0.00    -0.031 C 
ENDROOT
BRANCH   1   3
ATOM      3  C   UNL     1       0.371  -4.127  -3.855  1.00  0.00     0.027 C 
BRANCH   3   4
ATOM      4  C   UNL     1       1.509  -3.098  -3.816  1.00  0.00     0.004 C 
BRANCH   4   5
ATOM      5  C   UNL     1       2.334  -3.071  -5.114  1.00  0.00     0.000 C 
BRANCH   5   6
ATOM      6  C   UNL     1       3.828  -2.746  -4.924  1.00  0.00     0.000 C 
BRANCH   6   7
ATOM      7  C   UNL     1       4.773  -3.809  -5.526  1.00  0.00     0.000 C 
BRANCH   7   8
ATOM      8  C   UNL     1       4.507  -5.211  -4.957  1.00  0.00     0.006 C 
BRANCH   8   9
ATOM      9  C   UNL     1       4.910  -6.298  -5.960  1.00  0.00     0.053 C 
BRANCH   9  10
ATOM     10  C   UNL     1       4.311  -6.026  -7.304  1.00  0.00     0.041 C 
ATOM     11  O   UNL     1       5.053  -5.878  -8.312  1.00  0.00    -0.550 OA
ATOM     12  O   UNL     1       2.931  -5.948  -7.448  1.00  0.00    -0.550 OA
ENDBRANCH   9  10
ENDBRANCH   8   9
ENDBRANCH   7   8
ENDBRANCH   6   7
ENDBRANCH   5   6
ENDBRANCH   4   5
ENDBRANCH   3   4
ENDBRANCH   1   3
BRANCH   2  13
ATOM     13  C   UNL     1       1.182  -6.771  -2.616  1.00  0.00     0.027 C 
BRANCH  13  14
ATOM     14  C   UNL     1       0.269  -7.946  -2.243  1.00  0.00     0.004 C 
BRANCH  14  15
ATOM     15  C   UNL     1      -0.683  -7.564  -1.104  1.00  0.00     0.000 C 
BRANCH  15  16
ATOM     16  C   UNL     1      -1.414  -6.253  -1.415  1.00  0.00     0.000 C 
BRANCH  16  17
ATOM     17  C   UNL     1      -2.805  -6.523  -2.002  1.00  0.00    -0.000 C 
BRANCH  17  18
ATOM     18  C   UNL     1      -3.015  -5.735  -3.304  1.00  0.00    -0.000 C 
BRANCH  18  19
ATOM     19  C   UNL     1      -2.667  -6.556  -4.554  1.00  0.00    -0.003 C 
ATOM     20  C   UNL     1      -3.062  -8.028  -4.424  1.00  0.00     0.004 C 
ENDBRANCH  18  19
ENDBRANCH  17  18
ENDBRANCH  16  17
ENDBRANCH  15  16
ENDBRANCH  14  15
ENDBRANCH  13  14
ENDBRANCH   2  13
TORSDOF 15
ENDMDL
MODEL 8
REMARK VINA RESULT:    -5.158      1.738      3.721
REMARK INTER + INTRA:         -11.586
REMARK INTER:                  -9.060
REMARK INTRA:                  -2.526
REMARK UNBOUND:                -1.905
REMARK SMILES CCCCCCCCC=CCCCCCCCC(=O)[O-]
REMARK SMILES IDX 10 1 9 2 11 3 12 4 13 5 14 6 15 7 16 8 17 9 18 10 19 11
REMARK SMILES IDX 20 12 8 13 7 14 6 15 5 16 4 17 3 18 2 19 1 20
REMARK H PARENT
REMARK Flexibility Score: inf
ROOT
ATOM      1  C   UNL     1       2.614  -7.047  -2.839  1.00  0.00    -0.031 C 
ATOM      2  C   UNL     1       3.639  -7.193  -3.697  1.00  0.00    -0.031 C 
ENDROOT
BRANCH   1   3
ATOM      3  C   UNL     1       1.269  -6.484  -3.232  1.00  0.00     0.027 C 
BRANCH   3   4
ATOM      4  C   UNL     1       0.732  -5.534  -2.153  1.00  0.00     0.004 C 
BRANCH   4   5
ATOM      5  C   UNL     1      -0.799  -5.599  -2.010  1.00  0.00     0.000 C 
BRANCH   5   6
ATOM      6  C   UNL     1      -1.576  -4.665  -2.957  1.00  0.00     0.000 C 
BRANCH   6   7
ATOM      7  C   UNL     1      -2.853  -5.304  -3.545  1.00  0.00     0.000 C 
BRANCH   7   8
ATOM      8  C   UNL     1      -2.534  -6.358  -4.616  1.00  0.00     0.006 C 
BRANCH   8   9
ATOM      9  C   UNL     1      -3.087  -7.731  -4.220  1.00  0.00     0.053 C 
BRANCH   9  10
ATOM     10  C   UNL     1      -2.029  -8.783  -4.342  1.00  0.00     0.041 C 
ATOM     11  O   UNL     1      -1.242  -9.006  -3.384  1.00  0.00    -0.550 OA
ATOM     12  O   UNL     1      -1.920  -9.527  -5.510  1.00  0.00    -0.550 OA
ENDBRANCH   9  10
ENDBRANCH   8   9
ENDBRANCH   7   8
ENDBRANCH   6   7
ENDBRANCH   5   6
ENDBRANCH   4   5
ENDBRANCH   3   4
ENDBRANCH   1   3
BRANCH   2  13
ATOM     13  C   UNL     1       3.600  -6.781  -5.147  1.00  0.00     0.027 C 
BRANCH  13  14
ATOM     14  C   UNL     1       4.929  -6.144  -5.571  1.00  0.00     0.004 C 
BRANCH  14  15
ATOM     15  C   UNL     1       4.699  -4.779  -6.232  1.00  0.00     0.000 C 
BRANCH  15  16
ATOM     16  C   UNL     1       4.879  -3.642  -5.221  1.00  0.00     0.000 C 
BRANCH  16  17
ATOM     17  C   UNL     1       3.682  -2.684  -5.250  1.00  0.00    -0.000 C 
BRANCH  17  18
ATOM     18  C   UNL     1       2.540  -3.204  -4.365  1.00  0.00    -0.000 C 
BRANCH  18  19
ATOM     19  C   UNL     1       1.176  -3.150  -5.069  1.00  0.00    -0.003 C 
ATOM     20  C   UNL     1       0.984  -4.287  -6.074  1.00  0.00     0.004 C 
ENDBRANCH  18  19
ENDBRANCH  17  18
ENDBRANCH  16  17
ENDBRANCH  15  16
ENDBRANCH  14  15
ENDBRANCH  13  14
ENDBRANCH   2  13
TORSDOF 15
ENDMDL
MODEL 9
REMARK VINA RESULT:    -5.093      1.411      2.496
REMARK INTER + INTRA:         -11.464
REMARK INTER:                  -9.082
REMARK INTRA:                  -2.382
REMARK UNBOUND:                -1.905
REMARK SMILES CCCCCCCCC=CCCCCCCCC(=O)[O-]
REMARK SMILES IDX 10 1 9 2 11 3 12 4 13 5 14 6 15 7 16 8 17 9 18 10 19 11
REMARK SMILES IDX 20 12 8 13 7 14 6 15 5 16 4 17 3 18 2 19 1 20
REMARK H PARENT
REMARK Flexibility Score: inf
ROOT
ATOM      1  C   UNL     1       3.702  -2.751  -5.016  1.00  0.00    -0.031 C 
ATOM      2  C   UNL     1       4.698  -3.515  -5.497  1.00  0.00    -0.031 C 
ENDROOT
BRANCH   1   3
ATOM      3  C   UNL     1       2.250  -3.164  -5.030  1.00  0.00     0.027 C 
BRANCH   3   4
ATOM      4  C   UNL     1       1.741  -3.443  -3.609  1.00  0.00     0.004 C 
BRANCH   4   5
ATOM      5  C   UNL     1       0.391  -2.765  -3.315  1.00  0.00     0.000 C 
BRANCH   5   6
ATOM      6  C   UNL     1      -0.299  -3.235  -2.021  1.00  0.00     0.000 C 
BRANCH   6   7
ATOM      7  C   UNL     1      -0.887  -4.660  -2.116  1.00  0.00     0.000 C 
BRANCH   7   8
ATOM      8  C   UNL     1      -1.615  -4.900  -3.447  1.00  0.00     0.006 C 
BRANCH   8   9
ATOM      9  C   UNL     1      -2.991  -5.532  -3.216  1.00  0.00     0.053 C 
BRANCH   9  10
ATOM     10  C   UNL     1      -2.998  -6.961  -3.661  1.00  0.00     0.041 C 
ATOM     11  O   UNL     1      -3.043  -7.244  -4.888  1.00  0.00    -0.550 OA
ATOM     12  O   UNL     1      -2.942  -7.983  -2.722  1.00  0.00    -0.550 OA
ENDBRANCH   9  10
ENDBRANCH   8   9
ENDBRANCH   7   8
ENDBRANCH   6   7
ENDBRANCH   5   6
ENDBRANCH   4   5
ENDBRANCH   3   4
ENDBRANCH   1   3
BRANCH   2  13
ATOM     13  C   UNL     1       4.498  -4.859  -6.152  1.00  0.00     0.027 C 
BRANCH  13  14
ATOM     14  C   UNL     1       4.949  -5.993  -5.222  1.00  0.00     0.004 C 
BRANCH  14  15
ATOM     15  C   UNL     1       3.769  -6.537  -4.407  1.00  0.00     0.000 C 
BRANCH  15  16
ATOM     16  C   UNL     1       2.566  -6.830  -5.309  1.00  0.00     0.000 C 
BRANCH  16  17
ATOM     17  C   UNL     1       1.290  -7.023  -4.481  1.00  0.00    -0.000 C 
BRANCH  17  18
ATOM     18  C   UNL     1       1.624  -7.213  -2.993  1.00  0.00    -0.000 C 
BRANCH  18  19
ATOM     19  C   UNL     1       0.560  -8.033  -2.249  1.00  0.00    -0.003 C 
ATOM     20  C   UNL     1       0.886  -9.527  -2.211  1.00  0.00     0.004 C 
ENDBRANCH  18  19
ENDBRANCH  17  18
ENDBRANCH  16  17
ENDBRANCH  15  16
ENDBRANCH  14  15
ENDBRANCH  13  14
ENDBRANCH   2  13
TORSDOF 15
ENDMDL
