MODEL 1
REMARK VINA RESULT:    -3.377      0.000      0.000
REMARK INTER + INTRA:          -8.460
REMARK INTER:                  -6.142
REMARK INTRA:                  -2.318
REMARK UNBOUND:                -2.318
REMARK SMILES CCCCCCCCCCCCCCCC(=O)[O-]
REMARK SMILES IDX 9 1 10 2 11 3 12 4 13 5 14 6 15 7 16 8 17 9 18 10 8 11 7 12
REMARK SMILES IDX 6 13 5 14 4 15 3 16 2 17 1 18
REMARK H PARENT
REMARK Flexibility Score: inf
ROOT
ATOM      1  C   UNL     1      60.376   0.794  96.748  1.00  0.00     0.000 C 
ENDROOT
BRANCH   1   2
ATOM      2  C   UNL     1      60.132  -0.577  96.092  1.00  0.00     0.000 C 
BRANCH   2   3
ATOM      3  C   UNL     1      61.108  -0.860  94.937  1.00  0.00     0.000 C 
BRANCH   3   4
ATOM      4  C   UNL     1      60.394  -1.365  93.671  1.00  0.00     0.000 C 
BRANCH   4   5
ATOM      5  C   UNL     1      58.992  -1.920  93.967  1.00  0.00     0.000 C 
BRANCH   5   6
ATOM      6  C   UNL     1      57.899  -1.270  93.100  1.00  0.00     0.006 C 
BRANCH   6   7
ATOM      7  C   UNL     1      58.430  -0.073  92.300  1.00  0.00     0.053 C 
BRANCH   7   8
ATOM      8  C   UNL     1      58.451  -0.357  90.829  1.00  0.00     0.041 C 
ATOM      9  O   UNL     1      58.411  -1.543  90.410  1.00  0.00    -0.550 OA
ATOM     10  O   UNL     1      58.549   0.691  89.921  1.00  0.00    -0.550 OA
ENDBRANCH   7   8
ENDBRANCH   6   7
ENDBRANCH   5   6
ENDBRANCH   4   5
ENDBRANCH   3   4
ENDBRANCH   2   3
ENDBRANCH   1   2
BRANCH   1  11
ATOM     11  C   UNL     1      59.096   1.641  96.837  1.00  0.00     0.000 C 
BRANCH  11  12
ATOM     12  C   UNL     1      58.278   1.621  95.536  1.00  0.00    -0.000 C 
BRANCH  12  13
ATOM     13  C   UNL     1      56.772   1.679  95.834  1.00  0.00    -0.000 C 
BRANCH  13  14
ATOM     14  C   UNL     1      56.323   0.601  96.835  1.00  0.00    -0.000 C 
BRANCH  14  15
ATOM     15  C   UNL     1      56.147  -0.779  96.178  1.00  0.00    -0.000 C 
BRANCH  15  16
ATOM     16  C   UNL     1      56.680  -1.923  97.056  1.00  0.00    -0.000 C 
BRANCH  16  17
ATOM     17  C   UNL     1      55.885  -3.225  96.881  1.00  0.00    -0.003 C 
ATOM     18  C   UNL     1      55.880  -3.673  95.422  1.00  0.00     0.004 C 
ENDBRANCH  16  17
ENDBRANCH  15  16
ENDBRANCH  14  15
ENDBRANCH  13  14
ENDBRANCH  12  13
ENDBRANCH  11  12
ENDBRANCH   1  11
TORSDOF 14
ENDMDL
MODEL 2
REMARK VINA RESULT:    -3.216      3.639      5.304
REMARK INTER + INTRA:          -8.166
REMARK INTER:                  -6.167
REMARK INTRA:                  -1.999
REMARK UNBOUND:                -2.318
REMARK SMILES CCCCCCCCCCCCCCCC(=O)[O-]
REMARK SMILES IDX 9 1 10 2 11 3 12 4 13 5 14 6 15 7 16 8 17 9 18 10 8 11 7 12
REMARK SMILES IDX 6 13 5 14 4 15 3 16 2 17 1 18
REMARK H PARENT
REMARK Flexibility Score: inf
ROOT
ATOM      1  C   UNL     1      60.425  -0.317  94.968  1.00  0.00     0.000 C 
ENDROOT
BRANCH   1   2
ATOM      2  C   UNL     1      60.419  -0.094  96.491  1.00  0.00     0.000 C 
BRANCH   2   3
ATOM      3  C   UNL     1      60.354   1.395  96.869  1.00  0.00     0.000 C 
BRANCH   3   4
ATOM      4  C   UNL     1      58.910   1.897  97.046  1.00  0.00     0.000 C 
BRANCH   4   5
ATOM      5  C   UNL     1      58.626   3.171  96.235  1.00  0.00     0.000 C 
BRANCH   5   6
ATOM      6  C   UNL     1      58.439   4.413  97.125  1.00  0.00     0.006 C 
BRANCH   6   7
ATOM      7  C   UNL     1      58.346   5.705  96.303  1.00  0.00     0.053 C 
BRANCH   7   8
ATOM      8  C   UNL     1      59.543   6.581  96.511  1.00  0.00     0.041 C 
ATOM      9  O   UNL     1      59.398   7.787  96.840  1.00  0.00    -0.550 OA
ATOM     10  O   UNL     1      60.821   6.072  96.308  1.00  0.00    -0.550 OA
ENDBRANCH   7   8
ENDBRANCH   6   7
ENDBRANCH   5   6
ENDBRANCH   4   5
ENDBRANCH   3   4
ENDBRANCH   2   3
ENDBRANCH   1   2
BRANCH   1  11
ATOM     11  C   UNL     1      59.654  -1.581  94.553  1.00  0.00     0.000 C 
BRANCH  11  12
ATOM     12  C   UNL     1      58.519  -1.286  93.561  1.00  0.00    -0.000 C 
BRANCH  12  13
ATOM     13  C   UNL     1      58.223   0.220  93.499  1.00  0.00    -0.000 C 
BRANCH  13  14
ATOM     14  C   UNL     1      56.900   0.595  94.186  1.00  0.00    -0.000 C 
BRANCH  14  15
ATOM     15  C   UNL     1      56.251  -0.598  94.910  1.00  0.00    -0.000 C 
BRANCH  15  16
ATOM     16  C   UNL     1      56.436  -0.533  96.435  1.00  0.00    -0.000 C 
BRANCH  16  17
ATOM     17  C   UNL     1      56.573  -1.922  97.076  1.00  0.00    -0.003 C 
ATOM     18  C   UNL     1      56.201  -3.022  96.087  1.00  0.00     0.004 C 
ENDBRANCH  16  17
ENDBRANCH  15  16
ENDBRANCH  14  15
ENDBRANCH  13  14
ENDBRANCH  12  13
ENDBRANCH  11  12
ENDBRANCH   1  11
TORSDOF 14
ENDMDL
MODEL 3
REMARK VINA RESULT:    -3.154      4.430      6.735
REMARK INTER + INTRA:          -8.054
REMARK INTER:                  -6.749
REMARK INTRA:                  -1.304
REMARK UNBOUND:                -2.318
REMARK SMILES CCCCCCCCCCCCCCCC(=O)[O-]
REMARK SMILES IDX 9 1 10 2 11 3 12 4 13 5 14 6 15 7 16 8 17 9 18 10 8 11 7 12
REMARK SMILES IDX 6 13 5 14 4 15 3 16 2 17 1 18
REMARK H PARENT
REMARK Flexibility Score: inf
ROOT
ATOM      1  C   UNL     1      59.969   1.638  96.892  1.00  0.00     0.000 C 
ENDROOT
BRANCH   1   2
ATOM      2  C   UNL     1      58.525   1.573  96.363  1.00  0.00     0.000 C 
BRANCH   2   3
ATOM      3  C   UNL     1      57.812   2.935  96.428  1.00  0.00     0.000 C 
BRANCH   3   4
ATOM      4  C   UNL     1      58.705   4.042  97.016  1.00  0.00     0.000 C 
BRANCH   4   5
ATOM      5  C   UNL     1      59.057   5.124  95.983  1.00  0.00     0.000 C 
BRANCH   5   6
ATOM      6  C   UNL     1      60.354   5.877  96.330  1.00  0.00     0.006 C 
BRANCH   6   7
ATOM      7  C   UNL     1      60.586   7.084  95.412  1.00  0.00     0.053 C 
BRANCH   7   8
ATOM      8  C   UNL     1      59.956   8.327  95.961  1.00  0.00     0.041 C 
ATOM      9  O   UNL     1      59.477   8.335  97.125  1.00  0.00    -0.550 OA
ATOM     10  O   UNL     1      59.867   9.468  95.172  1.00  0.00    -0.550 OA
ENDBRANCH   7   8
ENDBRANCH   6   7
ENDBRANCH   5   6
ENDBRANCH   4   5
ENDBRANCH   3   4
ENDBRANCH   2   3
ENDBRANCH   1   2
BRANCH   1  11
ATOM     11  C   UNL     1      60.693   0.285  96.798  1.00  0.00     0.000 C 
BRANCH  11  12
ATOM     12  C   UNL     1      60.043  -0.668  95.782  1.00  0.00    -0.000 C 
BRANCH  12  13
ATOM     13  C   UNL     1      61.003  -0.966  94.620  1.00  0.00    -0.000 C 
BRANCH  13  14
ATOM     14  C   UNL     1      60.284  -1.059  93.264  1.00  0.00    -0.000 C 
BRANCH  14  15
ATOM     15  C   UNL     1      58.781  -0.746  93.370  1.00  0.00    -0.000 C 
BRANCH  15  16
ATOM     16  C   UNL     1      58.287   0.167  92.235  1.00  0.00    -0.000 C 
BRANCH  16  17
ATOM     17  C   UNL     1      56.950   0.848  92.560  1.00  0.00    -0.003 C 
ATOM     18  C   UNL     1      57.136   2.347  92.776  1.00  0.00     0.004 C 
ENDBRANCH  16  17
ENDBRANCH  15  16
ENDBRANCH  14  15
ENDBRANCH  13  14
ENDBRANCH  12  13
ENDBRANCH  11  12
ENDBRANCH   1  11
TORSDOF 14
ENDMDL
MODEL 4
REMARK VINA RESULT:    -3.150      3.856      6.432
REMARK INTER + INTRA:          -8.047
REMARK INTER:                  -6.776
REMARK INTRA:                  -1.270
REMARK UNBOUND:                -2.318
REMARK SMILES CCCCCCCCCCCCCCCC(=O)[O-]
REMARK SMILES IDX 9 1 10 2 11 3 12 4 13 5 14 6 15 7 16 8 17 9 18 10 8 11 7 12
REMARK SMILES IDX 6 13 5 14 4 15 3 16 2 17 1 18
REMARK H PARENT
REMARK Flexibility Score: inf
ROOT
ATOM      1  C   UNL     1      57.850   3.093  95.493  1.00  0.00     0.000 C 
ENDROOT
BRANCH   1   2
ATOM      2  C   UNL     1      57.982   2.374  96.847  1.00  0.00     0.000 C 
BRANCH   2   3
ATOM      3  C   UNL     1      58.609   0.976  96.714  1.00  0.00     0.000 C 
BRANCH   3   4
ATOM      4  C   UNL     1      60.136   0.992  96.903  1.00  0.00     0.000 C 
BRANCH   4   5
ATOM      5  C   UNL     1      60.819  -0.238  96.286  1.00  0.00     0.000 C 
BRANCH   5   6
ATOM      6  C   UNL     1      59.904  -1.002  95.313  1.00  0.00     0.006 C 
BRANCH   6   7
ATOM      7  C   UNL     1      60.397  -0.914  93.863  1.00  0.00     0.053 C 
BRANCH   7   8
ATOM      8  C   UNL     1      59.409  -0.211  92.984  1.00  0.00     0.041 C 
ATOM      9  O   UNL     1      59.754   0.206  91.848  1.00  0.00    -0.550 OA
ATOM     10  O   UNL     1      58.113   0.012  93.435  1.00  0.00    -0.550 OA
ENDBRANCH   7   8
ENDBRANCH   6   7
ENDBRANCH   5   6
ENDBRANCH   4   5
ENDBRANCH   3   4
ENDBRANCH   2   3
ENDBRANCH   1   2
BRANCH   1  11
ATOM     11  C   UNL     1      57.340   4.536  95.638  1.00  0.00     0.000 C 
BRANCH  11  12
ATOM     12  C   UNL     1      57.582   5.114  97.041  1.00  0.00    -0.000 C 
BRANCH  12  13
ATOM     13  C   UNL     1      58.730   6.134  97.023  1.00  0.00    -0.000 C 
BRANCH  13  14
ATOM     14  C   UNL     1      60.081   5.502  96.651  1.00  0.00    -0.000 C 
BRANCH  14  15
ATOM     15  C   UNL     1      61.087   6.533  96.111  1.00  0.00    -0.000 C 
BRANCH  15  16
ATOM     16  C   UNL     1      60.584   7.240  94.841  1.00  0.00    -0.000 C 
BRANCH  16  17
ATOM     17  C   UNL     1      60.743   8.766  94.908  1.00  0.00    -0.003 C 
ATOM     18  C   UNL     1      60.683   9.261  96.351  1.00  0.00     0.004 C 
ENDBRANCH  16  17
ENDBRANCH  15  16
ENDBRANCH  14  15
ENDBRANCH  13  14
ENDBRANCH  12  13
ENDBRANCH  11  12
ENDBRANCH   1  11
TORSDOF 14
ENDMDL
MODEL 5
REMARK VINA RESULT:    -3.143      4.152      6.468
REMARK INTER + INTRA:          -8.034
REMARK INTER:                  -6.595
REMARK INTRA:                  -1.439
REMARK UNBOUND:                -2.318
REMARK SMILES CCCCCCCCCCCCCCCC(=O)[O-]
REMARK SMILES IDX 9 1 10 2 11 3 12 4 13 5 14 6 15 7 16 8 17 9 18 10 8 11 7 12
REMARK SMILES IDX 6 13 5 14 4 15 3 16 2 17 1 18
REMARK H PARENT
REMARK Flexibility Score: inf
ROOT
ATOM      1  C   UNL     1      57.408   2.846  95.015  1.00  0.00     0.000 C 
ENDROOT
BRANCH   1   2
ATOM      2  C   UNL     1      57.743   4.308  95.358  1.00  0.00     0.000 C 
BRANCH   2   3
ATOM      3  C   UNL     1      58.278   4.469  96.790  1.00  0.00     0.000 C 
BRANCH   3   4
ATOM      4  C   UNL     1      59.683   5.096  96.829  1.00  0.00     0.000 C 
BRANCH   4   5
ATOM      5  C   UNL     1      59.678   6.578  96.423  1.00  0.00     0.000 C 
BRANCH   5   6
ATOM      6  C   UNL     1      61.035   7.047  95.868  1.00  0.00     0.006 C 
BRANCH   6   7
ATOM      7  C   UNL     1      61.125   6.884  94.345  1.00  0.00     0.053 C 
BRANCH   7   8
ATOM      8  C   UNL     1      60.046   7.649  93.641  1.00  0.00     0.041 C 
ATOM      9  O   UNL     1      59.991   8.902  93.736  1.00  0.00    -0.550 OA
ATOM     10  O   UNL     1      59.080   6.971  92.907  1.00  0.00    -0.550 OA
ENDBRANCH   7   8
ENDBRANCH   6   7
ENDBRANCH   5   6
ENDBRANCH   4   5
ENDBRANCH   3   4
ENDBRANCH   2   3
ENDBRANCH   1   2
BRANCH   1  11
ATOM     11  C   UNL     1      57.936   1.857  96.067  1.00  0.00     0.000 C 
BRANCH  11  12
ATOM     12  C   UNL     1      57.425   0.425  95.847  1.00  0.00    -0.000 C 
BRANCH  12  13
ATOM     13  C   UNL     1      58.546  -0.599  96.080  1.00  0.00    -0.000 C 
BRANCH  13  14
ATOM     14  C   UNL     1      59.948   0.031  96.023  1.00  0.00    -0.000 C 
BRANCH  14  15
ATOM     15  C   UNL     1      60.854  -0.639  94.975  1.00  0.00    -0.000 C 
BRANCH  15  16
ATOM     16  C   UNL     1      60.057  -1.412  93.912  1.00  0.00    -0.000 C 
BRANCH  16  17
ATOM     17  C   UNL     1      59.993  -0.677  92.566  1.00  0.00    -0.003 C 
ATOM     18  C   UNL     1      58.604  -0.091  92.326  1.00  0.00     0.004 C 
ENDBRANCH  16  17
ENDBRANCH  15  16
ENDBRANCH  14  15
ENDBRANCH  13  14
ENDBRANCH  12  13
ENDBRANCH  11  12
ENDBRANCH   1  11
TORSDOF 14
ENDMDL
MODEL 6
REMARK VINA RESULT:    -3.089      2.011      2.725
REMARK INTER + INTRA:          -7.936
REMARK INTER:                  -5.350
REMARK INTRA:                  -2.586
REMARK UNBOUND:                -2.318
REMARK SMILES CCCCCCCCCCCCCCCC(=O)[O-]
REMARK SMILES IDX 9 1 10 2 11 3 12 4 13 5 14 6 15 7 16 8 17 9 18 10 8 11 7 12
REMARK SMILES IDX 6 13 5 14 4 15 3 16 2 17 1 18
REMARK H PARENT
REMARK Flexibility Score: inf
ROOT
ATOM      1  C   UNL     1      61.014  -0.635  94.713  1.00  0.00     0.000 C 
ENDROOT
BRANCH   1   2
ATOM      2  C   UNL     1      60.934  -2.092  94.226  1.00  0.00     0.000 C 
BRANCH   2   3
ATOM      3  C   UNL     1      60.273  -2.217  92.843  1.00  0.00     0.000 C 
BRANCH   3   4
ATOM      4  C   UNL     1      59.813  -0.859  92.284  1.00  0.00     0.000 C 
BRANCH   4   5
ATOM      5  C   UNL     1      58.492  -0.959  91.506  1.00  0.00     0.000 C 
BRANCH   5   6
ATOM      6  C   UNL     1      57.842   0.414  91.257  1.00  0.00     0.006 C 
BRANCH   6   7
ATOM      7  C   UNL     1      57.481   1.130  92.565  1.00  0.00     0.053 C 
BRANCH   7   8
ATOM      8  C   UNL     1      56.006   1.091  92.827  1.00  0.00     0.041 C 
ATOM      9  O   UNL     1      55.530   1.641  93.854  1.00  0.00    -0.550 OA
ATOM     10  O   UNL     1      55.162   0.415  91.953  1.00  0.00    -0.550 OA
ENDBRANCH   7   8
ENDBRANCH   6   7
ENDBRANCH   5   6
ENDBRANCH   4   5
ENDBRANCH   3   4
ENDBRANCH   2   3
ENDBRANCH   1   2
BRANCH   1  11
ATOM     11  C   UNL     1      61.025  -0.525  96.247  1.00  0.00     0.000 C 
BRANCH  11  12
ATOM     12  C   UNL     1      60.141   0.619  96.766  1.00  0.00    -0.000 C 
BRANCH  12  13
ATOM     13  C   UNL     1      58.974   0.891  95.805  1.00  0.00    -0.000 C 
BRANCH  13  14
ATOM     14  C   UNL     1      57.607   0.876  96.509  1.00  0.00    -0.000 C 
BRANCH  14  15
ATOM     15  C   UNL     1      56.918  -0.498  96.433  1.00  0.00    -0.000 C 
BRANCH  15  16
ATOM     16  C   UNL     1      57.529  -1.405  95.352  1.00  0.00    -0.000 C 
BRANCH  16  17
ATOM     17  C   UNL     1      56.464  -2.111  94.499  1.00  0.00    -0.003 C 
ATOM     18  C   UNL     1      56.981  -3.446  93.972  1.00  0.00     0.004 C 
ENDBRANCH  16  17
ENDBRANCH  15  16
ENDBRANCH  14  15
ENDBRANCH  13  14
ENDBRANCH  12  13
ENDBRANCH  11  12
ENDBRANCH   1  11
TORSDOF 14
ENDMDL
MODEL 7
REMARK VINA RESULT:    -3.042      2.994      5.313
REMARK INTER + INTRA:          -7.851
REMARK INTER:                  -6.403
REMARK INTRA:                  -1.448
REMARK UNBOUND:                -2.318
REMARK SMILES CCCCCCCCCCCCCCCC(=O)[O-]
REMARK SMILES IDX 9 1 10 2 11 3 12 4 13 5 14 6 15 7 16 8 17 9 18 10 8 11 7 12
REMARK SMILES IDX 6 13 5 14 4 15 3 16 2 17 1 18
REMARK H PARENT
REMARK Flexibility Score: inf
ROOT
ATOM      1  C   UNL     1      57.332   2.521  95.450  1.00  0.00     0.000 C 
ENDROOT
BRANCH   1   2
ATOM      2  C   UNL     1      58.100   1.273  94.979  1.00  0.00     0.000 C 
BRANCH   2   3
ATOM      3  C   UNL     1      57.626  -0.010  95.682  1.00  0.00     0.000 C 
BRANCH   3   4
ATOM      4  C   UNL     1      58.774  -1.005  95.932  1.00  0.00     0.000 C 
BRANCH   4   5
ATOM      5  C   UNL     1      60.153  -0.326  95.931  1.00  0.00     0.000 C 
BRANCH   5   6
ATOM      6  C   UNL     1      61.115  -0.934  94.895  1.00  0.00     0.006 C 
BRANCH   6   7
ATOM      7  C   UNL     1      60.469  -2.080  94.107  1.00  0.00     0.053 C 
BRANCH   7   8
ATOM      8  C   UNL     1      60.393  -1.772  92.643  1.00  0.00     0.041 C 
ATOM      9  O   UNL     1      60.690  -2.651  91.793  1.00  0.00    -0.550 OA
ATOM     10  O   UNL     1      60.026  -0.500  92.219  1.00  0.00    -0.550 OA
ENDBRANCH   7   8
ENDBRANCH   6   7
ENDBRANCH   5   6
ENDBRANCH   4   5
ENDBRANCH   3   4
ENDBRANCH   2   3
ENDBRANCH   1   2
BRANCH   1  11
ATOM     11  C   UNL     1      57.604   2.859  96.925  1.00  0.00     0.000 C 
BRANCH  11  12
ATOM     12  C   UNL     1      58.915   3.635  97.125  1.00  0.00    -0.000 C 
BRANCH  12  13
ATOM     13  C   UNL     1      58.704   5.138  96.884  1.00  0.00    -0.000 C 
BRANCH  13  14
ATOM     14  C   UNL     1      59.903   5.802  96.187  1.00  0.00    -0.000 C 
BRANCH  14  15
ATOM     15  C   UNL     1      59.525   6.431  94.835  1.00  0.00    -0.000 C 
BRANCH  15  16
ATOM     16  C   UNL     1      58.161   5.946  94.318  1.00  0.00    -0.000 C 
BRANCH  16  17
ATOM     17  C   UNL     1      57.944   6.260  92.830  1.00  0.00    -0.003 C 
ATOM     18  C   UNL     1      57.262   5.096  92.117  1.00  0.00     0.004 C 
ENDBRANCH  16  17
ENDBRANCH  15  16
ENDBRANCH  14  15
ENDBRANCH  13  14
ENDBRANCH  12  13
ENDBRANCH  11  12
ENDBRANCH   1  11
TORSDOF 14
ENDMDL
MODEL 8
REMARK VINA RESULT:    -3.028      3.193      5.633
REMARK INTER + INTRA:          -7.824
REMARK INTER:                  -6.544
REMARK INTRA:                  -1.280
REMARK UNBOUND:                -2.318
REMARK SMILES CCCCCCCCCCCCCCCC(=O)[O-]
REMARK SMILES IDX 9 1 10 2 11 3 12 4 13 5 14 6 15 7 16 8 17 9 18 10 8 11 7 12
REMARK SMILES IDX 6 13 5 14 4 15 3 16 2 17 1 18
REMARK H PARENT
REMARK Flexibility Score: inf
ROOT
ATOM      1  C   UNL     1      57.624   0.907  94.771  1.00  0.00     0.000 C 
ENDROOT
BRANCH   1   2
ATOM      2  C   UNL     1      57.875   0.252  96.140  1.00  0.00     0.000 C 
BRANCH   2   3
ATOM      3  C   UNL     1      59.018  -0.776  96.102  1.00  0.00     0.000 C 
BRANCH   3   4
ATOM      4  C   UNL     1      60.328  -0.182  95.553  1.00  0.00     0.000 C 
BRANCH   4   5
ATOM      5  C   UNL     1      61.015  -1.110  94.539  1.00  0.00     0.000 C 
BRANCH   5   6
ATOM      6  C   UNL     1      60.332  -1.094  93.160  1.00  0.00     0.006 C 
BRANCH   6   7
ATOM      7  C   UNL     1      59.784  -2.472  92.769  1.00  0.00     0.053 C 
BRANCH   7   8
ATOM      8  C   UNL     1      58.290  -2.522  92.870  1.00  0.00     0.041 C 
ATOM      9  O   UNL     1      57.738  -3.121  93.830  1.00  0.00    -0.550 OA
ATOM     10  O   UNL     1      57.507  -1.934  91.884  1.00  0.00    -0.550 OA
ENDBRANCH   7   8
ENDBRANCH   6   7
ENDBRANCH   5   6
ENDBRANCH   4   5
ENDBRANCH   3   4
ENDBRANCH   2   3
ENDBRANCH   1   2
BRANCH   1  11
ATOM     11  C   UNL     1      57.517   2.438  94.859  1.00  0.00     0.000 C 
BRANCH  11  12
ATOM     12  C   UNL     1      58.140   3.004  96.145  1.00  0.00    -0.000 C 
BRANCH  12  13
ATOM     13  C   UNL     1      57.295   4.161  96.699  1.00  0.00    -0.000 C 
BRANCH  13  14
ATOM     14  C   UNL     1      58.146   5.374  97.111  1.00  0.00    -0.000 C 
BRANCH  14  15
ATOM     15  C   UNL     1      59.016   5.906  95.958  1.00  0.00    -0.000 C 
BRANCH  15  16
ATOM     16  C   UNL     1      60.480   6.121  96.374  1.00  0.00    -0.000 C 
BRANCH  16  17
ATOM     17  C   UNL     1      60.968   7.553  96.110  1.00  0.00    -0.003 C 
ATOM     18  C   UNL     1      60.246   8.553  97.008  1.00  0.00     0.004 C 
ENDBRANCH  16  17
ENDBRANCH  15  16
ENDBRANCH  14  15
ENDBRANCH  13  14
ENDBRANCH  12  13
ENDBRANCH  11  12
ENDBRANCH   1  11
TORSDOF 14
ENDMDL
