MODEL 1
REMARK VINA RESULT:    -4.381      0.000      0.000
REMARK INTER + INTRA:          -4.509
REMARK INTER:                  -4.509
REMARK INTRA:                   0.000
REMARK UNBOUND:                 0.000
REMARK SMILES O=c1ccc2ccc(O)cc2o1
REMARK SMILES IDX 6 1 7 2 8 3 10 4 11 5 5 6 4 7 3 8 2 9 1 10 12 11 9 12
REMARK H PARENT 9 13
REMARK Flexibility Score: inf
ROOT
ATOM      1  C   UNL     1      11.099 -16.603   7.124  1.00  0.00     0.016 A 
ATOM      2  C   UNL     1      12.254 -16.611   7.911  1.00  0.00     0.047 A 
ATOM      3  C   UNL     1      12.378 -17.507   8.979  1.00  0.00     0.119 A 
ATOM      4  C   UNL     1      11.336 -18.403   9.264  1.00  0.00     0.094 A 
ATOM      5  C   UNL     1      10.176 -18.403   8.481  1.00  0.00     0.142 A 
ATOM      6  C   UNL     1      10.056 -17.497   7.404  1.00  0.00     0.018 A 
ATOM      7  C   UNL     1       8.885 -17.520   6.641  1.00  0.00     0.019 A 
ATOM      8  C   UNL     1       7.878 -18.429   6.961  1.00  0.00     0.094 A 
ATOM      9  C   UNL     1       8.065 -19.298   8.042  1.00  0.00     0.336 A 
ATOM     10  O   UNL     1       7.167 -20.124   8.347  1.00  0.00    -0.246 OA
ATOM     11  O   UNL     1       9.190 -19.254   8.753  1.00  0.00    -0.423 OA
ENDROOT
BRANCH   3  12
ATOM     12  O   UNL     1      13.536 -17.499   9.752  1.00  0.00    -0.508 OA
ATOM     13  H   UNL     1      14.367 -18.005   9.466  1.00  0.00     0.293 HD
ENDBRANCH   3  12
TORSDOF 1
ENDMDL
MODEL 2
REMARK VINA RESULT:    -4.358      1.767      4.633
REMARK INTER + INTRA:          -4.485
REMARK INTER:                  -4.485
REMARK INTRA:                   0.000
REMARK UNBOUND:                 0.000
REMARK SMILES O=c1ccc2ccc(O)cc2o1
REMARK SMILES IDX 6 1 7 2 8 3 10 4 11 5 5 6 4 7 3 8 2 9 1 10 12 11 9 12
REMARK H PARENT 9 13
REMARK Flexibility Score: inf
ROOT
ATOM      1  C   UNL     1       8.346 -20.125   7.028  1.00  0.00     0.016 A 
ATOM      2  C   UNL     1       7.049 -19.903   7.498  1.00  0.00     0.047 A 
ATOM      3  C   UNL     1       6.745 -18.740   8.217  1.00  0.00     0.119 A 
ATOM      4  C   UNL     1       7.748 -17.792   8.469  1.00  0.00     0.094 A 
ATOM      5  C   UNL     1       9.050 -18.005   8.002  1.00  0.00     0.142 A 
ATOM      6  C   UNL     1       9.351 -19.180   7.277  1.00  0.00     0.018 A 
ATOM      7  C   UNL     1      10.660 -19.366   6.824  1.00  0.00     0.019 A 
ATOM      8  C   UNL     1      11.623 -18.395   7.097  1.00  0.00     0.094 A 
ATOM      9  C   UNL     1      11.253 -17.256   7.821  1.00  0.00     0.336 A 
ATOM     10  O   UNL     1      12.108 -16.370   8.078  1.00  0.00    -0.246 OA
ATOM     11  O   UNL     1       9.999 -17.104   8.241  1.00  0.00    -0.423 OA
ENDROOT
BRANCH   3  12
ATOM     12  O   UNL     1       5.446 -18.538   8.677  1.00  0.00    -0.508 OA
ATOM     13  H   UNL     1       5.006 -19.184   9.322  1.00  0.00     0.293 HD
ENDBRANCH   3  12
TORSDOF 1
ENDMDL
MODEL 3
REMARK VINA RESULT:    -4.333      2.108      4.668
REMARK INTER + INTRA:          -4.460
REMARK INTER:                  -4.460
REMARK INTRA:                   0.000
REMARK UNBOUND:                 0.000
REMARK SMILES O=c1ccc2ccc(O)cc2o1
REMARK SMILES IDX 6 1 7 2 8 3 10 4 11 5 5 6 4 7 3 8 2 9 1 10 12 11 9 12
REMARK H PARENT 9 13
REMARK Flexibility Score: inf
ROOT
ATOM      1  C   UNL     1       7.461 -17.499   8.627  1.00  0.00     0.016 A 
ATOM      2  C   UNL     1       6.235 -18.167   8.708  1.00  0.00     0.047 A 
ATOM      3  C   UNL     1       6.107 -19.474   8.223  1.00  0.00     0.119 A 
ATOM      4  C   UNL     1       7.213 -20.118   7.650  1.00  0.00     0.094 A 
ATOM      5  C   UNL     1       8.445 -19.458   7.564  1.00  0.00     0.142 A 
ATOM      6  C   UNL     1       8.569 -18.140   8.055  1.00  0.00     0.018 A 
ATOM      7  C   UNL     1       9.811 -17.506   7.955  1.00  0.00     0.019 A 
ATOM      8  C   UNL     1      10.882 -18.187   7.379  1.00  0.00     0.094 A 
ATOM      9  C   UNL     1      10.685 -19.492   6.914  1.00  0.00     0.336 A 
ATOM     10  O   UNL     1      11.640 -20.123   6.390  1.00  0.00    -0.246 OA
ATOM     11  O   UNL     1       9.492 -20.072   7.021  1.00  0.00    -0.423 OA
ENDROOT
BRANCH   3  12
ATOM     12  O   UNL     1       4.877 -20.121   8.313  1.00  0.00    -0.508 OA
ATOM     13  H   UNL     1       4.018 -19.668   8.023  1.00  0.00     0.293 HD
ENDBRANCH   3  12
TORSDOF 1
ENDMDL
MODEL 4
REMARK VINA RESULT:    -4.243      1.809      2.696
REMARK INTER + INTRA:          -4.367
REMARK INTER:                  -4.367
REMARK INTRA:                   0.000
REMARK UNBOUND:                 0.000
REMARK SMILES O=c1ccc2ccc(O)cc2o1
REMARK SMILES IDX 6 1 7 2 8 3 10 4 11 5 5 6 4 7 3 8 2 9 1 10 12 11 9 12
REMARK H PARENT 9 13
REMARK Flexibility Score: inf
ROOT
ATOM      1  C   UNL     1      12.748 -17.639   9.387  1.00  0.00     0.016 A 
ATOM      2  C   UNL     1      13.749 -16.750   8.983  1.00  0.00     0.047 A 
ATOM      3  C   UNL     1      13.559 -15.930   7.864  1.00  0.00     0.119 A 
ATOM      4  C   UNL     1      12.359 -16.000   7.142  1.00  0.00     0.094 A 
ATOM      5  C   UNL     1      11.351 -16.886   7.538  1.00  0.00     0.142 A 
ATOM      6  C   UNL     1      11.547 -17.711   8.668  1.00  0.00     0.018 A 
ATOM      7  C   UNL     1      10.523 -18.587   9.039  1.00  0.00     0.019 A 
ATOM      8  C   UNL     1       9.347 -18.621   8.291  1.00  0.00     0.094 A 
ATOM      9  C   UNL     1       9.222 -17.774   7.184  1.00  0.00     0.336 A 
ATOM     10  O   UNL     1       8.168 -17.791   6.496  1.00  0.00    -0.246 OA
ATOM     11  O   UNL     1      10.213 -16.950   6.852  1.00  0.00    -0.423 OA
ENDROOT
BRANCH   3  12
ATOM     12  O   UNL     1      14.569 -15.051   7.478  1.00  0.00    -0.508 OA
ATOM     13  H   UNL     1      15.082 -15.181   6.613  1.00  0.00     0.293 HD
ENDBRANCH   3  12
TORSDOF 1
ENDMDL
MODEL 5
REMARK VINA RESULT:    -4.132      1.764      2.226
REMARK INTER + INTRA:          -4.252
REMARK INTER:                  -4.252
REMARK INTRA:                   0.000
REMARK UNBOUND:                 0.000
REMARK SMILES O=c1ccc2ccc(O)cc2o1
REMARK SMILES IDX 6 1 7 2 8 3 10 4 11 5 5 6 4 7 3 8 2 9 1 10 12 11 9 12
REMARK H PARENT 9 13
REMARK Flexibility Score: inf
ROOT
ATOM      1  C   UNL     1      10.560 -19.695   6.917  1.00  0.00     0.016 A 
ATOM      2  C   UNL     1      11.695 -18.879   6.934  1.00  0.00     0.047 A 
ATOM      3  C   UNL     1      11.627 -17.583   7.459  1.00  0.00     0.119 A 
ATOM      4  C   UNL     1      10.414 -17.098   7.971  1.00  0.00     0.094 A 
ATOM      5  C   UNL     1       9.273 -17.908   7.959  1.00  0.00     0.142 A 
ATOM      6  C   UNL     1       9.346 -19.215   7.428  1.00  0.00     0.018 A 
ATOM      7  C   UNL     1       8.190 -20.001   7.428  1.00  0.00     0.019 A 
ATOM      8  C   UNL     1       7.007 -19.477   7.949  1.00  0.00     0.094 A 
ATOM      9  C   UNL     1       7.009 -18.173   8.458  1.00  0.00     0.336 A 
ATOM     10  O   UNL     1       5.951 -17.683   8.932  1.00  0.00    -0.246 OA
ATOM     11  O   UNL     1       8.124 -17.446   8.445  1.00  0.00    -0.423 OA
ENDROOT
BRANCH   3  12
ATOM     12  O   UNL     1      12.769 -16.785   7.466  1.00  0.00    -0.508 OA
ATOM     13  H   UNL     1      13.171 -16.444   8.333  1.00  0.00     0.293 HD
ENDBRANCH   3  12
TORSDOF 1
ENDMDL
MODEL 6
REMARK VINA RESULT:    -4.083      1.732      4.925
REMARK INTER + INTRA:          -4.203
REMARK INTER:                  -4.203
REMARK INTRA:                   0.000
REMARK UNBOUND:                 0.000
REMARK SMILES O=c1ccc2ccc(O)cc2o1
REMARK SMILES IDX 6 1 7 2 8 3 10 4 11 5 5 6 4 7 3 8 2 9 1 10 12 11 9 12
REMARK H PARENT 9 13
REMARK Flexibility Score: inf
ROOT
ATOM      1  C   UNL     1      10.412 -18.847   8.989  1.00  0.00     0.016 A 
ATOM      2  C   UNL     1       9.241 -18.921   8.229  1.00  0.00     0.047 A 
ATOM      3  C   UNL     1       9.047 -18.061   7.141  1.00  0.00     0.119 A 
ATOM      4  C   UNL     1      10.032 -17.118   6.811  1.00  0.00     0.094 A 
ATOM      5  C   UNL     1      11.208 -17.036   7.566  1.00  0.00     0.142 A 
ATOM      6  C   UNL     1      11.399 -17.907   8.663  1.00  0.00     0.018 A 
ATOM      7  C   UNL     1      12.582 -17.802   9.399  1.00  0.00     0.019 A 
ATOM      8  C   UNL     1      13.533 -16.850   9.032  1.00  0.00     0.094 A 
ATOM      9  C   UNL     1      13.276 -16.021   7.934  1.00  0.00     0.336 A 
ATOM     10  O   UNL     1      14.122 -15.156   7.589  1.00  0.00    -0.246 OA
ATOM     11  O   UNL     1      12.140 -16.142   7.251  1.00  0.00    -0.423 OA
ENDROOT
BRANCH   3  12
ATOM     12  O   UNL     1       7.873 -18.150   6.397  1.00  0.00    -0.508 OA
ATOM     13  H   UNL     1       7.049 -18.616   6.760  1.00  0.00     0.293 HD
ENDBRANCH   3  12
TORSDOF 1
ENDMDL
MODEL 7
REMARK VINA RESULT:    -3.936      0.739      4.244
REMARK INTER + INTRA:          -4.051
REMARK INTER:                  -4.051
REMARK INTRA:                   0.000
REMARK UNBOUND:                 0.000
REMARK SMILES O=c1ccc2ccc(O)cc2o1
REMARK SMILES IDX 6 1 7 2 8 3 10 4 11 5 5 6 4 7 3 8 2 9 1 10 12 11 9 12
REMARK H PARENT 9 13
REMARK Flexibility Score: inf
ROOT
ATOM      1  C   UNL     1       9.294 -17.504   6.690  1.00  0.00     0.016 A 
ATOM      2  C   UNL     1       8.299 -18.411   7.068  1.00  0.00     0.047 A 
ATOM      3  C   UNL     1       8.474 -19.227   8.191  1.00  0.00     0.119 A 
ATOM      4  C   UNL     1       9.654 -19.137   8.944  1.00  0.00     0.094 A 
ATOM      5  C   UNL     1      10.656 -18.231   8.574  1.00  0.00     0.142 A 
ATOM      6  C   UNL     1      10.475 -17.410   7.440  1.00  0.00     0.018 A 
ATOM      7  C   UNL     1      11.492 -16.516   7.094  1.00  0.00     0.019 A 
ATOM      8  C   UNL     1      12.647 -16.461   7.873  1.00  0.00     0.094 A 
ATOM      9  C   UNL     1      12.759 -17.305   8.984  1.00  0.00     0.336 A 
ATOM     10  O   UNL     1      13.793 -17.270   9.698  1.00  0.00    -0.246 OA
ATOM     11  O   UNL     1      11.774 -18.147   9.290  1.00  0.00    -0.423 OA
ENDROOT
BRANCH   3  12
ATOM     12  O   UNL     1       7.471 -20.124   8.551  1.00  0.00    -0.508 OA
ATOM     13  H   UNL     1       7.217 -20.273   9.521  1.00  0.00     0.293 HD
ENDBRANCH   3  12
TORSDOF 1
ENDMDL
MODEL 8
REMARK VINA RESULT:    -2.730      3.693      5.484
REMARK INTER + INTRA:          -2.809
REMARK INTER:                  -2.809
REMARK INTRA:                   0.000
REMARK UNBOUND:                 0.000
REMARK SMILES O=c1ccc2ccc(O)cc2o1
REMARK SMILES IDX 6 1 7 2 8 3 10 4 11 5 5 6 4 7 3 8 2 9 1 10 12 11 9 12
REMARK H PARENT 9 13
REMARK Flexibility Score: inf
ROOT
ATOM      1  C   UNL     1       7.549 -20.119   9.848  1.00  0.00     0.016 A 
ATOM      2  C   UNL     1       6.221 -20.124  10.282  1.00  0.00     0.047 A 
ATOM      3  C   UNL     1       5.172 -20.110   9.355  1.00  0.00     0.119 A 
ATOM      4  C   UNL     1       5.454 -20.089   7.981  1.00  0.00     0.094 A 
ATOM      5  C   UNL     1       6.781 -20.084   7.536  1.00  0.00     0.142 A 
ATOM      6  C   UNL     1       7.836 -20.099   8.475  1.00  0.00     0.018 A 
ATOM      7  C   UNL     1       9.150 -20.093   8.001  1.00  0.00     0.019 A 
ATOM      8  C   UNL     1       9.382 -20.073   6.626  1.00  0.00     0.094 A 
ATOM      9  C   UNL     1       8.287 -20.059   5.754  1.00  0.00     0.336 A 
ATOM     10  O   UNL     1       8.476 -20.040   4.510  1.00  0.00    -0.246 OA
ATOM     11  O   UNL     1       7.045 -20.065   6.232  1.00  0.00    -0.423 OA
ENDROOT
BRANCH   3  12
ATOM     12  O   UNL     1       3.855 -20.114   9.809  1.00  0.00    -0.508 OA
ATOM     13  H   UNL     1       3.203 -20.841   9.534  1.00  0.00     0.293 HD
ENDBRANCH   3  12
TORSDOF 1
ENDMDL
