MODEL 1
REMARK VINA RESULT:     2.901      0.000      0.000
REMARK INTER + INTRA:           6.938
REMARK INTER:                   7.650
REMARK INTRA:                  -0.712
REMARK UNBOUND:                -0.712
REMARK SMILES CCCCCCCCCCCCCCCCCCCCCCCCCCCCCC(=O)[O-]
REMARK SMILES IDX 16 1 17 2 18 3 19 4 20 5 21 6 22 7 23 8 24 9 25 10 26 11
REMARK SMILES IDX 27 12 28 13 29 14 30 15 31 16 32 17 15 18 14 19 13 20 12 21
REMARK SMILES IDX 11 22 10 23 9 24 8 25 7 26 6 27 5 28 4 29 3 30 2 31 1 32
REMARK H PARENT
REMARK Flexibility Score: inf
ROOT
ATOM      1  C   UNL     1      -0.462  38.346  19.727  1.00  0.00     0.000 C 
ENDROOT
BRANCH   1   2
ATOM      2  C   UNL     1      -1.664  39.279  19.490  1.00  0.00     0.000 C 
BRANCH   2   3
ATOM      3  C   UNL     1      -3.001  38.524  19.448  1.00  0.00     0.000 C 
BRANCH   3   4
ATOM      4  C   UNL     1      -3.917  38.864  20.632  1.00  0.00     0.000 C 
BRANCH   4   5
ATOM      5  C   UNL     1      -5.254  39.434  20.135  1.00  0.00     0.000 C 
BRANCH   5   6
ATOM      6  C   UNL     1      -5.864  40.493  21.073  1.00  0.00     0.000 C 
BRANCH   6   7
ATOM      7  C   UNL     1      -5.248  40.574  22.487  1.00  0.00     0.000 C 
BRANCH   7   8
ATOM      8  C   UNL     1      -5.589  39.386  23.415  1.00  0.00     0.000 C 
BRANCH   8   9
ATOM      9  C   UNL     1      -4.433  38.954  24.335  1.00  0.00     0.000 C 
BRANCH   9  10
ATOM     10  C   UNL     1      -4.911  38.502  25.724  1.00  0.00     0.000 C 
BRANCH  10  11
ATOM     11  C   UNL     1      -3.891  37.573  26.423  1.00  0.00     0.000 C 
BRANCH  11  12
ATOM     12  C   UNL     1      -2.709  38.322  27.061  1.00  0.00     0.000 C 
BRANCH  12  13
ATOM     13  C   UNL     1      -2.035  37.523  28.190  1.00  0.00     0.006 C 
BRANCH  13  14
ATOM     14  C   UNL     1      -2.073  36.012  27.934  1.00  0.00     0.053 C 
BRANCH  14  15
ATOM     15  C   UNL     1      -1.482  35.240  29.074  1.00  0.00     0.041 C 
ATOM     16  O   UNL     1      -0.371  34.662  28.940  1.00  0.00    -0.550 OA
ATOM     17  O   UNL     1      -2.138  35.193  30.297  1.00  0.00    -0.550 OA
ENDBRANCH  14  15
ENDBRANCH  13  14
ENDBRANCH  12  13
ENDBRANCH  11  12
ENDBRANCH  10  11
ENDBRANCH   9  10
ENDBRANCH   8   9
ENDBRANCH   7   8
ENDBRANCH   6   7
ENDBRANCH   5   6
ENDBRANCH   4   5
ENDBRANCH   3   4
ENDBRANCH   2   3
ENDBRANCH   1   2
BRANCH   1  18
ATOM     18  C   UNL     1       0.321  38.050  18.438  1.00  0.00     0.000 C 
BRANCH  18  19
ATOM     19  C   UNL     1      -0.547  38.149  17.175  1.00  0.00     0.000 C 
BRANCH  19  20
ATOM     20  C   UNL     1      -0.954  36.754  16.685  1.00  0.00     0.000 C 
BRANCH  20  21
ATOM     21  C   UNL     1      -1.176  36.739  15.167  1.00  0.00     0.000 C 
BRANCH  21  22
ATOM     22  C   UNL     1      -2.123  37.857  14.692  1.00  0.00     0.000 C 
BRANCH  22  23
ATOM     23  C   UNL     1      -3.514  37.851  15.354  1.00  0.00     0.000 C 
BRANCH  23  24
ATOM     24  C   UNL     1      -3.831  36.523  16.065  1.00  0.00    -0.000 C 
BRANCH  24  25
ATOM     25  C   UNL     1      -3.756  36.644  17.600  1.00  0.00    -0.000 C 
BRANCH  25  26
ATOM     26  C   UNL     1      -4.220  35.382  18.356  1.00  0.00    -0.000 C 
BRANCH  26  27
ATOM     27  C   UNL     1      -5.717  35.384  18.725  1.00  0.00    -0.000 C 
BRANCH  27  28
ATOM     28  C   UNL     1      -5.987  36.040  20.087  1.00  0.00    -0.000 C 
BRANCH  28  29
ATOM     29  C   UNL     1      -4.928  35.621  21.116  1.00  0.00    -0.000 C 
BRANCH  29  30
ATOM     30  C   UNL     1      -5.093  36.329  22.474  1.00  0.00    -0.000 C 
BRANCH  30  31
ATOM     31  C   UNL     1      -6.125  35.686  23.420  1.00  0.00    -0.003 C 
ATOM     32  C   UNL     1      -5.801  34.234  23.766  1.00  0.00     0.004 C 
ENDBRANCH  30  31
ENDBRANCH  29  30
ENDBRANCH  28  29
ENDBRANCH  27  28
ENDBRANCH  26  27
ENDBRANCH  25  26
ENDBRANCH  24  25
ENDBRANCH  23  24
ENDBRANCH  22  23
ENDBRANCH  21  22
ENDBRANCH  20  21
ENDBRANCH  19  20
ENDBRANCH  18  19
ENDBRANCH   1  18
TORSDOF 28
ENDMDL
MODEL 2
REMARK VINA RESULT:     3.128      3.969      9.262
REMARK INTER + INTRA:           7.536
REMARK INTER:                  10.396
REMARK INTRA:                  -2.860
REMARK UNBOUND:                -0.712
REMARK SMILES CCCCCCCCCCCCCCCCCCCCCCCCCCCCCC(=O)[O-]
REMARK SMILES IDX 16 1 17 2 18 3 19 4 20 5 21 6 22 7 23 8 24 9 25 10 26 11
REMARK SMILES IDX 27 12 28 13 29 14 30 15 31 16 32 17 15 18 14 19 13 20 12 21
REMARK SMILES IDX 11 22 10 23 9 24 8 25 7 26 6 27 5 28 4 29 3 30 2 31 1 32
REMARK H PARENT
REMARK Flexibility Score: inf
ROOT
ATOM      1  C   UNL     1      -4.796  36.969  22.220  1.00  0.00     0.000 C 
ENDROOT
BRANCH   1   2
ATOM      2  C   UNL     1      -5.060  35.701  21.386  1.00  0.00     0.000 C 
BRANCH   2   3
ATOM      3  C   UNL     1      -6.010  35.955  20.207  1.00  0.00     0.000 C 
BRANCH   3   4
ATOM      4  C   UNL     1      -5.882  34.900  19.099  1.00  0.00     0.000 C 
BRANCH   4   5
ATOM      5  C   UNL     1      -4.885  35.362  18.025  1.00  0.00     0.000 C 
BRANCH   5   6
ATOM      6  C   UNL     1      -3.758  36.259  18.573  1.00  0.00     0.000 C 
BRANCH   6   7
ATOM      7  C   UNL     1      -4.084  37.765  18.670  1.00  0.00     0.000 C 
BRANCH   7   8
ATOM      8  C   UNL     1      -2.942  38.645  19.226  1.00  0.00     0.000 C 
BRANCH   8   9
ATOM      9  C   UNL     1      -1.668  37.864  19.595  1.00  0.00     0.000 C 
BRANCH   9  10
ATOM     10  C   UNL     1      -0.428  38.343  18.822  1.00  0.00     0.000 C 
BRANCH  10  11
ATOM     11  C   UNL     1      -0.647  38.327  17.292  1.00  0.00     0.000 C 
BRANCH  11  12
ATOM     12  C   UNL     1      -0.985  36.936  16.730  1.00  0.00     0.000 C 
BRANCH  12  13
ATOM     13  C   UNL     1      -1.384  36.971  15.245  1.00  0.00     0.006 C 
BRANCH  13  14
ATOM     14  C   UNL     1      -2.900  36.847  15.050  1.00  0.00     0.053 C 
BRANCH  14  15
ATOM     15  C   UNL     1      -3.537  38.177  14.784  1.00  0.00     0.041 C 
ATOM     16  O   UNL     1      -4.401  38.296  13.877  1.00  0.00    -0.550 OA
ATOM     17  O   UNL     1      -3.204  39.277  15.565  1.00  0.00    -0.550 OA
ENDBRANCH  14  15
ENDBRANCH  13  14
ENDBRANCH  12  13
ENDBRANCH  11  12
ENDBRANCH  10  11
ENDBRANCH   9  10
ENDBRANCH   8   9
ENDBRANCH   7   8
ENDBRANCH   6   7
ENDBRANCH   5   6
ENDBRANCH   4   5
ENDBRANCH   3   4
ENDBRANCH   2   3
ENDBRANCH   1   2
BRANCH   1  18
ATOM     18  C   UNL     1      -5.941  37.990  22.124  1.00  0.00     0.000 C 
BRANCH  18  19
ATOM     19  C   UNL     1      -5.443  39.430  21.933  1.00  0.00     0.000 C 
BRANCH  19  20
ATOM     20  C   UNL     1      -3.974  39.556  22.350  1.00  0.00     0.000 C 
BRANCH  20  21
ATOM     21  C   UNL     1      -3.844  40.156  23.756  1.00  0.00     0.000 C 
BRANCH  21  22
ATOM     22  C   UNL     1      -5.188  40.218  24.505  1.00  0.00     0.000 C 
BRANCH  22  23
ATOM     23  C   UNL     1      -5.246  39.387  25.800  1.00  0.00     0.000 C 
BRANCH  23  24
ATOM     24  C   UNL     1      -5.052  37.881  25.552  1.00  0.00    -0.000 C 
BRANCH  24  25
ATOM     25  C   UNL     1      -3.860  37.303  26.341  1.00  0.00    -0.000 C 
BRANCH  25  26
ATOM     26  C   UNL     1      -2.860  38.365  26.841  1.00  0.00    -0.000 C 
BRANCH  26  27
ATOM     27  C   UNL     1      -1.780  37.814  27.792  1.00  0.00    -0.000 C 
BRANCH  27  28
ATOM     28  C   UNL     1      -1.704  36.280  27.772  1.00  0.00    -0.000 C 
BRANCH  28  29
ATOM     29  C   UNL     1      -2.048  35.698  29.151  1.00  0.00    -0.000 C 
BRANCH  29  30
ATOM     30  C   UNL     1      -1.020  34.662  29.642  1.00  0.00    -0.000 C 
BRANCH  30  31
ATOM     31  C   UNL     1       0.346  34.717  28.934  1.00  0.00    -0.003 C 
ATOM     32  C   UNL     1       1.384  33.783  29.555  1.00  0.00     0.004 C 
ENDBRANCH  30  31
ENDBRANCH  29  30
ENDBRANCH  28  29
ENDBRANCH  27  28
ENDBRANCH  26  27
ENDBRANCH  25  26
ENDBRANCH  24  25
ENDBRANCH  23  24
ENDBRANCH  22  23
ENDBRANCH  21  22
ENDBRANCH  20  21
ENDBRANCH  19  20
ENDBRANCH  18  19
ENDBRANCH   1  18
TORSDOF 28
ENDMDL
MODEL 3
REMARK VINA RESULT:     3.871      1.037      3.436
REMARK INTER + INTRA:           9.495
REMARK INTER:                   9.272
REMARK INTRA:                   0.222
REMARK UNBOUND:                -0.712
REMARK SMILES CCCCCCCCCCCCCCCCCCCCCCCCCCCCCC(=O)[O-]
REMARK SMILES IDX 16 1 17 2 18 3 19 4 20 5 21 6 22 7 23 8 24 9 25 10 26 11
REMARK SMILES IDX 27 12 28 13 29 14 30 15 31 16 32 17 15 18 14 19 13 20 12 21
REMARK SMILES IDX 11 22 10 23 9 24 8 25 7 26 6 27 5 28 4 29 3 30 2 31 1 32
REMARK H PARENT
REMARK Flexibility Score: inf
ROOT
ATOM      1  C   UNL     1      -3.955  39.287  21.359  1.00  0.00     0.000 C 
ENDROOT
BRANCH   1   2
ATOM      2  C   UNL     1      -5.112  39.811  22.230  1.00  0.00     0.000 C 
BRANCH   2   3
ATOM      3  C   UNL     1      -5.788  38.699  23.047  1.00  0.00     0.000 C 
BRANCH   3   4
ATOM      4  C   UNL     1      -5.050  37.356  22.951  1.00  0.00     0.000 C 
BRANCH   4   5
ATOM      5  C   UNL     1      -6.050  36.190  22.937  1.00  0.00     0.000 C 
BRANCH   5   6
ATOM      6  C   UNL     1      -5.969  35.289  24.185  1.00  0.00     0.000 C 
BRANCH   6   7
ATOM      7  C   UNL     1      -6.007  36.019  25.545  1.00  0.00     0.000 C 
BRANCH   7   8
ATOM      8  C   UNL     1      -6.125  37.557  25.456  1.00  0.00     0.000 C 
BRANCH   8   9
ATOM      9  C   UNL     1      -5.593  38.302  26.694  1.00  0.00     0.000 C 
BRANCH   9  10
ATOM     10  C   UNL     1      -4.271  39.040  26.426  1.00  0.00     0.000 C 
BRANCH  10  11
ATOM     11  C   UNL     1      -3.084  38.069  26.237  1.00  0.00     0.000 C 
BRANCH  11  12
ATOM     12  C   UNL     1      -2.090  38.072  27.411  1.00  0.00     0.000 C 
BRANCH  12  13
ATOM     13  C   UNL     1      -1.505  36.680  27.704  1.00  0.00     0.006 C 
BRANCH  13  14
ATOM     14  C   UNL     1      -2.404  35.858  28.636  1.00  0.00     0.053 C 
BRANCH  14  15
ATOM     15  C   UNL     1      -1.605  34.964  29.533  1.00  0.00     0.041 C 
ATOM     16  O   UNL     1      -0.363  34.842  29.363  1.00  0.00    -0.550 OA
ATOM     17  O   UNL     1      -2.223  34.296  30.582  1.00  0.00    -0.550 OA
ENDBRANCH  14  15
ENDBRANCH  13  14
ENDBRANCH  12  13
ENDBRANCH  11  12
ENDBRANCH  10  11
ENDBRANCH   9  10
ENDBRANCH   8   9
ENDBRANCH   7   8
ENDBRANCH   6   7
ENDBRANCH   5   6
ENDBRANCH   4   5
ENDBRANCH   3   4
ENDBRANCH   2   3
ENDBRANCH   1   2
BRANCH   1  18
ATOM     18  C   UNL     1      -4.416  38.860  19.956  1.00  0.00     0.000 C 
BRANCH  18  19
ATOM     19  C   UNL     1      -3.245  38.570  19.005  1.00  0.00     0.000 C 
BRANCH  19  20
ATOM     20  C   UNL     1      -1.910  38.625  19.755  1.00  0.00     0.000 C 
BRANCH  20  21
ATOM     21  C   UNL     1      -0.777  39.109  18.841  1.00  0.00     0.000 C 
BRANCH  21  22
ATOM     22  C   UNL     1       0.113  37.960  18.334  1.00  0.00     0.000 C 
BRANCH  22  23
ATOM     23  C   UNL     1      -0.338  37.332  17.002  1.00  0.00     0.000 C 
BRANCH  23  24
ATOM     24  C   UNL     1      -1.410  38.168  16.280  1.00  0.00    -0.000 C 
BRANCH  24  25
ATOM     25  C   UNL     1      -1.845  37.539  14.942  1.00  0.00    -0.000 C 
BRANCH  25  26
ATOM     26  C   UNL     1      -3.175  36.760  15.014  1.00  0.00    -0.000 C 
BRANCH  26  27
ATOM     27  C   UNL     1      -3.897  36.873  16.371  1.00  0.00    -0.000 C 
BRANCH  27  28
ATOM     28  C   UNL     1      -3.284  35.960  17.443  1.00  0.00    -0.000 C 
BRANCH  28  29
ATOM     29  C   UNL     1      -4.373  35.139  18.149  1.00  0.00    -0.000 C 
BRANCH  29  30
ATOM     30  C   UNL     1      -4.686  35.648  19.569  1.00  0.00    -0.000 C 
BRANCH  30  31
ATOM     31  C   UNL     1      -3.499  35.613  20.549  1.00  0.00    -0.003 C 
ATOM     32  C   UNL     1      -3.449  34.339  21.390  1.00  0.00     0.004 C 
ENDBRANCH  30  31
ENDBRANCH  29  30
ENDBRANCH  28  29
ENDBRANCH  27  28
ENDBRANCH  26  27
ENDBRANCH  25  26
ENDBRANCH  24  25
ENDBRANCH  23  24
ENDBRANCH  22  23
ENDBRANCH  21  22
ENDBRANCH  20  21
ENDBRANCH  19  20
ENDBRANCH  18  19
ENDBRANCH   1  18
TORSDOF 28
ENDMDL
MODEL 4
REMARK VINA RESULT:     3.941      2.845      8.410
REMARK INTER + INTRA:           9.679
REMARK INTER:                  10.770
REMARK INTRA:                  -1.091
REMARK UNBOUND:                -0.712
REMARK SMILES CCCCCCCCCCCCCCCCCCCCCCCCCCCCCC(=O)[O-]
REMARK SMILES IDX 16 1 17 2 18 3 19 4 20 5 21 6 22 7 23 8 24 9 25 10 26 11
REMARK SMILES IDX 27 12 28 13 29 14 30 15 31 16 32 17 15 18 14 19 13 20 12 21
REMARK SMILES IDX 11 22 10 23 9 24 8 25 7 26 6 27 5 28 4 29 3 30 2 31 1 32
REMARK H PARENT
REMARK Flexibility Score: inf
ROOT
ATOM      1  C   UNL     1      -4.405  36.381  21.943  1.00  0.00     0.000 C 
ENDROOT
BRANCH   1   2
ATOM      2  C   UNL     1      -4.156  35.650  20.611  1.00  0.00     0.000 C 
BRANCH   2   3
ATOM      3  C   UNL     1      -5.443  35.442  19.800  1.00  0.00     0.000 C 
BRANCH   3   4
ATOM      4  C   UNL     1      -5.216  35.542  18.284  1.00  0.00     0.000 C 
BRANCH   4   5
ATOM      5  C   UNL     1      -3.818  35.025  17.911  1.00  0.00     0.000 C 
BRANCH   5   6
ATOM      6  C   UNL     1      -3.312  35.537  16.549  1.00  0.00     0.000 C 
BRANCH   6   7
ATOM      7  C   UNL     1      -1.829  35.962  16.498  1.00  0.00     0.000 C 
BRANCH   7   8
ATOM      8  C   UNL     1      -1.460  36.905  15.330  1.00  0.00     0.000 C 
BRANCH   8   9
ATOM      9  C   UNL     1      -2.673  37.452  14.556  1.00  0.00     0.000 C 
BRANCH   9  10
ATOM     10  C   UNL     1      -3.303  38.685  15.225  1.00  0.00     0.000 C 
BRANCH  10  11
ATOM     11  C   UNL     1      -2.695  38.975  16.615  1.00  0.00     0.000 C 
BRANCH  11  12
ATOM     12  C   UNL     1      -3.458  38.313  17.775  1.00  0.00     0.000 C 
BRANCH  12  13
ATOM     13  C   UNL     1      -2.722  38.430  19.120  1.00  0.00     0.006 C 
BRANCH  13  14
ATOM     14  C   UNL     1      -1.429  39.247  19.005  1.00  0.00     0.053 C 
BRANCH  14  15
ATOM     15  C   UNL     1      -0.214  38.370  19.021  1.00  0.00     0.041 C 
ATOM     16  O   UNL     1       0.183  37.858  20.100  1.00  0.00    -0.550 OA
ATOM     17  O   UNL     1       0.456  38.088  17.838  1.00  0.00    -0.550 OA
ENDBRANCH  14  15
ENDBRANCH  13  14
ENDBRANCH  12  13
ENDBRANCH  11  12
ENDBRANCH  10  11
ENDBRANCH   9  10
ENDBRANCH   8   9
ENDBRANCH   7   8
ENDBRANCH   6   7
ENDBRANCH   5   6
ENDBRANCH   4   5
ENDBRANCH   3   4
ENDBRANCH   2   3
ENDBRANCH   1   2
BRANCH   1  18
ATOM     18  C   UNL     1      -5.720  37.176  21.945  1.00  0.00     0.000 C 
BRANCH  18  19
ATOM     19  C   UNL     1      -5.536  38.636  21.504  1.00  0.00     0.000 C 
BRANCH  19  20
ATOM     20  C   UNL     1      -4.113  39.119  21.806  1.00  0.00     0.000 C 
BRANCH  20  21
ATOM     21  C   UNL     1      -4.099  40.112  22.976  1.00  0.00     0.000 C 
BRANCH  21  22
ATOM     22  C   UNL     1      -5.433  40.149  23.744  1.00  0.00     0.000 C 
BRANCH  22  23
ATOM     23  C   UNL     1      -5.339  39.735  25.224  1.00  0.00     0.000 C 
BRANCH  23  24
ATOM     24  C   UNL     1      -6.074  38.416  25.523  1.00  0.00    -0.000 C 
BRANCH  24  25
ATOM     25  C   UNL     1      -5.173  37.181  25.323  1.00  0.00    -0.000 C 
BRANCH  25  26
ATOM     26  C   UNL     1      -3.683  37.430  25.637  1.00  0.00    -0.000 C 
BRANCH  26  27
ATOM     27  C   UNL     1      -3.440  38.459  26.758  1.00  0.00    -0.000 C 
BRANCH  27  28
ATOM     28  C   UNL     1      -2.029  38.357  27.356  1.00  0.00    -0.000 C 
BRANCH  28  29
ATOM     29  C   UNL     1      -1.569  36.894  27.426  1.00  0.00    -0.000 C 
BRANCH  29  30
ATOM     30  C   UNL     1      -2.256  36.099  28.552  1.00  0.00    -0.000 C 
BRANCH  30  31
ATOM     31  C   UNL     1      -1.425  34.938  29.128  1.00  0.00    -0.003 C 
ATOM     32  C   UNL     1      -1.860  34.525  30.533  1.00  0.00     0.004 C 
ENDBRANCH  30  31
ENDBRANCH  29  30
ENDBRANCH  28  29
ENDBRANCH  27  28
ENDBRANCH  26  27
ENDBRANCH  25  26
ENDBRANCH  24  25
ENDBRANCH  23  24
ENDBRANCH  22  23
ENDBRANCH  21  22
ENDBRANCH  20  21
ENDBRANCH  19  20
ENDBRANCH  18  19
ENDBRANCH   1  18
TORSDOF 28
ENDMDL
MODEL 5
REMARK VINA RESULT:     4.009      4.115      8.829
REMARK INTER + INTRA:           9.860
REMARK INTER:                  10.190
REMARK INTRA:                  -0.330
REMARK UNBOUND:                -0.712
REMARK SMILES CCCCCCCCCCCCCCCCCCCCCCCCCCCCCC(=O)[O-]
REMARK SMILES IDX 16 1 17 2 18 3 19 4 20 5 21 6 22 7 23 8 24 9 25 10 26 11
REMARK SMILES IDX 27 12 28 13 29 14 30 15 31 16 32 17 15 18 14 19 13 20 12 21
REMARK SMILES IDX 11 22 10 23 9 24 8 25 7 26 6 27 5 28 4 29 3 30 2 31 1 32
REMARK H PARENT
REMARK Flexibility Score: inf
ROOT
ATOM      1  C   UNL     1      -2.713  35.159  21.861  1.00  0.00     0.000 C 
ENDROOT
BRANCH   1   2
ATOM      2  C   UNL     1      -3.148  34.482  20.548  1.00  0.00     0.000 C 
BRANCH   2   3
ATOM      3  C   UNL     1      -3.668  35.487  19.509  1.00  0.00     0.000 C 
BRANCH   3   4
ATOM      4  C   UNL     1      -5.129  35.232  19.111  1.00  0.00     0.000 C 
BRANCH   4   5
ATOM      5  C   UNL     1      -6.055  36.270  19.764  1.00  0.00     0.000 C 
BRANCH   5   6
ATOM      6  C   UNL     1      -5.573  37.724  19.593  1.00  0.00     0.000 C 
BRANCH   6   7
ATOM      7  C   UNL     1      -4.834  38.335  20.803  1.00  0.00     0.000 C 
BRANCH   7   8
ATOM      8  C   UNL     1      -3.306  38.482  20.626  1.00  0.00     0.000 C 
BRANCH   8   9
ATOM      9  C   UNL     1      -2.837  38.473  19.160  1.00  0.00     0.000 C 
BRANCH   9  10
ATOM     10  C   UNL     1      -1.307  38.424  19.021  1.00  0.00     0.000 C 
BRANCH  10  11
ATOM     11  C   UNL     1      -0.846  38.556  17.551  1.00  0.00     0.000 C 
BRANCH  11  12
ATOM     12  C   UNL     1      -1.029  37.269  16.729  1.00  0.00     0.000 C 
BRANCH  12  13
ATOM     13  C   UNL     1      -2.482  36.766  16.721  1.00  0.00     0.006 C 
BRANCH  13  14
ATOM     14  C   UNL     1      -3.446  37.784  16.100  1.00  0.00     0.053 C 
BRANCH  14  15
ATOM     15  C   UNL     1      -3.134  38.036  14.657  1.00  0.00     0.041 C 
ATOM     16  O   UNL     1      -2.314  37.300  14.048  1.00  0.00    -0.550 OA
ATOM     17  O   UNL     1      -3.779  39.059  13.973  1.00  0.00    -0.550 OA
ENDBRANCH  14  15
ENDBRANCH  13  14
ENDBRANCH  12  13
ENDBRANCH  11  12
ENDBRANCH  10  11
ENDBRANCH   9  10
ENDBRANCH   8   9
ENDBRANCH   7   8
ENDBRANCH   6   7
ENDBRANCH   5   6
ENDBRANCH   4   5
ENDBRANCH   3   4
ENDBRANCH   2   3
ENDBRANCH   1   2
BRANCH   1  18
ATOM     18  C   UNL     1      -3.903  35.521  22.763  1.00  0.00     0.000 C 
BRANCH  18  19
ATOM     19  C   UNL     1      -4.851  34.338  23.006  1.00  0.00     0.000 C 
BRANCH  19  20
ATOM     20  C   UNL     1      -6.125  34.801  23.723  1.00  0.00     0.000 C 
BRANCH  20  21
ATOM     21  C   UNL     1      -6.120  36.320  23.939  1.00  0.00     0.000 C 
BRANCH  21  22
ATOM     22  C   UNL     1      -6.124  36.711  25.428  1.00  0.00     0.000 C 
BRANCH  22  23
ATOM     23  C   UNL     1      -6.011  38.222  25.701  1.00  0.00     0.000 C 
BRANCH  23  24
ATOM     24  C   UNL     1      -6.061  39.066  24.414  1.00  0.00    -0.000 C 
BRANCH  24  25
ATOM     25  C   UNL     1      -4.743  39.823  24.155  1.00  0.00    -0.000 C 
BRANCH  25  26
ATOM     26  C   UNL     1      -3.729  39.740  25.314  1.00  0.00    -0.000 C 
BRANCH  26  27
ATOM     27  C   UNL     1      -3.644  38.351  25.976  1.00  0.00    -0.000 C 
BRANCH  27  28
ATOM     28  C   UNL     1      -2.599  38.297  27.101  1.00  0.00    -0.000 C 
BRANCH  28  29
ATOM     29  C   UNL     1      -1.993  36.891  27.218  1.00  0.00    -0.000 C 
BRANCH  29  30
ATOM     30  C   UNL     1      -2.430  36.150  28.496  1.00  0.00    -0.000 C 
BRANCH  30  31
ATOM     31  C   UNL     1      -1.526  34.973  28.905  1.00  0.00    -0.003 C 
ATOM     32  C   UNL     1      -1.305  34.881  30.414  1.00  0.00     0.004 C 
ENDBRANCH  30  31
ENDBRANCH  29  30
ENDBRANCH  28  29
ENDBRANCH  27  28
ENDBRANCH  26  27
ENDBRANCH  25  26
ENDBRANCH  24  25
ENDBRANCH  23  24
ENDBRANCH  22  23
ENDBRANCH  21  22
ENDBRANCH  20  21
ENDBRANCH  19  20
ENDBRANCH  18  19
ENDBRANCH   1  18
TORSDOF 28
ENDMDL
MODEL 6
REMARK VINA RESULT:     4.022      2.832      7.953
REMARK INTER + INTRA:           9.892
REMARK INTER:                   9.947
REMARK INTRA:                  -0.054
REMARK UNBOUND:                -0.712
REMARK SMILES CCCCCCCCCCCCCCCCCCCCCCCCCCCCCC(=O)[O-]
REMARK SMILES IDX 16 1 17 2 18 3 19 4 20 5 21 6 22 7 23 8 24 9 25 10 26 11
REMARK SMILES IDX 27 12 28 13 29 14 30 15 31 16 32 17 15 18 14 19 13 20 12 21
REMARK SMILES IDX 11 22 10 23 9 24 8 25 7 26 6 27 5 28 4 29 3 30 2 31 1 32
REMARK H PARENT
REMARK Flexibility Score: inf
ROOT
ATOM      1  C   UNL     1      -2.847  36.923  19.897  1.00  0.00     0.000 C 
ENDROOT
BRANCH   1   2
ATOM      2  C   UNL     1      -3.125  36.510  21.354  1.00  0.00     0.000 C 
BRANCH   2   3
ATOM      3  C   UNL     1      -3.551  35.040  21.481  1.00  0.00     0.000 C 
BRANCH   3   4
ATOM      4  C   UNL     1      -5.007  34.879  21.941  1.00  0.00     0.000 C 
BRANCH   4   5
ATOM      5  C   UNL     1      -5.829  36.128  21.586  1.00  0.00     0.000 C 
BRANCH   5   6
ATOM      6  C   UNL     1      -6.124  36.266  20.080  1.00  0.00     0.000 C 
BRANCH   6   7
ATOM      7  C   UNL     1      -6.124  34.951  19.271  1.00  0.00     0.000 C 
BRANCH   7   8
ATOM      8  C   UNL     1      -4.968  34.810  18.256  1.00  0.00     0.000 C 
BRANCH   8   9
ATOM      9  C   UNL     1      -4.527  36.138  17.614  1.00  0.00     0.000 C 
BRANCH   9  10
ATOM     10  C   UNL     1      -3.225  36.010  16.808  1.00  0.00     0.000 C 
BRANCH  10  11
ATOM     11  C   UNL     1      -3.046  37.162  15.792  1.00  0.00     0.000 C 
BRANCH  11  12
ATOM     12  C   UNL     1      -1.634  37.771  15.791  1.00  0.00     0.000 C 
BRANCH  12  13
ATOM     13  C   UNL     1      -0.689  37.093  16.797  1.00  0.00     0.006 C 
BRANCH  13  14
ATOM     14  C   UNL     1       0.300  38.084  17.423  1.00  0.00     0.053 C 
BRANCH  14  15
ATOM     15  C   UNL     1      -0.229  38.664  18.700  1.00  0.00     0.041 C 
ATOM     16  O   UNL     1      -0.590  39.869  18.747  1.00  0.00    -0.550 OA
ATOM     17  O   UNL     1      -0.358  37.863  19.827  1.00  0.00    -0.550 OA
ENDBRANCH  14  15
ENDBRANCH  13  14
ENDBRANCH  12  13
ENDBRANCH  11  12
ENDBRANCH  10  11
ENDBRANCH   9  10
ENDBRANCH   8   9
ENDBRANCH   7   8
ENDBRANCH   6   7
ENDBRANCH   5   6
ENDBRANCH   4   5
ENDBRANCH   3   4
ENDBRANCH   2   3
ENDBRANCH   1   2
BRANCH   1  18
ATOM     18  C   UNL     1      -3.603  38.197  19.487  1.00  0.00     0.000 C 
BRANCH  18  19
ATOM     19  C   UNL     1      -3.968  39.087  20.684  1.00  0.00     0.000 C 
BRANCH  19  20
ATOM     20  C   UNL     1      -5.380  39.662  20.523  1.00  0.00     0.000 C 
BRANCH  20  21
ATOM     21  C   UNL     1      -5.728  40.613  21.675  1.00  0.00     0.000 C 
BRANCH  21  22
ATOM     22  C   UNL     1      -5.187  40.131  23.033  1.00  0.00     0.000 C 
BRANCH  22  23
ATOM     23  C   UNL     1      -6.125  39.182  23.803  1.00  0.00     0.000 C 
BRANCH  23  24
ATOM     24  C   UNL     1      -5.641  37.721  23.785  1.00  0.00    -0.000 C 
BRANCH  24  25
ATOM     25  C   UNL     1      -5.608  37.094  25.193  1.00  0.00    -0.000 C 
BRANCH  25  26
ATOM     26  C   UNL     1      -5.813  38.106  26.339  1.00  0.00    -0.000 C 
BRANCH  26  27
ATOM     27  C   UNL     1      -4.566  38.952  26.662  1.00  0.00    -0.000 C 
BRANCH  27  28
ATOM     28  C   UNL     1      -3.259  38.252  26.261  1.00  0.00    -0.000 C 
BRANCH  28  29
ATOM     29  C   UNL     1      -2.217  38.354  27.385  1.00  0.00    -0.000 C 
BRANCH  29  30
ATOM     30  C   UNL     1      -1.492  37.023  27.657  1.00  0.00    -0.000 C 
BRANCH  30  31
ATOM     31  C   UNL     1      -2.353  35.939  28.332  1.00  0.00    -0.003 C 
ATOM     32  C   UNL     1      -1.608  35.170  29.422  1.00  0.00     0.004 C 
ENDBRANCH  30  31
ENDBRANCH  29  30
ENDBRANCH  28  29
ENDBRANCH  27  28
ENDBRANCH  26  27
ENDBRANCH  25  26
ENDBRANCH  24  25
ENDBRANCH  23  24
ENDBRANCH  22  23
ENDBRANCH  21  22
ENDBRANCH  20  21
ENDBRANCH  19  20
ENDBRANCH  18  19
ENDBRANCH   1  18
TORSDOF 28
ENDMDL
MODEL 7
REMARK VINA RESULT:     4.206      2.167      7.322
REMARK INTER + INTRA:          10.377
REMARK INTER:                  11.366
REMARK INTRA:                  -0.988
REMARK UNBOUND:                -0.712
REMARK SMILES CCCCCCCCCCCCCCCCCCCCCCCCCCCCCC(=O)[O-]
REMARK SMILES IDX 16 1 17 2 18 3 19 4 20 5 21 6 22 7 23 8 24 9 25 10 26 11
REMARK SMILES IDX 27 12 28 13 29 14 30 15 31 16 32 17 15 18 14 19 13 20 12 21
REMARK SMILES IDX 11 22 10 23 9 24 8 25 7 26 6 27 5 28 4 29 3 30 2 31 1 32
REMARK H PARENT
REMARK Flexibility Score: inf
ROOT
ATOM      1  C   UNL     1      -2.049  38.322  19.924  1.00  0.00     0.000 C 
ENDROOT
BRANCH   1   2
ATOM      2  C   UNL     1      -0.747  38.278  19.101  1.00  0.00     0.000 C 
BRANCH   2   3
ATOM      3  C   UNL     1      -1.004  38.299  17.587  1.00  0.00     0.000 C 
BRANCH   3   4
ATOM      4  C   UNL     1      -0.554  37.008  16.887  1.00  0.00     0.000 C 
BRANCH   4   5
ATOM      5  C   UNL     1      -1.170  36.912  15.483  1.00  0.00     0.000 C 
BRANCH   5   6
ATOM      6  C   UNL     1      -2.029  38.132  15.099  1.00  0.00     0.000 C 
BRANCH   6   7
ATOM      7  C   UNL     1      -3.457  37.821  14.602  1.00  0.00     0.000 C 
BRANCH   7   8
ATOM      8  C   UNL     1      -4.231  36.786  15.450  1.00  0.00     0.000 C 
BRANCH   8   9
ATOM      9  C   UNL     1      -4.064  36.966  16.970  1.00  0.00     0.000 C 
BRANCH   9  10
ATOM     10  C   UNL     1      -3.680  35.662  17.688  1.00  0.00     0.000 C 
BRANCH  10  11
ATOM     11  C   UNL     1      -4.915  34.891  18.205  1.00  0.00     0.000 C 
BRANCH  11  12
ATOM     12  C   UNL     1      -5.893  35.760  19.015  1.00  0.00     0.000 C 
BRANCH  12  13
ATOM     13  C   UNL     1      -5.407  36.028  20.449  1.00  0.00     0.006 C 
BRANCH  13  14
ATOM     14  C   UNL     1      -3.886  35.888  20.583  1.00  0.00     0.053 C 
BRANCH  14  15
ATOM     15  C   UNL     1      -3.510  34.917  21.660  1.00  0.00     0.041 C 
ATOM     16  O   UNL     1      -2.333  34.476  21.734  1.00  0.00    -0.550 OA
ATOM     17  O   UNL     1      -4.449  34.530  22.607  1.00  0.00    -0.550 OA
ENDBRANCH  14  15
ENDBRANCH  13  14
ENDBRANCH  12  13
ENDBRANCH  11  12
ENDBRANCH  10  11
ENDBRANCH   9  10
ENDBRANCH   8   9
ENDBRANCH   7   8
ENDBRANCH   6   7
ENDBRANCH   5   6
ENDBRANCH   4   5
ENDBRANCH   3   4
ENDBRANCH   2   3
ENDBRANCH   1   2
BRANCH   1  18
ATOM     18  C   UNL     1      -3.207  38.987  19.164  1.00  0.00     0.000 C 
BRANCH  18  19
ATOM     19  C   UNL     1      -4.494  39.080  19.998  1.00  0.00     0.000 C 
BRANCH  19  20
ATOM     20  C   UNL     1      -4.186  39.573  21.417  1.00  0.00     0.000 C 
BRANCH  20  21
ATOM     21  C   UNL     1      -5.464  40.014  22.142  1.00  0.00     0.000 C 
BRANCH  21  22
ATOM     22  C   UNL     1      -6.116  38.876  22.948  1.00  0.00     0.000 C 
BRANCH  22  23
ATOM     23  C   UNL     1      -5.157  37.745  23.363  1.00  0.00     0.000 C 
BRANCH  23  24
ATOM     24  C   UNL     1      -5.849  36.651  24.195  1.00  0.00    -0.000 C 
BRANCH  24  25
ATOM     25  C   UNL     1      -6.096  37.087  25.653  1.00  0.00    -0.000 C 
BRANCH  25  26
ATOM     26  C   UNL     1      -5.891  38.596  25.903  1.00  0.00    -0.000 C 
BRANCH  26  27
ATOM     27  C   UNL     1      -4.554  38.943  26.585  1.00  0.00    -0.000 C 
BRANCH  27  28
ATOM     28  C   UNL     1      -3.543  37.789  26.525  1.00  0.00    -0.000 C 
BRANCH  28  29
ATOM     29  C   UNL     1      -2.186  38.219  27.101  1.00  0.00    -0.000 C 
BRANCH  29  30
ATOM     30  C   UNL     1      -1.416  37.060  27.762  1.00  0.00    -0.000 C 
BRANCH  30  31
ATOM     31  C   UNL     1      -2.253  36.183  28.712  1.00  0.00    -0.003 C 
ATOM     32  C   UNL     1      -1.536  34.903  29.138  1.00  0.00     0.004 C 
ENDBRANCH  30  31
ENDBRANCH  29  30
ENDBRANCH  28  29
ENDBRANCH  27  28
ENDBRANCH  26  27
ENDBRANCH  25  26
ENDBRANCH  24  25
ENDBRANCH  23  24
ENDBRANCH  22  23
ENDBRANCH  21  22
ENDBRANCH  20  21
ENDBRANCH  19  20
ENDBRANCH  18  19
ENDBRANCH   1  18
TORSDOF 28
ENDMDL
MODEL 8
REMARK VINA RESULT:     4.261      1.083      4.413
REMARK INTER + INTRA:          10.524
REMARK INTER:                  11.714
REMARK INTRA:                  -1.190
REMARK UNBOUND:                -0.712
REMARK SMILES CCCCCCCCCCCCCCCCCCCCCCCCCCCCCC(=O)[O-]
REMARK SMILES IDX 16 1 17 2 18 3 19 4 20 5 21 6 22 7 23 8 24 9 25 10 26 11
REMARK SMILES IDX 27 12 28 13 29 14 30 15 31 16 32 17 15 18 14 19 13 20 12 21
REMARK SMILES IDX 11 22 10 23 9 24 8 25 7 26 6 27 5 28 4 29 3 30 2 31 1 32
REMARK H PARENT
REMARK Flexibility Score: inf
ROOT
ATOM      1  C   UNL     1      -4.960  36.626  23.309  1.00  0.00     0.000 C 
ENDROOT
BRANCH   1   2
ATOM      2  C   UNL     1      -6.125  37.311  22.572  1.00  0.00     0.000 C 
BRANCH   2   3
ATOM      3  C   UNL     1      -5.809  37.589  21.095  1.00  0.00     0.000 C 
BRANCH   3   4
ATOM      4  C   UNL     1      -4.917  38.823  20.897  1.00  0.00     0.000 C 
BRANCH   4   5
ATOM      5  C   UNL     1      -5.713  40.112  21.158  1.00  0.00     0.000 C 
BRANCH   5   6
ATOM      6  C   UNL     1      -5.344  40.809  22.482  1.00  0.00     0.000 C 
BRANCH   6   7
ATOM      7  C   UNL     1      -4.342  40.056  23.383  1.00  0.00     0.000 C 
BRANCH   7   8
ATOM      8  C   UNL     1      -4.617  40.167  24.899  1.00  0.00     0.000 C 
BRANCH   8   9
ATOM      9  C   UNL     1      -5.265  38.914  25.515  1.00  0.00     0.000 C 
BRANCH   9  10
ATOM     10  C   UNL     1      -4.245  37.983  26.190  1.00  0.00     0.000 C 
BRANCH  10  11
ATOM     11  C   UNL     1      -2.831  38.605  26.250  1.00  0.00     0.000 C 
BRANCH  11  12
ATOM     12  C   UNL     1      -2.039  38.220  27.510  1.00  0.00     0.000 C 
BRANCH  12  13
ATOM     13  C   UNL     1      -2.371  36.806  28.017  1.00  0.00     0.006 C 
BRANCH  13  14
ATOM     14  C   UNL     1      -1.118  35.933  28.165  1.00  0.00     0.053 C 
BRANCH  14  15
ATOM     15  C   UNL     1      -1.252  34.955  29.292  1.00  0.00     0.041 C 
ATOM     16  O   UNL     1      -0.301  34.181  29.575  1.00  0.00    -0.550 OA
ATOM     17  O   UNL     1      -2.413  34.926  30.054  1.00  0.00    -0.550 OA
ENDBRANCH  14  15
ENDBRANCH  13  14
ENDBRANCH  12  13
ENDBRANCH  11  12
ENDBRANCH  10  11
ENDBRANCH   9  10
ENDBRANCH   8   9
ENDBRANCH   7   8
ENDBRANCH   6   7
ENDBRANCH   5   6
ENDBRANCH   4   5
ENDBRANCH   3   4
ENDBRANCH   2   3
ENDBRANCH   1   2
BRANCH   1  18
ATOM     18  C   UNL     1      -5.209  35.129  23.550  1.00  0.00     0.000 C 
BRANCH  18  19
ATOM     19  C   UNL     1      -4.596  34.238  22.459  1.00  0.00     0.000 C 
BRANCH  19  20
ATOM     20  C   UNL     1      -3.211  34.753  22.052  1.00  0.00     0.000 C 
BRANCH  20  21
ATOM     21  C   UNL     1      -3.227  35.334  20.633  1.00  0.00     0.000 C 
BRANCH  21  22
ATOM     22  C   UNL     1      -4.590  35.169  19.936  1.00  0.00     0.000 C 
BRANCH  22  23
ATOM     23  C   UNL     1      -4.515  34.922  18.417  1.00  0.00     0.000 C 
BRANCH  23  24
ATOM     24  C   UNL     1      -4.264  36.211  17.615  1.00  0.00    -0.000 C 
BRANCH  24  25
ATOM     25  C   UNL     1      -3.180  36.030  16.534  1.00  0.00    -0.000 C 
BRANCH  25  26
ATOM     26  C   UNL     1      -2.885  37.305  15.716  1.00  0.00    -0.000 C 
BRANCH  26  27
ATOM     27  C   UNL     1      -1.450  37.842  15.884  1.00  0.00    -0.000 C 
BRANCH  27  28
ATOM     28  C   UNL     1      -0.640  37.048  16.919  1.00  0.00    -0.000 C 
BRANCH  28  29
ATOM     29  C   UNL     1       0.252  37.982  17.749  1.00  0.00    -0.000 C 
BRANCH  29  30
ATOM     30  C   UNL     1      -0.550  38.921  18.669  1.00  0.00    -0.000 C 
BRANCH  30  31
ATOM     31  C   UNL     1      -1.625  38.227  19.526  1.00  0.00    -0.003 C 
ATOM     32  C   UNL     1      -3.050  38.592  19.114  1.00  0.00     0.004 C 
ENDBRANCH  30  31
ENDBRANCH  29  30
ENDBRANCH  28  29
ENDBRANCH  27  28
ENDBRANCH  26  27
ENDBRANCH  25  26
ENDBRANCH  24  25
ENDBRANCH  23  24
ENDBRANCH  22  23
ENDBRANCH  21  22
ENDBRANCH  20  21
ENDBRANCH  19  20
ENDBRANCH  18  19
ENDBRANCH   1  18
TORSDOF 28
ENDMDL
