MODEL 1
REMARK VINA RESULT:    34.516      0.000      0.000
REMARK INTER + INTRA:          40.323
REMARK INTER:                  40.569
REMARK INTRA:                  -0.246
REMARK UNBOUND:                -0.246
REMARK SMILES O=c1c(O)c(-c2ccc(O)cc2)oc2cc(O)cc(O)c12
REMARK SMILES IDX 5 1 3 2 2 3 1 4 21 5 19 6 18 7 16 8 15 9 14 10 13 11 6 12
REMARK SMILES IDX 7 13 8 14 9 15 12 16 11 17 10 18 4 20 20 22 17 24
REMARK H PARENT 10 19 4 21 20 23 17 25
REMARK Flexibility Score: inf
ROOT
ATOM      1  C   UNL     1      -3.244  -0.620   2.443  1.00  0.00     0.180 A 
ATOM      2  C   UNL     1      -3.648   0.225   3.492  1.00  0.00     0.208 A 
ATOM      3  C   UNL     1      -2.671   0.790   4.326  1.00  0.00     0.238 A 
ATOM      4  O   UNL     1      -3.035   1.588   5.229  1.00  0.00    -0.285 OA
ATOM      5  C   UNL     1      -1.303   0.491   4.112  1.00  0.00     0.111 A 
ATOM      6  C   UNL     1      -0.232   0.976   4.922  1.00  0.00     0.134 A 
ATOM      7  C   UNL     1       1.092   0.721   4.540  1.00  0.00     0.093 A 
ATOM      8  C   UNL     1       1.380  -0.054   3.415  1.00  0.00     0.123 A 
ATOM      9  C   UNL     1       0.340  -0.581   2.653  1.00  0.00     0.094 A 
ATOM     10  C   UNL     1      -0.990  -0.315   2.987  1.00  0.00     0.146 A 
ATOM     11  O   UNL     1      -1.950  -0.828   2.228  1.00  0.00    -0.452 OA
ENDROOT
BRANCH   1  12
ATOM     12  C   UNL     1      -4.217  -1.272   1.537  1.00  0.00     0.021 A 
ATOM     13  C   UNL     1      -4.333  -0.826   0.210  1.00  0.00     0.016 A 
ATOM     14  C   UNL     1      -5.230  -1.442  -0.669  1.00  0.00     0.047 A 
ATOM     15  C   UNL     1      -6.008  -2.521  -0.238  1.00  0.00     0.115 A 
ATOM     16  C   UNL     1      -4.988  -2.371   1.958  1.00  0.00     0.016 A 
ATOM     17  C   UNL     1      -5.883  -2.986   1.077  1.00  0.00     0.047 A 
BRANCH  15  18
ATOM     18  O   UNL     1      -6.897  -3.125  -1.124  1.00  0.00    -0.508 OA
ATOM     19  H   UNL     1      -6.571  -3.686  -1.901  1.00  0.00     0.293 HD
ENDBRANCH  15  18
ENDBRANCH   1  12
BRANCH   2  20
ATOM     20  O   UNL     1      -5.001   0.524   3.671  1.00  0.00    -0.502 OA
ATOM     21  H   UNL     1      -5.344   1.030   4.479  1.00  0.00     0.293 HD
ENDBRANCH   2  20
BRANCH   6  22
ATOM     22  O   UNL     1      -0.412   1.681   6.115  1.00  0.00    -0.507 OA
ATOM     23  H   UNL     1      -0.105   1.364   7.022  1.00  0.00     0.293 HD
ENDBRANCH   6  22
BRANCH   8  24
ATOM     24  O   UNL     1       2.699  -0.316   3.050  1.00  0.00    -0.508 OA
ATOM     25  H   UNL     1       2.926  -1.002   2.340  1.00  0.00     0.293 HD
ENDBRANCH   8  24
TORSDOF 5
ENDMDL
MODEL 2
REMARK VINA RESULT:    34.592      0.114      1.063
REMARK INTER + INTRA:          40.413
REMARK INTER:                  40.646
REMARK INTRA:                  -0.233
REMARK UNBOUND:                -0.246
REMARK SMILES O=c1c(O)c(-c2ccc(O)cc2)oc2cc(O)cc(O)c12
REMARK SMILES IDX 5 1 3 2 2 3 1 4 21 5 19 6 18 7 16 8 15 9 14 10 13 11 6 12
REMARK SMILES IDX 7 13 8 14 9 15 12 16 11 17 10 18 4 20 20 22 17 24
REMARK H PARENT 10 19 4 21 20 23 17 25
REMARK Flexibility Score: inf
ROOT
ATOM      1  C   UNL     1      -3.264  -0.653   2.333  1.00  0.00     0.180 A 
ATOM      2  C   UNL     1      -3.679   0.190   3.380  1.00  0.00     0.208 A 
ATOM      3  C   UNL     1      -2.710   0.744   4.232  1.00  0.00     0.238 A 
ATOM      4  O   UNL     1      -3.082   1.541   5.132  1.00  0.00    -0.285 OA
ATOM      5  C   UNL     1      -1.342   0.437   4.038  1.00  0.00     0.111 A 
ATOM      6  C   UNL     1      -0.280   0.910   4.866  1.00  0.00     0.134 A 
ATOM      7  C   UNL     1       1.048   0.649   4.503  1.00  0.00     0.093 A 
ATOM      8  C   UNL     1       1.349  -0.124   3.379  1.00  0.00     0.123 A 
ATOM      9  C   UNL     1       0.316  -0.640   2.599  1.00  0.00     0.094 A 
ATOM     10  C   UNL     1      -1.016  -0.366   2.914  1.00  0.00     0.146 A 
ATOM     11  O   UNL     1      -1.969  -0.869   2.137  1.00  0.00    -0.452 OA
ENDROOT
BRANCH   1  12
ATOM     12  C   UNL     1      -4.227  -1.294   1.410  1.00  0.00     0.021 A 
ATOM     13  C   UNL     1      -4.990  -2.387   1.856  1.00  0.00     0.016 A 
ATOM     14  C   UNL     1      -5.922  -2.994   1.008  1.00  0.00     0.047 A 
ATOM     15  C   UNL     1      -6.114  -2.508  -0.289  1.00  0.00     0.115 A 
ATOM     16  C   UNL     1      -4.439  -0.799   0.110  1.00  0.00     0.016 A 
ATOM     17  C   UNL     1      -5.372  -1.407  -0.735  1.00  0.00     0.047 A 
BRANCH  15  18
ATOM     18  O   UNL     1      -7.044  -3.123  -1.124  1.00  0.00    -0.508 OA
ATOM     19  H   UNL     1      -8.024  -2.867  -1.104  1.00  0.00     0.293 HD
ENDBRANCH  15  18
ENDBRANCH   1  12
BRANCH   2  20
ATOM     20  O   UNL     1      -5.032   0.498   3.540  1.00  0.00    -0.502 OA
ATOM     21  H   UNL     1      -5.414   1.407   3.312  1.00  0.00     0.293 HD
ENDBRANCH   2  20
BRANCH   6  22
ATOM     22  O   UNL     1      -0.474   1.611   6.060  1.00  0.00    -0.507 OA
ATOM     23  H   UNL     1      -0.930   1.237   6.878  1.00  0.00     0.293 HD
ENDBRANCH   6  22
BRANCH   8  24
ATOM     24  O   UNL     1       2.671  -0.393   3.034  1.00  0.00    -0.508 OA
ATOM     25  H   UNL     1       3.104  -1.284   3.248  1.00  0.00     0.293 HD
ENDBRANCH   8  24
TORSDOF 5
ENDMDL
