MODEL 1
REMARK VINA RESULT:    -2.801      0.000      0.000
REMARK INTER + INTRA:         -12.086
REMARK INTER:                  -7.058
REMARK INTRA:                  -5.028
REMARK UNBOUND:                -5.028
REMARK SMILES CCCCCCCCCCCCCCCCCCCCCCCCCCCC(=O)[O-]
REMARK SMILES IDX 15 1 16 2 17 3 18 4 19 5 20 6 21 7 22 8 23 9 24 10 25 11
REMARK SMILES IDX 26 12 27 13 28 14 29 15 30 16 14 17 13 18 12 19 11 20 10 21
REMARK SMILES IDX 9 22 8 23 7 24 6 25 5 26 4 27 3 28 2 29 1 30
REMARK H PARENT
REMARK Flexibility Score: inf
ROOT
ATOM      1  C   UNL     1      32.163   5.712  19.795  1.00  0.00     0.000 C 
ENDROOT
BRANCH   1   2
ATOM      2  C   UNL     1      32.210   4.953  21.126  1.00  0.00     0.000 C 
BRANCH   2   3
ATOM      3  C   UNL     1      33.644   4.513  21.461  1.00  0.00     0.000 C 
BRANCH   3   4
ATOM      4  C   UNL     1      34.700   5.539  21.020  1.00  0.00     0.000 C 
BRANCH   4   5
ATOM      5  C   UNL     1      35.914   4.954  20.274  1.00  0.00     0.000 C 
BRANCH   5   6
ATOM      6  C   UNL     1      37.268   5.570  20.689  1.00  0.00     0.000 C 
BRANCH   6   7
ATOM      7  C   UNL     1      37.203   6.338  22.023  1.00  0.00     0.000 C 
BRANCH   7   8
ATOM      8  C   UNL     1      38.178   5.782  23.078  1.00  0.00     0.000 C 
BRANCH   8   9
ATOM      9  C   UNL     1      38.326   6.643  24.349  1.00  0.00     0.000 C 
BRANCH   9  10
ATOM     10  C   UNL     1      38.236   8.160  24.114  1.00  0.00     0.000 C 
BRANCH  10  11
ATOM     11  C   UNL     1      39.535   8.746  23.532  1.00  0.00     0.000 C 
BRANCH  11  12
ATOM     12  C   UNL     1      39.283   9.688  22.341  1.00  0.00     0.006 C 
BRANCH  12  13
ATOM     13  C   UNL     1      39.569   9.058  20.968  1.00  0.00     0.053 C 
BRANCH  13  14
ATOM     14  C   UNL     1      40.763   8.156  21.004  1.00  0.00     0.041 C 
ATOM     15  O   UNL     1      40.624   6.913  20.863  1.00  0.00    -0.550 OA
ATOM     16  O   UNL     1      42.035   8.695  21.156  1.00  0.00    -0.550 OA
ENDBRANCH  13  14
ENDBRANCH  12  13
ENDBRANCH  11  12
ENDBRANCH  10  11
ENDBRANCH   9  10
ENDBRANCH   8   9
ENDBRANCH   7   8
ENDBRANCH   6   7
ENDBRANCH   5   6
ENDBRANCH   4   5
ENDBRANCH   3   4
ENDBRANCH   2   3
ENDBRANCH   1   2
BRANCH   1  17
ATOM     17  C   UNL     1      31.396   7.033  19.937  1.00  0.00     0.000 C 
BRANCH  17  18
ATOM     18  C   UNL     1      31.224   7.409  21.417  1.00  0.00     0.000 C 
BRANCH  18  19
ATOM     19  C   UNL     1      31.922   8.729  21.780  1.00  0.00     0.000 C 
BRANCH  19  20
ATOM     20  C   UNL     1      31.214   9.481  22.918  1.00  0.00     0.000 C 
BRANCH  20  21
ATOM     21  C   UNL     1      32.096  10.618  23.458  1.00  0.00     0.000 C 
BRANCH  21  22
ATOM     22  C   UNL     1      33.289  10.926  22.540  1.00  0.00    -0.000 C 
BRANCH  22  23
ATOM     23  C   UNL     1      34.527  11.403  23.314  1.00  0.00    -0.000 C 
BRANCH  23  24
ATOM     24  C   UNL     1      35.785  10.663  22.839  1.00  0.00    -0.000 C 
BRANCH  24  25
ATOM     25  C   UNL     1      35.422   9.428  22.004  1.00  0.00    -0.000 C 
BRANCH  25  26
ATOM     26  C   UNL     1      35.893   9.533  20.541  1.00  0.00    -0.000 C 
BRANCH  26  27
ATOM     27  C   UNL     1      34.896   8.938  19.526  1.00  0.00    -0.000 C 
BRANCH  27  28
ATOM     28  C   UNL     1      33.913   9.991  18.989  1.00  0.00    -0.000 C 
BRANCH  28  29
ATOM     29  C   UNL     1      33.133   9.453  17.783  1.00  0.00    -0.003 C 
ATOM     30  C   UNL     1      34.054   8.719  16.813  1.00  0.00     0.004 C 
ENDBRANCH  28  29
ENDBRANCH  27  28
ENDBRANCH  26  27
ENDBRANCH  25  26
ENDBRANCH  24  25
ENDBRANCH  23  24
ENDBRANCH  22  23
ENDBRANCH  21  22
ENDBRANCH  20  21
ENDBRANCH  19  20
ENDBRANCH  18  19
ENDBRANCH  17  18
ENDBRANCH   1  17
TORSDOF 26
ENDMDL
MODEL 2
REMARK VINA RESULT:    -2.745      3.122      5.840
REMARK INTER + INTRA:         -11.945
REMARK INTER:                  -6.568
REMARK INTRA:                  -5.377
REMARK UNBOUND:                -5.028
REMARK SMILES CCCCCCCCCCCCCCCCCCCCCCCCCCCC(=O)[O-]
REMARK SMILES IDX 15 1 16 2 17 3 18 4 19 5 20 6 21 7 22 8 23 9 24 10 25 11
REMARK SMILES IDX 26 12 27 13 28 14 29 15 30 16 14 17 13 18 12 19 11 20 10 21
REMARK SMILES IDX 9 22 8 23 7 24 6 25 5 26 4 27 3 28 2 29 1 30
REMARK H PARENT
REMARK Flexibility Score: inf
ROOT
ATOM      1  C   UNL     1      35.796   9.877  21.913  1.00  0.00     0.000 C 
ENDROOT
BRANCH   1   2
ATOM      2  C   UNL     1      36.784  10.223  23.033  1.00  0.00     0.000 C 
BRANCH   2   3
ATOM      3  C   UNL     1      38.200   9.730  22.693  1.00  0.00     0.000 C 
BRANCH   3   4
ATOM      4  C   UNL     1      38.670   8.591  23.612  1.00  0.00     0.000 C 
BRANCH   4   5
ATOM      5  C   UNL     1      38.626   7.183  22.988  1.00  0.00     0.000 C 
BRANCH   5   6
ATOM      6  C   UNL     1      37.255   6.482  23.107  1.00  0.00     0.000 C 
BRANCH   6   7
ATOM      7  C   UNL     1      36.602   6.187  21.744  1.00  0.00     0.000 C 
BRANCH   7   8
ATOM      8  C   UNL     1      37.529   5.401  20.797  1.00  0.00     0.000 C 
BRANCH   8   9
ATOM      9  C   UNL     1      36.872   4.198  20.090  1.00  0.00     0.000 C 
BRANCH   9  10
ATOM     10  C   UNL     1      35.851   4.570  19.001  1.00  0.00     0.000 C 
BRANCH  10  11
ATOM     11  C   UNL     1      34.516   3.823  19.163  1.00  0.00     0.000 C 
BRANCH  11  12
ATOM     12  C   UNL     1      34.341   3.212  20.565  1.00  0.00     0.006 C 
BRANCH  12  13
ATOM     13  C   UNL     1      33.265   3.898  21.421  1.00  0.00     0.053 C 
BRANCH  13  14
ATOM     14  C   UNL     1      31.883   3.484  21.021  1.00  0.00     0.041 C 
ATOM     15  O   UNL     1      31.560   2.267  21.020  1.00  0.00    -0.550 OA
ATOM     16  O   UNL     1      30.940   4.448  20.686  1.00  0.00    -0.550 OA
ENDBRANCH  13  14
ENDBRANCH  12  13
ENDBRANCH  11  12
ENDBRANCH  10  11
ENDBRANCH   9  10
ENDBRANCH   8   9
ENDBRANCH   7   8
ENDBRANCH   6   7
ENDBRANCH   5   6
ENDBRANCH   4   5
ENDBRANCH   3   4
ENDBRANCH   2   3
ENDBRANCH   1   2
BRANCH   1  17
ATOM     17  C   UNL     1      34.601  10.838  21.911  1.00  0.00     0.000 C 
BRANCH  17  18
ATOM     18  C   UNL     1      34.067  11.051  23.335  1.00  0.00     0.000 C 
BRANCH  18  19
ATOM     19  C   UNL     1      32.584  10.674  23.477  1.00  0.00     0.000 C 
BRANCH  19  20
ATOM     20  C   UNL     1      31.979  10.145  22.168  1.00  0.00     0.000 C 
BRANCH  20  21
ATOM     21  C   UNL     1      31.238   8.818  22.402  1.00  0.00     0.000 C 
BRANCH  21  22
ATOM     22  C   UNL     1      31.594   7.751  21.356  1.00  0.00    -0.000 C 
BRANCH  22  23
ATOM     23  C   UNL     1      33.109   7.546  21.209  1.00  0.00    -0.000 C 
BRANCH  23  24
ATOM     24  C   UNL     1      33.489   7.323  19.739  1.00  0.00    -0.000 C 
BRANCH  24  25
ATOM     25  C   UNL     1      32.797   8.343  18.825  1.00  0.00    -0.000 C 
BRANCH  25  26
ATOM     26  C   UNL     1      33.658   9.591  18.557  1.00  0.00    -0.000 C 
BRANCH  26  27
ATOM     27  C   UNL     1      35.112   9.266  18.157  1.00  0.00    -0.000 C 
BRANCH  27  28
ATOM     28  C   UNL     1      36.038  10.485  18.288  1.00  0.00    -0.000 C 
BRANCH  28  29
ATOM     29  C   UNL     1      37.489  10.051  18.528  1.00  0.00    -0.003 C 
ATOM     30  C   UNL     1      37.561   8.598  18.991  1.00  0.00     0.004 C 
ENDBRANCH  28  29
ENDBRANCH  27  28
ENDBRANCH  26  27
ENDBRANCH  25  26
ENDBRANCH  24  25
ENDBRANCH  23  24
ENDBRANCH  22  23
ENDBRANCH  21  22
ENDBRANCH  20  21
ENDBRANCH  19  20
ENDBRANCH  18  19
ENDBRANCH  17  18
ENDBRANCH   1  17
TORSDOF 26
ENDMDL
MODEL 3
REMARK VINA RESULT:    -2.684      2.985      5.770
REMARK INTER + INTRA:         -11.792
REMARK INTER:                  -6.802
REMARK INTRA:                  -4.990
REMARK UNBOUND:                -5.028
REMARK SMILES CCCCCCCCCCCCCCCCCCCCCCCCCCCC(=O)[O-]
REMARK SMILES IDX 15 1 16 2 17 3 18 4 19 5 20 6 21 7 22 8 23 9 24 10 25 11
REMARK SMILES IDX 26 12 27 13 28 14 29 15 30 16 14 17 13 18 12 19 11 20 10 21
REMARK SMILES IDX 9 22 8 23 7 24 6 25 5 26 4 27 3 28 2 29 1 30
REMARK H PARENT
REMARK Flexibility Score: inf
ROOT
ATOM      1  C   UNL     1      32.684   7.396  20.342  1.00  0.00     0.000 C 
ENDROOT
BRANCH   1   2
ATOM      2  C   UNL     1      31.248   6.861  20.293  1.00  0.00     0.000 C 
BRANCH   2   3
ATOM      3  C   UNL     1      31.188   5.396  20.755  1.00  0.00     0.000 C 
BRANCH   3   4
ATOM      4  C   UNL     1      32.325   5.030  21.722  1.00  0.00     0.000 C 
BRANCH   4   5
ATOM      5  C   UNL     1      32.794   3.563  21.660  1.00  0.00     0.000 C 
BRANCH   5   6
ATOM      6  C   UNL     1      32.020   2.696  20.643  1.00  0.00     0.000 C 
BRANCH   6   7
ATOM      7  C   UNL     1      32.909   1.666  19.922  1.00  0.00     0.000 C 
BRANCH   7   8
ATOM      8  C   UNL     1      34.386   1.750  20.351  1.00  0.00     0.000 C 
BRANCH   8   9
ATOM      9  C   UNL     1      35.355   2.255  19.262  1.00  0.00     0.000 C 
BRANCH   9  10
ATOM     10  C   UNL     1      35.917   3.666  19.503  1.00  0.00     0.000 C 
BRANCH  10  11
ATOM     11  C   UNL     1      34.967   4.773  19.012  1.00  0.00     0.000 C 
BRANCH  11  12
ATOM     12  C   UNL     1      34.340   4.455  17.642  1.00  0.00     0.006 C 
BRANCH  12  13
ATOM     13  C   UNL     1      32.819   4.668  17.581  1.00  0.00     0.053 C 
BRANCH  13  14
ATOM     14  C   UNL     1      32.459   5.927  16.856  1.00  0.00     0.041 C 
ATOM     15  O   UNL     1      33.346   6.779  16.583  1.00  0.00    -0.550 OA
ATOM     16  O   UNL     1      31.148   6.142  16.448  1.00  0.00    -0.550 OA
ENDBRANCH  13  14
ENDBRANCH  12  13
ENDBRANCH  11  12
ENDBRANCH  10  11
ENDBRANCH   9  10
ENDBRANCH   8   9
ENDBRANCH   7   8
ENDBRANCH   6   7
ENDBRANCH   5   6
ENDBRANCH   4   5
ENDBRANCH   3   4
ENDBRANCH   2   3
ENDBRANCH   1   2
BRANCH   1  17
ATOM     17  C   UNL     1      32.760   8.705  21.137  1.00  0.00     0.000 C 
BRANCH  17  18
ATOM     18  C   UNL     1      31.572   8.830  22.103  1.00  0.00     0.000 C 
BRANCH  18  19
ATOM     19  C   UNL     1      31.703  10.029  23.055  1.00  0.00     0.000 C 
BRANCH  19  20
ATOM     20  C   UNL     1      32.635  11.121  22.509  1.00  0.00     0.000 C 
BRANCH  20  21
ATOM     21  C   UNL     1      33.898  11.251  23.377  1.00  0.00     0.000 C 
BRANCH  21  22
ATOM     22  C   UNL     1      35.110  11.758  22.582  1.00  0.00    -0.000 C 
BRANCH  22  23
ATOM     23  C   UNL     1      36.409  11.024  22.946  1.00  0.00    -0.000 C 
BRANCH  23  24
ATOM     24  C   UNL     1      36.324   9.541  22.560  1.00  0.00    -0.000 C 
BRANCH  24  25
ATOM     25  C   UNL     1      36.478   9.352  21.045  1.00  0.00    -0.000 C 
BRANCH  25  26
ATOM     26  C   UNL     1      36.372   7.879  20.610  1.00  0.00    -0.000 C 
BRANCH  26  27
ATOM     27  C   UNL     1      36.569   6.877  21.766  1.00  0.00    -0.000 C 
BRANCH  27  28
ATOM     28  C   UNL     1      37.848   6.041  21.601  1.00  0.00    -0.000 C 
BRANCH  28  29
ATOM     29  C   UNL     1      38.437   5.660  22.965  1.00  0.00    -0.003 C 
ATOM     30  C   UNL     1      37.849   6.521  24.080  1.00  0.00     0.004 C 
ENDBRANCH  28  29
ENDBRANCH  27  28
ENDBRANCH  26  27
ENDBRANCH  25  26
ENDBRANCH  24  25
ENDBRANCH  23  24
ENDBRANCH  22  23
ENDBRANCH  21  22
ENDBRANCH  20  21
ENDBRANCH  19  20
ENDBRANCH  18  19
ENDBRANCH  17  18
ENDBRANCH   1  17
TORSDOF 26
ENDMDL
MODEL 4
REMARK VINA RESULT:    -2.667      1.813      5.091
REMARK INTER + INTRA:         -11.749
REMARK INTER:                  -6.656
REMARK INTRA:                  -5.093
REMARK UNBOUND:                -5.028
REMARK SMILES CCCCCCCCCCCCCCCCCCCCCCCCCCCC(=O)[O-]
REMARK SMILES IDX 15 1 16 2 17 3 18 4 19 5 20 6 21 7 22 8 23 9 24 10 25 11
REMARK SMILES IDX 26 12 27 13 28 14 29 15 30 16 14 17 13 18 12 19 11 20 10 21
REMARK SMILES IDX 9 22 8 23 7 24 6 25 5 26 4 27 3 28 2 29 1 30
REMARK H PARENT
REMARK Flexibility Score: inf
ROOT
ATOM      1  C   UNL     1      32.160   5.735  19.606  1.00  0.00     0.000 C 
ENDROOT
BRANCH   1   2
ATOM      2  C   UNL     1      31.348   6.992  19.939  1.00  0.00     0.000 C 
BRANCH   2   3
ATOM      3  C   UNL     1      31.413   7.309  21.442  1.00  0.00     0.000 C 
BRANCH   3   4
ATOM      4  C   UNL     1      31.993   8.704  21.731  1.00  0.00     0.000 C 
BRANCH   4   5
ATOM      5  C   UNL     1      31.272   9.498  22.837  1.00  0.00     0.000 C 
BRANCH   5   6
ATOM      6  C   UNL     1      32.158  10.553  23.535  1.00  0.00     0.000 C 
BRANCH   6   7
ATOM      7  C   UNL     1      32.462  11.776  22.649  1.00  0.00     0.000 C 
BRANCH   7   8
ATOM      8  C   UNL     1      33.968  12.087  22.560  1.00  0.00     0.000 C 
BRANCH   8   9
ATOM      9  C   UNL     1      34.749  11.243  21.532  1.00  0.00     0.000 C 
BRANCH   9  10
ATOM     10  C   UNL     1      35.647  10.153  22.142  1.00  0.00     0.000 C 
BRANCH  10  11
ATOM     11  C   UNL     1      36.861  10.735  22.886  1.00  0.00     0.000 C 
BRANCH  11  12
ATOM     12  C   UNL     1      37.885   9.659  23.289  1.00  0.00     0.006 C 
BRANCH  12  13
ATOM     13  C   UNL     1      37.455   8.222  22.953  1.00  0.00     0.053 C 
BRANCH  13  14
ATOM     14  C   UNL     1      38.192   7.211  23.774  1.00  0.00     0.041 C 
ATOM     15  O   UNL     1      38.211   7.304  25.030  1.00  0.00    -0.550 OA
ATOM     16  O   UNL     1      38.828   6.142  23.153  1.00  0.00    -0.550 OA
ENDBRANCH  13  14
ENDBRANCH  12  13
ENDBRANCH  11  12
ENDBRANCH  10  11
ENDBRANCH   9  10
ENDBRANCH   8   9
ENDBRANCH   7   8
ENDBRANCH   6   7
ENDBRANCH   5   6
ENDBRANCH   4   5
ENDBRANCH   3   4
ENDBRANCH   2   3
ENDBRANCH   1   2
BRANCH   1  17
ATOM     17  C   UNL     1      32.740   5.097  20.874  1.00  0.00     0.000 C 
BRANCH  17  18
ATOM     18  C   UNL     1      34.255   4.884  20.737  1.00  0.00     0.000 C 
BRANCH  18  19
ATOM     19  C   UNL     1      35.062   6.167  20.993  1.00  0.00     0.000 C 
BRANCH  19  20
ATOM     20  C   UNL     1      35.589   6.804  19.699  1.00  0.00     0.000 C 
BRANCH  20  21
ATOM     21  C   UNL     1      34.876   8.135  19.410  1.00  0.00     0.000 C 
BRANCH  21  22
ATOM     22  C   UNL     1      35.348   8.786  18.102  1.00  0.00    -0.000 C 
BRANCH  22  23
ATOM     23  C   UNL     1      35.295  10.320  18.148  1.00  0.00    -0.000 C 
BRANCH  23  24
ATOM     24  C   UNL     1      36.207  10.929  17.075  1.00  0.00    -0.000 C 
BRANCH  24  25
ATOM     25  C   UNL     1      37.647  11.075  17.586  1.00  0.00    -0.000 C 
BRANCH  25  26
ATOM     26  C   UNL     1      37.732  11.163  19.121  1.00  0.00    -0.000 C 
BRANCH  26  27
ATOM     27  C   UNL     1      38.839  10.278  19.732  1.00  0.00    -0.000 C 
BRANCH  27  28
ATOM     28  C   UNL     1      38.874   8.875  19.106  1.00  0.00    -0.000 C 
BRANCH  28  29
ATOM     29  C   UNL     1      39.534   7.866  20.053  1.00  0.00    -0.003 C 
ATOM     30  C   UNL     1      40.526   8.553  20.987  1.00  0.00     0.004 C 
ENDBRANCH  28  29
ENDBRANCH  27  28
ENDBRANCH  26  27
ENDBRANCH  25  26
ENDBRANCH  24  25
ENDBRANCH  23  24
ENDBRANCH  22  23
ENDBRANCH  21  22
ENDBRANCH  20  21
ENDBRANCH  19  20
ENDBRANCH  18  19
ENDBRANCH  17  18
ENDBRANCH   1  17
TORSDOF 26
ENDMDL
MODEL 5
REMARK VINA RESULT:    -2.625      1.279      2.479
REMARK INTER + INTRA:         -11.643
REMARK INTER:                  -6.307
REMARK INTRA:                  -5.337
REMARK UNBOUND:                -5.028
REMARK SMILES CCCCCCCCCCCCCCCCCCCCCCCCCCCC(=O)[O-]
REMARK SMILES IDX 15 1 16 2 17 3 18 4 19 5 20 6 21 7 22 8 23 9 24 10 25 11
REMARK SMILES IDX 26 12 27 13 28 14 29 15 30 16 14 17 13 18 12 19 11 20 10 21
REMARK SMILES IDX 9 22 8 23 7 24 6 25 5 26 4 27 3 28 2 29 1 30
REMARK H PARENT
REMARK Flexibility Score: inf
ROOT
ATOM      1  C   UNL     1      31.705   7.745  20.932  1.00  0.00     0.000 C 
ENDROOT
BRANCH   1   2
ATOM      2  C   UNL     1      31.836   6.304  21.439  1.00  0.00     0.000 C 
BRANCH   2   3
ATOM      3  C   UNL     1      32.549   5.417  20.404  1.00  0.00     0.000 C 
BRANCH   3   4
ATOM      4  C   UNL     1      33.833   4.776  20.954  1.00  0.00     0.000 C 
BRANCH   4   5
ATOM      5  C   UNL     1      35.031   5.732  21.107  1.00  0.00     0.000 C 
BRANCH   5   6
ATOM      6  C   UNL     1      35.532   6.334  19.776  1.00  0.00     0.000 C 
BRANCH   6   7
ATOM      7  C   UNL     1      37.047   6.157  19.560  1.00  0.00     0.000 C 
BRANCH   7   8
ATOM      8  C   UNL     1      37.644   5.029  20.423  1.00  0.00     0.000 C 
BRANCH   8   9
ATOM      9  C   UNL     1      38.776   5.464  21.375  1.00  0.00     0.000 C 
BRANCH   9  10
ATOM     10  C   UNL     1      38.459   5.304  22.871  1.00  0.00     0.000 C 
BRANCH  10  11
ATOM     11  C   UNL     1      37.739   6.532  23.457  1.00  0.00     0.000 C 
BRANCH  11  12
ATOM     12  C   UNL     1      38.507   7.168  24.630  1.00  0.00     0.006 C 
BRANCH  12  13
ATOM     13  C   UNL     1      39.989   7.447  24.336  1.00  0.00     0.053 C 
BRANCH  13  14
ATOM     14  C   UNL     1      40.167   8.615  23.417  1.00  0.00     0.041 C 
ATOM     15  O   UNL     1      40.193   9.787  23.877  1.00  0.00    -0.550 OA
ATOM     16  O   UNL     1      40.344   8.405  22.054  1.00  0.00    -0.550 OA
ENDBRANCH  13  14
ENDBRANCH  12  13
ENDBRANCH  11  12
ENDBRANCH  10  11
ENDBRANCH   9  10
ENDBRANCH   8   9
ENDBRANCH   7   8
ENDBRANCH   6   7
ENDBRANCH   5   6
ENDBRANCH   4   5
ENDBRANCH   3   4
ENDBRANCH   2   3
ENDBRANCH   1   2
BRANCH   1  17
ATOM     17  C   UNL     1      32.865   8.616  21.431  1.00  0.00     0.000 C 
BRANCH  17  18
ATOM     18  C   UNL     1      32.352   9.745  22.337  1.00  0.00     0.000 C 
BRANCH  18  19
ATOM     19  C   UNL     1      32.562  11.140  21.726  1.00  0.00     0.000 C 
BRANCH  19  20
ATOM     20  C   UNL     1      33.425  12.051  22.611  1.00  0.00     0.000 C 
BRANCH  20  21
ATOM     21  C   UNL     1      34.420  11.226  23.445  1.00  0.00     0.000 C 
BRANCH  21  22
ATOM     22  C   UNL     1      35.882  11.529  23.087  1.00  0.00    -0.000 C 
BRANCH  22  23
ATOM     23  C   UNL     1      36.760  10.269  23.058  1.00  0.00    -0.000 C 
BRANCH  23  24
ATOM     24  C   UNL     1      36.397   9.378  21.862  1.00  0.00    -0.000 C 
BRANCH  24  25
ATOM     25  C   UNL     1      37.353   9.611  20.685  1.00  0.00    -0.000 C 
BRANCH  25  26
ATOM     26  C   UNL     1      36.729  10.463  19.564  1.00  0.00    -0.000 C 
BRANCH  26  27
ATOM     27  C   UNL     1      35.312  10.008  19.157  1.00  0.00    -0.000 C 
BRANCH  27  28
ATOM     28  C   UNL     1      34.477  11.158  18.571  1.00  0.00    -0.000 C 
BRANCH  28  29
ATOM     29  C   UNL     1      33.169  10.635  17.966  1.00  0.00    -0.003 C 
ATOM     30  C   UNL     1      33.199   9.118  17.812  1.00  0.00     0.004 C 
ENDBRANCH  28  29
ENDBRANCH  27  28
ENDBRANCH  26  27
ENDBRANCH  25  26
ENDBRANCH  24  25
ENDBRANCH  23  24
ENDBRANCH  22  23
ENDBRANCH  21  22
ENDBRANCH  20  21
ENDBRANCH  19  20
ENDBRANCH  18  19
ENDBRANCH  17  18
ENDBRANCH   1  17
TORSDOF 26
ENDMDL
MODEL 6
REMARK VINA RESULT:    -2.621      1.667      2.088
REMARK INTER + INTRA:         -11.632
REMARK INTER:                  -6.163
REMARK INTRA:                  -5.470
REMARK UNBOUND:                -5.028
REMARK SMILES CCCCCCCCCCCCCCCCCCCCCCCCCCCC(=O)[O-]
REMARK SMILES IDX 15 1 16 2 17 3 18 4 19 5 20 6 21 7 22 8 23 9 24 10 25 11
REMARK SMILES IDX 26 12 27 13 28 14 29 15 30 16 14 17 13 18 12 19 11 20 10 21
REMARK SMILES IDX 9 22 8 23 7 24 6 25 5 26 4 27 3 28 2 29 1 30
REMARK H PARENT
REMARK Flexibility Score: inf
ROOT
ATOM      1  C   UNL     1      32.006   6.230  20.601  1.00  0.00     0.000 C 
ENDROOT
BRANCH   1   2
ATOM      2  C   UNL     1      32.240   4.949  21.410  1.00  0.00     0.000 C 
BRANCH   2   3
ATOM      3  C   UNL     1      33.741   4.706  21.639  1.00  0.00     0.000 C 
BRANCH   3   4
ATOM      4  C   UNL     1      34.532   4.589  20.326  1.00  0.00     0.000 C 
BRANCH   4   5
ATOM      5  C   UNL     1      35.825   5.426  20.261  1.00  0.00     0.000 C 
BRANCH   5   6
ATOM      6  C   UNL     1      36.003   6.405  21.442  1.00  0.00     0.000 C 
BRANCH   6   7
ATOM      7  C   UNL     1      37.291   6.157  22.249  1.00  0.00     0.000 C 
BRANCH   7   8
ATOM      8  C   UNL     1      37.528   7.225  23.334  1.00  0.00     0.000 C 
BRANCH   8   9
ATOM      9  C   UNL     1      38.886   7.950  23.251  1.00  0.00     0.000 C 
BRANCH   9  10
ATOM     10  C   UNL     1      38.964   9.054  22.183  1.00  0.00     0.000 C 
BRANCH  10  11
ATOM     11  C   UNL     1      40.029   8.765  21.110  1.00  0.00     0.000 C 
BRANCH  11  12
ATOM     12  C   UNL     1      39.489   7.909  19.950  1.00  0.00     0.006 C 
BRANCH  12  13
ATOM     13  C   UNL     1      38.230   8.479  19.278  1.00  0.00     0.053 C 
BRANCH  13  14
ATOM     14  C   UNL     1      38.569   9.412  18.158  1.00  0.00     0.041 C 
ATOM     15  O   UNL     1      38.329   9.086  16.965  1.00  0.00    -0.550 OA
ATOM     16  O   UNL     1      39.114  10.660  18.434  1.00  0.00    -0.550 OA
ENDBRANCH  13  14
ENDBRANCH  12  13
ENDBRANCH  11  12
ENDBRANCH  10  11
ENDBRANCH   9  10
ENDBRANCH   8   9
ENDBRANCH   7   8
ENDBRANCH   6   7
ENDBRANCH   5   6
ENDBRANCH   4   5
ENDBRANCH   3   4
ENDBRANCH   2   3
ENDBRANCH   1   2
BRANCH   1  17
ATOM     17  C   UNL     1      31.171   7.242  21.396  1.00  0.00     0.000 C 
BRANCH  17  18
ATOM     18  C   UNL     1      32.011   8.472  21.771  1.00  0.00     0.000 C 
BRANCH  18  19
ATOM     19  C   UNL     1      31.256   9.453  22.681  1.00  0.00     0.000 C 
BRANCH  19  20
ATOM     20  C   UNL     1      31.862  10.865  22.663  1.00  0.00     0.000 C 
BRANCH  20  21
ATOM     21  C   UNL     1      33.013  10.982  23.675  1.00  0.00     0.000 C 
BRANCH  21  22
ATOM     22  C   UNL     1      34.263  11.643  23.074  1.00  0.00    -0.000 C 
BRANCH  22  23
ATOM     23  C   UNL     1      35.451  10.676  22.961  1.00  0.00    -0.000 C 
BRANCH  23  24
ATOM     24  C   UNL     1      35.505  10.041  21.565  1.00  0.00    -0.000 C 
BRANCH  24  25
ATOM     25  C   UNL     1      36.135  10.997  20.543  1.00  0.00    -0.000 C 
BRANCH  25  26
ATOM     26  C   UNL     1      35.227  11.257  19.326  1.00  0.00    -0.000 C 
BRANCH  26  27
ATOM     27  C   UNL     1      33.803  10.684  19.482  1.00  0.00    -0.000 C 
BRANCH  27  28
ATOM     28  C   UNL     1      33.469   9.651  18.394  1.00  0.00    -0.000 C 
BRANCH  28  29
ATOM     29  C   UNL     1      34.172   8.316  18.669  1.00  0.00    -0.003 C 
ATOM     30  C   UNL     1      35.012   7.879  17.473  1.00  0.00     0.004 C 
ENDBRANCH  28  29
ENDBRANCH  27  28
ENDBRANCH  26  27
ENDBRANCH  25  26
ENDBRANCH  24  25
ENDBRANCH  23  24
ENDBRANCH  22  23
ENDBRANCH  21  22
ENDBRANCH  20  21
ENDBRANCH  19  20
ENDBRANCH  18  19
ENDBRANCH  17  18
ENDBRANCH   1  17
TORSDOF 26
ENDMDL
MODEL 7
REMARK VINA RESULT:    -2.576      1.874      5.611
REMARK INTER + INTRA:         -11.519
REMARK INTER:                  -6.509
REMARK INTRA:                  -5.010
REMARK UNBOUND:                -5.028
REMARK SMILES CCCCCCCCCCCCCCCCCCCCCCCCCCCC(=O)[O-]
REMARK SMILES IDX 15 1 16 2 17 3 18 4 19 5 20 6 21 7 22 8 23 9 24 10 25 11
REMARK SMILES IDX 26 12 27 13 28 14 29 15 30 16 14 17 13 18 12 19 11 20 10 21
REMARK SMILES IDX 9 22 8 23 7 24 6 25 5 26 4 27 3 28 2 29 1 30
REMARK H PARENT
REMARK Flexibility Score: inf
ROOT
ATOM      1  C   UNL     1      36.744  10.836  22.838  1.00  0.00     0.000 C 
ENDROOT
BRANCH   1   2
ATOM      2  C   UNL     1      37.564   9.542  22.891  1.00  0.00     0.000 C 
BRANCH   2   3
ATOM      3  C   UNL     1      38.308   9.305  21.566  1.00  0.00     0.000 C 
BRANCH   3   4
ATOM      4  C   UNL     1      38.064  10.422  20.539  1.00  0.00     0.000 C 
BRANCH   4   5
ATOM      5  C   UNL     1      37.264  10.003  19.290  1.00  0.00     0.000 C 
BRANCH   5   6
ATOM      6  C   UNL     1      35.917  10.741  19.126  1.00  0.00     0.000 C 
BRANCH   6   7
ATOM      7  C   UNL     1      34.702   9.795  19.110  1.00  0.00     0.000 C 
BRANCH   7   8
ATOM      8  C   UNL     1      35.047   8.395  18.567  1.00  0.00     0.000 C 
BRANCH   8   9
ATOM      9  C   UNL     1      34.682   7.224  19.502  1.00  0.00     0.000 C 
BRANCH   9  10
ATOM     10  C   UNL     1      35.172   7.380  20.951  1.00  0.00     0.000 C 
BRANCH  10  11
ATOM     11  C   UNL     1      36.150   6.267  21.368  1.00  0.00     0.000 C 
BRANCH  11  12
ATOM     12  C   UNL     1      36.811   5.573  20.163  1.00  0.00     0.006 C 
BRANCH  12  13
ATOM     13  C   UNL     1      38.174   6.161  19.766  1.00  0.00     0.053 C 
BRANCH  13  14
ATOM     14  C   UNL     1      38.431   6.034  18.297  1.00  0.00     0.041 C 
ATOM     15  O   UNL     1      37.478   6.097  17.476  1.00  0.00    -0.550 OA
ATOM     16  O   UNL     1      39.732   5.884  17.831  1.00  0.00    -0.550 OA
ENDBRANCH  13  14
ENDBRANCH  12  13
ENDBRANCH  11  12
ENDBRANCH  10  11
ENDBRANCH   9  10
ENDBRANCH   8   9
ENDBRANCH   7   8
ENDBRANCH   6   7
ENDBRANCH   5   6
ENDBRANCH   4   5
ENDBRANCH   3   4
ENDBRANCH   2   3
ENDBRANCH   1   2
BRANCH   1  17
ATOM     17  C   UNL     1      35.240  10.542  22.911  1.00  0.00     0.000 C 
BRANCH  17  18
ATOM     18  C   UNL     1      34.426  11.711  22.335  1.00  0.00     0.000 C 
BRANCH  18  19
ATOM     19  C   UNL     1      32.959  11.338  22.065  1.00  0.00     0.000 C 
BRANCH  19  20
ATOM     20  C   UNL     1      32.208  10.929  23.340  1.00  0.00     0.000 C 
BRANCH  20  21
ATOM     21  C   UNL     1      31.270   9.740  23.068  1.00  0.00     0.000 C 
BRANCH  21  22
ATOM     22  C   UNL     1      31.774   8.840  21.931  1.00  0.00    -0.000 C 
BRANCH  22  23
ATOM     23  C   UNL     1      30.914   7.580  21.745  1.00  0.00    -0.000 C 
BRANCH  23  24
ATOM     24  C   UNL     1      31.793   6.361  21.434  1.00  0.00    -0.000 C 
BRANCH  24  25
ATOM     25  C   UNL     1      31.180   5.504  20.318  1.00  0.00    -0.000 C 
BRANCH  25  26
ATOM     26  C   UNL     1      31.512   4.007  20.461  1.00  0.00    -0.000 C 
BRANCH  26  27
ATOM     27  C   UNL     1      32.694   3.722  21.411  1.00  0.00    -0.000 C 
BRANCH  27  28
ATOM     28  C   UNL     1      33.958   3.289  20.653  1.00  0.00    -0.000 C 
BRANCH  28  29
ATOM     29  C   UNL     1      34.042   1.761  20.551  1.00  0.00    -0.003 C 
ATOM     30  C   UNL     1      33.721   1.284  19.138  1.00  0.00     0.004 C 
ENDBRANCH  28  29
ENDBRANCH  27  28
ENDBRANCH  26  27
ENDBRANCH  25  26
ENDBRANCH  24  25
ENDBRANCH  23  24
ENDBRANCH  22  23
ENDBRANCH  21  22
ENDBRANCH  20  21
ENDBRANCH  19  20
ENDBRANCH  18  19
ENDBRANCH  17  18
ENDBRANCH   1  17
TORSDOF 26
ENDMDL
MODEL 8
REMARK VINA RESULT:    -2.556      2.034      4.201
REMARK INTER + INTRA:         -11.469
REMARK INTER:                  -6.072
REMARK INTRA:                  -5.397
REMARK UNBOUND:                -5.028
REMARK SMILES CCCCCCCCCCCCCCCCCCCCCCCCCCCC(=O)[O-]
REMARK SMILES IDX 15 1 16 2 17 3 18 4 19 5 20 6 21 7 22 8 23 9 24 10 25 11
REMARK SMILES IDX 26 12 27 13 28 14 29 15 30 16 14 17 13 18 12 19 11 20 10 21
REMARK SMILES IDX 9 22 8 23 7 24 6 25 5 26 4 27 3 28 2 29 1 30
REMARK H PARENT
REMARK Flexibility Score: inf
ROOT
ATOM      1  C   UNL     1      32.008   7.417  20.088  1.00  0.00     0.000 C 
ENDROOT
BRANCH   1   2
ATOM      2  C   UNL     1      31.699   6.512  21.286  1.00  0.00     0.000 C 
BRANCH   2   3
ATOM      3  C   UNL     1      32.092   5.055  20.994  1.00  0.00     0.000 C 
BRANCH   3   4
ATOM      4  C   UNL     1      33.354   4.615  21.754  1.00  0.00     0.000 C 
BRANCH   4   5
ATOM      5  C   UNL     1      34.604   4.397  20.880  1.00  0.00     0.000 C 
BRANCH   5   6
ATOM      6  C   UNL     1      34.379   4.672  19.377  1.00  0.00     0.000 C 
BRANCH   6   7
ATOM      7  C   UNL     1      35.670   5.059  18.630  1.00  0.00     0.000 C 
BRANCH   7   8
ATOM      8  C   UNL     1      36.940   4.790  19.458  1.00  0.00     0.000 C 
BRANCH   8   9
ATOM      9  C   UNL     1      38.204   5.528  18.973  1.00  0.00     0.000 C 
BRANCH   9  10
ATOM     10  C   UNL     1      38.037   6.291  17.648  1.00  0.00     0.000 C 
BRANCH  10  11
ATOM     11  C   UNL     1      38.065   7.818  17.838  1.00  0.00     0.000 C 
BRANCH  11  12
ATOM     12  C   UNL     1      39.362   8.312  18.505  1.00  0.00     0.006 C 
BRANCH  12  13
ATOM     13  C   UNL     1      39.209   9.629  19.282  1.00  0.00     0.053 C 
BRANCH  13  14
ATOM     14  C   UNL     1      39.749  10.796  18.516  1.00  0.00     0.041 C 
ATOM     15  O   UNL     1      39.197  11.163  17.445  1.00  0.00    -0.550 OA
ATOM     16  O   UNL     1      40.839  11.504  19.007  1.00  0.00    -0.550 OA
ENDBRANCH  13  14
ENDBRANCH  12  13
ENDBRANCH  11  12
ENDBRANCH  10  11
ENDBRANCH   9  10
ENDBRANCH   8   9
ENDBRANCH   7   8
ENDBRANCH   6   7
ENDBRANCH   5   6
ENDBRANCH   4   5
ENDBRANCH   3   4
ENDBRANCH   2   3
ENDBRANCH   1   2
BRANCH   1  17
ATOM     17  C   UNL     1      33.095   8.442  20.434  1.00  0.00     0.000 C 
BRANCH  17  18
ATOM     18  C   UNL     1      34.252   8.374  19.425  1.00  0.00     0.000 C 
BRANCH  18  19
ATOM     19  C   UNL     1      35.631   8.504  20.092  1.00  0.00     0.000 C 
BRANCH  19  20
ATOM     20  C   UNL     1      35.598   8.172  21.591  1.00  0.00     0.000 C 
BRANCH  20  21
ATOM     21  C   UNL     1      36.808   7.311  21.990  1.00  0.00     0.000 C 
BRANCH  21  22
ATOM     22  C   UNL     1      38.019   8.155  22.415  1.00  0.00    -0.000 C 
BRANCH  22  23
ATOM     23  C   UNL     1      37.620   9.415  23.198  1.00  0.00    -0.000 C 
BRANCH  23  24
ATOM     24  C   UNL     1      38.472  10.616  22.768  1.00  0.00    -0.000 C 
BRANCH  24  25
ATOM     25  C   UNL     1      37.665  11.920  22.828  1.00  0.00    -0.000 C 
BRANCH  25  26
ATOM     26  C   UNL     1      36.274  11.795  22.180  1.00  0.00    -0.000 C 
BRANCH  26  27
ATOM     27  C   UNL     1      35.111  12.125  23.139  1.00  0.00    -0.000 C 
BRANCH  27  28
ATOM     28  C   UNL     1      34.092  10.979  23.234  1.00  0.00    -0.000 C 
BRANCH  28  29
ATOM     29  C   UNL     1      32.737  11.397  22.652  1.00  0.00    -0.003 C 
ATOM     30  C   UNL     1      31.632  10.436  23.080  1.00  0.00     0.004 C 
ENDBRANCH  28  29
ENDBRANCH  27  28
ENDBRANCH  26  27
ENDBRANCH  25  26
ENDBRANCH  24  25
ENDBRANCH  23  24
ENDBRANCH  22  23
ENDBRANCH  21  22
ENDBRANCH  20  21
ENDBRANCH  19  20
ENDBRANCH  18  19
ENDBRANCH  17  18
ENDBRANCH   1  17
TORSDOF 26
ENDMDL
MODEL 9
REMARK VINA RESULT:    -2.548      2.539      6.718
REMARK INTER + INTRA:         -11.448
REMARK INTER:                  -6.130
REMARK INTRA:                  -5.319
REMARK UNBOUND:                -5.028
REMARK SMILES CCCCCCCCCCCCCCCCCCCCCCCCCCCC(=O)[O-]
REMARK SMILES IDX 15 1 16 2 17 3 18 4 19 5 20 6 21 7 22 8 23 9 24 10 25 11
REMARK SMILES IDX 26 12 27 13 28 14 29 15 30 16 14 17 13 18 12 19 11 20 10 21
REMARK SMILES IDX 9 22 8 23 7 24 6 25 5 26 4 27 3 28 2 29 1 30
REMARK H PARENT
REMARK Flexibility Score: inf
ROOT
ATOM      1  C   UNL     1      36.594   8.648  21.273  1.00  0.00     0.000 C 
ENDROOT
BRANCH   1   2
ATOM      2  C   UNL     1      36.257   9.533  22.479  1.00  0.00     0.000 C 
BRANCH   2   3
ATOM      3  C   UNL     1      36.653  10.995  22.219  1.00  0.00     0.000 C 
BRANCH   3   4
ATOM      4  C   UNL     1      35.443  11.942  22.176  1.00  0.00     0.000 C 
BRANCH   4   5
ATOM      5  C   UNL     1      34.391  11.713  23.278  1.00  0.00     0.000 C 
BRANCH   5   6
ATOM      6  C   UNL     1      32.935  11.679  22.765  1.00  0.00     0.000 C 
BRANCH   6   7
ATOM      7  C   UNL     1      32.069  10.611  23.459  1.00  0.00     0.000 C 
BRANCH   7   8
ATOM      8  C   UNL     1      31.729   9.427  22.534  1.00  0.00     0.000 C 
BRANCH   8   9
ATOM      9  C   UNL     1      32.726   9.192  21.382  1.00  0.00     0.000 C 
BRANCH   9  10
ATOM     10  C   UNL     1      32.922   7.717  20.990  1.00  0.00     0.000 C 
BRANCH  10  11
ATOM     11  C   UNL     1      33.085   7.525  19.472  1.00  0.00     0.000 C 
BRANCH  11  12
ATOM     12  C   UNL     1      33.172   8.860  18.709  1.00  0.00     0.006 C 
BRANCH  12  13
ATOM     13  C   UNL     1      34.605   9.296  18.365  1.00  0.00     0.053 C 
BRANCH  13  14
ATOM     14  C   UNL     1      34.843  10.739  18.685  1.00  0.00     0.041 C 
ATOM     15  O   UNL     1      33.881  11.484  19.011  1.00  0.00    -0.550 OA
ATOM     16  O   UNL     1      36.134  11.251  18.661  1.00  0.00    -0.550 OA
ENDBRANCH  13  14
ENDBRANCH  12  13
ENDBRANCH  11  12
ENDBRANCH  10  11
ENDBRANCH   9  10
ENDBRANCH   8   9
ENDBRANCH   7   8
ENDBRANCH   6   7
ENDBRANCH   5   6
ENDBRANCH   4   5
ENDBRANCH   3   4
ENDBRANCH   2   3
ENDBRANCH   1   2
BRANCH   1  17
ATOM     17  C   UNL     1      36.328   7.169  21.579  1.00  0.00     0.000 C 
BRANCH  17  18
ATOM     18  C   UNL     1      37.509   6.295  21.132  1.00  0.00     0.000 C 
BRANCH  18  19
ATOM     19  C   UNL     1      38.537   6.066  22.251  1.00  0.00     0.000 C 
BRANCH  19  20
ATOM     20  C   UNL     1      37.939   6.253  23.653  1.00  0.00     0.000 C 
BRANCH  20  21
ATOM     21  C   UNL     1      38.654   7.384  24.410  1.00  0.00     0.000 C 
BRANCH  21  22
ATOM     22  C   UNL     1      39.826   7.978  23.613  1.00  0.00    -0.000 C 
BRANCH  22  23
ATOM     23  C   UNL     1      39.842   9.514  23.635  1.00  0.00    -0.000 C 
BRANCH  23  24
ATOM     24  C   UNL     1      40.131  10.075  22.236  1.00  0.00    -0.000 C 
BRANCH  24  25
ATOM     25  C   UNL     1      40.642   8.979  21.292  1.00  0.00    -0.000 C 
BRANCH  25  26
ATOM     26  C   UNL     1      39.886   8.942  19.951  1.00  0.00    -0.000 C 
BRANCH  26  27
ATOM     27  C   UNL     1      39.363  10.321  19.497  1.00  0.00    -0.000 C 
BRANCH  27  28
ATOM     28  C   UNL     1      39.912  10.728  18.121  1.00  0.00    -0.000 C 
BRANCH  28  29
ATOM     29  C   UNL     1      40.654  12.067  18.198  1.00  0.00    -0.003 C 
ATOM     30  C   UNL     1      42.102  11.872  18.638  1.00  0.00     0.004 C 
ENDBRANCH  28  29
ENDBRANCH  27  28
ENDBRANCH  26  27
ENDBRANCH  25  26
ENDBRANCH  24  25
ENDBRANCH  23  24
ENDBRANCH  22  23
ENDBRANCH  21  22
ENDBRANCH  20  21
ENDBRANCH  19  20
ENDBRANCH  18  19
ENDBRANCH  17  18
ENDBRANCH   1  17
TORSDOF 26
ENDMDL
