MODEL 1
REMARK VINA RESULT:    -7.102      0.000      0.000
REMARK INTER + INTRA:          -8.657
REMARK INTER:                  -8.347
REMARK INTRA:                  -0.310
REMARK UNBOUND:                -0.310
REMARK SMILES O=c1cc(-c2ccc(O)c(O)c2)oc2cc(O)cc(O)c12
REMARK SMILES IDX 4 1 3 2 2 3 1 4 21 5 19 6 18 7 16 8 15 9 14 10 13 11 5 12
REMARK SMILES IDX 6 13 7 14 8 15 12 16 10 17 9 18 11 20 20 22 17 24
REMARK H PARENT 9 19 11 21 20 23 17 25
REMARK Flexibility Score: inf
ROOT
ATOM      1  C   UNL     1      -2.707  -5.155  -4.160  1.00  0.00     0.138 A 
ATOM      2  C   UNL     1      -3.954  -5.698  -4.498  1.00  0.00     0.100 A 
ATOM      3  C   UNL     1      -4.988  -4.853  -4.901  1.00  0.00     0.197 A 
ATOM      4  O   UNL     1      -6.077  -5.374  -5.257  1.00  0.00    -0.289 OA
ATOM      5  C   UNL     1      -4.780  -3.454  -4.937  1.00  0.00     0.107 A 
ATOM      6  C   UNL     1      -5.773  -2.493  -5.293  1.00  0.00     0.134 A 
ATOM      7  C   UNL     1      -5.418  -1.143  -5.406  1.00  0.00     0.093 A 
ATOM      8  C   UNL     1      -4.122  -0.712  -5.117  1.00  0.00     0.123 A 
ATOM      9  C   UNL     1      -3.159  -1.635  -4.716  1.00  0.00     0.094 A 
ATOM     10  C   UNL     1      -3.473  -2.993  -4.627  1.00  0.00     0.146 A 
ATOM     11  O   UNL     1      -2.520  -3.842  -4.256  1.00  0.00    -0.456 OA
ENDROOT
BRANCH   1  12
ATOM     12  C   UNL     1      -1.573  -6.008  -3.723  1.00  0.00     0.021 A 
ATOM     13  C   UNL     1      -1.544  -7.364  -4.095  1.00  0.00     0.016 A 
ATOM     14  C   UNL     1      -0.484  -8.186  -3.703  1.00  0.00     0.051 A 
ATOM     15  C   UNL     1       0.569  -7.665  -2.941  1.00  0.00     0.157 A 
ATOM     16  C   UNL     1      -0.503  -5.489  -2.968  1.00  0.00     0.062 A 
ATOM     17  C   UNL     1       0.561  -6.314  -2.576  1.00  0.00     0.158 A 
BRANCH  15  18
ATOM     18  O   UNL     1       1.627  -8.482  -2.547  1.00  0.00    -0.504 OA
ATOM     19  H   UNL     1       1.849  -8.627  -1.568  1.00  0.00     0.293 HD
ENDBRANCH  15  18
BRANCH  17  20
ATOM     20  O   UNL     1       1.616  -5.795  -1.827  1.00  0.00    -0.504 OA
ATOM     21  H   UNL     1       2.424  -6.358  -1.588  1.00  0.00     0.293 HD
ENDBRANCH  17  20
ENDBRANCH   1  12
BRANCH   6  22
ATOM     22  O   UNL     1      -7.116  -2.805  -5.520  1.00  0.00    -0.507 OA
ATOM     23  H   UNL     1      -7.868  -2.617  -4.875  1.00  0.00     0.293 HD
ENDBRANCH   6  22
BRANCH   8  24
ATOM     24  O   UNL     1      -3.781   0.636  -5.217  1.00  0.00    -0.508 OA
ATOM     25  H   UNL     1      -3.116   0.964  -5.907  1.00  0.00     0.293 HD
ENDBRANCH   8  24
TORSDOF 5
ENDMDL
MODEL 2
REMARK VINA RESULT:    -7.016      1.771      7.215
REMARK INTER + INTRA:          -8.556
REMARK INTER:                  -8.285
REMARK INTRA:                  -0.271
REMARK UNBOUND:                -0.310
REMARK SMILES O=c1cc(-c2ccc(O)c(O)c2)oc2cc(O)cc(O)c12
REMARK SMILES IDX 4 1 3 2 2 3 1 4 21 5 19 6 18 7 16 8 15 9 14 10 13 11 5 12
REMARK SMILES IDX 6 13 7 14 8 15 12 16 10 17 9 18 11 20 20 22 17 24
REMARK H PARENT 9 19 11 21 20 23 17 25
REMARK Flexibility Score: inf
ROOT
ATOM      1  C   UNL     1      -1.879  -4.121  -4.660  1.00  0.00     0.138 A 
ATOM      2  C   UNL     1      -0.860  -4.214  -5.619  1.00  0.00     0.100 A 
ATOM      3  C   UNL     1       0.172  -5.135  -5.442  1.00  0.00     0.197 A 
ATOM      4  O   UNL     1       1.038  -5.238  -6.349  1.00  0.00    -0.289 OA
ATOM      5  C   UNL     1       0.200  -5.947  -4.283  1.00  0.00     0.107 A 
ATOM      6  C   UNL     1       1.225  -6.891  -3.978  1.00  0.00     0.134 A 
ATOM      7  C   UNL     1       1.086  -7.722  -2.858  1.00  0.00     0.093 A 
ATOM      8  C   UNL     1      -0.010  -7.600  -2.001  1.00  0.00     0.123 A 
ATOM      9  C   UNL     1      -0.988  -6.643  -2.261  1.00  0.00     0.094 A 
ATOM     10  C   UNL     1      -0.895  -5.823  -3.388  1.00  0.00     0.146 A 
ATOM     11  O   UNL     1      -1.859  -4.934  -3.608  1.00  0.00    -0.456 OA
ENDROOT
BRANCH   1  12
ATOM     12  C   UNL     1      -3.000  -3.158  -4.798  1.00  0.00     0.021 A 
ATOM     13  C   UNL     1      -4.325  -3.626  -4.741  1.00  0.00     0.016 A 
ATOM     14  C   UNL     1      -5.398  -2.739  -4.860  1.00  0.00     0.051 A 
ATOM     15  C   UNL     1      -5.165  -1.368  -5.028  1.00  0.00     0.157 A 
ATOM     16  C   UNL     1      -2.775  -1.776  -4.953  1.00  0.00     0.062 A 
ATOM     17  C   UNL     1      -3.852  -0.886  -5.071  1.00  0.00     0.158 A 
BRANCH  15  18
ATOM     18  O   UNL     1      -6.233  -0.481  -5.148  1.00  0.00    -0.504 OA
ATOM     19  H   UNL     1      -6.126   0.418  -5.604  1.00  0.00     0.293 HD
ENDBRANCH  15  18
BRANCH  17  20
ATOM     20  O   UNL     1      -3.624   0.480  -5.227  1.00  0.00    -0.504 OA
ATOM     21  H   UNL     1      -4.388   1.135  -5.353  1.00  0.00     0.293 HD
ENDBRANCH  17  20
ENDBRANCH   1  12
BRANCH   6  22
ATOM     22  O   UNL     1       2.401  -7.036  -4.719  1.00  0.00    -0.507 OA
ATOM     23  H   UNL     1       2.965  -7.872  -4.748  1.00  0.00     0.293 HD
ENDBRANCH   6  22
BRANCH   8  24
ATOM     24  O   UNL     1      -0.131  -8.420  -0.881  1.00  0.00    -0.508 OA
ATOM     25  H   UNL     1      -0.775  -9.203  -0.866  1.00  0.00     0.293 HD
ENDBRANCH   8  24
TORSDOF 5
ENDMDL
MODEL 3
REMARK VINA RESULT:    -6.822      1.817      6.779
REMARK INTER + INTRA:          -8.328
REMARK INTER:                  -8.054
REMARK INTRA:                  -0.275
REMARK UNBOUND:                -0.310
REMARK SMILES O=c1cc(-c2ccc(O)c(O)c2)oc2cc(O)cc(O)c12
REMARK SMILES IDX 4 1 3 2 2 3 1 4 21 5 19 6 18 7 16 8 15 9 14 10 13 11 5 12
REMARK SMILES IDX 6 13 7 14 8 15 12 16 10 17 9 18 11 20 20 22 17 24
REMARK H PARENT 9 19 11 21 20 23 17 25
REMARK Flexibility Score: inf
ROOT
ATOM      1  C   UNL     1      -2.809  -3.862  -5.118  1.00  0.00     0.138 A 
ATOM      2  C   UNL     1      -3.205  -4.833  -6.048  1.00  0.00     0.100 A 
ATOM      3  C   UNL     1      -2.837  -6.164  -5.854  1.00  0.00     0.197 A 
ATOM      4  O   UNL     1      -3.260  -7.022  -6.672  1.00  0.00    -0.289 OA
ATOM      5  C   UNL     1      -2.042  -6.520  -4.739  1.00  0.00     0.107 A 
ATOM      6  C   UNL     1      -1.573  -7.838  -4.463  1.00  0.00     0.134 A 
ATOM      7  C   UNL     1      -0.891  -8.091  -3.265  1.00  0.00     0.093 A 
ATOM      8  C   UNL     1      -0.607  -7.061  -2.366  1.00  0.00     0.123 A 
ATOM      9  C   UNL     1      -1.014  -5.760  -2.653  1.00  0.00     0.094 A 
ATOM     10  C   UNL     1      -1.726  -5.482  -3.822  1.00  0.00     0.146 A 
ATOM     11  O   UNL     1      -2.109  -4.230  -4.050  1.00  0.00    -0.456 OA
ENDROOT
BRANCH   1  12
ATOM     12  C   UNL     1      -3.171  -2.430  -5.276  1.00  0.00     0.021 A 
ATOM     13  C   UNL     1      -2.702  -1.717  -6.394  1.00  0.00     0.016 A 
ATOM     14  C   UNL     1      -3.035  -0.372  -6.569  1.00  0.00     0.051 A 
ATOM     15  C   UNL     1      -3.850   0.282  -5.637  1.00  0.00     0.157 A 
ATOM     16  C   UNL     1      -4.001  -1.770  -4.350  1.00  0.00     0.062 A 
ATOM     17  C   UNL     1      -4.336  -0.419  -4.527  1.00  0.00     0.158 A 
BRANCH  15  18
ATOM     18  O   UNL     1      -4.183   1.624  -5.808  1.00  0.00    -0.504 OA
ATOM     19  H   UNL     1      -3.572   2.263  -6.303  1.00  0.00     0.293 HD
ENDBRANCH  15  18
BRANCH  17  20
ATOM     20  O   UNL     1      -5.157   0.230  -3.607  1.00  0.00    -0.504 OA
ATOM     21  H   UNL     1      -4.784   0.892  -2.937  1.00  0.00     0.293 HD
ENDBRANCH  17  20
ENDBRANCH   1  12
BRANCH   6  22
ATOM     22  O   UNL     1      -1.727  -8.921  -5.332  1.00  0.00    -0.507 OA
ATOM     23  H   UNL     1      -2.472  -9.599  -5.282  1.00  0.00     0.293 HD
ENDBRANCH   6  22
BRANCH   8  24
ATOM     24  O   UNL     1       0.086  -7.320  -1.185  1.00  0.00    -0.508 OA
ATOM     25  H   UNL     1      -0.038  -6.742  -0.361  1.00  0.00     0.293 HD
ENDBRANCH   8  24
TORSDOF 5
ENDMDL
MODEL 4
REMARK VINA RESULT:    -6.701      2.343      6.952
REMARK INTER + INTRA:          -8.186
REMARK INTER:                  -7.903
REMARK INTRA:                  -0.284
REMARK UNBOUND:                -0.310
REMARK SMILES O=c1cc(-c2ccc(O)c(O)c2)oc2cc(O)cc(O)c12
REMARK SMILES IDX 4 1 3 2 2 3 1 4 21 5 19 6 18 7 16 8 15 9 14 10 13 11 5 12
REMARK SMILES IDX 6 13 7 14 8 15 12 16 10 17 9 18 11 20 20 22 17 24
REMARK H PARENT 9 19 11 21 20 23 17 25
REMARK Flexibility Score: inf
ROOT
ATOM      1  C   UNL     1      -3.111  -2.876  -5.121  1.00  0.00     0.138 A 
ATOM      2  C   UNL     1      -3.870  -3.942  -4.621  1.00  0.00     0.100 A 
ATOM      3  C   UNL     1      -3.312  -5.219  -4.563  1.00  0.00     0.197 A 
ATOM      4  O   UNL     1      -3.996  -6.144  -4.052  1.00  0.00    -0.289 OA
ATOM      5  C   UNL     1      -1.996  -5.435  -5.037  1.00  0.00     0.107 A 
ATOM      6  C   UNL     1      -1.340  -6.701  -5.065  1.00  0.00     0.134 A 
ATOM      7  C   UNL     1       0.006  -6.773  -5.449  1.00  0.00     0.093 A 
ATOM      8  C   UNL     1       0.698  -5.633  -5.863  1.00  0.00     0.123 A 
ATOM      9  C   UNL     1       0.050  -4.401  -5.891  1.00  0.00     0.094 A 
ATOM     10  C   UNL     1      -1.281  -4.291  -5.482  1.00  0.00     0.146 A 
ATOM     11  O   UNL     1      -1.858  -3.094  -5.509  1.00  0.00    -0.456 OA
ENDROOT
BRANCH   1  12
ATOM     12  C   UNL     1      -3.656  -1.497  -5.207  1.00  0.00     0.021 A 
ATOM     13  C   UNL     1      -3.294  -0.677  -6.291  1.00  0.00     0.016 A 
ATOM     14  C   UNL     1      -3.799   0.622  -6.398  1.00  0.00     0.051 A 
ATOM     15  C   UNL     1      -4.680   1.119  -5.431  1.00  0.00     0.157 A 
ATOM     16  C   UNL     1      -4.553  -0.994  -4.245  1.00  0.00     0.062 A 
ATOM     17  C   UNL     1      -5.060   0.309  -4.354  1.00  0.00     0.158 A 
BRANCH  15  18
ATOM     18  O   UNL     1      -5.184   2.414  -5.534  1.00  0.00    -0.504 OA
ATOM     19  H   UNL     1      -4.571   3.218  -5.607  1.00  0.00     0.293 HD
ENDBRANCH  15  18
BRANCH  17  20
ATOM     20  O   UNL     1      -5.947   0.803  -3.399  1.00  0.00    -0.504 OA
ATOM     21  H   UNL     1      -5.619   1.290  -2.573  1.00  0.00     0.293 HD
ENDBRANCH  17  20
ENDBRANCH   1  12
BRANCH   6  22
ATOM     22  O   UNL     1      -1.964  -7.912  -4.753  1.00  0.00    -0.507 OA
ATOM     23  H   UNL     1      -2.957  -8.081  -4.813  1.00  0.00     0.293 HD
ENDBRANCH   6  22
BRANCH   8  24
ATOM     24  O   UNL     1       2.032  -5.716  -6.258  1.00  0.00    -0.508 OA
ATOM     25  H   UNL     1       2.300  -6.162  -7.128  1.00  0.00     0.293 HD
ENDBRANCH   8  24
TORSDOF 5
ENDMDL
MODEL 5
REMARK VINA RESULT:    -6.604      1.590      6.849
REMARK INTER + INTRA:          -8.072
REMARK INTER:                  -7.783
REMARK INTRA:                  -0.289
REMARK UNBOUND:                -0.310
REMARK SMILES O=c1cc(-c2ccc(O)c(O)c2)oc2cc(O)cc(O)c12
REMARK SMILES IDX 4 1 3 2 2 3 1 4 21 5 19 6 18 7 16 8 15 9 14 10 13 11 5 12
REMARK SMILES IDX 6 13 7 14 8 15 12 16 10 17 9 18 11 20 20 22 17 24
REMARK H PARENT 9 19 11 21 20 23 17 25
REMARK Flexibility Score: inf
ROOT
ATOM      1  C   UNL     1      -4.322  -3.085  -4.651  1.00  0.00     0.138 A 
ATOM      2  C   UNL     1      -5.138  -4.140  -5.080  1.00  0.00     0.100 A 
ATOM      3  C   UNL     1      -4.639  -5.443  -5.083  1.00  0.00     0.197 A 
ATOM      4  O   UNL     1      -5.415  -6.376  -5.416  1.00  0.00    -0.289 OA
ATOM      5  C   UNL     1      -3.304  -5.685  -4.681  1.00  0.00     0.107 A 
ATOM      6  C   UNL     1      -2.675  -6.966  -4.682  1.00  0.00     0.134 A 
ATOM      7  C   UNL     1      -1.385  -7.101  -4.152  1.00  0.00     0.093 A 
ATOM      8  C   UNL     1      -0.680  -5.993  -3.678  1.00  0.00     0.123 A 
ATOM      9  C   UNL     1      -1.265  -4.729  -3.724  1.00  0.00     0.094 A 
ATOM     10  C   UNL     1      -2.563  -4.567  -4.215  1.00  0.00     0.146 A 
ATOM     11  O   UNL     1      -3.090  -3.346  -4.226  1.00  0.00    -0.456 OA
ENDROOT
BRANCH   1  12
ATOM     12  C   UNL     1      -4.802  -1.680  -4.629  1.00  0.00     0.021 A 
ATOM     13  C   UNL     1      -6.047  -1.383  -4.046  1.00  0.00     0.016 A 
ATOM     14  C   UNL     1      -6.518  -0.068  -4.007  1.00  0.00     0.051 A 
ATOM     15  C   UNL     1      -5.749   0.973  -4.540  1.00  0.00     0.157 A 
ATOM     16  C   UNL     1      -4.029  -0.625  -5.152  1.00  0.00     0.062 A 
ATOM     17  C   UNL     1      -4.502   0.695  -5.111  1.00  0.00     0.158 A 
BRANCH  15  18
ATOM     18  O   UNL     1      -6.216   2.285  -4.504  1.00  0.00    -0.504 OA
ATOM     19  H   UNL     1      -7.171   2.502  -4.240  1.00  0.00     0.293 HD
ENDBRANCH  15  18
BRANCH  17  20
ATOM     20  O   UNL     1      -3.734   1.735  -5.630  1.00  0.00    -0.504 OA
ATOM     21  H   UNL     1      -3.119   1.596  -6.424  1.00  0.00     0.293 HD
ENDBRANCH  17  20
ENDBRANCH   1  12
BRANCH   6  22
ATOM     22  O   UNL     1      -3.257  -8.122  -5.209  1.00  0.00    -0.507 OA
ATOM     23  H   UNL     1      -2.796  -9.016  -5.284  1.00  0.00     0.293 HD
ENDBRANCH   6  22
BRANCH   8  24
ATOM     24  O   UNL     1       0.609  -6.135  -3.167  1.00  0.00    -0.508 OA
ATOM     25  H   UNL     1       1.325  -6.642  -3.673  1.00  0.00     0.293 HD
ENDBRANCH   8  24
TORSDOF 5
ENDMDL
MODEL 6
REMARK VINA RESULT:    -6.565      4.462      7.229
REMARK INTER + INTRA:          -8.027
REMARK INTER:                  -7.754
REMARK INTRA:                  -0.273
REMARK UNBOUND:                -0.310
REMARK SMILES O=c1cc(-c2ccc(O)c(O)c2)oc2cc(O)cc(O)c12
REMARK SMILES IDX 4 1 3 2 2 3 1 4 21 5 19 6 18 7 16 8 15 9 14 10 13 11 5 12
REMARK SMILES IDX 6 13 7 14 8 15 12 16 10 17 9 18 11 20 20 22 17 24
REMARK H PARENT 9 19 11 21 20 23 17 25
REMARK Flexibility Score: inf
ROOT
ATOM      1  C   UNL     1      -6.441   0.825  -4.981  1.00  0.00     0.138 A 
ATOM      2  C   UNL     1      -7.721   0.259  -5.041  1.00  0.00     0.100 A 
ATOM      3  C   UNL     1      -8.843   1.071  -4.875  1.00  0.00     0.197 A 
ATOM      4  O   UNL     1      -9.980   0.545  -4.995  1.00  0.00    -0.289 OA
ATOM      5  C   UNL     1      -8.680   2.453  -4.616  1.00  0.00     0.107 A 
ATOM      6  C   UNL     1      -9.750   3.369  -4.390  1.00  0.00     0.134 A 
ATOM      7  C   UNL     1      -9.472   4.736  -4.260  1.00  0.00     0.093 A 
ATOM      8  C   UNL     1      -8.159   5.210  -4.287  1.00  0.00     0.123 A 
ATOM      9  C   UNL     1      -7.103   4.316  -4.454  1.00  0.00     0.094 A 
ATOM     10  C   UNL     1      -7.350   2.952  -4.620  1.00  0.00     0.146 A 
ATOM     11  O   UNL     1      -6.316   2.135  -4.792  1.00  0.00    -0.456 OA
ENDROOT
BRANCH   1  12
ATOM     12  C   UNL     1      -5.212   0.007  -5.149  1.00  0.00     0.021 A 
ATOM     13  C   UNL     1      -4.243   0.401  -6.088  1.00  0.00     0.016 A 
ATOM     14  C   UNL     1      -3.075  -0.347  -6.261  1.00  0.00     0.051 A 
ATOM     15  C   UNL     1      -2.853  -1.496  -5.491  1.00  0.00     0.157 A 
ATOM     16  C   UNL     1      -4.975  -1.142  -4.370  1.00  0.00     0.062 A 
ATOM     17  C   UNL     1      -3.803  -1.892  -4.543  1.00  0.00     0.158 A 
BRANCH  15  18
ATOM     18  O   UNL     1      -1.690  -2.245  -5.661  1.00  0.00    -0.504 OA
ATOM     19  H   UNL     1      -1.423  -2.612  -6.568  1.00  0.00     0.293 HD
ENDBRANCH  15  18
BRANCH  17  20
ATOM     20  O   UNL     1      -3.573  -3.029  -3.770  1.00  0.00    -0.504 OA
ATOM     21  H   UNL     1      -3.090  -2.977  -2.880  1.00  0.00     0.293 HD
ENDBRANCH  17  20
ENDBRANCH   1  12
BRANCH   6  22
ATOM     22  O   UNL     1     -11.089   2.990  -4.260  1.00  0.00    -0.507 OA
ATOM     23  H   UNL     1     -11.626   3.055  -3.409  1.00  0.00     0.293 HD
ENDBRANCH   6  22
BRANCH   8  24
ATOM     24  O   UNL     1      -7.890   6.570  -4.141  1.00  0.00    -0.508 OA
ATOM     25  H   UNL     1      -6.981   6.957  -4.367  1.00  0.00     0.293 HD
ENDBRANCH   8  24
TORSDOF 5
ENDMDL
MODEL 7
REMARK VINA RESULT:    -6.553      4.383      9.779
REMARK INTER + INTRA:          -8.013
REMARK INTER:                  -7.725
REMARK INTRA:                  -0.288
REMARK UNBOUND:                -0.310
REMARK SMILES O=c1cc(-c2ccc(O)c(O)c2)oc2cc(O)cc(O)c12
REMARK SMILES IDX 4 1 3 2 2 3 1 4 21 5 19 6 18 7 16 8 15 9 14 10 13 11 5 12
REMARK SMILES IDX 6 13 7 14 8 15 12 16 10 17 9 18 11 20 20 22 17 24
REMARK H PARENT 9 19 11 21 20 23 17 25
REMARK Flexibility Score: inf
ROOT
ATOM      1  C   UNL     1      -6.341   1.771  -5.221  1.00  0.00     0.138 A 
ATOM      2  C   UNL     1      -5.237   2.141  -6.002  1.00  0.00     0.100 A 
ATOM      3  C   UNL     1      -4.281   1.185  -6.342  1.00  0.00     0.197 A 
ATOM      4  O   UNL     1      -3.334   1.533  -7.095  1.00  0.00    -0.289 OA
ATOM      5  C   UNL     1      -4.415  -0.144  -5.874  1.00  0.00     0.107 A 
ATOM      6  C   UNL     1      -3.481  -1.192  -6.124  1.00  0.00     0.134 A 
ATOM      7  C   UNL     1      -3.779  -2.496  -5.706  1.00  0.00     0.093 A 
ATOM      8  C   UNL     1      -4.947  -2.776  -4.994  1.00  0.00     0.123 A 
ATOM      9  C   UNL     1      -5.840  -1.748  -4.698  1.00  0.00     0.094 A 
ATOM     10  C   UNL     1      -5.588  -0.444  -5.130  1.00  0.00     0.146 A 
ATOM     11  O   UNL     1      -6.473   0.504  -4.839  1.00  0.00    -0.456 OA
ENDROOT
BRANCH   1  12
ATOM     12  C   UNL     1      -7.387   2.748  -4.828  1.00  0.00     0.021 A 
ATOM     13  C   UNL     1      -8.708   2.306  -4.632  1.00  0.00     0.016 A 
ATOM     14  C   UNL     1      -9.709   3.204  -4.254  1.00  0.00     0.051 A 
ATOM     15  C   UNL     1      -9.406   4.557  -4.057  1.00  0.00     0.157 A 
ATOM     16  C   UNL     1      -7.088   4.108  -4.615  1.00  0.00     0.062 A 
ATOM     17  C   UNL     1      -8.094   5.009  -4.235  1.00  0.00     0.158 A 
BRANCH  15  18
ATOM     18  O   UNL     1     -10.403   5.456  -3.682  1.00  0.00    -0.504 OA
ATOM     19  H   UNL     1     -11.325   5.141  -3.405  1.00  0.00     0.293 HD
ENDBRANCH  15  18
BRANCH  17  20
ATOM     20  O   UNL     1      -7.793   6.354  -4.026  1.00  0.00    -0.504 OA
ATOM     21  H   UNL     1      -6.838   6.692  -4.034  1.00  0.00     0.293 HD
ENDBRANCH  17  20
ENDBRANCH   1  12
BRANCH   6  22
ATOM     22  O   UNL     1      -2.246  -1.006  -6.751  1.00  0.00    -0.507 OA
ATOM     23  H   UNL     1      -2.079  -0.371  -7.517  1.00  0.00     0.293 HD
ENDBRANCH   6  22
BRANCH   8  24
ATOM     24  O   UNL     1      -5.228  -4.073  -4.569  1.00  0.00    -0.508 OA
ATOM     25  H   UNL     1      -4.918  -4.412  -3.665  1.00  0.00     0.293 HD
ENDBRANCH   8  24
TORSDOF 5
ENDMDL
MODEL 8
REMARK VINA RESULT:    -6.546      2.156      3.876
REMARK INTER + INTRA:          -8.004
REMARK INTER:                  -7.726
REMARK INTRA:                  -0.278
REMARK UNBOUND:                -0.310
REMARK SMILES O=c1cc(-c2ccc(O)c(O)c2)oc2cc(O)cc(O)c12
REMARK SMILES IDX 4 1 3 2 2 3 1 4 21 5 19 6 18 7 16 8 15 9 14 10 13 11 5 12
REMARK SMILES IDX 6 13 7 14 8 15 12 16 10 17 9 18 11 20 20 22 17 24
REMARK H PARENT 9 19 11 21 20 23 17 25
REMARK Flexibility Score: inf
ROOT
ATOM      1  C   UNL     1      -3.487  -2.400  -4.990  1.00  0.00     0.138 A 
ATOM      2  C   UNL     1      -2.757  -1.623  -5.899  1.00  0.00     0.100 A 
ATOM      3  C   UNL     1      -3.192  -0.335  -6.213  1.00  0.00     0.197 A 
ATOM      4  O   UNL     1      -2.483   0.360  -6.985  1.00  0.00    -0.289 OA
ATOM      5  C   UNL     1      -4.383   0.165  -5.634  1.00  0.00     0.107 A 
ATOM      6  C   UNL     1      -4.944   1.448  -5.911  1.00  0.00     0.134 A 
ATOM      7  C   UNL     1      -6.064   1.881  -5.189  1.00  0.00     0.093 A 
ATOM      8  C   UNL     1      -6.678   1.054  -4.246  1.00  0.00     0.123 A 
ATOM      9  C   UNL     1      -6.170  -0.221  -4.008  1.00  0.00     0.094 A 
ATOM     10  C   UNL     1      -5.034  -0.669  -4.686  1.00  0.00     0.146 A 
ATOM     11  O   UNL     1      -4.572  -1.886  -4.418  1.00  0.00    -0.456 OA
ENDROOT
BRANCH   1  12
ATOM     12  C   UNL     1      -3.070  -3.777  -4.622  1.00  0.00     0.021 A 
ATOM     13  C   UNL     1      -4.035  -4.797  -4.558  1.00  0.00     0.016 A 
ATOM     14  C   UNL     1      -3.667  -6.103  -4.222  1.00  0.00     0.051 A 
ATOM     15  C   UNL     1      -2.328  -6.412  -3.953  1.00  0.00     0.157 A 
ATOM     16  C   UNL     1      -1.723  -4.099  -4.364  1.00  0.00     0.062 A 
ATOM     17  C   UNL     1      -1.354  -5.409  -4.028  1.00  0.00     0.158 A 
BRANCH  15  18
ATOM     18  O   UNL     1      -1.958  -7.712  -3.616  1.00  0.00    -0.504 OA
ATOM     19  H   UNL     1      -2.628  -8.473  -3.621  1.00  0.00     0.293 HD
ENDBRANCH  15  18
BRANCH  17  20
ATOM     20  O   UNL     1      -0.021  -5.723  -3.772  1.00  0.00    -0.504 OA
ATOM     21  H   UNL     1       0.447  -5.404  -2.931  1.00  0.00     0.293 HD
ENDBRANCH  17  20
ENDBRANCH   1  12
BRANCH   6  22
ATOM     22  O   UNL     1      -4.461   2.317  -6.892  1.00  0.00    -0.507 OA
ATOM     23  H   UNL     1      -4.599   3.316  -6.896  1.00  0.00     0.293 HD
ENDBRANCH   6  22
BRANCH   8  24
ATOM     24  O   UNL     1      -7.802   1.487  -3.545  1.00  0.00    -0.508 OA
ATOM     25  H   UNL     1      -7.718   1.969  -2.657  1.00  0.00     0.293 HD
ENDBRANCH   8  24
TORSDOF 5
ENDMDL
MODEL 9
REMARK VINA RESULT:    -6.503      4.857     10.136
REMARK INTER + INTRA:          -7.954
REMARK INTER:                  -7.671
REMARK INTRA:                  -0.282
REMARK UNBOUND:                -0.310
REMARK SMILES O=c1cc(-c2ccc(O)c(O)c2)oc2cc(O)cc(O)c12
REMARK SMILES IDX 4 1 3 2 2 3 1 4 21 5 19 6 18 7 16 8 15 9 14 10 13 11 5 12
REMARK SMILES IDX 6 13 7 14 8 15 12 16 10 17 9 18 11 20 20 22 17 24
REMARK H PARENT 9 19 11 21 20 23 17 25
REMARK Flexibility Score: inf
ROOT
ATOM      1  C   UNL     1      -6.523   2.420  -5.200  1.00  0.00     0.138 A 
ATOM      2  C   UNL     1      -7.066   1.615  -4.189  1.00  0.00     0.100 A 
ATOM      3  C   UNL     1      -6.534   0.347  -3.956  1.00  0.00     0.197 A 
ATOM      4  O   UNL     1      -7.002  -0.327  -3.003  1.00  0.00    -0.289 OA
ATOM      5  C   UNL     1      -5.472  -0.129  -4.761  1.00  0.00     0.107 A 
ATOM      6  C   UNL     1      -4.877  -1.420  -4.641  1.00  0.00     0.134 A 
ATOM      7  C   UNL     1      -3.753  -1.737  -5.415  1.00  0.00     0.093 A 
ATOM      8  C   UNL     1      -3.242  -0.832  -6.347  1.00  0.00     0.123 A 
ATOM      9  C   UNL     1      -3.849   0.411  -6.510  1.00  0.00     0.094 A 
ATOM     10  C   UNL     1      -4.950   0.770  -5.729  1.00  0.00     0.146 A 
ATOM     11  O   UNL     1      -5.489   1.972  -5.905  1.00  0.00    -0.456 OA
ENDROOT
BRANCH   1  12
ATOM     12  C   UNL     1      -7.052   3.777  -5.492  1.00  0.00     0.021 A 
ATOM     13  C   UNL     1      -7.116   4.222  -6.824  1.00  0.00     0.016 A 
ATOM     14  C   UNL     1      -7.617   5.492  -7.125  1.00  0.00     0.051 A 
ATOM     15  C   UNL     1      -8.070   6.333  -6.102  1.00  0.00     0.157 A 
ATOM     16  C   UNL     1      -7.523   4.624  -4.469  1.00  0.00     0.062 A 
ATOM     17  C   UNL     1      -8.026   5.897  -4.773  1.00  0.00     0.158 A 
BRANCH  15  18
ATOM     18  O   UNL     1      -8.569   7.600  -6.399  1.00  0.00    -0.504 OA
ATOM     19  H   UNL     1      -9.428   7.943  -5.984  1.00  0.00     0.293 HD
ENDBRANCH  15  18
BRANCH  17  20
ATOM     20  O   UNL     1      -8.490   6.733  -3.758  1.00  0.00    -0.504 OA
ATOM     21  H   UNL     1      -9.175   6.416  -3.081  1.00  0.00     0.293 HD
ENDBRANCH  17  20
ENDBRANCH   1  12
BRANCH   6  22
ATOM     22  O   UNL     1      -5.361  -2.428  -3.803  1.00  0.00    -0.507 OA
ATOM     23  H   UNL     1      -6.275  -2.435  -3.377  1.00  0.00     0.293 HD
ENDBRANCH   6  22
BRANCH   8  24
ATOM     24  O   UNL     1      -2.133  -1.162  -7.125  1.00  0.00    -0.508 OA
ATOM     25  H   UNL     1      -1.889  -0.629  -7.952  1.00  0.00     0.293 HD
ENDBRANCH   8  24
TORSDOF 5
ENDMDL
