MODEL 1
REMARK VINA RESULT:    12.869      0.000      0.000
REMARK INTER + INTRA:          19.875
REMARK INTER:                  20.392
REMARK INTRA:                  -0.517
REMARK UNBOUND:                -0.517
REMARK SMILES CCCCCCCCCCCC(=O)[O-]
REMARK SMILES IDX 7 1 8 2 9 3 10 4 11 5 12 6 13 7 14 8 6 9 5 10 4 11 3 12 2 13
REMARK SMILES IDX 1 14
REMARK H PARENT
REMARK Flexibility Score: inf
ROOT
ATOM      1  C   UNL     1     -25.119  -3.420 -12.100  1.00  0.00     0.000 C 
ENDROOT
BRANCH   1   2
ATOM      2  C   UNL     1     -24.356  -3.391 -13.434  1.00  0.00     0.000 C 
BRANCH   2   3
ATOM      3  C   UNL     1     -25.198  -3.915 -14.611  1.00  0.00     0.000 C 
BRANCH   3   4
ATOM      4  C   UNL     1     -24.729  -3.358 -15.965  1.00  0.00     0.006 C 
BRANCH   4   5
ATOM      5  C   UNL     1     -25.049  -4.299 -17.133  1.00  0.00     0.053 C 
BRANCH   5   6
ATOM      6  C   UNL     1     -23.809  -4.608 -17.910  1.00  0.00     0.041 C 
ATOM      7  O   UNL     1     -23.773  -5.607 -18.676  1.00  0.00    -0.550 OA
ATOM      8  O   UNL     1     -22.709  -3.763 -17.829  1.00  0.00    -0.550 OA
ENDBRANCH   5   6
ENDBRANCH   4   5
ENDBRANCH   3   4
ENDBRANCH   2   3
ENDBRANCH   1   2
BRANCH   1   9
ATOM      9  C   UNL     1     -25.752  -4.792 -11.813  1.00  0.00     0.000 C 
BRANCH   9  10
ATOM     10  C   UNL     1     -27.280  -4.716 -11.657  1.00  0.00    -0.000 C 
BRANCH  10  11
ATOM     11  C   UNL     1     -27.750  -3.385 -11.047  1.00  0.00    -0.000 C 
BRANCH  11  12
ATOM     12  C   UNL     1     -29.281  -3.347 -10.934  1.00  0.00    -0.000 C 
BRANCH  12  13
ATOM     13  C   UNL     1     -29.866  -4.657 -10.386  1.00  0.00    -0.003 C 
ATOM     14  C   UNL     1     -29.751  -4.766  -8.866  1.00  0.00     0.004 C 
ENDBRANCH  12  13
ENDBRANCH  11  12
ENDBRANCH  10  11
ENDBRANCH   9  10
ENDBRANCH   1   9
TORSDOF 10
ENDMDL
MODEL 2
REMARK VINA RESULT:    13.810      2.235      2.894
REMARK INTER + INTRA:          21.366
REMARK INTER:                  21.962
REMARK INTRA:                  -0.596
REMARK UNBOUND:                -0.517
REMARK SMILES CCCCCCCCCCCC(=O)[O-]
REMARK SMILES IDX 7 1 8 2 9 3 10 4 11 5 12 6 13 7 14 8 6 9 5 10 4 11 3 12 2 13
REMARK SMILES IDX 1 14
REMARK H PARENT
REMARK Flexibility Score: inf
ROOT
ATOM      1  C   UNL     1     -25.118  -4.048 -14.062  1.00  0.00     0.000 C 
ENDROOT
BRANCH   1   2
ATOM      2  C   UNL     1     -24.759  -2.875 -14.988  1.00  0.00     0.000 C 
BRANCH   2   3
ATOM      3  C   UNL     1     -25.147  -3.136 -16.454  1.00  0.00     0.000 C 
BRANCH   3   4
ATOM      4  C   UNL     1     -25.537  -4.600 -16.709  1.00  0.00     0.006 C 
BRANCH   4   5
ATOM      5  C   UNL     1     -26.759  -4.735 -17.627  1.00  0.00     0.053 C 
BRANCH   5   6
ATOM      6  C   UNL     1     -27.882  -5.408 -16.905  1.00  0.00     0.041 C 
ATOM      7  O   UNL     1     -27.719  -5.827 -15.729  1.00  0.00    -0.550 OA
ATOM      8  O   UNL     1     -29.126  -5.529 -17.512  1.00  0.00    -0.550 OA
ENDBRANCH   5   6
ENDBRANCH   4   5
ENDBRANCH   3   4
ENDBRANCH   2   3
ENDBRANCH   1   2
BRANCH   1   9
ATOM      9  C   UNL     1     -25.115  -3.649 -12.576  1.00  0.00     0.000 C 
BRANCH   9  10
ATOM     10  C   UNL     1     -25.747  -4.722 -11.675  1.00  0.00    -0.000 C 
BRANCH  10  11
ATOM     11  C   UNL     1     -27.284  -4.691 -11.702  1.00  0.00    -0.000 C 
BRANCH  11  12
ATOM     12  C   UNL     1     -27.814  -3.351 -11.173  1.00  0.00    -0.000 C 
BRANCH  12  13
ATOM     13  C   UNL     1     -29.336  -3.359 -10.963  1.00  0.00    -0.003 C 
ATOM     14  C   UNL     1     -29.808  -4.529 -10.101  1.00  0.00     0.004 C 
ENDBRANCH  12  13
ENDBRANCH  11  12
ENDBRANCH  10  11
ENDBRANCH   9  10
ENDBRANCH   1   9
TORSDOF 10
ENDMDL
MODEL 3
REMARK VINA RESULT:    13.950      4.233      7.579
REMARK INTER + INTRA:          21.588
REMARK INTER:                  22.120
REMARK INTRA:                  -0.533
REMARK UNBOUND:                -0.517
REMARK SMILES CCCCCCCCCCCC(=O)[O-]
REMARK SMILES IDX 7 1 8 2 9 3 10 4 11 5 12 6 13 7 14 8 6 9 5 10 4 11 3 12 2 13
REMARK SMILES IDX 1 14
REMARK H PARENT
REMARK Flexibility Score: inf
ROOT
ATOM      1  C   UNL     1     -25.271  -3.489 -12.124  1.00  0.00     0.000 C 
ENDROOT
BRANCH   1   2
ATOM      2  C   UNL     1     -25.995  -4.845 -12.122  1.00  0.00     0.000 C 
BRANCH   2   3
ATOM      3  C   UNL     1     -27.275  -4.833 -11.266  1.00  0.00     0.000 C 
BRANCH   3   4
ATOM      4  C   UNL     1     -28.256  -3.728 -11.687  1.00  0.00     0.006 C 
BRANCH   4   5
ATOM      5  C   UNL     1     -29.149  -3.259 -10.531  1.00  0.00     0.053 C 
BRANCH   5   6
ATOM      6  C   UNL     1     -29.845  -4.423  -9.902  1.00  0.00     0.041 C 
ATOM      7  O   UNL     1     -30.672  -5.102 -10.567  1.00  0.00    -0.550 OA
ATOM      8  O   UNL     1     -29.545  -4.792  -8.597  1.00  0.00    -0.550 OA
ENDBRANCH   5   6
ENDBRANCH   4   5
ENDBRANCH   3   4
ENDBRANCH   2   3
ENDBRANCH   1   2
BRANCH   1   9
ATOM      9  C   UNL     1     -24.448  -3.262 -13.404  1.00  0.00     0.000 C 
BRANCH   9  10
ATOM     10  C   UNL     1     -25.087  -3.916 -14.640  1.00  0.00    -0.000 C 
BRANCH  10  11
ATOM     11  C   UNL     1     -24.720  -3.198 -15.950  1.00  0.00    -0.000 C 
BRANCH  11  12
ATOM     12  C   UNL     1     -24.941  -4.120 -17.158  1.00  0.00    -0.000 C 
BRANCH  12  13
ATOM     13  C   UNL     1     -23.627  -4.697 -17.708  1.00  0.00    -0.003 C 
ATOM     14  C   UNL     1     -22.604  -3.615 -18.053  1.00  0.00     0.004 C 
ENDBRANCH  12  13
ENDBRANCH  11  12
ENDBRANCH  10  11
ENDBRANCH   9  10
ENDBRANCH   1   9
TORSDOF 10
ENDMDL
MODEL 4
REMARK VINA RESULT:    14.177     14.605     16.611
REMARK INTER + INTRA:          21.947
REMARK INTER:                  22.667
REMARK INTRA:                  -0.720
REMARK UNBOUND:                -0.517
REMARK SMILES CCCCCCCCCCCC(=O)[O-]
REMARK SMILES IDX 7 1 8 2 9 3 10 4 11 5 12 6 13 7 14 8 6 9 5 10 4 11 3 12 2 13
REMARK SMILES IDX 1 14
REMARK H PARENT
REMARK Flexibility Score: inf
ROOT
ATOM      1  C   UNL     1     -13.869  -9.390 -22.883  1.00  0.00     0.000 C 
ENDROOT
BRANCH   1   2
ATOM      2  C   UNL     1     -12.981  -8.362 -22.164  1.00  0.00     0.000 C 
BRANCH   2   3
ATOM      3  C   UNL     1     -11.712  -8.991 -21.562  1.00  0.00     0.000 C 
BRANCH   3   4
ATOM      4  C   UNL     1     -11.592  -8.744 -20.050  1.00  0.00     0.006 C 
BRANCH   4   5
ATOM      5  C   UNL     1     -12.757  -7.917 -19.492  1.00  0.00     0.053 C 
BRANCH   5   6
ATOM      6  C   UNL     1     -13.258  -8.515 -18.216  1.00  0.00     0.041 C 
ATOM      7  O   UNL     1     -14.118  -7.907 -17.525  1.00  0.00    -0.550 OA
ATOM      8  O   UNL     1     -12.814  -9.768 -17.813  1.00  0.00    -0.550 OA
ENDBRANCH   5   6
ENDBRANCH   4   5
ENDBRANCH   3   4
ENDBRANCH   2   3
ENDBRANCH   1   2
BRANCH   1   9
ATOM      9  C   UNL     1     -14.636  -8.779 -24.069  1.00  0.00     0.000 C 
BRANCH   9  10
ATOM     10  C   UNL     1     -15.245  -7.408 -23.734  1.00  0.00    -0.000 C 
BRANCH  10  11
ATOM     11  C   UNL     1     -15.661  -6.619 -24.987  1.00  0.00    -0.000 C 
BRANCH  11  12
ATOM     12  C   UNL     1     -14.844  -5.326 -25.115  1.00  0.00    -0.000 C 
BRANCH  12  13
ATOM     13  C   UNL     1     -13.690  -5.253 -24.102  1.00  0.00    -0.003 C 
ATOM     14  C   UNL     1     -12.474  -4.503 -24.644  1.00  0.00     0.004 C 
ENDBRANCH  12  13
ENDBRANCH  11  12
ENDBRANCH  10  11
ENDBRANCH   9  10
ENDBRANCH   1   9
TORSDOF 10
ENDMDL
MODEL 5
REMARK VINA RESULT:    14.304     14.081     16.194
REMARK INTER + INTRA:          22.148
REMARK INTER:                  22.738
REMARK INTRA:                  -0.589
REMARK UNBOUND:                -0.517
REMARK SMILES CCCCCCCCCCCC(=O)[O-]
REMARK SMILES IDX 7 1 8 2 9 3 10 4 11 5 12 6 13 7 14 8 6 9 5 10 4 11 3 12 2 13
REMARK SMILES IDX 1 14
REMARK H PARENT
REMARK Flexibility Score: inf
ROOT
ATOM      1  C   UNL     1     -14.675  -8.582 -23.677  1.00  0.00     0.000 C 
ENDROOT
BRANCH   1   2
ATOM      2  C   UNL     1     -13.934  -9.876 -23.305  1.00  0.00     0.000 C 
BRANCH   2   3
ATOM      3  C   UNL     1     -13.950 -10.917 -24.438  1.00  0.00     0.000 C 
BRANCH   3   4
ATOM      4  C   UNL     1     -14.385 -12.309 -23.954  1.00  0.00     0.006 C 
BRANCH   4   5
ATOM      5  C   UNL     1     -15.145 -12.260 -22.622  1.00  0.00     0.053 C 
BRANCH   5   6
ATOM      6  C   UNL     1     -16.153 -13.363 -22.555  1.00  0.00     0.041 C 
ATOM      7  O   UNL     1     -16.730 -13.759 -23.602  1.00  0.00    -0.550 OA
ATOM      8  O   UNL     1     -16.419 -13.990 -21.345  1.00  0.00    -0.550 OA
ENDBRANCH   5   6
ENDBRANCH   4   5
ENDBRANCH   3   4
ENDBRANCH   2   3
ENDBRANCH   1   2
BRANCH   1   9
ATOM      9  C   UNL     1     -14.373  -7.428 -22.705  1.00  0.00     0.000 C 
BRANCH   9  10
ATOM     10  C   UNL     1     -13.083  -7.657 -21.900  1.00  0.00    -0.000 C 
BRANCH  10  11
ATOM     11  C   UNL     1     -13.307  -7.580 -20.381  1.00  0.00    -0.000 C 
BRANCH  11  12
ATOM     12  C   UNL     1     -12.285  -8.448 -19.633  1.00  0.00    -0.000 C 
BRANCH  12  13
ATOM     13  C   UNL     1     -12.653  -8.653 -18.156  1.00  0.00    -0.003 C 
ATOM     14  C   UNL     1     -13.981  -7.996 -17.780  1.00  0.00     0.004 C 
ENDBRANCH  12  13
ENDBRANCH  11  12
ENDBRANCH  10  11
ENDBRANCH   9  10
ENDBRANCH   1   9
TORSDOF 10
ENDMDL
MODEL 6
REMARK VINA RESULT:    14.386      4.172      6.700
REMARK INTER + INTRA:          22.279
REMARK INTER:                  22.683
REMARK INTRA:                  -0.403
REMARK UNBOUND:                -0.517
REMARK SMILES CCCCCCCCCCCC(=O)[O-]
REMARK SMILES IDX 7 1 8 2 9 3 10 4 11 5 12 6 13 7 14 8 6 9 5 10 4 11 3 12 2 13
REMARK SMILES IDX 1 14
REMARK H PARENT
REMARK Flexibility Score: inf
ROOT
ATOM      1  C   UNL     1     -25.639  -4.032 -14.501  1.00  0.00     0.000 C 
ENDROOT
BRANCH   1   2
ATOM      2  C   UNL     1     -24.828  -3.553 -13.287  1.00  0.00     0.000 C 
BRANCH   2   3
ATOM      3  C   UNL     1     -25.291  -4.203 -11.970  1.00  0.00     0.000 C 
BRANCH   3   4
ATOM      4  C   UNL     1     -26.814  -4.400 -11.914  1.00  0.00     0.006 C 
BRANCH   4   5
ATOM      5  C   UNL     1     -27.503  -3.407 -10.969  1.00  0.00     0.053 C 
BRANCH   5   6
ATOM      6  C   UNL     1     -28.986  -3.598 -11.001  1.00  0.00     0.041 C 
ATOM      7  O   UNL     1     -29.702  -2.875 -11.743  1.00  0.00    -0.550 OA
ATOM      8  O   UNL     1     -29.574  -4.609 -10.251  1.00  0.00    -0.550 OA
ENDBRANCH   5   6
ENDBRANCH   4   5
ENDBRANCH   3   4
ENDBRANCH   2   3
ENDBRANCH   1   2
BRANCH   1   9
ATOM      9  C   UNL     1     -24.992  -3.629 -15.838  1.00  0.00     0.000 C 
BRANCH   9  10
ATOM     10  C   UNL     1     -25.327  -4.608 -16.975  1.00  0.00    -0.000 C 
BRANCH  10  11
ATOM     11  C   UNL     1     -26.777  -4.473 -17.469  1.00  0.00    -0.000 C 
BRANCH  11  12
ATOM     12  C   UNL     1     -27.672  -5.549 -16.837  1.00  0.00    -0.000 C 
BRANCH  12  13
ATOM     13  C   UNL     1     -29.125  -5.474 -17.332  1.00  0.00    -0.003 C 
ATOM     14  C   UNL     1     -29.330  -4.400 -18.400  1.00  0.00     0.004 C 
ENDBRANCH  12  13
ENDBRANCH  11  12
ENDBRANCH  10  11
ENDBRANCH   9  10
ENDBRANCH   1   9
TORSDOF 10
ENDMDL
MODEL 7
REMARK VINA RESULT:    14.448     14.750     16.515
REMARK INTER + INTRA:          22.378
REMARK INTER:                  22.804
REMARK INTRA:                  -0.427
REMARK UNBOUND:                -0.517
REMARK SMILES CCCCCCCCCCCC(=O)[O-]
REMARK SMILES IDX 7 1 8 2 9 3 10 4 11 5 12 6 13 7 14 8 6 9 5 10 4 11 3 12 2 13
REMARK SMILES IDX 1 14
REMARK H PARENT
REMARK Flexibility Score: inf
ROOT
ATOM      1  C   UNL     1     -17.490 -13.313 -22.871  1.00  0.00     0.000 C 
ENDROOT
BRANCH   1   2
ATOM      2  C   UNL     1     -17.713 -13.451 -24.386  1.00  0.00     0.000 C 
BRANCH   2   3
ATOM      3  C   UNL     1     -18.949 -12.675 -24.877  1.00  0.00     0.000 C 
BRANCH   3   4
ATOM      4  C   UNL     1     -20.222 -13.536 -24.881  1.00  0.00     0.006 C 
BRANCH   4   5
ATOM      5  C   UNL     1     -21.297 -13.007 -23.924  1.00  0.00     0.053 C 
BRANCH   5   6
ATOM      6  C   UNL     1     -21.995 -14.140 -23.243  1.00  0.00     0.041 C 
ATOM      7  O   UNL     1     -22.543 -15.048 -23.923  1.00  0.00    -0.550 OA
ATOM      8  O   UNL     1     -21.999 -14.223 -21.856  1.00  0.00    -0.550 OA
ENDBRANCH   5   6
ENDBRANCH   4   5
ENDBRANCH   3   4
ENDBRANCH   2   3
ENDBRANCH   1   2
BRANCH   1   9
ATOM      9  C   UNL     1     -15.999 -13.257 -22.498  1.00  0.00     0.000 C 
BRANCH   9  10
ATOM     10  C   UNL     1     -15.148 -12.557 -23.571  1.00  0.00    -0.000 C 
BRANCH  10  11
ATOM     11  C   UNL     1     -14.155 -11.545 -22.976  1.00  0.00    -0.000 C 
BRANCH  11  12
ATOM     12  C   UNL     1     -14.008 -10.322 -23.893  1.00  0.00    -0.000 C 
BRANCH  12  13
ATOM     13  C   UNL     1     -13.906  -9.004 -23.109  1.00  0.00    -0.003 C 
ATOM     14  C   UNL     1     -14.982  -7.994 -23.507  1.00  0.00     0.004 C 
ENDBRANCH  12  13
ENDBRANCH  11  12
ENDBRANCH  10  11
ENDBRANCH   9  10
ENDBRANCH   1   9
TORSDOF 10
ENDMDL
MODEL 8
REMARK VINA RESULT:    14.742     14.686     15.965
REMARK INTER + INTRA:          22.843
REMARK INTER:                  23.265
REMARK INTRA:                  -0.422
REMARK UNBOUND:                -0.517
REMARK SMILES CCCCCCCCCCCC(=O)[O-]
REMARK SMILES IDX 7 1 8 2 9 3 10 4 11 5 12 6 13 7 14 8 6 9 5 10 4 11 3 12 2 13
REMARK SMILES IDX 1 14
REMARK H PARENT
REMARK Flexibility Score: inf
ROOT
ATOM      1  C   UNL     1     -17.258 -13.385 -22.631  1.00  0.00     0.000 C 
ENDROOT
BRANCH   1   2
ATOM      2  C   UNL     1     -15.754 -13.190 -22.381  1.00  0.00     0.000 C 
BRANCH   2   3
ATOM      3  C   UNL     1     -15.054 -12.441 -23.529  1.00  0.00     0.000 C 
BRANCH   3   4
ATOM      4  C   UNL     1     -14.071 -11.373 -23.023  1.00  0.00     0.006 C 
BRANCH   4   5
ATOM      5  C   UNL     1     -13.949 -10.181 -23.982  1.00  0.00     0.053 C 
BRANCH   5   6
ATOM      6  C   UNL     1     -14.040  -8.893 -23.228  1.00  0.00     0.041 C 
ATOM      7  O   UNL     1     -15.081  -8.188 -23.302  1.00  0.00    -0.550 OA
ATOM      8  O   UNL     1     -12.997  -8.494 -22.403  1.00  0.00    -0.550 OA
ENDBRANCH   5   6
ENDBRANCH   4   5
ENDBRANCH   3   4
ENDBRANCH   2   3
ENDBRANCH   1   2
BRANCH   1   9
ATOM      9  C   UNL     1     -17.594 -13.523 -24.126  1.00  0.00     0.000 C 
BRANCH   9  10
ATOM     10  C   UNL     1     -18.788 -12.649 -24.546  1.00  0.00    -0.000 C 
BRANCH  10  11
ATOM     11  C   UNL     1     -19.983 -13.476 -25.049  1.00  0.00    -0.000 C 
BRANCH  11  12
ATOM     12  C   UNL     1     -21.219 -13.241 -24.169  1.00  0.00    -0.000 C 
BRANCH  12  13
ATOM     13  C   UNL     1     -22.088 -14.500 -24.023  1.00  0.00    -0.003 C 
ATOM     14  C   UNL     1     -22.506 -14.765 -22.577  1.00  0.00     0.004 C 
ENDBRANCH  12  13
ENDBRANCH  11  12
ENDBRANCH  10  11
ENDBRANCH   9  10
ENDBRANCH   1   9
TORSDOF 10
ENDMDL
MODEL 9
REMARK VINA RESULT:    15.051     13.682     15.766
REMARK INTER + INTRA:          23.332
REMARK INTER:                  24.096
REMARK INTRA:                  -0.764
REMARK UNBOUND:                -0.517
REMARK SMILES CCCCCCCCCCCC(=O)[O-]
REMARK SMILES IDX 7 1 8 2 9 3 10 4 11 5 12 6 13 7 14 8 6 9 5 10 4 11 3 12 2 13
REMARK SMILES IDX 1 14
REMARK H PARENT
REMARK Flexibility Score: inf
ROOT
ATOM      1  C   UNL     1     -13.584  -8.860 -23.458  1.00  0.00     0.000 C 
ENDROOT
BRANCH   1   2
ATOM      2  C   UNL     1     -14.971  -8.509 -22.897  1.00  0.00     0.000 C 
BRANCH   2   3
ATOM      3  C   UNL     1     -15.661  -7.380 -23.683  1.00  0.00     0.000 C 
BRANCH   3   4
ATOM      4  C   UNL     1     -14.902  -7.006 -24.966  1.00  0.00     0.006 C 
BRANCH   4   5
ATOM      5  C   UNL     1     -14.694  -5.493 -25.110  1.00  0.00     0.053 C 
BRANCH   5   6
ATOM      6  C   UNL     1     -13.425  -5.074 -24.437  1.00  0.00     0.041 C 
ATOM      7  O   UNL     1     -12.424  -4.740 -25.124  1.00  0.00    -0.550 OA
ATOM      8  O   UNL     1     -13.363  -5.003 -23.051  1.00  0.00    -0.550 OA
ENDBRANCH   5   6
ENDBRANCH   4   5
ENDBRANCH   3   4
ENDBRANCH   2   3
ENDBRANCH   1   2
BRANCH   1   9
ATOM      9  C   UNL     1     -12.444  -8.461 -22.505  1.00  0.00     0.000 C 
BRANCH   9  10
ATOM     10  C   UNL     1     -12.757  -8.797 -21.037  1.00  0.00    -0.000 C 
BRANCH  10  11
ATOM     11  C   UNL     1     -12.794  -7.552 -20.136  1.00  0.00    -0.000 C 
BRANCH  11  12
ATOM     12  C   UNL     1     -12.245  -7.873 -18.738  1.00  0.00    -0.000 C 
BRANCH  12  13
ATOM     13  C   UNL     1     -13.063  -8.955 -18.017  1.00  0.00    -0.003 C 
ATOM     14  C   UNL     1     -14.362  -8.415 -17.419  1.00  0.00     0.004 C 
ENDBRANCH  12  13
ENDBRANCH  11  12
ENDBRANCH  10  11
ENDBRANCH   9  10
ENDBRANCH   1   9
TORSDOF 10
ENDMDL
