MODEL 1
REMARK VINA RESULT:    -7.615      0.000      0.000
REMARK INTER + INTRA:          -9.519
REMARK INTER:                  -9.174
REMARK INTRA:                  -0.345
REMARK UNBOUND:                -0.345
REMARK SMILES Oc1cc(O)c2cc(O)c(-c3ccc(O)c(O)c3)[o+]c2c1
REMARK SMILES IDX 10 1 19 2 20 3 21 4 2 5 3 6 4 7 6 8 7 9 8 10 11 11 12 12
REMARK SMILES IDX 13 13 14 14 18 15 16 16 15 17 17 19 9 21 1 23 5 25
REMARK H PARENT 15 18 17 20 9 22 1 24 5 26
REMARK Flexibility Score: inf
ROOT
ATOM      1  C   UNL     1      38.111  -6.868  18.995  1.00  0.00     0.402 A 
ATOM      2  O   UNL     1      36.989  -6.318  19.449  1.00  0.00    -0.202 OA
ATOM      3  C   UNL     1      36.388  -6.702  20.570  1.00  0.00     0.368 A 
ATOM      4  C   UNL     1      35.208  -6.065  20.964  1.00  0.00     0.162 A 
ATOM      5  C   UNL     1      34.555  -6.450  22.135  1.00  0.00     0.128 A 
ATOM      6  C   UNL     1      35.082  -7.482  22.920  1.00  0.00     0.093 A 
ATOM      7  C   UNL     1      36.262  -8.138  22.547  1.00  0.00     0.136 A 
ATOM      8  C   UNL     1      36.931  -7.746  21.359  1.00  0.00     0.125 A 
ATOM      9  C   UNL     1      38.125  -8.337  20.914  1.00  0.00     0.078 A 
ATOM     10  C   UNL     1      38.730  -7.895  19.733  1.00  0.00     0.223 A 
ENDROOT
BRANCH   1  11
ATOM     11  C   UNL     1      38.678  -6.358  17.726  1.00  0.00     0.087 A 
ATOM     12  C   UNL     1      39.557  -5.262  17.706  1.00  0.00     0.022 A 
ATOM     13  C   UNL     1      40.096  -4.814  16.499  1.00  0.00     0.051 A 
ATOM     14  C   UNL     1      39.784  -5.453  15.295  1.00  0.00     0.157 A 
ATOM     15  C   UNL     1      38.381  -7.015  16.523  1.00  0.00     0.068 A 
ATOM     16  C   UNL     1      38.918  -6.572  15.307  1.00  0.00     0.158 A 
BRANCH  14  17
ATOM     17  O   UNL     1      40.354  -4.952  14.123  1.00  0.00    -0.504 OA
ATOM     18  H   UNL     1      40.612  -5.524  13.332  1.00  0.00     0.293 HD
ENDBRANCH  14  17
BRANCH  16  19
ATOM     19  O   UNL     1      38.567  -7.267  14.148  1.00  0.00    -0.504 OA
ATOM     20  H   UNL     1      38.731  -6.923  13.213  1.00  0.00     0.293 HD
ENDBRANCH  16  19
ENDBRANCH   1  11
BRANCH  10  21
ATOM     21  O   UNL     1      39.941  -8.447  19.318  1.00  0.00    -0.500 OA
ATOM     22  H   UNL     1      40.815  -8.223  19.779  1.00  0.00     0.294 HD
ENDBRANCH  10  21
BRANCH   5  23
ATOM     23  O   UNL     1      33.381  -5.801  22.511  1.00  0.00    -0.507 OA
ATOM     24  H   UNL     1      33.370  -4.813  22.735  1.00  0.00     0.293 HD
ENDBRANCH   5  23
BRANCH   7  25
ATOM     25  O   UNL     1      36.722  -9.159  23.382  1.00  0.00    -0.507 OA
ATOM     26  H   UNL     1      37.422  -9.039  24.099  1.00  0.00     0.293 HD
ENDBRANCH   7  25
TORSDOF 6
ENDMDL
MODEL 2
REMARK VINA RESULT:    -7.311      8.650     10.865
REMARK INTER + INTRA:          -9.153
REMARK INTER:                  -8.809
REMARK INTRA:                  -0.343
REMARK UNBOUND:                -0.345
REMARK SMILES Oc1cc(O)c2cc(O)c(-c3ccc(O)c(O)c3)[o+]c2c1
REMARK SMILES IDX 10 1 19 2 20 3 21 4 2 5 3 6 4 7 6 8 7 9 8 10 11 11 12 12
REMARK SMILES IDX 13 13 14 14 18 15 16 16 15 17 17 19 9 21 1 23 5 25
REMARK H PARENT 15 18 17 20 9 22 1 24 5 26
REMARK Flexibility Score: inf
ROOT
ATOM      1  C   UNL     1      44.434  -1.388  22.631  1.00  0.00     0.402 A 
ATOM      2  O   UNL     1      43.253  -0.962  22.192  1.00  0.00    -0.202 OA
ATOM      3  C   UNL     1      43.112   0.034  21.322  1.00  0.00     0.368 A 
ATOM      4  C   UNL     1      41.828   0.412  20.922  1.00  0.00     0.162 A 
ATOM      5  C   UNL     1      41.651   1.456  20.014  1.00  0.00     0.128 A 
ATOM      6  C   UNL     1      42.766   2.129  19.500  1.00  0.00     0.093 A 
ATOM      7  C   UNL     1      44.063   1.770  19.885  1.00  0.00     0.136 A 
ATOM      8  C   UNL     1      44.247   0.706  20.807  1.00  0.00     0.125 A 
ATOM      9  C   UNL     1      45.510   0.269  21.239  1.00  0.00     0.078 A 
ATOM     10  C   UNL     1      45.612  -0.789  22.148  1.00  0.00     0.223 A 
ENDROOT
BRANCH   1  11
ATOM     11  C   UNL     1      44.458  -2.500  23.607  1.00  0.00     0.087 A 
ATOM     12  C   UNL     1      44.603  -2.263  24.984  1.00  0.00     0.022 A 
ATOM     13  C   UNL     1      44.600  -3.327  25.887  1.00  0.00     0.051 A 
ATOM     14  C   UNL     1      44.439  -4.643  25.441  1.00  0.00     0.157 A 
ATOM     15  C   UNL     1      44.274  -3.817  23.159  1.00  0.00     0.068 A 
ATOM     16  C   UNL     1      44.268  -4.892  24.058  1.00  0.00     0.158 A 
BRANCH  14  17
ATOM     17  O   UNL     1      44.448  -5.662  26.396  1.00  0.00    -0.504 OA
ATOM     18  H   UNL     1      45.288  -6.092  26.753  1.00  0.00     0.293 HD
ENDBRANCH  14  17
BRANCH  16  19
ATOM     19  O   UNL     1      44.093  -6.176  23.539  1.00  0.00    -0.504 OA
ATOM     20  H   UNL     1      43.195  -6.628  23.442  1.00  0.00     0.293 HD
ENDBRANCH  16  19
ENDBRANCH   1  11
BRANCH  10  21
ATOM     21  O   UNL     1      46.867  -1.257  22.539  1.00  0.00    -0.500 OA
ATOM     22  H   UNL     1      47.423  -1.855  21.940  1.00  0.00     0.294 HD
ENDBRANCH  10  21
BRANCH   5  23
ATOM     23  O   UNL     1      40.363   1.818  19.626  1.00  0.00    -0.507 OA
ATOM     24  H   UNL     1      39.618   1.135  19.558  1.00  0.00     0.293 HD
ENDBRANCH   5  23
BRANCH   7  25
ATOM     25  O   UNL     1      45.123   2.492  19.330  1.00  0.00    -0.507 OA
ATOM     26  H   UNL     1      45.296   2.581  18.340  1.00  0.00     0.293 HD
ENDBRANCH   7  25
TORSDOF 6
ENDMDL
MODEL 3
REMARK VINA RESULT:    -7.231     11.140     12.983
REMARK INTER + INTRA:          -9.056
REMARK INTER:                  -8.976
REMARK INTRA:                  -0.080
REMARK UNBOUND:                -0.345
REMARK SMILES Oc1cc(O)c2cc(O)c(-c3ccc(O)c(O)c3)[o+]c2c1
REMARK SMILES IDX 10 1 19 2 20 3 21 4 2 5 3 6 4 7 6 8 7 9 8 10 11 11 12 12
REMARK SMILES IDX 13 13 14 14 18 15 16 16 15 17 17 19 9 21 1 23 5 25
REMARK H PARENT 15 18 17 20 9 22 1 24 5 26
REMARK Flexibility Score: inf
ROOT
ATOM      1  C   UNL     1      44.184   4.427  19.941  1.00  0.00     0.402 A 
ATOM      2  O   UNL     1      43.190   3.592  19.651  1.00  0.00    -0.202 OA
ATOM      3  C   UNL     1      42.082   3.493  20.379  1.00  0.00     0.368 A 
ATOM      4  C   UNL     1      41.094   2.583  19.996  1.00  0.00     0.162 A 
ATOM      5  C   UNL     1      39.923   2.456  20.743  1.00  0.00     0.128 A 
ATOM      6  C   UNL     1      39.736   3.245  21.884  1.00  0.00     0.093 A 
ATOM      7  C   UNL     1      40.711   4.165  22.290  1.00  0.00     0.136 A 
ATOM      8  C   UNL     1      41.902   4.298  21.531  1.00  0.00     0.125 A 
ATOM      9  C   UNL     1      42.927   5.202  21.854  1.00  0.00     0.078 A 
ATOM     10  C   UNL     1      44.072   5.280  21.055  1.00  0.00     0.223 A 
ENDROOT
BRANCH   1  11
ATOM     11  C   UNL     1      45.371   4.436  19.057  1.00  0.00     0.087 A 
ATOM     12  C   UNL     1      46.096   3.263  18.793  1.00  0.00     0.022 A 
ATOM     13  C   UNL     1      47.199   3.293  17.938  1.00  0.00     0.051 A 
ATOM     14  C   UNL     1      47.592   4.485  17.319  1.00  0.00     0.157 A 
ATOM     15  C   UNL     1      45.750   5.628  18.421  1.00  0.00     0.068 A 
ATOM     16  C   UNL     1      46.855   5.668  17.560  1.00  0.00     0.158 A 
BRANCH  14  17
ATOM     17  O   UNL     1      48.706   4.447  16.478  1.00  0.00    -0.504 OA
ATOM     18  H   UNL     1      49.631   4.743  16.753  1.00  0.00     0.293 HD
ENDBRANCH  14  17
BRANCH  16  19
ATOM     19  O   UNL     1      47.180   6.892  16.973  1.00  0.00    -0.504 OA
ATOM     20  H   UNL     1      48.119   7.261  16.922  1.00  0.00     0.293 HD
ENDBRANCH  16  19
ENDBRANCH   1  11
BRANCH  10  21
ATOM     21  O   UNL     1      45.068   6.213  21.347  1.00  0.00    -0.500 OA
ATOM     22  H   UNL     1      45.897   6.303  20.773  1.00  0.00     0.294 HD
ENDBRANCH  10  21
BRANCH   5  23
ATOM     23  O   UNL     1      38.949   1.544  20.344  1.00  0.00    -0.507 OA
ATOM     24  H   UNL     1      38.319   1.116  21.011  1.00  0.00     0.293 HD
ENDBRANCH   5  23
BRANCH   7  25
ATOM     25  O   UNL     1      40.451   4.912  23.442  1.00  0.00    -0.507 OA
ATOM     26  H   UNL     1      40.910   5.780  23.674  1.00  0.00     0.293 HD
ENDBRANCH   7  25
TORSDOF 6
ENDMDL
MODEL 4
REMARK VINA RESULT:    -7.177      7.063      9.497
REMARK INTER + INTRA:          -8.991
REMARK INTER:                  -8.639
REMARK INTRA:                  -0.352
REMARK UNBOUND:                -0.345
REMARK SMILES Oc1cc(O)c2cc(O)c(-c3ccc(O)c(O)c3)[o+]c2c1
REMARK SMILES IDX 10 1 19 2 20 3 21 4 2 5 3 6 4 7 6 8 7 9 8 10 11 11 12 12
REMARK SMILES IDX 13 13 14 14 18 15 16 16 15 17 17 19 9 21 1 23 5 25
REMARK H PARENT 15 18 17 20 9 22 1 24 5 26
REMARK Flexibility Score: inf
ROOT
ATOM      1  C   UNL     1      44.828  -3.798  18.877  1.00  0.00     0.402 A 
ATOM      2  O   UNL     1      43.691  -3.214  18.508  1.00  0.00    -0.202 OA
ATOM      3  C   UNL     1      43.159  -3.350  17.298  1.00  0.00     0.368 A 
ATOM      4  C   UNL     1      41.961  -2.693  17.003  1.00  0.00     0.162 A 
ATOM      5  C   UNL     1      41.382  -2.815  15.740  1.00  0.00     0.128 A 
ATOM      6  C   UNL     1      42.004  -3.600  14.761  1.00  0.00     0.093 A 
ATOM      7  C   UNL     1      43.205  -4.268  15.031  1.00  0.00     0.136 A 
ATOM      8  C   UNL     1      43.795  -4.148  16.316  1.00  0.00     0.125 A 
ATOM      9  C   UNL     1      44.989  -4.792  16.679  1.00  0.00     0.078 A 
ATOM     10  C   UNL     1      45.509  -4.629  17.968  1.00  0.00     0.223 A 
ENDROOT
BRANCH   1  11
ATOM     11  C   UNL     1      45.323  -3.561  20.252  1.00  0.00     0.087 A 
ATOM     12  C   UNL     1      46.275  -2.566  20.525  1.00  0.00     0.022 A 
ATOM     13  C   UNL     1      46.710  -2.347  21.833  1.00  0.00     0.051 A 
ATOM     14  C   UNL     1      46.197  -3.101  22.894  1.00  0.00     0.157 A 
ATOM     15  C   UNL     1      44.790  -4.304  21.316  1.00  0.00     0.068 A 
ATOM     16  C   UNL     1      45.219  -4.091  22.632  1.00  0.00     0.158 A 
BRANCH  14  17
ATOM     17  O   UNL     1      46.676  -2.833  24.178  1.00  0.00    -0.504 OA
ATOM     18  H   UNL     1      47.299  -2.071  24.400  1.00  0.00     0.293 HD
ENDBRANCH  14  17
BRANCH  16  19
ATOM     19  O   UNL     1      44.654  -4.877  23.638  1.00  0.00    -0.504 OA
ATOM     20  H   UNL     1      45.113  -5.673  24.056  1.00  0.00     0.293 HD
ENDBRANCH  16  19
ENDBRANCH   1  11
BRANCH  10  21
ATOM     21  O   UNL     1      46.668  -5.308  18.345  1.00  0.00    -0.500 OA
ATOM     22  H   UNL     1      47.570  -5.086  17.941  1.00  0.00     0.294 HD
ENDBRANCH  10  21
BRANCH   5  23
ATOM     23  O   UNL     1      40.188  -2.154  15.465  1.00  0.00    -0.507 OA
ATOM     24  H   UNL     1      39.502  -2.541  14.828  1.00  0.00     0.293 HD
ENDBRANCH   5  23
BRANCH   7  25
ATOM     25  O   UNL     1      43.764  -5.028  14.000  1.00  0.00    -0.507 OA
ATOM     26  H   UNL     1      43.369  -5.114  13.076  1.00  0.00     0.293 HD
ENDBRANCH   7  25
TORSDOF 6
ENDMDL
MODEL 5
REMARK VINA RESULT:    -7.106     13.163     15.652
REMARK INTER + INTRA:          -8.905
REMARK INTER:                  -8.552
REMARK INTRA:                  -0.353
REMARK UNBOUND:                -0.345
REMARK SMILES Oc1cc(O)c2cc(O)c(-c3ccc(O)c(O)c3)[o+]c2c1
REMARK SMILES IDX 10 1 19 2 20 3 21 4 2 5 3 6 4 7 6 8 7 9 8 10 11 11 12 12
REMARK SMILES IDX 13 13 14 14 18 15 16 16 15 17 17 19 9 21 1 23 5 25
REMARK H PARENT 15 18 17 20 9 22 1 24 5 26
REMARK Flexibility Score: inf
ROOT
ATOM      1  C   UNL     1      44.146   4.289  23.993  1.00  0.00     0.402 A 
ATOM      2  O   UNL     1      45.283   4.784  23.513  1.00  0.00    -0.202 OA
ATOM      3  C   UNL     1      45.774   4.462  22.320  1.00  0.00     0.368 A 
ATOM      4  C   UNL     1      46.980   5.033  21.904  1.00  0.00     0.162 A 
ATOM      5  C   UNL     1      47.520   4.711  20.659  1.00  0.00     0.128 A 
ATOM      6  C   UNL     1      46.851   3.811  19.821  1.00  0.00     0.093 A 
ATOM      7  C   UNL     1      45.642   3.225  20.214  1.00  0.00     0.136 A 
ATOM      8  C   UNL     1      45.088   3.552  21.479  1.00  0.00     0.125 A 
ATOM      9  C   UNL     1      43.875   3.025  21.951  1.00  0.00     0.078 A 
ATOM     10  C   UNL     1      43.390   3.397  23.208  1.00  0.00     0.223 A 
ENDROOT
BRANCH   1  11
ATOM     11  C   UNL     1      43.709   4.718  25.341  1.00  0.00     0.087 A 
ATOM     12  C   UNL     1      44.057   3.988  26.489  1.00  0.00     0.022 A 
ATOM     13  C   UNL     1      43.653   4.425  27.752  1.00  0.00     0.051 A 
ATOM     14  C   UNL     1      42.908   5.600  27.897  1.00  0.00     0.157 A 
ATOM     15  C   UNL     1      42.982   5.909  25.485  1.00  0.00     0.068 A 
ATOM     16  C   UNL     1      42.572   6.356  26.748  1.00  0.00     0.158 A 
BRANCH  14  17
ATOM     17  O   UNL     1      42.533   5.980  29.187  1.00  0.00    -0.504 OA
ATOM     18  H   UNL     1      41.863   6.708  29.388  1.00  0.00     0.293 HD
ENDBRANCH  14  17
BRANCH  16  19
ATOM     19  O   UNL     1      41.840   7.543  26.814  1.00  0.00    -0.504 OA
ATOM     20  H   UNL     1      42.042   8.295  27.456  1.00  0.00     0.293 HD
ENDBRANCH  16  19
ENDBRANCH   1  11
BRANCH  10  21
ATOM     21  O   UNL     1      42.161   2.912  23.656  1.00  0.00    -0.500 OA
ATOM     22  H   UNL     1      42.020   1.931  23.864  1.00  0.00     0.294 HD
ENDBRANCH  10  21
BRANCH   5  23
ATOM     23  O   UNL     1      48.722   5.291  20.261  1.00  0.00    -0.507 OA
ATOM     24  H   UNL     1      49.030   5.265  19.296  1.00  0.00     0.293 HD
ENDBRANCH   5  23
BRANCH   7  25
ATOM     25  O   UNL     1      45.038   2.335  19.323  1.00  0.00    -0.507 OA
ATOM     26  H   UNL     1      44.630   1.450  19.588  1.00  0.00     0.293 HD
ENDBRANCH   7  25
TORSDOF 6
ENDMDL
MODEL 6
REMARK VINA RESULT:    -7.081      7.419      8.791
REMARK INTER + INTRA:          -8.875
REMARK INTER:                  -8.540
REMARK INTRA:                  -0.335
REMARK UNBOUND:                -0.345
REMARK SMILES Oc1cc(O)c2cc(O)c(-c3ccc(O)c(O)c3)[o+]c2c1
REMARK SMILES IDX 10 1 19 2 20 3 21 4 2 5 3 6 4 7 6 8 7 9 8 10 11 11 12 12
REMARK SMILES IDX 13 13 14 14 18 15 16 16 15 17 17 19 9 21 1 23 5 25
REMARK H PARENT 15 18 17 20 9 22 1 24 5 26
REMARK Flexibility Score: inf
ROOT
ATOM      1  C   UNL     1      45.213  -3.937  20.553  1.00  0.00     0.402 A 
ATOM      2  O   UNL     1      44.627  -4.448  21.633  1.00  0.00    -0.202 OA
ATOM      3  C   UNL     1      44.903  -4.051  22.871  1.00  0.00     0.368 A 
ATOM      4  C   UNL     1      44.237  -4.651  23.943  1.00  0.00     0.162 A 
ATOM      5  C   UNL     1      44.509  -4.255  25.253  1.00  0.00     0.128 A 
ATOM      6  C   UNL     1      45.455  -3.252  25.496  1.00  0.00     0.093 A 
ATOM      7  C   UNL     1      46.136  -2.635  24.439  1.00  0.00     0.136 A 
ATOM      8  C   UNL     1      45.860  -3.033  23.105  1.00  0.00     0.125 A 
ATOM      9  C   UNL     1      46.484  -2.462  21.984  1.00  0.00     0.078 A 
ATOM     10  C   UNL     1      46.157  -2.903  20.698  1.00  0.00     0.223 A 
ENDROOT
BRANCH   1  11
ATOM     11  C   UNL     1      44.826  -4.472  19.228  1.00  0.00     0.087 A 
ATOM     12  C   UNL     1      43.858  -3.835  18.435  1.00  0.00     0.022 A 
ATOM     13  C   UNL     1      43.527  -4.346  17.179  1.00  0.00     0.051 A 
ATOM     14  C   UNL     1      44.161  -5.490  16.683  1.00  0.00     0.157 A 
ATOM     15  C   UNL     1      45.480  -5.607  18.724  1.00  0.00     0.068 A 
ATOM     16  C   UNL     1      45.155  -6.127  17.464  1.00  0.00     0.158 A 
BRANCH  14  17
ATOM     17  O   UNL     1      43.782  -5.951  15.421  1.00  0.00    -0.504 OA
ATOM     18  H   UNL     1      42.922  -6.445  15.236  1.00  0.00     0.293 HD
ENDBRANCH  14  17
BRANCH  16  19
ATOM     19  O   UNL     1      45.838  -7.266  17.033  1.00  0.00    -0.504 OA
ATOM     20  H   UNL     1      45.458  -7.938  16.382  1.00  0.00     0.293 HD
ENDBRANCH  16  19
ENDBRANCH   1  11
BRANCH  10  21
ATOM     21  O   UNL     1      46.740  -2.303  19.582  1.00  0.00    -0.500 OA
ATOM     22  H   UNL     1      46.535  -1.344  19.327  1.00  0.00     0.294 HD
ENDBRANCH  10  21
BRANCH   5  23
ATOM     23  O   UNL     1      43.834  -4.865  26.308  1.00  0.00    -0.507 OA
ATOM     24  H   UNL     1      43.971  -5.844  26.529  1.00  0.00     0.293 HD
ENDBRANCH   5  23
BRANCH   7  25
ATOM     25  O   UNL     1      47.067  -1.646  24.764  1.00  0.00    -0.507 OA
ATOM     26  H   UNL     1      46.864  -0.833  25.327  1.00  0.00     0.293 HD
ENDBRANCH   7  25
TORSDOF 6
ENDMDL
MODEL 7
REMARK VINA RESULT:    -7.062     10.905     12.638
REMARK INTER + INTRA:          -8.853
REMARK INTER:                  -8.548
REMARK INTRA:                  -0.305
REMARK UNBOUND:                -0.345
REMARK SMILES Oc1cc(O)c2cc(O)c(-c3ccc(O)c(O)c3)[o+]c2c1
REMARK SMILES IDX 10 1 19 2 20 3 21 4 2 5 3 6 4 7 6 8 7 9 8 10 11 11 12 12
REMARK SMILES IDX 13 13 14 14 18 15 16 16 15 17 17 19 9 21 1 23 5 25
REMARK H PARENT 15 18 17 20 9 22 1 24 5 26
REMARK Flexibility Score: inf
ROOT
ATOM      1  C   UNL     1      43.859   3.855  19.565  1.00  0.00     0.402 A 
ATOM      2  O   UNL     1      42.900   4.571  20.145  1.00  0.00    -0.202 OA
ATOM      3  C   UNL     1      41.800   4.036  20.663  1.00  0.00     0.368 A 
ATOM      4  C   UNL     1      40.846   4.873  21.250  1.00  0.00     0.162 A 
ATOM      5  C   UNL     1      39.681   4.339  21.799  1.00  0.00     0.128 A 
ATOM      6  C   UNL     1      39.463   2.956  21.762  1.00  0.00     0.093 A 
ATOM      7  C   UNL     1      40.402   2.096  21.180  1.00  0.00     0.136 A 
ATOM      8  C   UNL     1      41.591   2.636  20.623  1.00  0.00     0.125 A 
ATOM      9  C   UNL     1      42.592   1.849  20.031  1.00  0.00     0.078 A 
ATOM     10  C   UNL     1      43.740   2.453  19.506  1.00  0.00     0.223 A 
ENDROOT
BRANCH   1  11
ATOM     11  C   UNL     1      45.033   4.570  19.015  1.00  0.00     0.087 A 
ATOM     12  C   UNL     1      44.961   5.269  17.799  1.00  0.00     0.022 A 
ATOM     13  C   UNL     1      46.075   5.954  17.313  1.00  0.00     0.051 A 
ATOM     14  C   UNL     1      47.275   5.969  18.032  1.00  0.00     0.157 A 
ATOM     15  C   UNL     1      46.228   4.602  19.750  1.00  0.00     0.068 A 
ATOM     16  C   UNL     1      47.352   5.287  19.270  1.00  0.00     0.158 A 
BRANCH  14  17
ATOM     17  O   UNL     1      48.353   6.671  17.489  1.00  0.00    -0.504 OA
ATOM     18  H   UNL     1      49.026   7.186  18.039  1.00  0.00     0.293 HD
ENDBRANCH  14  17
BRANCH  16  19
ATOM     19  O   UNL     1      48.510   5.265  20.049  1.00  0.00    -0.504 OA
ATOM     20  H   UNL     1      48.611   5.757  20.925  1.00  0.00     0.293 HD
ENDBRANCH  16  19
ENDBRANCH   1  11
BRANCH  10  21
ATOM     21  O   UNL     1      44.757   1.669  18.963  1.00  0.00    -0.500 OA
ATOM     22  H   UNL     1      44.831   0.679  19.164  1.00  0.00     0.294 HD
ENDBRANCH  10  21
BRANCH   5  23
ATOM     23  O   UNL     1      38.743   5.189  22.380  1.00  0.00    -0.507 OA
ATOM     24  H   UNL     1      37.925   4.829  22.857  1.00  0.00     0.293 HD
ENDBRANCH   5  23
BRANCH   7  25
ATOM     25  O   UNL     1      40.111   0.730  21.180  1.00  0.00    -0.507 OA
ATOM     26  H   UNL     1      39.618   0.251  21.920  1.00  0.00     0.293 HD
ENDBRANCH   7  25
TORSDOF 6
ENDMDL
MODEL 8
REMARK VINA RESULT:    -6.964     11.816     14.697
REMARK INTER + INTRA:          -8.735
REMARK INTER:                  -8.389
REMARK INTRA:                  -0.345
REMARK UNBOUND:                -0.345
REMARK SMILES Oc1cc(O)c2cc(O)c(-c3ccc(O)c(O)c3)[o+]c2c1
REMARK SMILES IDX 10 1 19 2 20 3 21 4 2 5 3 6 4 7 6 8 7 9 8 10 11 11 12 12
REMARK SMILES IDX 13 13 14 14 18 15 16 16 15 17 17 19 9 21 1 23 5 25
REMARK H PARENT 15 18 17 20 9 22 1 24 5 26
REMARK Flexibility Score: inf
ROOT
ATOM      1  C   UNL     1      43.780   4.697  20.438  1.00  0.00     0.402 A 
ATOM      2  O   UNL     1      44.239   5.181  19.287  1.00  0.00    -0.202 OA
ATOM      3  C   UNL     1      45.341   5.919  19.193  1.00  0.00     0.368 A 
ATOM      4  C   UNL     1      45.743   6.385  17.938  1.00  0.00     0.162 A 
ATOM      5  C   UNL     1      46.893   7.164  17.810  1.00  0.00     0.128 A 
ATOM      6  C   UNL     1      47.649   7.482  18.944  1.00  0.00     0.093 A 
ATOM      7  C   UNL     1      47.268   7.028  20.213  1.00  0.00     0.136 A 
ATOM      8  C   UNL     1      46.100   6.232  20.347  1.00  0.00     0.125 A 
ATOM      9  C   UNL     1      45.650   5.723  21.575  1.00  0.00     0.078 A 
ATOM     10  C   UNL     1      44.491   4.942  21.628  1.00  0.00     0.223 A 
ENDROOT
BRANCH   1  11
ATOM     11  C   UNL     1      42.535   3.896  20.413  1.00  0.00     0.087 A 
ATOM     12  C   UNL     1      41.291   4.467  20.729  1.00  0.00     0.022 A 
ATOM     13  C   UNL     1      40.129   3.697  20.677  1.00  0.00     0.051 A 
ATOM     14  C   UNL     1      40.178   2.351  20.297  1.00  0.00     0.157 A 
ATOM     15  C   UNL     1      42.585   2.554  20.010  1.00  0.00     0.068 A 
ATOM     16  C   UNL     1      41.423   1.773  19.954  1.00  0.00     0.158 A 
BRANCH  14  17
ATOM     17  O   UNL     1      38.979   1.636  20.268  1.00  0.00    -0.504 OA
ATOM     18  H   UNL     1      38.176   1.859  20.837  1.00  0.00     0.293 HD
ENDBRANCH  14  17
BRANCH  16  19
ATOM     19  O   UNL     1      41.552   0.440  19.556  1.00  0.00    -0.504 OA
ATOM     20  H   UNL     1      41.543  -0.342  20.195  1.00  0.00     0.293 HD
ENDBRANCH  16  19
ENDBRANCH   1  11
BRANCH  10  21
ATOM     21  O   UNL     1      44.070   4.394  22.840  1.00  0.00    -0.500 OA
ATOM     22  H   UNL     1      44.241   4.860  23.723  1.00  0.00     0.294 HD
ENDBRANCH  10  21
BRANCH   5  23
ATOM     23  O   UNL     1      47.277   7.619  16.551  1.00  0.00    -0.507 OA
ATOM     24  H   UNL     1      47.085   8.566  16.248  1.00  0.00     0.293 HD
ENDBRANCH   5  23
BRANCH   7  25
ATOM     25  O   UNL     1      48.074   7.390  21.295  1.00  0.00    -0.507 OA
ATOM     26  H   UNL     1      48.258   6.799  22.092  1.00  0.00     0.293 HD
ENDBRANCH   7  25
TORSDOF 6
ENDMDL
MODEL 9
REMARK VINA RESULT:    -6.945     10.950     14.058
REMARK INTER + INTRA:          -8.712
REMARK INTER:                  -8.428
REMARK INTRA:                  -0.284
REMARK UNBOUND:                -0.345
REMARK SMILES Oc1cc(O)c2cc(O)c(-c3ccc(O)c(O)c3)[o+]c2c1
REMARK SMILES IDX 10 1 19 2 20 3 21 4 2 5 3 6 4 7 6 8 7 9 8 10 11 11 12 12
REMARK SMILES IDX 13 13 14 14 18 15 16 16 15 17 17 19 9 21 1 23 5 25
REMARK H PARENT 15 18 17 20 9 22 1 24 5 26
REMARK Flexibility Score: inf
ROOT
ATOM      1  C   UNL     1      43.325   3.717  20.040  1.00  0.00     0.402 A 
ATOM      2  O   UNL     1      43.595   4.668  19.150  1.00  0.00    -0.202 OA
ATOM      3  C   UNL     1      44.830   5.004  18.791  1.00  0.00     0.368 A 
ATOM      4  C   UNL     1      45.013   6.020  17.849  1.00  0.00     0.162 A 
ATOM      5  C   UNL     1      46.297   6.394  17.455  1.00  0.00     0.128 A 
ATOM      6  C   UNL     1      47.411   5.750  18.008  1.00  0.00     0.093 A 
ATOM      7  C   UNL     1      47.255   4.730  18.954  1.00  0.00     0.136 A 
ATOM      8  C   UNL     1      45.949   4.344  19.354  1.00  0.00     0.125 A 
ATOM      9  C   UNL     1      45.697   3.323  20.285  1.00  0.00     0.078 A 
ATOM     10  C   UNL     1      44.382   2.996  20.628  1.00  0.00     0.223 A 
ENDROOT
BRANCH   1  11
ATOM     11  C   UNL     1      41.907   3.443  20.364  1.00  0.00     0.087 A 
ATOM     12  C   UNL     1      41.252   2.301  19.875  1.00  0.00     0.022 A 
ATOM     13  C   UNL     1      39.921   2.053  20.213  1.00  0.00     0.051 A 
ATOM     14  C   UNL     1      39.221   2.926  21.053  1.00  0.00     0.157 A 
ATOM     15  C   UNL     1      41.215   4.309  21.225  1.00  0.00     0.068 A 
ATOM     16  C   UNL     1      39.879   4.068  21.571  1.00  0.00     0.158 A 
BRANCH  14  17
ATOM     17  O   UNL     1      37.891   2.622  21.350  1.00  0.00    -0.504 OA
ATOM     18  H   UNL     1      37.241   3.275  21.761  1.00  0.00     0.293 HD
ENDBRANCH  14  17
BRANCH  16  19
ATOM     19  O   UNL     1      39.251   4.979  22.421  1.00  0.00    -0.504 OA
ATOM     20  H   UNL     1      39.740   5.557  23.089  1.00  0.00     0.293 HD
ENDBRANCH  16  19
ENDBRANCH   1  11
BRANCH  10  21
ATOM     21  O   UNL     1      44.129   1.949  21.515  1.00  0.00    -0.500 OA
ATOM     22  H   UNL     1      44.815   1.225  21.693  1.00  0.00     0.294 HD
ENDBRANCH  10  21
BRANCH   5  23
ATOM     23  O   UNL     1      46.459   7.409  16.514  1.00  0.00    -0.507 OA
ATOM     24  H   UNL     1      47.373   7.783  16.291  1.00  0.00     0.293 HD
ENDBRANCH   5  23
BRANCH   7  25
ATOM     25  O   UNL     1      48.415   4.139  19.460  1.00  0.00    -0.507 OA
ATOM     26  H   UNL     1      48.920   4.472  20.268  1.00  0.00     0.293 HD
ENDBRANCH   7  25
TORSDOF 6
ENDMDL
