MODEL 1
REMARK VINA RESULT:     1.080      0.000      0.000
REMARK INTER + INTRA:           1.097
REMARK INTER:                   1.238
REMARK INTRA:                  -0.141
REMARK UNBOUND:                -0.141
REMARK SMILES O=C([O-])C=Cc1ccc(O)cc1
REMARK SMILES IDX 6 1 7 2 12 3 8 4 11 5 9 6 5 7 4 8 2 9 1 10 3 11 10 12
REMARK H PARENT 10 13
REMARK Flexibility Score: inf
ROOT
ATOM      1  C   UNL     1      -3.992  -1.105   1.988  1.00  0.00    -0.025 A 
ATOM      2  C   UNL     1      -4.900  -2.075   2.445  1.00  0.00     0.012 A 
ATOM      3  C   UNL     1      -3.922  -0.839   0.605  1.00  0.00     0.012 A 
ATOM      4  C   UNL     1      -5.738  -2.745   1.549  1.00  0.00     0.047 A 
ATOM      5  C   UNL     1      -4.760  -1.513  -0.289  1.00  0.00     0.047 A 
ATOM      6  C   UNL     1      -5.672  -2.464   0.179  1.00  0.00     0.115 A 
ENDROOT
BRANCH   1   7
ATOM      7  C   UNL     1      -3.118  -0.429   2.978  1.00  0.00     0.010 C 
ATOM      8  C   UNL     1      -1.855  -0.057   2.725  1.00  0.00     0.025 C 
BRANCH   8   9
ATOM      9  C   UNL     1      -1.028   0.623   3.734  1.00  0.00     0.064 C 
ATOM     10  O   UNL     1       0.225   0.525   3.678  1.00  0.00    -0.545 OA
ATOM     11  O   UNL     1      -1.609   1.371   4.752  1.00  0.00    -0.545 OA
ENDBRANCH   8   9
ENDBRANCH   1   7
BRANCH   6  12
ATOM     12  O   UNL     1      -6.500  -3.125  -0.724  1.00  0.00    -0.508 OA
ATOM     13  H   UNL     1      -6.727  -4.106  -0.614  1.00  0.00     0.293 HD
ENDBRANCH   6  12
TORSDOF 3
ENDMDL
MODEL 2
REMARK VINA RESULT:     2.715      0.530      1.490
REMARK INTER + INTRA:           2.972
REMARK INTER:                   3.122
REMARK INTRA:                  -0.150
REMARK UNBOUND:                -0.141
REMARK SMILES O=C([O-])C=Cc1ccc(O)cc1
REMARK SMILES IDX 6 1 7 2 12 3 8 4 11 5 9 6 5 7 4 8 2 9 1 10 3 11 10 12
REMARK H PARENT 10 13
REMARK Flexibility Score: inf
ROOT
ATOM      1  C   UNL     1      -3.891  -1.081   2.507  1.00  0.00    -0.025 A 
ATOM      2  C   UNL     1      -3.805  -0.921   1.113  1.00  0.00     0.012 A 
ATOM      3  C   UNL     1      -4.905  -1.907   3.035  1.00  0.00     0.012 A 
ATOM      4  C   UNL     1      -4.691  -1.589   0.264  1.00  0.00     0.047 A 
ATOM      5  C   UNL     1      -5.792  -2.572   2.181  1.00  0.00     0.047 A 
ATOM      6  C   UNL     1      -5.686  -2.419   0.796  1.00  0.00     0.115 A 
ENDROOT
BRANCH   1   7
ATOM      7  C   UNL     1      -2.934  -0.342   3.366  1.00  0.00     0.010 C 
ATOM      8  C   UNL     1      -1.733   0.083   2.950  1.00  0.00     0.025 C 
BRANCH   8   9
ATOM      9  C   UNL     1      -0.820   0.823   3.835  1.00  0.00     0.064 C 
ATOM     10  O   UNL     1       0.384   0.972   3.500  1.00  0.00    -0.545 OA
ATOM     11  O   UNL     1      -1.265   1.359   5.039  1.00  0.00    -0.545 OA
ENDBRANCH   8   9
ENDBRANCH   1   7
BRANCH   6  12
ATOM     12  O   UNL     1      -6.575  -3.089  -0.040  1.00  0.00    -0.508 OA
ATOM     13  H   UNL     1      -7.032  -2.620  -0.813  1.00  0.00     0.293 HD
ENDBRANCH   6  12
TORSDOF 3
ENDMDL
MODEL 3
REMARK VINA RESULT:     3.679      1.158      5.870
REMARK INTER + INTRA:           4.076
REMARK INTER:                   4.219
REMARK INTRA:                  -0.143
REMARK UNBOUND:                -0.141
REMARK SMILES O=C([O-])C=Cc1ccc(O)cc1
REMARK SMILES IDX 6 1 7 2 12 3 8 4 11 5 9 6 5 7 4 8 2 9 1 10 3 11 10 12
REMARK H PARENT 10 13
REMARK Flexibility Score: inf
ROOT
ATOM      1  C   UNL     1      -3.152  -0.523   2.187  1.00  0.00    -0.025 A 
ATOM      2  C   UNL     1      -1.807  -0.124   2.112  1.00  0.00     0.012 A 
ATOM      3  C   UNL     1      -3.903  -0.174   3.329  1.00  0.00     0.012 A 
ATOM      4  C   UNL     1      -1.230   0.628   3.139  1.00  0.00     0.047 A 
ATOM      5  C   UNL     1      -3.320   0.577   4.355  1.00  0.00     0.047 A 
ATOM      6  C   UNL     1      -1.986   0.982   4.263  1.00  0.00     0.115 A 
ENDROOT
BRANCH   1   7
ATOM      7  C   UNL     1      -3.717  -1.328   1.076  1.00  0.00     0.010 C 
ATOM      8  C   UNL     1      -4.919  -1.919   1.119  1.00  0.00     0.025 C 
BRANCH   8   9
ATOM      9  C   UNL     1      -5.444  -2.699  -0.012  1.00  0.00     0.064 C 
ATOM     10  O   UNL     1      -6.628  -3.124   0.023  1.00  0.00    -0.545 OA
ATOM     11  O   UNL     1      -4.652  -2.977  -1.121  1.00  0.00    -0.545 OA
ENDBRANCH   8   9
ENDBRANCH   1   7
BRANCH   6  12
ATOM     12  O   UNL     1      -1.421   1.730   5.293  1.00  0.00    -0.508 OA
ATOM     13  H   UNL     1      -0.451   1.615   5.561  1.00  0.00     0.293 HD
ENDBRANCH   6  12
TORSDOF 3
ENDMDL
MODEL 4
REMARK VINA RESULT:     3.932      1.127      5.686
REMARK INTER + INTRA:           4.367
REMARK INTER:                   4.511
REMARK INTRA:                  -0.144
REMARK UNBOUND:                -0.141
REMARK SMILES O=C([O-])C=Cc1ccc(O)cc1
REMARK SMILES IDX 6 1 7 2 12 3 8 4 11 5 9 6 5 7 4 8 2 9 1 10 3 11 10 12
REMARK H PARENT 10 13
REMARK Flexibility Score: inf
ROOT
ATOM      1  C   UNL     1      -3.097  -0.368   2.116  1.00  0.00    -0.025 A 
ATOM      2  C   UNL     1      -3.784  -0.064   3.304  1.00  0.00     0.012 A 
ATOM      3  C   UNL     1      -1.739  -0.003   2.005  1.00  0.00     0.012 A 
ATOM      4  C   UNL     1      -3.128   0.564   4.366  1.00  0.00     0.047 A 
ATOM      5  C   UNL     1      -1.086   0.627   3.069  1.00  0.00     0.047 A 
ATOM      6  C   UNL     1      -1.775   0.909   4.252  1.00  0.00     0.115 A 
ENDROOT
BRANCH   1   7
ATOM      7  C   UNL     1      -3.841  -1.026   1.014  1.00  0.00     0.010 C 
ATOM      8  C   UNL     1      -4.648  -2.082   1.186  1.00  0.00     0.025 C 
BRANCH   8   9
ATOM      9  C   UNL     1      -5.375  -2.696   0.065  1.00  0.00     0.064 C 
ATOM     10  O   UNL     1      -4.801  -2.834  -1.046  1.00  0.00    -0.545 OA
ATOM     11  O   UNL     1      -6.691  -3.124   0.210  1.00  0.00    -0.545 OA
ENDBRANCH   8   9
ENDBRANCH   1   7
BRANCH   6  12
ATOM     12  O   UNL     1      -1.111   1.536   5.303  1.00  0.00    -0.508 OA
ATOM     13  H   UNL     1      -0.728   1.007   6.077  1.00  0.00     0.293 HD
ENDBRANCH   6  12
TORSDOF 3
ENDMDL
