MODEL 1
REMARK VINA RESULT:    -3.143      0.000      0.000
REMARK INTER + INTRA:          -7.530
REMARK INTER:                  -5.716
REMARK INTRA:                  -1.814
REMARK UNBOUND:                -1.814
REMARK SMILES CCCCCCCCCCCCCCCC(=O)[O-]
REMARK SMILES IDX 9 1 10 2 11 3 12 4 13 5 14 6 15 7 16 8 17 9 18 10 8 11 7 12
REMARK SMILES IDX 6 13 5 14 4 15 3 16 2 17 1 18
REMARK H PARENT
REMARK Flexibility Score: inf
ROOT
ATOM      1  C   UNL     1      -1.726  12.095   9.737  1.00  0.00     0.000 C 
ENDROOT
BRANCH   1   2
ATOM      2  C   UNL     1      -0.597  12.371  10.744  1.00  0.00     0.000 C 
BRANCH   2   3
ATOM      3  C   UNL     1      -0.977  13.436  11.784  1.00  0.00     0.000 C 
BRANCH   3   4
ATOM      4  C   UNL     1      -2.184  14.258  11.312  1.00  0.00     0.000 C 
BRANCH   4   5
ATOM      5  C   UNL     1      -1.817  15.742  11.172  1.00  0.00     0.000 C 
BRANCH   5   6
ATOM      6  C   UNL     1      -1.706  16.462  12.529  1.00  0.00     0.006 C 
BRANCH   6   7
ATOM      7  C   UNL     1      -2.311  17.875  12.547  1.00  0.00     0.053 C 
BRANCH   7   8
ATOM      8  C   UNL     1      -3.488  17.971  13.468  1.00  0.00     0.041 C 
ATOM      9  O   UNL     1      -4.276  18.951  13.389  1.00  0.00    -0.550 OA
ATOM     10  O   UNL     1      -3.734  16.962  14.390  1.00  0.00    -0.550 OA
ENDBRANCH   7   8
ENDBRANCH   6   7
ENDBRANCH   5   6
ENDBRANCH   4   5
ENDBRANCH   3   4
ENDBRANCH   2   3
ENDBRANCH   1   2
BRANCH   1  11
ATOM     11  C   UNL     1      -1.365  10.984   8.735  1.00  0.00     0.000 C 
BRANCH  11  12
ATOM     12  C   UNL     1      -1.215   9.609   9.407  1.00  0.00    -0.000 C 
BRANCH  12  13
ATOM     13  C   UNL     1      -2.454   9.210  10.223  1.00  0.00    -0.000 C 
BRANCH  13  14
ATOM     14  C   UNL     1      -2.113   9.088  11.713  1.00  0.00    -0.000 C 
BRANCH  14  15
ATOM     15  C   UNL     1      -3.112   9.874  12.575  1.00  0.00    -0.000 C 
BRANCH  15  16
ATOM     16  C   UNL     1      -4.291  10.427  11.747  1.00  0.00    -0.000 C 
BRANCH  16  17
ATOM     17  C   UNL     1      -4.878  11.733  12.309  1.00  0.00    -0.003 C 
ATOM     18  C   UNL     1      -4.148  12.230  13.554  1.00  0.00     0.004 C 
ENDBRANCH  16  17
ENDBRANCH  15  16
ENDBRANCH  14  15
ENDBRANCH  13  14
ENDBRANCH  12  13
ENDBRANCH  11  12
ENDBRANCH   1  11
TORSDOF 14
ENDMDL
MODEL 2
REMARK VINA RESULT:    -3.121      1.326      2.012
REMARK INTER + INTRA:          -7.489
REMARK INTER:                  -5.574
REMARK INTRA:                  -1.914
REMARK UNBOUND:                -1.814
REMARK SMILES CCCCCCCCCCCCCCCC(=O)[O-]
REMARK SMILES IDX 9 1 10 2 11 3 12 4 13 5 14 6 15 7 16 8 17 9 18 10 8 11 7 12
REMARK SMILES IDX 6 13 5 14 4 15 3 16 2 17 1 18
REMARK H PARENT
REMARK Flexibility Score: inf
ROOT
ATOM      1  C   UNL     1      -2.653  13.315  10.610  1.00  0.00     0.000 C 
ENDROOT
BRANCH   1   2
ATOM      2  C   UNL     1      -1.541  14.070  11.357  1.00  0.00     0.000 C 
BRANCH   2   3
ATOM      3  C   UNL     1      -2.091  15.117  12.338  1.00  0.00     0.000 C 
BRANCH   3   4
ATOM      4  C   UNL     1      -1.797  16.540  11.844  1.00  0.00     0.000 C 
BRANCH   4   5
ATOM      5  C   UNL     1      -1.070  17.357  12.921  1.00  0.00     0.000 C 
BRANCH   5   6
ATOM      6  C   UNL     1      -1.857  18.607  13.356  1.00  0.00     0.006 C 
BRANCH   6   7
ATOM      7  C   UNL     1      -3.324  18.623  12.894  1.00  0.00     0.053 C 
BRANCH   7   8
ATOM      8  C   UNL     1      -4.270  18.315  14.013  1.00  0.00     0.041 C 
ATOM      9  O   UNL     1      -5.195  19.120  14.300  1.00  0.00    -0.550 OA
ATOM     10  O   UNL     1      -4.151  17.124  14.717  1.00  0.00    -0.550 OA
ENDBRANCH   7   8
ENDBRANCH   6   7
ENDBRANCH   5   6
ENDBRANCH   4   5
ENDBRANCH   3   4
ENDBRANCH   2   3
ENDBRANCH   1   2
BRANCH   1  11
ATOM     11  C   UNL     1      -2.193  11.938  10.100  1.00  0.00     0.000 C 
BRANCH  11  12
ATOM     12  C   UNL     1      -1.036  11.358  10.930  1.00  0.00    -0.000 C 
BRANCH  12  13
ATOM     13  C   UNL     1      -1.520  10.422  12.048  1.00  0.00    -0.000 C 
BRANCH  13  14
ATOM     14  C   UNL     1      -1.151  10.979  13.428  1.00  0.00    -0.000 C 
BRANCH  14  15
ATOM     15  C   UNL     1      -2.347  11.693  14.075  1.00  0.00    -0.000 C 
BRANCH  15  16
ATOM     16  C   UNL     1      -3.677  10.952  13.820  1.00  0.00    -0.000 C 
BRANCH  16  17
ATOM     17  C   UNL     1      -4.719  11.799  13.071  1.00  0.00    -0.003 C 
ATOM     18  C   UNL     1      -5.445  11.023  11.975  1.00  0.00     0.004 C 
ENDBRANCH  16  17
ENDBRANCH  15  16
ENDBRANCH  14  15
ENDBRANCH  13  14
ENDBRANCH  12  13
ENDBRANCH  11  12
ENDBRANCH   1  11
TORSDOF 14
ENDMDL
MODEL 3
REMARK VINA RESULT:    -3.031     16.536     18.331
REMARK INTER + INTRA:          -7.326
REMARK INTER:                  -6.037
REMARK INTRA:                  -1.288
REMARK UNBOUND:                -1.814
REMARK SMILES CCCCCCCCCCCCCCCC(=O)[O-]
REMARK SMILES IDX 9 1 10 2 11 3 12 4 13 5 14 6 15 7 16 8 17 9 18 10 8 11 7 12
REMARK SMILES IDX 6 13 5 14 4 15 3 16 2 17 1 18
REMARK H PARENT
REMARK Flexibility Score: inf
ROOT
ATOM      1  C   UNL     1     -19.048  11.888   2.494  1.00  0.00     0.000 C 
ENDROOT
BRANCH   1   2
ATOM      2  C   UNL     1     -18.168  10.679   2.138  1.00  0.00     0.000 C 
BRANCH   2   3
ATOM      3  C   UNL     1     -17.210  10.288   3.274  1.00  0.00     0.000 C 
BRANCH   3   4
ATOM      4  C   UNL     1     -16.934  11.484   4.195  1.00  0.00     0.000 C 
BRANCH   4   5
ATOM      5  C   UNL     1     -15.624  11.289   4.971  1.00  0.00     0.000 C 
BRANCH   5   6
ATOM      6  C   UNL     1     -14.848  10.034   4.530  1.00  0.00     0.006 C 
BRANCH   6   7
ATOM      7  C   UNL     1     -13.349  10.272   4.283  1.00  0.00     0.053 C 
BRANCH   7   8
ATOM      8  C   UNL     1     -12.621  10.622   5.543  1.00  0.00     0.041 C 
ATOM      9  O   UNL     1     -11.807  11.584   5.558  1.00  0.00    -0.550 OA
ATOM     10  O   UNL     1     -12.865   9.909   6.709  1.00  0.00    -0.550 OA
ENDBRANCH   7   8
ENDBRANCH   6   7
ENDBRANCH   5   6
ENDBRANCH   4   5
ENDBRANCH   3   4
ENDBRANCH   2   3
ENDBRANCH   1   2
BRANCH   1  11
ATOM     11  C   UNL     1     -19.556  12.636   1.247  1.00  0.00     0.000 C 
BRANCH  11  12
ATOM     12  C   UNL     1     -19.052  14.087   1.184  1.00  0.00    -0.000 C 
BRANCH  12  13
ATOM     13  C   UNL     1     -18.910  14.603  -0.256  1.00  0.00    -0.000 C 
BRANCH  13  14
ATOM     14  C   UNL     1     -19.441  13.575  -1.262  1.00  0.00    -0.000 C 
BRANCH  14  15
ATOM     15  C   UNL     1     -18.748  13.724  -2.624  1.00  0.00    -0.000 C 
BRANCH  15  16
ATOM     16  C   UNL     1     -17.996  12.443  -3.041  1.00  0.00    -0.000 C 
BRANCH  16  17
ATOM     17  C   UNL     1     -17.017  11.928  -1.971  1.00  0.00    -0.003 C 
ATOM     18  C   UNL     1     -17.394  10.552  -1.428  1.00  0.00     0.004 C 
ENDBRANCH  16  17
ENDBRANCH  15  16
ENDBRANCH  14  15
ENDBRANCH  13  14
ENDBRANCH  12  13
ENDBRANCH  11  12
ENDBRANCH   1  11
TORSDOF 14
ENDMDL
MODEL 4
REMARK VINA RESULT:    -3.007      1.053      2.891
REMARK INTER + INTRA:          -7.281
REMARK INTER:                  -5.636
REMARK INTRA:                  -1.646
REMARK UNBOUND:                -1.814
REMARK SMILES CCCCCCCCCCCCCCCC(=O)[O-]
REMARK SMILES IDX 9 1 10 2 11 3 12 4 13 5 14 6 15 7 16 8 17 9 18 10 8 11 7 12
REMARK SMILES IDX 6 13 5 14 4 15 3 16 2 17 1 18
REMARK H PARENT
REMARK Flexibility Score: inf
ROOT
ATOM      1  C   UNL     1      -2.513  13.227  10.803  1.00  0.00     0.000 C 
ENDROOT
BRANCH   1   2
ATOM      2  C   UNL     1      -1.013  13.162  11.135  1.00  0.00     0.000 C 
BRANCH   2   3
ATOM      3  C   UNL     1      -0.652  13.949  12.403  1.00  0.00     0.000 C 
BRANCH   3   4
ATOM      4  C   UNL     1      -0.606  15.456  12.120  1.00  0.00     0.000 C 
BRANCH   4   5
ATOM      5  C   UNL     1      -1.572  16.218  13.037  1.00  0.00     0.000 C 
BRANCH   5   6
ATOM      6  C   UNL     1      -2.304  17.364  12.314  1.00  0.00     0.006 C 
BRANCH   6   7
ATOM      7  C   UNL     1      -2.681  18.547  13.222  1.00  0.00     0.053 C 
BRANCH   7   8
ATOM      8  C   UNL     1      -4.029  18.367  13.849  1.00  0.00     0.041 C 
ATOM      9  O   UNL     1      -4.942  19.209  13.642  1.00  0.00    -0.550 OA
ATOM     10  O   UNL     1      -4.288  17.251  14.635  1.00  0.00    -0.550 OA
ENDBRANCH   7   8
ENDBRANCH   6   7
ENDBRANCH   5   6
ENDBRANCH   4   5
ENDBRANCH   3   4
ENDBRANCH   2   3
ENDBRANCH   1   2
BRANCH   1  11
ATOM     11  C   UNL     1      -3.390  12.604  11.905  1.00  0.00     0.000 C 
BRANCH  11  12
ATOM     12  C   UNL     1      -4.032  11.277  11.468  1.00  0.00    -0.000 C 
BRANCH  12  13
ATOM     13  C   UNL     1      -3.320  10.051  12.057  1.00  0.00    -0.000 C 
BRANCH  13  14
ATOM     14  C   UNL     1      -2.645   9.227  10.954  1.00  0.00    -0.000 C 
BRANCH  14  15
ATOM     15  C   UNL     1      -1.116   9.262  11.094  1.00  0.00    -0.000 C 
BRANCH  15  16
ATOM     16  C   UNL     1      -0.421   9.760   9.809  1.00  0.00    -0.000 C 
BRANCH  16  17
ATOM     17  C   UNL     1      -1.390   9.988   8.636  1.00  0.00    -0.003 C 
ATOM     18  C   UNL     1      -1.157  11.314   7.916  1.00  0.00     0.004 C 
ENDBRANCH  16  17
ENDBRANCH  15  16
ENDBRANCH  14  15
ENDBRANCH  13  14
ENDBRANCH  12  13
ENDBRANCH  11  12
ENDBRANCH   1  11
TORSDOF 14
ENDMDL
MODEL 5
REMARK VINA RESULT:    -2.945      2.188      5.900
REMARK INTER + INTRA:          -7.170
REMARK INTER:                  -5.634
REMARK INTRA:                  -1.536
REMARK UNBOUND:                -1.814
REMARK SMILES CCCCCCCCCCCCCCCC(=O)[O-]
REMARK SMILES IDX 9 1 10 2 11 3 12 4 13 5 14 6 15 7 16 8 17 9 18 10 8 11 7 12
REMARK SMILES IDX 6 13 5 14 4 15 3 16 2 17 1 18
REMARK H PARENT
REMARK Flexibility Score: inf
ROOT
ATOM      1  C   UNL     1      -1.756  11.731   8.773  1.00  0.00     0.000 C 
ENDROOT
BRANCH   1   2
ATOM      2  C   UNL     1      -0.344  11.128   8.857  1.00  0.00     0.000 C 
BRANCH   2   3
ATOM      3  C   UNL     1      -0.349   9.594   8.787  1.00  0.00     0.000 C 
BRANCH   3   4
ATOM      4  C   UNL     1      -1.711   9.029   9.210  1.00  0.00     0.000 C 
BRANCH   4   5
ATOM      5  C   UNL     1      -1.811   8.917  10.737  1.00  0.00     0.000 C 
BRANCH   5   6
ATOM      6  C   UNL     1      -3.256   9.053  11.253  1.00  0.00     0.006 C 
BRANCH   6   7
ATOM      7  C   UNL     1      -3.420  10.042  12.420  1.00  0.00     0.053 C 
BRANCH   7   8
ATOM      8  C   UNL     1      -4.554  10.993  12.195  1.00  0.00     0.041 C 
ATOM      9  O   UNL     1      -5.555  10.638  11.517  1.00  0.00    -0.550 OA
ATOM     10  O   UNL     1      -4.523  12.260  12.763  1.00  0.00    -0.550 OA
ENDBRANCH   7   8
ENDBRANCH   6   7
ENDBRANCH   5   6
ENDBRANCH   4   5
ENDBRANCH   3   4
ENDBRANCH   2   3
ENDBRANCH   1   2
BRANCH   1  11
ATOM     11  C   UNL     1      -2.096  12.614   9.987  1.00  0.00     0.000 C 
BRANCH  11  12
ATOM     12  C   UNL     1      -1.010  12.563  11.075  1.00  0.00    -0.000 C 
BRANCH  12  13
ATOM     13  C   UNL     1      -0.933  13.859  11.896  1.00  0.00    -0.000 C 
BRANCH  13  14
ATOM     14  C   UNL     1      -2.144  14.757  11.618  1.00  0.00    -0.000 C 
BRANCH  14  15
ATOM     15  C   UNL     1      -1.706  16.195  11.304  1.00  0.00    -0.000 C 
BRANCH  15  16
ATOM     16  C   UNL     1      -1.575  17.058  12.577  1.00  0.00    -0.000 C 
BRANCH  16  17
ATOM     17  C   UNL     1      -2.764  18.008  12.801  1.00  0.00    -0.003 C 
ATOM     18  C   UNL     1      -3.591  17.652  14.033  1.00  0.00     0.004 C 
ENDBRANCH  16  17
ENDBRANCH  15  16
ENDBRANCH  14  15
ENDBRANCH  13  14
ENDBRANCH  12  13
ENDBRANCH  11  12
ENDBRANCH   1  11
TORSDOF 14
ENDMDL
MODEL 6
REMARK VINA RESULT:    -2.935     18.140     19.815
REMARK INTER + INTRA:          -7.152
REMARK INTER:                  -5.588
REMARK INTRA:                  -1.564
REMARK UNBOUND:                -1.814
REMARK SMILES CCCCCCCCCCCCCCCC(=O)[O-]
REMARK SMILES IDX 9 1 10 2 11 3 12 4 13 5 14 6 15 7 16 8 17 9 18 10 8 11 7 12
REMARK SMILES IDX 6 13 5 14 4 15 3 16 2 17 1 18
REMARK H PARENT
REMARK Flexibility Score: inf
ROOT
ATOM      1  C   UNL     1     -19.021  14.141   1.163  1.00  0.00     0.000 C 
ENDROOT
BRANCH   1   2
ATOM      2  C   UNL     1     -19.598  12.722   1.288  1.00  0.00     0.000 C 
BRANCH   2   3
ATOM      3  C   UNL     1     -18.888  11.710   0.376  1.00  0.00     0.000 C 
BRANCH   3   4
ATOM      4  C   UNL     1     -18.269  10.571   1.195  1.00  0.00     0.000 C 
BRANCH   4   5
ATOM      5  C   UNL     1     -18.430  10.825   2.700  1.00  0.00     0.000 C 
BRANCH   5   6
ATOM      6  C   UNL     1     -17.173  10.449   3.508  1.00  0.00     0.006 C 
BRANCH   6   7
ATOM      7  C   UNL     1     -16.650  11.569   4.422  1.00  0.00     0.053 C 
BRANCH   7   8
ATOM      8  C   UNL     1     -15.323  11.229   5.025  1.00  0.00     0.041 C 
ATOM      9  O   UNL     1     -14.536  10.449   4.426  1.00  0.00    -0.550 OA
ATOM     10  O   UNL     1     -14.939  11.801   6.231  1.00  0.00    -0.550 OA
ENDBRANCH   7   8
ENDBRANCH   6   7
ENDBRANCH   5   6
ENDBRANCH   4   5
ENDBRANCH   3   4
ENDBRANCH   2   3
ENDBRANCH   1   2
BRANCH   1  11
ATOM     11  C   UNL     1     -18.552  14.465  -0.267  1.00  0.00     0.000 C 
BRANCH  11  12
ATOM     12  C   UNL     1     -19.428  15.529  -0.949  1.00  0.00    -0.000 C 
BRANCH  12  13
ATOM     13  C   UNL     1     -19.788  15.162  -2.397  1.00  0.00    -0.000 C 
BRANCH  13  14
ATOM     14  C   UNL     1     -19.280  13.759  -2.749  1.00  0.00    -0.000 C 
BRANCH  14  15
ATOM     15  C   UNL     1     -18.588  13.749  -4.120  1.00  0.00    -0.000 C 
BRANCH  15  16
ATOM     16  C   UNL     1     -17.483  12.676  -4.211  1.00  0.00    -0.000 C 
BRANCH  16  17
ATOM     17  C   UNL     1     -17.466  11.708  -3.016  1.00  0.00    -0.003 C 
ATOM     18  C   UNL     1     -16.142  11.718  -2.256  1.00  0.00     0.004 C 
ENDBRANCH  16  17
ENDBRANCH  15  16
ENDBRANCH  14  15
ENDBRANCH  13  14
ENDBRANCH  12  13
ENDBRANCH  11  12
ENDBRANCH   1  11
TORSDOF 14
ENDMDL
MODEL 7
REMARK VINA RESULT:    -2.904     17.539     19.143
REMARK INTER + INTRA:          -7.094
REMARK INTER:                  -5.462
REMARK INTRA:                  -1.632
REMARK UNBOUND:                -1.814
REMARK SMILES CCCCCCCCCCCCCCCC(=O)[O-]
REMARK SMILES IDX 9 1 10 2 11 3 12 4 13 5 14 6 15 7 16 8 17 9 18 10 8 11 7 12
REMARK SMILES IDX 6 13 5 14 4 15 3 16 2 17 1 18
REMARK H PARENT
REMARK Flexibility Score: inf
ROOT
ATOM      1  C   UNL     1     -19.014  14.641  -0.096  1.00  0.00     0.000 C 
ENDROOT
BRANCH   1   2
ATOM      2  C   UNL     1     -19.695  13.921   1.080  1.00  0.00     0.000 C 
BRANCH   2   3
ATOM      3  C   UNL     1     -18.687  13.304   2.061  1.00  0.00     0.000 C 
BRANCH   3   4
ATOM      4  C   UNL     1     -19.096  11.875   2.441  1.00  0.00     0.000 C 
BRANCH   4   5
ATOM      5  C   UNL     1     -17.896  11.084   2.981  1.00  0.00     0.000 C 
BRANCH   5   6
ATOM      6  C   UNL     1     -17.149  11.825   4.106  1.00  0.00     0.006 C 
BRANCH   6   7
ATOM      7  C   UNL     1     -15.880  11.111   4.599  1.00  0.00     0.053 C 
BRANCH   7   8
ATOM      8  C   UNL     1     -15.533  11.488   6.006  1.00  0.00     0.041 C 
ATOM      9  O   UNL     1     -16.400  11.406   6.917  1.00  0.00    -0.550 OA
ATOM     10  O   UNL     1     -14.244  11.899   6.319  1.00  0.00    -0.550 OA
ENDBRANCH   7   8
ENDBRANCH   6   7
ENDBRANCH   5   6
ENDBRANCH   4   5
ENDBRANCH   3   4
ENDBRANCH   2   3
ENDBRANCH   1   2
BRANCH   1  11
ATOM     11  C   UNL     1     -18.631  13.679  -1.236  1.00  0.00     0.000 C 
BRANCH  11  12
ATOM     12  C   UNL     1     -19.670  12.564  -1.441  1.00  0.00    -0.000 C 
BRANCH  12  13
ATOM     13  C   UNL     1     -19.045  11.161  -1.426  1.00  0.00    -0.000 C 
BRANCH  13  14
ATOM     14  C   UNL     1     -17.556  11.228  -1.067  1.00  0.00    -0.000 C 
BRANCH  14  15
ATOM     15  C   UNL     1     -16.686  10.708  -2.221  1.00  0.00    -0.000 C 
BRANCH  15  16
ATOM     16  C   UNL     1     -15.512  11.657  -2.542  1.00  0.00    -0.000 C 
BRANCH  16  17
ATOM     17  C   UNL     1     -15.534  12.198  -3.982  1.00  0.00    -0.003 C 
ATOM     18  C   UNL     1     -16.917  12.668  -4.423  1.00  0.00     0.004 C 
ENDBRANCH  16  17
ENDBRANCH  15  16
ENDBRANCH  14  15
ENDBRANCH  13  14
ENDBRANCH  12  13
ENDBRANCH  11  12
ENDBRANCH   1  11
TORSDOF 14
ENDMDL
MODEL 8
REMARK VINA RESULT:    -2.857      2.498      6.385
REMARK INTER + INTRA:          -7.009
REMARK INTER:                  -5.554
REMARK INTRA:                  -1.455
REMARK UNBOUND:                -1.814
REMARK SMILES CCCCCCCCCCCCCCCC(=O)[O-]
REMARK SMILES IDX 9 1 10 2 11 3 12 4 13 5 14 6 15 7 16 8 17 9 18 10 8 11 7 12
REMARK SMILES IDX 6 13 5 14 4 15 3 16 2 17 1 18
REMARK H PARENT
REMARK Flexibility Score: inf
ROOT
ATOM      1  C   UNL     1      -2.837  13.515  10.501  1.00  0.00     0.000 C 
ENDROOT
BRANCH   1   2
ATOM      2  C   UNL     1      -2.095  12.313   9.892  1.00  0.00     0.000 C 
BRANCH   2   3
ATOM      3  C   UNL     1      -0.904  11.856  10.747  1.00  0.00     0.000 C 
BRANCH   3   4
ATOM      4  C   UNL     1      -1.206  10.521  11.439  1.00  0.00     0.000 C 
BRANCH   4   5
ATOM      5  C   UNL     1      -1.507  10.730  12.930  1.00  0.00     0.000 C 
BRANCH   5   6
ATOM      6  C   UNL     1      -2.931  10.289  13.319  1.00  0.00     0.006 C 
BRANCH   6   7
ATOM      7  C   UNL     1      -3.836   9.949  12.124  1.00  0.00     0.053 C 
BRANCH   7   8
ATOM      8  C   UNL     1      -5.067  10.801  12.089  1.00  0.00     0.041 C 
ATOM      9  O   UNL     1      -5.052  11.956  12.594  1.00  0.00    -0.550 OA
ATOM     10  O   UNL     1      -6.219  10.336  11.470  1.00  0.00    -0.550 OA
ENDBRANCH   7   8
ENDBRANCH   6   7
ENDBRANCH   5   6
ENDBRANCH   4   5
ENDBRANCH   3   4
ENDBRANCH   2   3
ENDBRANCH   1   2
BRANCH   1  11
ATOM     11  C   UNL     1      -2.068  14.152  11.672  1.00  0.00     0.000 C 
BRANCH  11  12
ATOM     12  C   UNL     1      -1.729  15.631  11.420  1.00  0.00    -0.000 C 
BRANCH  12  13
ATOM     13  C   UNL     1      -0.300  15.994  11.852  1.00  0.00    -0.000 C 
BRANCH  13  14
ATOM     14  C   UNL     1      -0.310  17.137  12.874  1.00  0.00    -0.000 C 
BRANCH  14  15
ATOM     15  C   UNL     1      -1.606  17.130  13.699  1.00  0.00    -0.000 C 
BRANCH  15  16
ATOM     16  C   UNL     1      -2.250  18.529  13.789  1.00  0.00    -0.000 C 
BRANCH  16  17
ATOM     17  C   UNL     1      -3.602  18.632  13.064  1.00  0.00    -0.003 C 
ATOM     18  C   UNL     1      -4.737  19.089  13.977  1.00  0.00     0.004 C 
ENDBRANCH  16  17
ENDBRANCH  15  16
ENDBRANCH  14  15
ENDBRANCH  13  14
ENDBRANCH  12  13
ENDBRANCH  11  12
ENDBRANCH   1  11
TORSDOF 14
ENDMDL
MODEL 9
REMARK VINA RESULT:    -2.835      2.953      6.788
REMARK INTER + INTRA:          -6.969
REMARK INTER:                  -5.143
REMARK INTRA:                  -1.825
REMARK UNBOUND:                -1.814
REMARK SMILES CCCCCCCCCCCCCCCC(=O)[O-]
REMARK SMILES IDX 9 1 10 2 11 3 12 4 13 5 14 6 15 7 16 8 17 9 18 10 8 11 7 12
REMARK SMILES IDX 6 13 5 14 4 15 3 16 2 17 1 18
REMARK H PARENT
REMARK Flexibility Score: inf
ROOT
ATOM      1  C   UNL     1      -1.758  14.096  13.369  1.00  0.00     0.000 C 
ENDROOT
BRANCH   1   2
ATOM      2  C   UNL     1      -3.111  14.314  14.068  1.00  0.00     0.000 C 
BRANCH   2   3
ATOM      3  C   UNL     1      -3.590  13.072  14.834  1.00  0.00     0.000 C 
BRANCH   3   4
ATOM      4  C   UNL     1      -3.649  11.847  13.912  1.00  0.00     0.000 C 
BRANCH   4   5
ATOM      5  C   UNL     1      -4.662  12.059  12.779  1.00  0.00     0.000 C 
BRANCH   5   6
ATOM      6  C   UNL     1      -4.056  11.821  11.383  1.00  0.00     0.006 C 
BRANCH   6   7
ATOM      7  C   UNL     1      -2.758  10.996  11.390  1.00  0.00     0.053 C 
BRANCH   7   8
ATOM      8  C   UNL     1      -1.903  11.285  10.195  1.00  0.00     0.041 C 
ATOM      9  O   UNL     1      -2.162  12.269   9.453  1.00  0.00    -0.550 OA
ATOM     10  O   UNL     1      -0.799  10.488   9.921  1.00  0.00    -0.550 OA
ENDBRANCH   7   8
ENDBRANCH   6   7
ENDBRANCH   5   6
ENDBRANCH   4   5
ENDBRANCH   3   4
ENDBRANCH   2   3
ENDBRANCH   1   2
BRANCH   1  11
ATOM     11  C   UNL     1      -1.739  14.648  11.932  1.00  0.00     0.000 C 
BRANCH  11  12
ATOM     12  C   UNL     1      -1.679  16.184  11.891  1.00  0.00    -0.000 C 
BRANCH  12  13
ATOM     13  C   UNL     1      -0.444  16.748  12.609  1.00  0.00    -0.000 C 
BRANCH  13  14
ATOM     14  C   UNL     1      -0.805  17.998  13.422  1.00  0.00    -0.000 C 
BRANCH  14  15
ATOM     15  C   UNL     1      -1.578  17.624  14.695  1.00  0.00    -0.000 C 
BRANCH  15  16
ATOM     16  C   UNL     1      -2.787  18.551  14.939  1.00  0.00    -0.000 C 
BRANCH  16  17
ATOM     17  C   UNL     1      -4.033  18.165  14.123  1.00  0.00    -0.003 C 
ATOM     18  C   UNL     1      -5.081  19.273  14.070  1.00  0.00     0.004 C 
ENDBRANCH  16  17
ENDBRANCH  15  16
ENDBRANCH  14  15
ENDBRANCH  13  14
ENDBRANCH  12  13
ENDBRANCH  11  12
ENDBRANCH   1  11
TORSDOF 14
ENDMDL
