MODEL 1
REMARK VINA RESULT:    -7.013      0.000      0.000
REMARK INTER + INTRA:          -8.526
REMARK INTER:                  -8.243
REMARK INTRA:                  -0.283
REMARK UNBOUND:                -0.283
REMARK SMILES O=c1c(O)c(-c2ccc(O)cc2)oc2cc(O)cc(O)c12
REMARK SMILES IDX 5 1 3 2 2 3 1 4 21 5 19 6 18 7 16 8 15 9 14 10 13 11 6 12
REMARK SMILES IDX 7 13 8 14 9 15 12 16 11 17 10 18 4 20 20 22 17 24
REMARK H PARENT 10 19 4 21 20 23 17 25
REMARK Flexibility Score: inf
ROOT
ATOM      1  C   UNL     1       1.261   1.813  -3.355  1.00  0.00     0.180 A 
ATOM      2  C   UNL     1       1.866   2.390  -2.226  1.00  0.00     0.208 A 
ATOM      3  C   UNL     1       3.262   2.325  -2.092  1.00  0.00     0.238 A 
ATOM      4  O   UNL     1       3.803   2.891  -1.106  1.00  0.00    -0.285 OA
ATOM      5  C   UNL     1       4.035   1.670  -3.082  1.00  0.00     0.111 A 
ATOM      6  C   UNL     1       5.452   1.510  -3.029  1.00  0.00     0.134 A 
ATOM      7  C   UNL     1       6.126   0.960  -4.127  1.00  0.00     0.093 A 
ATOM      8  C   UNL     1       5.427   0.505  -5.247  1.00  0.00     0.123 A 
ATOM      9  C   UNL     1       4.038   0.603  -5.282  1.00  0.00     0.094 A 
ATOM     10  C   UNL     1       3.341   1.180  -4.219  1.00  0.00     0.146 A 
ATOM     11  O   UNL     1       2.018   1.263  -4.297  1.00  0.00    -0.452 OA
ENDROOT
BRANCH   1  12
ATOM     12  C   UNL     1      -0.207   1.818  -3.552  1.00  0.00     0.021 A 
ATOM     13  C   UNL     1      -0.862   2.911  -4.148  1.00  0.00     0.016 A 
ATOM     14  C   UNL     1      -2.252   2.903  -4.303  1.00  0.00     0.047 A 
ATOM     15  C   UNL     1      -3.004   1.813  -3.854  1.00  0.00     0.115 A 
ATOM     16  C   UNL     1      -0.971   0.736  -3.084  1.00  0.00     0.016 A 
ATOM     17  C   UNL     1      -2.360   0.731  -3.241  1.00  0.00     0.047 A 
BRANCH  15  18
ATOM     18  O   UNL     1      -4.388   1.820  -4.016  1.00  0.00    -0.508 OA
ATOM     19  H   UNL     1      -4.980   1.151  -3.536  1.00  0.00     0.293 HD
ENDBRANCH  15  18
ENDBRANCH   1  12
BRANCH   2  20
ATOM     20  O   UNL     1       1.087   3.051  -1.272  1.00  0.00    -0.502 OA
ATOM     21  H   UNL     1       0.415   3.768  -1.520  1.00  0.00     0.293 HD
ENDBRANCH   2  20
BRANCH   6  22
ATOM     22  O   UNL     1       6.234   1.846  -1.921  1.00  0.00    -0.507 OA
ATOM     23  H   UNL     1       7.243   1.825  -1.901  1.00  0.00     0.293 HD
ENDBRANCH   6  22
BRANCH   8  24
ATOM     24  O   UNL     1       6.104  -0.056  -6.327  1.00  0.00    -0.508 OA
ATOM     25  H   UNL     1       6.262   0.463  -7.183  1.00  0.00     0.293 HD
ENDBRANCH   8  24
TORSDOF 5
ENDMDL
MODEL 2
REMARK VINA RESULT:    -6.897      6.286      7.253
REMARK INTER + INTRA:          -8.389
REMARK INTER:                  -8.147
REMARK INTRA:                  -0.243
REMARK UNBOUND:                -0.283
REMARK SMILES O=c1c(O)c(-c2ccc(O)cc2)oc2cc(O)cc(O)c12
REMARK SMILES IDX 5 1 3 2 2 3 1 4 21 5 19 6 18 7 16 8 15 9 14 10 13 11 6 12
REMARK SMILES IDX 7 13 8 14 9 15 12 16 11 17 10 18 4 20 20 22 17 24
REMARK H PARENT 10 19 4 21 20 23 17 25
REMARK Flexibility Score: inf
ROOT
ATOM      1  C   UNL     1      -3.718  -0.257  -3.687  1.00  0.00     0.180 A 
ATOM      2  C   UNL     1      -4.338  -0.397  -2.434  1.00  0.00     0.208 A 
ATOM      3  C   UNL     1      -4.187  -1.603  -1.730  1.00  0.00     0.238 A 
ATOM      4  O   UNL     1      -4.700  -1.702  -0.584  1.00  0.00    -0.285 OA
ATOM      5  C   UNL     1      -3.432  -2.658  -2.295  1.00  0.00     0.111 A 
ATOM      6  C   UNL     1      -3.246  -3.937  -1.688  1.00  0.00     0.134 A 
ATOM      7  C   UNL     1      -2.372  -4.860  -2.276  1.00  0.00     0.093 A 
ATOM      8  C   UNL     1      -1.728  -4.574  -3.482  1.00  0.00     0.123 A 
ATOM      9  C   UNL     1      -1.949  -3.352  -4.112  1.00  0.00     0.094 A 
ATOM     10  C   UNL     1      -2.787  -2.398  -3.532  1.00  0.00     0.146 A 
ATOM     11  O   UNL     1      -2.962  -1.241  -4.160  1.00  0.00    -0.452 OA
ENDROOT
BRANCH   1  12
ATOM     12  C   UNL     1      -3.853   0.974  -4.500  1.00  0.00     0.021 A 
ATOM     13  C   UNL     1      -4.700   1.022  -5.621  1.00  0.00     0.016 A 
ATOM     14  C   UNL     1      -4.793   2.188  -6.387  1.00  0.00     0.047 A 
ATOM     15  C   UNL     1      -4.032   3.313  -6.053  1.00  0.00     0.115 A 
ATOM     16  C   UNL     1      -3.075   2.100  -4.183  1.00  0.00     0.016 A 
ATOM     17  C   UNL     1      -3.170   3.264  -4.950  1.00  0.00     0.047 A 
BRANCH  15  18
ATOM     18  O   UNL     1      -4.136   4.467  -6.826  1.00  0.00    -0.508 OA
ATOM     19  H   UNL     1      -3.362   4.797  -7.391  1.00  0.00     0.293 HD
ENDBRANCH  15  18
ENDBRANCH   1  12
BRANCH   2  20
ATOM     20  O   UNL     1      -5.060   0.666  -1.884  1.00  0.00    -0.502 OA
ATOM     21  H   UNL     1      -5.915   0.528  -1.358  1.00  0.00     0.293 HD
ENDBRANCH   2  20
BRANCH   6  22
ATOM     22  O   UNL     1      -3.913  -4.357  -0.534  1.00  0.00    -0.507 OA
ATOM     23  H   UNL     1      -4.018  -5.319  -0.248  1.00  0.00     0.293 HD
ENDBRANCH   6  22
BRANCH   8  24
ATOM     24  O   UNL     1      -0.873  -5.505  -4.068  1.00  0.00    -0.508 OA
ATOM     25  H   UNL     1      -1.030  -5.853  -5.007  1.00  0.00     0.293 HD
ENDBRANCH   8  24
TORSDOF 5
ENDMDL
MODEL 3
REMARK VINA RESULT:    -6.846      5.032      7.344
REMARK INTER + INTRA:          -8.330
REMARK INTER:                  -8.074
REMARK INTRA:                  -0.255
REMARK UNBOUND:                -0.283
REMARK SMILES O=c1c(O)c(-c2ccc(O)cc2)oc2cc(O)cc(O)c12
REMARK SMILES IDX 5 1 3 2 2 3 1 4 21 5 19 6 18 7 16 8 15 9 14 10 13 11 6 12
REMARK SMILES IDX 7 13 8 14 9 15 12 16 11 17 10 18 4 20 20 22 17 24
REMARK H PARENT 10 19 4 21 20 23 17 25
REMARK Flexibility Score: inf
ROOT
ATOM      1  C   UNL     1      -2.782  -0.904  -3.135  1.00  0.00     0.180 A 
ATOM      2  C   UNL     1      -1.912   0.073  -2.623  1.00  0.00     0.208 A 
ATOM      3  C   UNL     1      -1.912   1.354  -3.200  1.00  0.00     0.238 A 
ATOM      4  O   UNL     1      -1.169   2.241  -2.702  1.00  0.00    -0.285 OA
ATOM      5  C   UNL     1      -2.772   1.637  -4.288  1.00  0.00     0.111 A 
ATOM      6  C   UNL     1      -2.827   2.887  -4.974  1.00  0.00     0.134 A 
ATOM      7  C   UNL     1      -3.807   3.096  -5.953  1.00  0.00     0.093 A 
ATOM      8  C   UNL     1      -4.691   2.077  -6.315  1.00  0.00     0.123 A 
ATOM      9  C   UNL     1      -4.606   0.834  -5.693  1.00  0.00     0.094 A 
ATOM     10  C   UNL     1      -3.663   0.607  -4.689  1.00  0.00     0.146 A 
ATOM     11  O   UNL     1      -3.623  -0.589  -4.114  1.00  0.00    -0.452 OA
ENDROOT
BRANCH   1  12
ATOM     12  C   UNL     1      -2.821  -2.284  -2.598  1.00  0.00     0.021 A 
ATOM     13  C   UNL     1      -2.200  -3.350  -3.272  1.00  0.00     0.016 A 
ATOM     14  C   UNL     1      -2.270  -4.649  -2.757  1.00  0.00     0.047 A 
ATOM     15  C   UNL     1      -2.971  -4.901  -1.574  1.00  0.00     0.115 A 
ATOM     16  C   UNL     1      -3.541  -2.547  -1.421  1.00  0.00     0.016 A 
ATOM     17  C   UNL     1      -3.609  -3.846  -0.908  1.00  0.00     0.047 A 
BRANCH  15  18
ATOM     18  O   UNL     1      -3.031  -6.199  -1.073  1.00  0.00    -0.508 OA
ATOM     19  H   UNL     1      -3.783  -6.496  -0.462  1.00  0.00     0.293 HD
ENDBRANCH  15  18
ENDBRANCH   1  12
BRANCH   2  20
ATOM     20  O   UNL     1      -1.088  -0.220  -1.533  1.00  0.00    -0.502 OA
ATOM     21  H   UNL     1      -1.420  -0.725  -0.721  1.00  0.00     0.293 HD
ENDBRANCH   2  20
BRANCH   6  22
ATOM     22  O   UNL     1      -1.932   3.938  -4.754  1.00  0.00    -0.507 OA
ATOM     23  H   UNL     1      -2.165   4.806  -4.296  1.00  0.00     0.293 HD
ENDBRANCH   6  22
BRANCH   8  24
ATOM     24  O   UNL     1      -5.652   2.288  -7.302  1.00  0.00    -0.508 OA
ATOM     25  H   UNL     1      -6.428   2.923  -7.159  1.00  0.00     0.293 HD
ENDBRANCH   8  24
TORSDOF 5
ENDMDL
MODEL 4
REMARK VINA RESULT:    -6.842      4.171      5.559
REMARK INTER + INTRA:          -8.324
REMARK INTER:                  -8.032
REMARK INTRA:                  -0.292
REMARK UNBOUND:                -0.283
REMARK SMILES O=c1c(O)c(-c2ccc(O)cc2)oc2cc(O)cc(O)c12
REMARK SMILES IDX 5 1 3 2 2 3 1 4 21 5 19 6 18 7 16 8 15 9 14 10 13 11 6 12
REMARK SMILES IDX 7 13 8 14 9 15 12 16 11 17 10 18 4 20 20 22 17 24
REMARK H PARENT 10 19 4 21 20 23 17 25
REMARK Flexibility Score: inf
ROOT
ATOM      1  C   UNL     1      -1.439   0.864  -3.644  1.00  0.00     0.180 A 
ATOM      2  C   UNL     1      -2.314   0.177  -2.787  1.00  0.00     0.208 A 
ATOM      3  C   UNL     1      -2.290  -1.227  -2.772  1.00  0.00     0.238 A 
ATOM      4  O   UNL     1      -3.038  -1.835  -1.963  1.00  0.00    -0.285 OA
ATOM      5  C   UNL     1      -1.402  -1.926  -3.625  1.00  0.00     0.111 A 
ATOM      6  C   UNL     1      -1.321  -3.347  -3.721  1.00  0.00     0.134 A 
ATOM      7  C   UNL     1      -0.316  -3.930  -4.502  1.00  0.00     0.093 A 
ATOM      8  C   UNL     1       0.569  -3.142  -5.242  1.00  0.00     0.123 A 
ATOM      9  C   UNL     1       0.460  -1.755  -5.201  1.00  0.00     0.094 A 
ATOM     10  C   UNL     1      -0.509  -1.144  -4.403  1.00  0.00     0.146 A 
ATOM     11  O   UNL     1      -0.572   0.182  -4.385  1.00  0.00    -0.452 OA
ENDROOT
BRANCH   1  12
ATOM     12  C   UNL     1      -1.424   2.343  -3.736  1.00  0.00     0.021 A 
ATOM     13  C   UNL     1      -2.195   3.026  -4.693  1.00  0.00     0.016 A 
ATOM     14  C   UNL     1      -2.146   4.421  -4.775  1.00  0.00     0.047 A 
ATOM     15  C   UNL     1      -1.319   5.149  -3.915  1.00  0.00     0.115 A 
ATOM     16  C   UNL     1      -0.579   3.079  -2.888  1.00  0.00     0.016 A 
ATOM     17  C   UNL     1      -0.532   4.474  -2.973  1.00  0.00     0.047 A 
BRANCH  15  18
ATOM     18  O   UNL     1      -1.282   6.538  -4.008  1.00  0.00    -0.508 OA
ATOM     19  H   UNL     1      -1.809   7.125  -3.372  1.00  0.00     0.293 HD
ENDBRANCH  15  18
ENDBRANCH   1  12
BRANCH   2  20
ATOM     20  O   UNL     1      -3.166   0.886  -1.936  1.00  0.00    -0.502 OA
ATOM     21  H   UNL     1      -3.159   1.898  -1.878  1.00  0.00     0.293 HD
ENDBRANCH   2  20
BRANCH   6  22
ATOM     22  O   UNL     1      -2.213  -4.223  -3.097  1.00  0.00    -0.507 OA
ATOM     23  H   UNL     1      -2.021  -4.730  -2.246  1.00  0.00     0.293 HD
ENDBRANCH   6  22
BRANCH   8  24
ATOM     24  O   UNL     1       1.556  -3.732  -6.030  1.00  0.00    -0.508 OA
ATOM     25  H   UNL     1       2.501  -3.859  -5.690  1.00  0.00     0.293 HD
ENDBRANCH   8  24
TORSDOF 5
ENDMDL
MODEL 5
REMARK VINA RESULT:    -6.793      1.458      2.166
REMARK INTER + INTRA:          -8.268
REMARK INTER:                  -7.980
REMARK INTRA:                  -0.288
REMARK UNBOUND:                -0.283
REMARK SMILES O=c1c(O)c(-c2ccc(O)cc2)oc2cc(O)cc(O)c12
REMARK SMILES IDX 5 1 3 2 2 3 1 4 21 5 19 6 18 7 16 8 15 9 14 10 13 11 6 12
REMARK SMILES IDX 7 13 8 14 9 15 12 16 11 17 10 18 4 20 20 22 17 24
REMARK H PARENT 10 19 4 21 20 23 17 25
REMARK Flexibility Score: inf
ROOT
ATOM      1  C   UNL     1      -0.679   1.591  -3.752  1.00  0.00     0.180 A 
ATOM      2  C   UNL     1      -0.367   2.548  -2.772  1.00  0.00     0.208 A 
ATOM      3  C   UNL     1       0.972   2.707  -2.377  1.00  0.00     0.238 A 
ATOM      4  O   UNL     1       1.252   3.602  -1.538  1.00  0.00    -0.285 OA
ATOM      5  C   UNL     1       1.978   1.897  -2.957  1.00  0.00     0.111 A 
ATOM      6  C   UNL     1       3.360   1.945  -2.605  1.00  0.00     0.134 A 
ATOM      7  C   UNL     1       4.286   1.191  -3.335  1.00  0.00     0.093 A 
ATOM      8  C   UNL     1       3.871   0.340  -4.363  1.00  0.00     0.123 A 
ATOM      9  C   UNL     1       2.517   0.242  -4.675  1.00  0.00     0.094 A 
ATOM     10  C   UNL     1       1.574   1.009  -3.988  1.00  0.00     0.146 A 
ATOM     11  O   UNL     1       0.295   0.893  -4.324  1.00  0.00    -0.452 OA
ENDROOT
BRANCH   1  12
ATOM     12  C   UNL     1      -2.070   1.348  -4.201  1.00  0.00     0.021 A 
ATOM     13  C   UNL     1      -2.619   2.042  -5.293  1.00  0.00     0.016 A 
ATOM     14  C   UNL     1      -3.943   1.812  -5.683  1.00  0.00     0.047 A 
ATOM     15  C   UNL     1      -4.735   0.898  -4.982  1.00  0.00     0.115 A 
ATOM     16  C   UNL     1      -2.878   0.447  -3.487  1.00  0.00     0.016 A 
ATOM     17  C   UNL     1      -4.200   0.218  -3.880  1.00  0.00     0.047 A 
BRANCH  15  18
ATOM     18  O   UNL     1      -6.051   0.678  -5.384  1.00  0.00    -0.508 OA
ATOM     19  H   UNL     1      -6.273   0.040  -6.139  1.00  0.00     0.293 HD
ENDBRANCH  15  18
ENDBRANCH   1  12
BRANCH   2  20
ATOM     20  O   UNL     1      -1.372   3.352  -2.228  1.00  0.00    -0.502 OA
ATOM     21  H   UNL     1      -2.154   3.690  -2.776  1.00  0.00     0.293 HD
ENDBRANCH   2  20
BRANCH   6  22
ATOM     22  O   UNL     1       3.867   2.690  -1.536  1.00  0.00    -0.507 OA
ATOM     23  H   UNL     1       3.966   2.348  -0.592  1.00  0.00     0.293 HD
ENDBRANCH   6  22
BRANCH   8  24
ATOM     24  O   UNL     1       4.798  -0.419  -5.074  1.00  0.00    -0.508 OA
ATOM     25  H   UNL     1       4.579  -1.352  -5.403  1.00  0.00     0.293 HD
ENDBRANCH   8  24
TORSDOF 5
ENDMDL
MODEL 6
REMARK VINA RESULT:    -6.709      2.716      5.079
REMARK INTER + INTRA:          -8.168
REMARK INTER:                  -7.893
REMARK INTRA:                  -0.276
REMARK UNBOUND:                -0.283
REMARK SMILES O=c1c(O)c(-c2ccc(O)cc2)oc2cc(O)cc(O)c12
REMARK SMILES IDX 5 1 3 2 2 3 1 4 21 5 19 6 18 7 16 8 15 9 14 10 13 11 6 12
REMARK SMILES IDX 7 13 8 14 9 15 12 16 11 17 10 18 4 20 20 22 17 24
REMARK H PARENT 10 19 4 21 20 23 17 25
REMARK Flexibility Score: inf
ROOT
ATOM      1  C   UNL     1       2.338   1.298  -3.640  1.00  0.00     0.180 A 
ATOM      2  C   UNL     1       3.480   1.455  -2.838  1.00  0.00     0.208 A 
ATOM      3  C   UNL     1       3.641   2.642  -2.105  1.00  0.00     0.238 A 
ATOM      4  O   UNL     1       4.639   2.755  -1.347  1.00  0.00    -0.285 OA
ATOM      5  C   UNL     1       2.664   3.663  -2.195  1.00  0.00     0.111 A 
ATOM      6  C   UNL     1       2.744   4.922  -1.529  1.00  0.00     0.134 A 
ATOM      7  C   UNL     1       1.658   5.805  -1.586  1.00  0.00     0.093 A 
ATOM      8  C   UNL     1       0.522   5.500  -2.341  1.00  0.00     0.123 A 
ATOM      9  C   UNL     1       0.460   4.300  -3.044  1.00  0.00     0.094 A 
ATOM     10  C   UNL     1       1.512   3.384  -2.976  1.00  0.00     0.146 A 
ATOM     11  O   UNL     1       1.408   2.246  -3.653  1.00  0.00    -0.452 OA
ENDROOT
BRANCH   1  12
ATOM     12  C   UNL     1       2.111   0.086  -4.461  1.00  0.00     0.021 A 
ATOM     13  C   UNL     1       2.749  -0.087  -5.703  1.00  0.00     0.016 A 
ATOM     14  C   UNL     1       2.501  -1.228  -6.472  1.00  0.00     0.047 A 
ATOM     15  C   UNL     1       1.606  -2.202  -6.018  1.00  0.00     0.115 A 
ATOM     16  C   UNL     1       1.197  -0.885  -4.022  1.00  0.00     0.016 A 
ATOM     17  C   UNL     1       0.952  -2.026  -4.792  1.00  0.00     0.047 A 
BRANCH  15  18
ATOM     18  O   UNL     1       1.371  -3.335  -6.795  1.00  0.00    -0.508 OA
ATOM     19  H   UNL     1       1.422  -4.267  -6.400  1.00  0.00     0.293 HD
ENDBRANCH  15  18
ENDBRANCH   1  12
BRANCH   2  20
ATOM     20  O   UNL     1       4.421   0.426  -2.745  1.00  0.00    -0.502 OA
ATOM     21  H   UNL     1       4.195  -0.539  -2.956  1.00  0.00     0.293 HD
ENDBRANCH   2  20
BRANCH   6  22
ATOM     22  O   UNL     1       3.868   5.363  -0.825  1.00  0.00    -0.507 OA
ATOM     23  H   UNL     1       4.761   4.892  -0.815  1.00  0.00     0.293 HD
ENDBRANCH   6  22
BRANCH   8  24
ATOM     24  O   UNL     1      -0.547   6.392  -2.406  1.00  0.00    -0.508 OA
ATOM     25  H   UNL     1      -0.481   7.263  -2.919  1.00  0.00     0.293 HD
ENDBRANCH   8  24
TORSDOF 5
ENDMDL
MODEL 7
REMARK VINA RESULT:    -6.643      3.484      5.181
REMARK INTER + INTRA:          -8.091
REMARK INTER:                  -7.801
REMARK INTRA:                  -0.290
REMARK UNBOUND:                -0.283
REMARK SMILES O=c1c(O)c(-c2ccc(O)cc2)oc2cc(O)cc(O)c12
REMARK SMILES IDX 5 1 3 2 2 3 1 4 21 5 19 6 18 7 16 8 15 9 14 10 13 11 6 12
REMARK SMILES IDX 7 13 8 14 9 15 12 16 11 17 10 18 4 20 20 22 17 24
REMARK H PARENT 10 19 4 21 20 23 17 25
REMARK Flexibility Score: inf
ROOT
ATOM      1  C   UNL     1      -3.054  -0.617  -4.226  1.00  0.00     0.180 A 
ATOM      2  C   UNL     1      -2.408   0.248  -3.327  1.00  0.00     0.208 A 
ATOM      3  C   UNL     1      -1.009   0.197  -3.219  1.00  0.00     0.238 A 
ATOM      4  O   UNL     1      -0.432   1.011  -2.451  1.00  0.00    -0.285 OA
ATOM      5  C   UNL     1      -0.275  -0.728  -4.000  1.00  0.00     0.111 A 
ATOM      6  C   UNL     1       1.141  -0.893  -3.943  1.00  0.00     0.134 A 
ATOM      7  C   UNL     1       1.775  -1.746  -4.855  1.00  0.00     0.093 A 
ATOM      8  C   UNL     1       1.035  -2.490  -5.779  1.00  0.00     0.123 A 
ATOM      9  C   UNL     1      -0.353  -2.380  -5.802  1.00  0.00     0.094 A 
ATOM     10  C   UNL     1      -1.010  -1.510  -4.930  1.00  0.00     0.146 A 
ATOM     11  O   UNL     1      -2.333  -1.428  -4.992  1.00  0.00    -0.452 OA
ENDROOT
BRANCH   1  12
ATOM     12  C   UNL     1      -4.528  -0.641  -4.377  1.00  0.00     0.021 A 
ATOM     13  C   UNL     1      -5.341  -1.384  -3.503  1.00  0.00     0.016 A 
ATOM     14  C   UNL     1      -6.729  -1.411  -3.680  1.00  0.00     0.047 A 
ATOM     15  C   UNL     1      -7.318  -0.708  -4.736  1.00  0.00     0.115 A 
ATOM     16  C   UNL     1      -5.124   0.045  -5.448  1.00  0.00     0.016 A 
ATOM     17  C   UNL     1      -6.511   0.018  -5.621  1.00  0.00     0.047 A 
BRANCH  15  18
ATOM     18  O   UNL     1      -8.701  -0.743  -4.897  1.00  0.00    -0.508 OA
ATOM     19  H   UNL     1      -9.298  -0.026  -4.500  1.00  0.00     0.293 HD
ENDBRANCH  15  18
ENDBRANCH   1  12
BRANCH   2  20
ATOM     20  O   UNL     1      -3.150   1.168  -2.582  1.00  0.00    -0.502 OA
ATOM     21  H   UNL     1      -2.714   1.872  -1.998  1.00  0.00     0.293 HD
ENDBRANCH   2  20
BRANCH   6  22
ATOM     22  O   UNL     1       1.962  -0.269  -2.999  1.00  0.00    -0.507 OA
ATOM     23  H   UNL     1       1.637   0.142  -2.137  1.00  0.00     0.293 HD
ENDBRANCH   6  22
BRANCH   8  24
ATOM     24  O   UNL     1       1.673  -3.349  -6.671  1.00  0.00    -0.508 OA
ATOM     25  H   UNL     1       2.681  -3.364  -6.765  1.00  0.00     0.293 HD
ENDBRANCH   8  24
TORSDOF 5
ENDMDL
MODEL 8
REMARK VINA RESULT:    -6.633      4.350      6.345
REMARK INTER + INTRA:          -8.079
REMARK INTER:                  -7.812
REMARK INTRA:                  -0.268
REMARK UNBOUND:                -0.283
REMARK SMILES O=c1c(O)c(-c2ccc(O)cc2)oc2cc(O)cc(O)c12
REMARK SMILES IDX 5 1 3 2 2 3 1 4 21 5 19 6 18 7 16 8 15 9 14 10 13 11 6 12
REMARK SMILES IDX 7 13 8 14 9 15 12 16 11 17 10 18 4 20 20 22 17 24
REMARK H PARENT 10 19 4 21 20 23 17 25
REMARK Flexibility Score: inf
ROOT
ATOM      1  C   UNL     1      -1.253  -0.053  -4.223  1.00  0.00     0.180 A 
ATOM      2  C   UNL     1      -0.921   0.790  -3.150  1.00  0.00     0.208 A 
ATOM      3  C   UNL     1      -1.096   2.176  -3.294  1.00  0.00     0.238 A 
ATOM      4  O   UNL     1      -0.847   2.922  -2.311  1.00  0.00    -0.285 OA
ATOM      5  C   UNL     1      -1.588   2.702  -4.513  1.00  0.00     0.111 A 
ATOM      6  C   UNL     1      -1.767   4.091  -4.784  1.00  0.00     0.134 A 
ATOM      7  C   UNL     1      -2.382   4.489  -5.977  1.00  0.00     0.093 A 
ATOM      8  C   UNL     1      -2.765   3.550  -6.938  1.00  0.00     0.123 A 
ATOM      9  C   UNL     1      -2.539   2.195  -6.709  1.00  0.00     0.094 A 
ATOM     10  C   UNL     1      -1.961   1.765  -5.513  1.00  0.00     0.146 A 
ATOM     11  O   UNL     1      -1.773   0.464  -5.331  1.00  0.00    -0.452 OA
ENDROOT
BRANCH   1  12
ATOM     12  C   UNL     1      -1.071  -1.522  -4.157  1.00  0.00     0.021 A 
ATOM     13  C   UNL     1       0.046  -2.149  -4.737  1.00  0.00     0.016 A 
ATOM     14  C   UNL     1       0.184  -3.540  -4.682  1.00  0.00     0.047 A 
ATOM     15  C   UNL     1      -0.795  -4.321  -4.061  1.00  0.00     0.115 A 
ATOM     16  C   UNL     1      -2.062  -2.314  -3.553  1.00  0.00     0.016 A 
ATOM     17  C   UNL     1      -1.921  -3.704  -3.499  1.00  0.00     0.047 A 
BRANCH  15  18
ATOM     18  O   UNL     1      -0.643  -5.705  -4.013  1.00  0.00    -0.508 OA
ATOM     19  H   UNL     1      -0.666  -6.268  -4.856  1.00  0.00     0.293 HD
ENDBRANCH  15  18
ENDBRANCH   1  12
BRANCH   2  20
ATOM     20  O   UNL     1      -0.458   0.250  -1.948  1.00  0.00    -0.502 OA
ATOM     21  H   UNL     1      -0.896   0.451  -1.057  1.00  0.00     0.293 HD
ENDBRANCH   2  20
BRANCH   6  22
ATOM     22  O   UNL     1      -1.337   5.113  -3.932  1.00  0.00    -0.507 OA
ATOM     23  H   UNL     1      -1.713   6.049  -3.921  1.00  0.00     0.293 HD
ENDBRANCH   6  22
BRANCH   8  24
ATOM     24  O   UNL     1      -3.361   3.957  -8.130  1.00  0.00    -0.508 OA
ATOM     25  H   UNL     1      -3.855   4.838  -8.203  1.00  0.00     0.293 HD
ENDBRANCH   8  24
TORSDOF 5
ENDMDL
MODEL 9
REMARK VINA RESULT:    -6.601      5.466      8.643
REMARK INTER + INTRA:          -8.041
REMARK INTER:                  -7.778
REMARK INTRA:                  -0.263
REMARK UNBOUND:                -0.283
REMARK SMILES O=c1c(O)c(-c2ccc(O)cc2)oc2cc(O)cc(O)c12
REMARK SMILES IDX 5 1 3 2 2 3 1 4 21 5 19 6 18 7 16 8 15 9 14 10 13 11 6 12
REMARK SMILES IDX 7 13 8 14 9 15 12 16 11 17 10 18 4 20 20 22 17 24
REMARK H PARENT 10 19 4 21 20 23 17 25
REMARK Flexibility Score: inf
ROOT
ATOM      1  C   UNL     1      -3.318  -1.129  -2.337  1.00  0.00     0.180 A 
ATOM      2  C   UNL     1      -2.650  -2.293  -2.752  1.00  0.00     0.208 A 
ATOM      3  C   UNL     1      -2.846  -3.483  -2.032  1.00  0.00     0.238 A 
ATOM      4  O   UNL     1      -2.288  -4.535  -2.441  1.00  0.00    -0.285 OA
ATOM      5  C   UNL     1      -3.696  -3.490  -0.900  1.00  0.00     0.111 A 
ATOM      6  C   UNL     1      -3.936  -4.629  -0.074  1.00  0.00     0.134 A 
ATOM      7  C   UNL     1      -4.896  -4.554   0.943  1.00  0.00     0.093 A 
ATOM      8  C   UNL     1      -5.576  -3.362   1.206  1.00  0.00     0.123 A 
ATOM      9  C   UNL     1      -5.304  -2.229   0.443  1.00  0.00     0.094 A 
ATOM     10  C   UNL     1      -4.379  -2.283  -0.601  1.00  0.00     0.146 A 
ATOM     11  O   UNL     1      -4.158  -1.182  -1.310  1.00  0.00    -0.452 OA
ENDROOT
BRANCH   1  12
ATOM     12  C   UNL     1      -3.141   0.170  -3.028  1.00  0.00     0.021 A 
ATOM     13  C   UNL     1      -1.997   0.961  -2.820  1.00  0.00     0.016 A 
ATOM     14  C   UNL     1      -1.864   2.194  -3.465  1.00  0.00     0.047 A 
ATOM     15  C   UNL     1      -2.873   2.658  -4.314  1.00  0.00     0.115 A 
ATOM     16  C   UNL     1      -4.161   0.651  -3.866  1.00  0.00     0.016 A 
ATOM     17  C   UNL     1      -4.024   1.884  -4.510  1.00  0.00     0.047 A 
BRANCH  15  18
ATOM     18  O   UNL     1      -2.725   3.888  -4.951  1.00  0.00    -0.508 OA
ATOM     19  H   UNL     1      -2.382   3.953  -5.903  1.00  0.00     0.293 HD
ENDBRANCH  15  18
ENDBRANCH   1  12
BRANCH   2  20
ATOM     20  O   UNL     1      -1.834  -2.270  -3.886  1.00  0.00    -0.502 OA
ATOM     21  H   UNL     1      -2.203  -2.131  -4.819  1.00  0.00     0.293 HD
ENDBRANCH   2  20
BRANCH   6  22
ATOM     22  O   UNL     1      -3.245  -5.838  -0.192  1.00  0.00    -0.507 OA
ATOM     23  H   UNL     1      -3.159  -6.525   0.541  1.00  0.00     0.293 HD
ENDBRANCH   6  22
BRANCH   8  24
ATOM     24  O   UNL     1      -6.517  -3.293   2.231  1.00  0.00    -0.508 OA
ATOM     25  H   UNL     1      -7.512  -3.332   2.042  1.00  0.00     0.293 HD
ENDBRANCH   8  24
TORSDOF 5
ENDMDL
