MODEL 1
REMARK VINA RESULT:    83.843      0.000      0.000
REMARK INTER + INTRA:          91.537
REMARK INTER:                  91.195
REMARK INTRA:                   0.342
REMARK UNBOUND:                 0.342
REMARK SMILES C[C@H]1[C@H](C)CC[C@]2(C(=O)[O-])CC[C@]3(C)C(=CC[C@@H]4[C@]5(C)CC[C@@H](O)C(C)(C)[C@H]5CC[C@@]43C)[C@H]12
REMARK SMILES IDX 7 1 6 2 11 3 33 4 5 5 12 6 15 7 2 8 3 9 13 10 16 11 1 12
REMARK SMILES IDX 4 13 14 14 31 15 17 16 18 17 30 18 32 19 19 20 29 21 28 22
REMARK SMILES IDX 21 23 20 24 25 25 22 26 23 27 26 28 27 29 8 30 9 31 10 32
REMARK SMILES IDX 24 33
REMARK H PARENT 24 34
REMARK Flexibility Score: inf
ROOT
ATOM      1  C   UNL     1       1.064  62.081   0.301  1.00  0.00     0.017 C 
ATOM      2  C   UNL     1       0.684  62.796   1.641  1.00  0.00     0.014 C 
ATOM      3  C   UNL     1       0.553  62.986  -0.880  1.00  0.00     0.014 C 
ATOM      4  C   UNL     1       0.469  60.620   0.277  1.00  0.00     0.030 C 
ATOM      5  C   UNL     1       0.617  61.829   2.832  1.00  0.00     0.004 C 
ATOM      6  C   UNL     1       0.421  62.307  -2.273  1.00  0.00     0.013 C 
ATOM      7  C   UNL     1       0.361  60.111  -1.169  1.00  0.00    -0.063 C 
ATOM      8  C   UNL     1      -0.798  60.418   1.165  1.00  0.00    -0.003 C 
ATOM      9  C   UNL     1      -0.502  60.769   2.662  1.00  0.00    -0.011 C 
ATOM     10  C   UNL     1      -0.347  60.951  -2.246  1.00  0.00    -0.006 C 
ATOM     11  C   UNL     1       1.303  59.226  -1.540  1.00  0.00    -0.027 C 
ATOM     12  C   UNL     1      -1.314  58.966   1.063  1.00  0.00     0.008 C 
ATOM     13  C   UNL     1      -1.781  61.220   3.389  1.00  0.00     0.008 C 
ATOM     14  C   UNL     1      -1.823  61.258  -1.808  1.00  0.00     0.017 C 
ATOM     15  C   UNL     1      -0.373  60.180  -3.691  1.00  0.00    -0.020 C 
ATOM     16  C   UNL     1       1.965  59.344  -2.868  1.00  0.00     0.032 C 
ATOM     17  C   UNL     1       0.951  59.313  -4.021  1.00  0.00     0.006 C 
ATOM     18  C   UNL     1      -0.760  61.196  -4.847  1.00  0.00     0.008 C 
ATOM     19  C   UNL     1      -1.527  59.118  -3.658  1.00  0.00     0.012 C 
ATOM     20  C   UNL     1       1.594  59.570  -5.451  1.00  0.00    -0.025 C 
ATOM     21  C   UNL     1       0.365  61.824  -5.702  1.00  0.00     0.005 C 
ATOM     22  C   UNL     1       1.734  61.118  -5.624  1.00  0.00     0.003 C 
ATOM     23  C   UNL     1       2.994  58.877  -5.638  1.00  0.00     0.010 C 
ATOM     24  C   UNL     1       0.669  58.896  -6.518  1.00  0.00     0.012 C 
ATOM     25  C   UNL     1       2.820  61.595  -6.671  1.00  0.00    -0.006 C 
ATOM     26  C   UNL     1       4.200  59.781  -5.349  1.00  0.00     0.033 C 
ATOM     27  C   UNL     1       4.240  61.050  -6.234  1.00  0.00     0.120 C 
ATOM     28  C   UNL     1       2.489  61.158  -8.125  1.00  0.00     0.014 C 
ATOM     29  C   UNL     1       2.891  63.145  -6.671  1.00  0.00     0.014 C 
ENDROOT
BRANCH   1  30
ATOM     30  C   UNL     1       2.591  61.981   0.205  1.00  0.00     0.048 C 
ATOM     31  O   UNL     1       3.154  61.775  -0.904  1.00  0.00    -0.550 OA
ATOM     32  O   UNL     1       3.394  62.179   1.323  1.00  0.00    -0.550 OA
ENDBRANCH   1  30
BRANCH  27  33
ATOM     33  O   UNL     1       5.067  60.806  -7.347  1.00  0.00    -0.393 OA
ATOM     34  H   UNL     1       4.767  61.416  -8.072  1.00  0.00     0.210 HD
ENDBRANCH  27  33
TORSDOF 2
ENDMDL
