MODEL 1
REMARK VINA RESULT:    -4.370      0.000      0.000
REMARK INTER + INTRA:         -14.744
REMARK INTER:                 -11.012
REMARK INTRA:                  -3.731
REMARK UNBOUND:                -3.731
REMARK SMILES CCCCCCCCCCCCCCCCCCCCCCCCCCCC(=O)[O-]
REMARK SMILES IDX 15 1 16 2 17 3 18 4 19 5 20 6 21 7 22 8 23 9 24 10 25 11
REMARK SMILES IDX 26 12 27 13 28 14 29 15 30 16 14 17 13 18 12 19 11 20 10 21
REMARK SMILES IDX 9 22 8 23 7 24 6 25 5 26 4 27 3 28 2 29 1 30
REMARK H PARENT
REMARK Flexibility Score: inf
ROOT
ATOM      1  C   UNL     1      11.788  12.660 161.782  1.00  0.00     0.000 C 
ENDROOT
BRANCH   1   2
ATOM      2  C   UNL     1      10.756  12.605 162.919  1.00  0.00     0.000 C 
BRANCH   2   3
ATOM      3  C   UNL     1      11.403  12.695 164.312  1.00  0.00     0.000 C 
BRANCH   3   4
ATOM      4  C   UNL     1      11.621  14.146 164.773  1.00  0.00     0.000 C 
BRANCH   4   5
ATOM      5  C   UNL     1      10.904  14.448 166.101  1.00  0.00     0.000 C 
BRANCH   5   6
ATOM      6  C   UNL     1      10.344  15.879 166.203  1.00  0.00     0.000 C 
BRANCH   6   7
ATOM      7  C   UNL     1      10.133  16.528 164.825  1.00  0.00     0.000 C 
BRANCH   7   8
ATOM      8  C   UNL     1       9.162  17.715 164.922  1.00  0.00     0.000 C 
BRANCH   8   9
ATOM      9  C   UNL     1       8.626  17.932 166.346  1.00  0.00     0.000 C 
BRANCH   9  10
ATOM     10  C   UNL     1       7.337  18.770 166.375  1.00  0.00     0.000 C 
BRANCH  10  11
ATOM     11  C   UNL     1       6.101  17.896 166.123  1.00  0.00     0.000 C 
BRANCH  11  12
ATOM     12  C   UNL     1       6.341  16.425 166.507  1.00  0.00     0.006 C 
BRANCH  12  13
ATOM     13  C   UNL     1       5.748  16.077 167.879  1.00  0.00     0.053 C 
BRANCH  13  14
ATOM     14  C   UNL     1       6.822  15.618 168.815  1.00  0.00     0.041 C 
ATOM     15  O   UNL     1       7.927  15.217 168.362  1.00  0.00    -0.550 OA
ATOM     16  O   UNL     1       6.592  15.602 170.185  1.00  0.00    -0.550 OA
ENDBRANCH  13  14
ENDBRANCH  12  13
ENDBRANCH  11  12
ENDBRANCH  10  11
ENDBRANCH   9  10
ENDBRANCH   8   9
ENDBRANCH   7   8
ENDBRANCH   6   7
ENDBRANCH   5   6
ENDBRANCH   4   5
ENDBRANCH   3   4
ENDBRANCH   2   3
ENDBRANCH   1   2
BRANCH   1  17
ATOM     17  C   UNL     1      11.764  14.023 161.072  1.00  0.00     0.000 C 
BRANCH  17  18
ATOM     18  C   UNL     1      10.496  14.837 161.405  1.00  0.00     0.000 C 
BRANCH  18  19
ATOM     19  C   UNL     1      10.257  16.034 160.466  1.00  0.00     0.000 C 
BRANCH  19  20
ATOM     20  C   UNL     1      11.558  16.700 159.998  1.00  0.00     0.000 C 
BRANCH  20  21
ATOM     21  C   UNL     1      11.597  18.183 160.402  1.00  0.00     0.000 C 
BRANCH  21  22
ATOM     22  C   UNL     1      10.897  18.443 161.749  1.00  0.00    -0.000 C 
BRANCH  22  23
ATOM     23  C   UNL     1      11.856  18.864 162.883  1.00  0.00    -0.000 C 
BRANCH  23  24
ATOM     24  C   UNL     1      13.268  18.256 162.768  1.00  0.00    -0.000 C 
BRANCH  24  25
ATOM     25  C   UNL     1      13.466  16.966 163.596  1.00  0.00    -0.000 C 
BRANCH  25  26
ATOM     26  C   UNL     1      14.057  15.787 162.798  1.00  0.00    -0.000 C 
BRANCH  26  27
ATOM     27  C   UNL     1      14.470  14.570 163.647  1.00  0.00    -0.000 C 
BRANCH  27  28
ATOM     28  C   UNL     1      15.579  13.726 163.000  1.00  0.00    -0.000 C 
BRANCH  28  29
ATOM     29  C   UNL     1      16.725  14.617 162.502  1.00  0.00    -0.003 C 
ATOM     30  C   UNL     1      18.044  13.851 162.465  1.00  0.00     0.004 C 
ENDBRANCH  28  29
ENDBRANCH  27  28
ENDBRANCH  26  27
ENDBRANCH  25  26
ENDBRANCH  24  25
ENDBRANCH  23  24
ENDBRANCH  22  23
ENDBRANCH  21  22
ENDBRANCH  20  21
ENDBRANCH  19  20
ENDBRANCH  18  19
ENDBRANCH  17  18
ENDBRANCH   1  17
TORSDOF 26
ENDMDL
MODEL 2
REMARK VINA RESULT:    -4.282      1.296      3.524
REMARK INTER + INTRA:         -14.521
REMARK INTER:                 -10.938
REMARK INTRA:                  -3.583
REMARK UNBOUND:                -3.731
REMARK SMILES CCCCCCCCCCCCCCCCCCCCCCCCCCCC(=O)[O-]
REMARK SMILES IDX 15 1 16 2 17 3 18 4 19 5 20 6 21 7 22 8 23 9 24 10 25 11
REMARK SMILES IDX 26 12 27 13 28 14 29 15 30 16 14 17 13 18 12 19 11 20 10 21
REMARK SMILES IDX 9 22 8 23 7 24 6 25 5 26 4 27 3 28 2 29 1 30
REMARK H PARENT
REMARK Flexibility Score: inf
ROOT
ATOM      1  C   UNL     1      13.990  13.646 162.625  1.00  0.00     0.000 C 
ENDROOT
BRANCH   1   2
ATOM      2  C   UNL     1      13.410  13.681 164.047  1.00  0.00     0.000 C 
BRANCH   2   3
ATOM      3  C   UNL     1      12.001  13.070 164.128  1.00  0.00     0.000 C 
BRANCH   3   4
ATOM      4  C   UNL     1      11.270  13.433 165.431  1.00  0.00     0.000 C 
BRANCH   4   5
ATOM      5  C   UNL     1      11.409  14.927 165.779  1.00  0.00     0.000 C 
BRANCH   5   6
ATOM      6  C   UNL     1      10.457  15.847 164.993  1.00  0.00     0.000 C 
BRANCH   6   7
ATOM      7  C   UNL     1       9.691  16.819 165.905  1.00  0.00     0.000 C 
BRANCH   7   8
ATOM      8  C   UNL     1       8.880  17.827 165.074  1.00  0.00     0.000 C 
BRANCH   8   9
ATOM      9  C   UNL     1       8.236  18.926 165.935  1.00  0.00     0.000 C 
BRANCH   9  10
ATOM     10  C   UNL     1       6.701  18.837 165.960  1.00  0.00     0.000 C 
BRANCH  10  11
ATOM     11  C   UNL     1       6.198  18.325 167.317  1.00  0.00     0.000 C 
BRANCH  11  12
ATOM     12  C   UNL     1       5.327  17.064 167.175  1.00  0.00     0.006 C 
BRANCH  12  13
ATOM     13  C   UNL     1       6.164  15.779 167.137  1.00  0.00     0.053 C 
BRANCH  13  14
ATOM     14  C   UNL     1       7.051  15.693 168.339  1.00  0.00     0.041 C 
ATOM     15  O   UNL     1       8.264  15.380 168.209  1.00  0.00    -0.550 OA
ATOM     16  O   UNL     1       6.531  15.928 169.606  1.00  0.00    -0.550 OA
ENDBRANCH  13  14
ENDBRANCH  12  13
ENDBRANCH  11  12
ENDBRANCH  10  11
ENDBRANCH   9  10
ENDBRANCH   8   9
ENDBRANCH   7   8
ENDBRANCH   6   7
ENDBRANCH   5   6
ENDBRANCH   4   5
ENDBRANCH   3   4
ENDBRANCH   2   3
ENDBRANCH   1   2
BRANCH   1  17
ATOM     17  C   UNL     1      13.872  15.016 161.939  1.00  0.00     0.000 C 
BRANCH  17  18
ATOM     18  C   UNL     1      14.267  16.177 162.877  1.00  0.00     0.000 C 
BRANCH  18  19
ATOM     19  C   UNL     1      13.069  16.982 163.414  1.00  0.00     0.000 C 
BRANCH  19  20
ATOM     20  C   UNL     1      13.130  18.471 163.043  1.00  0.00     0.000 C 
BRANCH  20  21
ATOM     21  C   UNL     1      11.764  18.975 162.548  1.00  0.00     0.000 C 
BRANCH  21  22
ATOM     22  C   UNL     1      10.856  17.829 162.065  1.00  0.00    -0.000 C 
BRANCH  22  23
ATOM     23  C   UNL     1      11.190  17.321 160.646  1.00  0.00    -0.000 C 
BRANCH  23  24
ATOM     24  C   UNL     1      10.662  15.904 160.347  1.00  0.00    -0.000 C 
BRANCH  24  25
ATOM     25  C   UNL     1       9.679  15.362 161.409  1.00  0.00    -0.000 C 
BRANCH  25  26
ATOM     26  C   UNL     1       9.931  13.896 161.816  1.00  0.00    -0.000 C 
BRANCH  26  27
ATOM     27  C   UNL     1      10.922  13.133 160.916  1.00  0.00    -0.000 C 
BRANCH  27  28
ATOM     28  C   UNL     1      10.565  11.650 160.740  1.00  0.00    -0.000 C 
BRANCH  28  29
ATOM     29  C   UNL     1       9.637  11.172 161.866  1.00  0.00    -0.003 C 
ATOM     30  C   UNL     1       9.359   9.676 161.756  1.00  0.00     0.004 C 
ENDBRANCH  28  29
ENDBRANCH  27  28
ENDBRANCH  26  27
ENDBRANCH  25  26
ENDBRANCH  24  25
ENDBRANCH  23  24
ENDBRANCH  22  23
ENDBRANCH  21  22
ENDBRANCH  20  21
ENDBRANCH  19  20
ENDBRANCH  18  19
ENDBRANCH  17  18
ENDBRANCH   1  17
TORSDOF 26
ENDMDL
MODEL 3
REMARK VINA RESULT:    -4.165      1.040      3.194
REMARK INTER + INTRA:         -14.228
REMARK INTER:                 -11.750
REMARK INTRA:                  -2.478
REMARK UNBOUND:                -3.731
REMARK SMILES CCCCCCCCCCCCCCCCCCCCCCCCCCCC(=O)[O-]
REMARK SMILES IDX 15 1 16 2 17 3 18 4 19 5 20 6 21 7 22 8 23 9 24 10 25 11
REMARK SMILES IDX 26 12 27 13 28 14 29 15 30 16 14 17 13 18 12 19 11 20 10 21
REMARK SMILES IDX 9 22 8 23 7 24 6 25 5 26 4 27 3 28 2 29 1 30
REMARK H PARENT
REMARK Flexibility Score: inf
ROOT
ATOM      1  C   UNL     1      10.764  15.029 161.010  1.00  0.00     0.000 C 
ENDROOT
BRANCH   1   2
ATOM      2  C   UNL     1      10.409  16.145 160.015  1.00  0.00     0.000 C 
BRANCH   2   3
ATOM      3  C   UNL     1      11.269  17.406 160.207  1.00  0.00     0.000 C 
BRANCH   3   4
ATOM      4  C   UNL     1      11.589  17.688 161.684  1.00  0.00     0.000 C 
BRANCH   4   5
ATOM      5  C   UNL     1      11.049  19.055 162.145  1.00  0.00     0.000 C 
BRANCH   5   6
ATOM      6  C   UNL     1      10.180  18.992 163.415  1.00  0.00     0.000 C 
BRANCH   6   7
ATOM      7  C   UNL     1      10.114  17.577 164.014  1.00  0.00     0.000 C 
BRANCH   7   8
ATOM      8  C   UNL     1       9.362  17.584 165.354  1.00  0.00     0.000 C 
BRANCH   8   9
ATOM      9  C   UNL     1       8.354  18.740 165.465  1.00  0.00     0.000 C 
BRANCH   9  10
ATOM     10  C   UNL     1       7.840  18.944 166.900  1.00  0.00     0.000 C 
BRANCH  10  11
ATOM     11  C   UNL     1       6.410  18.410 167.058  1.00  0.00     0.000 C 
BRANCH  11  12
ATOM     12  C   UNL     1       6.220  17.045 166.372  1.00  0.00     0.006 C 
BRANCH  12  13
ATOM     13  C   UNL     1       5.892  15.930 167.374  1.00  0.00     0.053 C 
BRANCH  13  14
ATOM     14  C   UNL     1       7.040  15.707 168.307  1.00  0.00     0.041 C 
ATOM     15  O   UNL     1       8.193  15.486 167.851  1.00  0.00    -0.550 OA
ATOM     16  O   UNL     1       6.832  15.710 169.682  1.00  0.00    -0.550 OA
ENDBRANCH  13  14
ENDBRANCH  12  13
ENDBRANCH  11  12
ENDBRANCH  10  11
ENDBRANCH   9  10
ENDBRANCH   8   9
ENDBRANCH   7   8
ENDBRANCH   6   7
ENDBRANCH   5   6
ENDBRANCH   4   5
ENDBRANCH   3   4
ENDBRANCH   2   3
ENDBRANCH   1   2
BRANCH   1  17
ATOM     17  C   UNL     1       9.517  14.527 161.755  1.00  0.00     0.000 C 
BRANCH  17  18
ATOM     18  C   UNL     1       9.585  13.015 162.060  1.00  0.00     0.000 C 
BRANCH  18  19
ATOM     19  C   UNL     1      10.936  12.366 161.706  1.00  0.00     0.000 C 
BRANCH  19  20
ATOM     20  C   UNL     1      12.058  12.742 162.683  1.00  0.00     0.000 C 
BRANCH  20  21
ATOM     21  C   UNL     1      11.573  12.668 164.140  1.00  0.00     0.000 C 
BRANCH  21  22
ATOM     22  C   UNL     1      11.578  14.044 164.830  1.00  0.00    -0.000 C 
BRANCH  22  23
ATOM     23  C   UNL     1      12.062  15.197 163.925  1.00  0.00    -0.000 C 
BRANCH  23  24
ATOM     24  C   UNL     1      13.375  15.854 164.394  1.00  0.00    -0.000 C 
BRANCH  24  25
ATOM     25  C   UNL     1      14.404  16.079 163.264  1.00  0.00    -0.000 C 
BRANCH  25  26
ATOM     26  C   UNL     1      14.331  15.043 162.125  1.00  0.00    -0.000 C 
BRANCH  26  27
ATOM     27  C   UNL     1      15.126  13.746 162.374  1.00  0.00    -0.000 C 
BRANCH  27  28
ATOM     28  C   UNL     1      16.390  13.962 163.219  1.00  0.00    -0.000 C 
BRANCH  28  29
ATOM     29  C   UNL     1      17.646  13.537 162.446  1.00  0.00    -0.003 C 
ATOM     30  C   UNL     1      18.685  14.654 162.423  1.00  0.00     0.004 C 
ENDBRANCH  28  29
ENDBRANCH  27  28
ENDBRANCH  26  27
ENDBRANCH  25  26
ENDBRANCH  24  25
ENDBRANCH  23  24
ENDBRANCH  22  23
ENDBRANCH  21  22
ENDBRANCH  20  21
ENDBRANCH  19  20
ENDBRANCH  18  19
ENDBRANCH  17  18
ENDBRANCH   1  17
TORSDOF 26
ENDMDL
MODEL 4
REMARK VINA RESULT:    -4.046      3.423      7.842
REMARK INTER + INTRA:         -13.926
REMARK INTER:                 -10.012
REMARK INTRA:                  -3.914
REMARK UNBOUND:                -3.731
REMARK SMILES CCCCCCCCCCCCCCCCCCCCCCCCCCCC(=O)[O-]
REMARK SMILES IDX 15 1 16 2 17 3 18 4 19 5 20 6 21 7 22 8 23 9 24 10 25 11
REMARK SMILES IDX 26 12 27 13 28 14 29 15 30 16 14 17 13 18 12 19 11 20 10 21
REMARK SMILES IDX 9 22 8 23 7 24 6 25 5 26 4 27 3 28 2 29 1 30
REMARK H PARENT
REMARK Flexibility Score: inf
ROOT
ATOM      1  C   UNL     1      11.531  13.703 161.011  1.00  0.00     0.000 C 
ENDROOT
BRANCH   1   2
ATOM      2  C   UNL     1      10.253  14.499 161.317  1.00  0.00     0.000 C 
BRANCH   2   3
ATOM      3  C   UNL     1      10.128  15.772 160.463  1.00  0.00     0.000 C 
BRANCH   3   4
ATOM      4  C   UNL     1      11.473  16.491 160.269  1.00  0.00     0.000 C 
BRANCH   4   5
ATOM      5  C   UNL     1      11.307  17.859 159.580  1.00  0.00     0.000 C 
BRANCH   5   6
ATOM      6  C   UNL     1      11.288  19.054 160.550  1.00  0.00     0.000 C 
BRANCH   6   7
ATOM      7  C   UNL     1      10.929  18.641 161.987  1.00  0.00     0.000 C 
BRANCH   7   8
ATOM      8  C   UNL     1      12.134  18.816 162.924  1.00  0.00     0.000 C 
BRANCH   8   9
ATOM      9  C   UNL     1      12.577  17.496 163.577  1.00  0.00     0.000 C 
BRANCH   9  10
ATOM     10  C   UNL     1      13.866  16.930 162.958  1.00  0.00     0.000 C 
BRANCH  10  11
ATOM     11  C   UNL     1      14.163  15.520 163.487  1.00  0.00     0.000 C 
BRANCH  11  12
ATOM     12  C   UNL     1      14.924  14.663 162.460  1.00  0.00     0.006 C 
BRANCH  12  13
ATOM     13  C   UNL     1      16.102  13.908 163.091  1.00  0.00     0.053 C 
BRANCH  13  14
ATOM     14  C   UNL     1      17.342  14.092 162.273  1.00  0.00     0.041 C 
ATOM     15  O   UNL     1      17.288  14.024 161.017  1.00  0.00    -0.550 OA
ATOM     16  O   UNL     1      18.564  14.305 162.900  1.00  0.00    -0.550 OA
ENDBRANCH  13  14
ENDBRANCH  12  13
ENDBRANCH  11  12
ENDBRANCH  10  11
ENDBRANCH   9  10
ENDBRANCH   8   9
ENDBRANCH   7   8
ENDBRANCH   6   7
ENDBRANCH   5   6
ENDBRANCH   4   5
ENDBRANCH   3   4
ENDBRANCH   2   3
ENDBRANCH   1   2
BRANCH   1  17
ATOM     17  C   UNL     1      11.757  12.589 162.046  1.00  0.00     0.000 C 
BRANCH  17  18
ATOM     18  C   UNL     1      10.784  12.692 163.240  1.00  0.00     0.000 C 
BRANCH  18  19
ATOM     19  C   UNL     1      11.475  12.989 164.585  1.00  0.00     0.000 C 
BRANCH  19  20
ATOM     20  C   UNL     1      11.514  14.486 164.923  1.00  0.00     0.000 C 
BRANCH  20  21
ATOM     21  C   UNL     1      10.711  14.787 166.199  1.00  0.00     0.000 C 
BRANCH  21  22
ATOM     22  C   UNL     1      10.231  16.249 166.259  1.00  0.00    -0.000 C 
BRANCH  22  23
ATOM     23  C   UNL     1       9.483  16.714 164.991  1.00  0.00    -0.000 C 
BRANCH  23  24
ATOM     24  C   UNL     1       8.891  18.134 165.098  1.00  0.00    -0.000 C 
BRANCH  24  25
ATOM     25  C   UNL     1       8.519  18.553 166.538  1.00  0.00    -0.000 C 
BRANCH  25  26
ATOM     26  C   UNL     1       7.004  18.699 166.783  1.00  0.00    -0.000 C 
BRANCH  26  27
ATOM     27  C   UNL     1       6.118  17.729 165.978  1.00  0.00    -0.000 C 
BRANCH  27  28
ATOM     28  C   UNL     1       6.078  16.311 166.568  1.00  0.00    -0.000 C 
BRANCH  28  29
ATOM     29  C   UNL     1       6.277  16.345 168.089  1.00  0.00    -0.003 C 
ATOM     30  C   UNL     1       7.507  15.543 168.503  1.00  0.00     0.004 C 
ENDBRANCH  28  29
ENDBRANCH  27  28
ENDBRANCH  26  27
ENDBRANCH  25  26
ENDBRANCH  24  25
ENDBRANCH  23  24
ENDBRANCH  22  23
ENDBRANCH  21  22
ENDBRANCH  20  21
ENDBRANCH  19  20
ENDBRANCH  18  19
ENDBRANCH  17  18
ENDBRANCH   1  17
TORSDOF 26
ENDMDL
MODEL 5
REMARK VINA RESULT:    -3.979      2.903      7.676
REMARK INTER + INTRA:         -13.758
REMARK INTER:                 -10.302
REMARK INTRA:                  -3.457
REMARK UNBOUND:                -3.731
REMARK SMILES CCCCCCCCCCCCCCCCCCCCCCCCCCCC(=O)[O-]
REMARK SMILES IDX 15 1 16 2 17 3 18 4 19 5 20 6 21 7 22 8 23 9 24 10 25 11
REMARK SMILES IDX 26 12 27 13 28 14 29 15 30 16 14 17 13 18 12 19 11 20 10 21
REMARK SMILES IDX 9 22 8 23 7 24 6 25 5 26 4 27 3 28 2 29 1 30
REMARK H PARENT
REMARK Flexibility Score: inf
ROOT
ATOM      1  C   UNL     1      12.079  13.599 164.613  1.00  0.00     0.000 C 
ENDROOT
BRANCH   1   2
ATOM      2  C   UNL     1      11.243  12.598 163.799  1.00  0.00     0.000 C 
BRANCH   2   3
ATOM      3  C   UNL     1      11.775  12.405 162.370  1.00  0.00     0.000 C 
BRANCH   3   4
ATOM      4  C   UNL     1      10.670  12.505 161.306  1.00  0.00     0.000 C 
BRANCH   4   5
ATOM      5  C   UNL     1       9.451  13.302 161.806  1.00  0.00     0.000 C 
BRANCH   5   6
ATOM      6  C   UNL     1       9.652  14.829 161.799  1.00  0.00     0.000 C 
BRANCH   6   7
ATOM      7  C   UNL     1       9.942  15.378 160.393  1.00  0.00     0.000 C 
BRANCH   7   8
ATOM      8  C   UNL     1      11.229  16.218 160.388  1.00  0.00     0.000 C 
BRANCH   8   9
ATOM      9  C   UNL     1      12.429  15.466 159.791  1.00  0.00     0.000 C 
BRANCH   9  10
ATOM     10  C   UNL     1      13.440  15.017 160.860  1.00  0.00     0.000 C 
BRANCH  10  11
ATOM     11  C   UNL     1      13.194  15.737 162.193  1.00  0.00     0.000 C 
BRANCH  11  12
ATOM     12  C   UNL     1      14.480  15.869 163.028  1.00  0.00     0.006 C 
BRANCH  12  13
ATOM     13  C   UNL     1      15.710  15.317 162.295  1.00  0.00     0.053 C 
BRANCH  13  14
ATOM     14  C   UNL     1      16.213  14.080 162.969  1.00  0.00     0.041 C 
ATOM     15  O   UNL     1      15.474  13.452 163.774  1.00  0.00    -0.550 OA
ATOM     16  O   UNL     1      17.509  13.636 162.734  1.00  0.00    -0.550 OA
ENDBRANCH  13  14
ENDBRANCH  12  13
ENDBRANCH  11  12
ENDBRANCH  10  11
ENDBRANCH   9  10
ENDBRANCH   8   9
ENDBRANCH   7   8
ENDBRANCH   6   7
ENDBRANCH   5   6
ENDBRANCH   4   5
ENDBRANCH   3   4
ENDBRANCH   2   3
ENDBRANCH   1   2
BRANCH   1  17
ATOM     17  C   UNL     1      11.187  14.481 165.499  1.00  0.00     0.000 C 
BRANCH  17  18
ATOM     18  C   UNL     1      11.412  15.987 165.243  1.00  0.00     0.000 C 
BRANCH  18  19
ATOM     19  C   UNL     1      10.153  16.734 164.765  1.00  0.00     0.000 C 
BRANCH  19  20
ATOM     20  C   UNL     1      10.443  17.750 163.651  1.00  0.00     0.000 C 
BRANCH  20  21
ATOM     21  C   UNL     1       9.841  19.125 163.985  1.00  0.00     0.000 C 
BRANCH  21  22
ATOM     22  C   UNL     1       9.020  19.105 165.288  1.00  0.00    -0.000 C 
BRANCH  22  23
ATOM     23  C   UNL     1       7.710  18.294 165.190  1.00  0.00    -0.000 C 
BRANCH  23  24
ATOM     24  C   UNL     1       6.445  19.101 165.544  1.00  0.00    -0.000 C 
BRANCH  24  25
ATOM     25  C   UNL     1       5.629  18.510 166.715  1.00  0.00    -0.000 C 
BRANCH  25  26
ATOM     26  C   UNL     1       4.932  17.174 166.390  1.00  0.00    -0.000 C 
BRANCH  26  27
ATOM     27  C   UNL     1       5.659  15.918 166.908  1.00  0.00    -0.000 C 
BRANCH  27  28
ATOM     28  C   UNL     1       5.749  15.858 168.441  1.00  0.00    -0.000 C 
BRANCH  28  29
ATOM     29  C   UNL     1       7.206  15.717 168.900  1.00  0.00    -0.003 C 
ATOM     30  C   UNL     1       8.174  15.919 167.738  1.00  0.00     0.004 C 
ENDBRANCH  28  29
ENDBRANCH  27  28
ENDBRANCH  26  27
ENDBRANCH  25  26
ENDBRANCH  24  25
ENDBRANCH  23  24
ENDBRANCH  22  23
ENDBRANCH  21  22
ENDBRANCH  20  21
ENDBRANCH  19  20
ENDBRANCH  18  19
ENDBRANCH  17  18
ENDBRANCH   1  17
TORSDOF 26
ENDMDL
MODEL 6
REMARK VINA RESULT:    -3.789      3.407      7.430
REMARK INTER + INTRA:         -13.279
REMARK INTER:                  -9.055
REMARK INTRA:                  -4.224
REMARK UNBOUND:                -3.731
REMARK SMILES CCCCCCCCCCCCCCCCCCCCCCCCCCCC(=O)[O-]
REMARK SMILES IDX 15 1 16 2 17 3 18 4 19 5 20 6 21 7 22 8 23 9 24 10 25 11
REMARK SMILES IDX 26 12 27 13 28 14 29 15 30 16 14 17 13 18 12 19 11 20 10 21
REMARK SMILES IDX 9 22 8 23 7 24 6 25 5 26 4 27 3 28 2 29 1 30
REMARK H PARENT
REMARK Flexibility Score: inf
ROOT
ATOM      1  C   UNL     1      10.509  15.260 161.143  1.00  0.00     0.000 C 
ENDROOT
BRANCH   1   2
ATOM      2  C   UNL     1      11.541  14.233 160.651  1.00  0.00     0.000 C 
BRANCH   2   3
ATOM      3  C   UNL     1      11.456  12.898 161.409  1.00  0.00     0.000 C 
BRANCH   3   4
ATOM      4  C   UNL     1      10.767  13.033 162.776  1.00  0.00     0.000 C 
BRANCH   4   5
ATOM      5  C   UNL     1      11.685  12.602 163.936  1.00  0.00     0.000 C 
BRANCH   5   6
ATOM      6  C   UNL     1      11.393  13.317 165.268  1.00  0.00     0.000 C 
BRANCH   6   7
ATOM      7  C   UNL     1      11.094  14.813 165.081  1.00  0.00     0.000 C 
BRANCH   7   8
ATOM      8  C   UNL     1      12.122  15.675 165.831  1.00  0.00     0.000 C 
BRANCH   8   9
ATOM      9  C   UNL     1      13.113  16.376 164.887  1.00  0.00     0.000 C 
BRANCH   9  10
ATOM     10  C   UNL     1      12.966  15.919 163.426  1.00  0.00     0.000 C 
BRANCH  10  11
ATOM     11  C   UNL     1      14.333  15.825 162.734  1.00  0.00     0.000 C 
BRANCH  11  12
ATOM     12  C   UNL     1      14.761  14.368 162.488  1.00  0.00     0.006 C 
BRANCH  12  13
ATOM     13  C   UNL     1      15.899  13.930 163.418  1.00  0.00     0.053 C 
BRANCH  13  14
ATOM     14  C   UNL     1      17.187  13.829 162.663  1.00  0.00     0.041 C 
ATOM     15  O   UNL     1      17.698  14.856 162.143  1.00  0.00    -0.550 OA
ATOM     16  O   UNL     1      17.807  12.595 162.504  1.00  0.00    -0.550 OA
ENDBRANCH  13  14
ENDBRANCH  12  13
ENDBRANCH  11  12
ENDBRANCH  10  11
ENDBRANCH   9  10
ENDBRANCH   8   9
ENDBRANCH   7   8
ENDBRANCH   6   7
ENDBRANCH   5   6
ENDBRANCH   4   5
ENDBRANCH   3   4
ENDBRANCH   2   3
ENDBRANCH   1   2
BRANCH   1  17
ATOM     17  C   UNL     1      10.439  16.475 160.205  1.00  0.00     0.000 C 
BRANCH  17  18
ATOM     18  C   UNL     1      11.582  17.480 160.460  1.00  0.00     0.000 C 
BRANCH  18  19
ATOM     19  C   UNL     1      11.121  18.800 161.106  1.00  0.00     0.000 C 
BRANCH  19  20
ATOM     20  C   UNL     1      11.426  18.873 162.609  1.00  0.00     0.000 C 
BRANCH  20  21
ATOM     21  C   UNL     1      10.133  19.005 163.430  1.00  0.00     0.000 C 
BRANCH  21  22
ATOM     22  C   UNL     1       9.667  17.656 164.010  1.00  0.00    -0.000 C 
BRANCH  22  23
ATOM     23  C   UNL     1       9.079  17.756 165.434  1.00  0.00    -0.000 C 
BRANCH  23  24
ATOM     24  C   UNL     1       8.407  19.109 165.741  1.00  0.00    -0.000 C 
BRANCH  24  25
ATOM     25  C   UNL     1       6.864  19.050 165.785  1.00  0.00    -0.000 C 
BRANCH  25  26
ATOM     26  C   UNL     1       6.289  18.469 167.092  1.00  0.00    -0.000 C 
BRANCH  26  27
ATOM     27  C   UNL     1       5.589  17.105 166.946  1.00  0.00    -0.000 C 
BRANCH  27  28
ATOM     28  C   UNL     1       6.559  15.915 166.995  1.00  0.00    -0.000 C 
BRANCH  28  29
ATOM     29  C   UNL     1       7.555  16.068 168.152  1.00  0.00    -0.003 C 
ATOM     30  C   UNL     1       6.912  15.704 169.486  1.00  0.00     0.004 C 
ENDBRANCH  28  29
ENDBRANCH  27  28
ENDBRANCH  26  27
ENDBRANCH  25  26
ENDBRANCH  24  25
ENDBRANCH  23  24
ENDBRANCH  22  23
ENDBRANCH  21  22
ENDBRANCH  20  21
ENDBRANCH  19  20
ENDBRANCH  18  19
ENDBRANCH  17  18
ENDBRANCH   1  17
TORSDOF 26
ENDMDL
MODEL 7
REMARK VINA RESULT:    -3.759      2.746      7.260
REMARK INTER + INTRA:         -13.203
REMARK INTER:                  -9.556
REMARK INTRA:                  -3.647
REMARK UNBOUND:                -3.731
REMARK SMILES CCCCCCCCCCCCCCCCCCCCCCCCCCCC(=O)[O-]
REMARK SMILES IDX 15 1 16 2 17 3 18 4 19 5 20 6 21 7 22 8 23 9 24 10 25 11
REMARK SMILES IDX 26 12 27 13 28 14 29 15 30 16 14 17 13 18 12 19 11 20 10 21
REMARK SMILES IDX 9 22 8 23 7 24 6 25 5 26 4 27 3 28 2 29 1 30
REMARK H PARENT
REMARK Flexibility Score: inf
ROOT
ATOM      1  C   UNL     1      10.944  16.124 159.983  1.00  0.00     0.000 C 
ENDROOT
BRANCH   1   2
ATOM      2  C   UNL     1      12.463  15.900 159.902  1.00  0.00     0.000 C 
BRANCH   2   3
ATOM      3  C   UNL     1      12.913  14.623 160.629  1.00  0.00     0.000 C 
BRANCH   3   4
ATOM      4  C   UNL     1      14.395  14.663 161.038  1.00  0.00     0.000 C 
BRANCH   4   5
ATOM      5  C   UNL     1      14.583  14.509 162.559  1.00  0.00     0.000 C 
BRANCH   5   6
ATOM      6  C   UNL     1      13.880  15.596 163.393  1.00  0.00     0.000 C 
BRANCH   6   7
ATOM      7  C   UNL     1      12.852  15.010 164.375  1.00  0.00     0.000 C 
BRANCH   7   8
ATOM      8  C   UNL     1      12.709  13.493 164.179  1.00  0.00     0.000 C 
BRANCH   8   9
ATOM      9  C   UNL     1      11.249  13.053 163.983  1.00  0.00     0.000 C 
BRANCH   9  10
ATOM     10  C   UNL     1      10.503  13.914 162.950  1.00  0.00     0.000 C 
BRANCH  10  11
ATOM     11  C   UNL     1       9.810  13.040 161.895  1.00  0.00     0.000 C 
BRANCH  11  12
ATOM     12  C   UNL     1      10.727  11.916 161.380  1.00  0.00     0.006 C 
BRANCH  12  13
ATOM     13  C   UNL     1       9.944  10.807 160.665  1.00  0.00     0.053 C 
BRANCH  13  14
ATOM     14  C   UNL     1       9.440   9.800 161.650  1.00  0.00     0.041 C 
ATOM     15  O   UNL     1       9.973   9.705 162.787  1.00  0.00    -0.550 OA
ATOM     16  O   UNL     1       8.403   8.942 161.302  1.00  0.00    -0.550 OA
ENDBRANCH  13  14
ENDBRANCH  12  13
ENDBRANCH  11  12
ENDBRANCH  10  11
ENDBRANCH   9  10
ENDBRANCH   8   9
ENDBRANCH   7   8
ENDBRANCH   6   7
ENDBRANCH   5   6
ENDBRANCH   4   5
ENDBRANCH   3   4
ENDBRANCH   2   3
ENDBRANCH   1   2
BRANCH   1  17
ATOM     17  C   UNL     1      10.584  17.112 161.103  1.00  0.00     0.000 C 
BRANCH  17  18
ATOM     18  C   UNL     1      11.796  17.458 161.993  1.00  0.00     0.000 C 
BRANCH  18  19
ATOM     19  C   UNL     1      11.510  18.549 163.042  1.00  0.00     0.000 C 
BRANCH  19  20
ATOM     20  C   UNL     1      10.080  18.492 163.595  1.00  0.00     0.000 C 
BRANCH  20  21
ATOM     21  C   UNL     1       9.840  17.190 164.378  1.00  0.00     0.000 C 
BRANCH  21  22
ATOM     22  C   UNL     1       9.190  17.443 165.751  1.00  0.00    -0.000 C 
BRANCH  22  23
ATOM     23  C   UNL     1       8.570  18.849 165.901  1.00  0.00    -0.000 C 
BRANCH  23  24
ATOM     24  C   UNL     1       7.832  19.069 167.236  1.00  0.00    -0.000 C 
BRANCH  24  25
ATOM     25  C   UNL     1       6.291  19.068 167.111  1.00  0.00    -0.000 C 
BRANCH  25  26
ATOM     26  C   UNL     1       5.716  17.835 166.386  1.00  0.00    -0.000 C 
BRANCH  26  27
ATOM     27  C   UNL     1       5.376  16.643 167.300  1.00  0.00    -0.000 C 
BRANCH  27  28
ATOM     28  C   UNL     1       6.379  15.485 167.188  1.00  0.00    -0.000 C 
BRANCH  28  29
ATOM     29  C   UNL     1       7.396  15.528 168.337  1.00  0.00    -0.003 C 
ATOM     30  C   UNL     1       6.715  15.843 169.665  1.00  0.00     0.004 C 
ENDBRANCH  28  29
ENDBRANCH  27  28
ENDBRANCH  26  27
ENDBRANCH  25  26
ENDBRANCH  24  25
ENDBRANCH  23  24
ENDBRANCH  22  23
ENDBRANCH  21  22
ENDBRANCH  20  21
ENDBRANCH  19  20
ENDBRANCH  18  19
ENDBRANCH  17  18
ENDBRANCH   1  17
TORSDOF 26
ENDMDL
MODEL 8
REMARK VINA RESULT:    -3.700      3.133      7.359
REMARK INTER + INTRA:         -13.054
REMARK INTER:                  -9.855
REMARK INTRA:                  -3.199
REMARK UNBOUND:                -3.731
REMARK SMILES CCCCCCCCCCCCCCCCCCCCCCCCCCCC(=O)[O-]
REMARK SMILES IDX 15 1 16 2 17 3 18 4 19 5 20 6 21 7 22 8 23 9 24 10 25 11
REMARK SMILES IDX 26 12 27 13 28 14 29 15 30 16 14 17 13 18 12 19 11 20 10 21
REMARK SMILES IDX 9 22 8 23 7 24 6 25 5 26 4 27 3 28 2 29 1 30
REMARK H PARENT
REMARK Flexibility Score: inf
ROOT
ATOM      1  C   UNL     1      11.521  13.667 164.368  1.00  0.00     0.000 C 
ENDROOT
BRANCH   1   2
ATOM      2  C   UNL     1      12.809  13.093 163.757  1.00  0.00     0.000 C 
BRANCH   2   3
ATOM      3  C   UNL     1      13.932  14.138 163.649  1.00  0.00     0.000 C 
BRANCH   3   4
ATOM      4  C   UNL     1      14.215  14.559 162.198  1.00  0.00     0.000 C 
BRANCH   4   5
ATOM      5  C   UNL     1      13.217  15.618 161.695  1.00  0.00     0.000 C 
BRANCH   5   6
ATOM      6  C   UNL     1      12.783  15.428 160.230  1.00  0.00     0.000 C 
BRANCH   6   7
ATOM      7  C   UNL     1      11.403  16.041 159.940  1.00  0.00     0.000 C 
BRANCH   7   8
ATOM      8  C   UNL     1      10.506  15.984 161.186  1.00  0.00     0.000 C 
BRANCH   8   9
ATOM      9  C   UNL     1       9.397  14.925 161.073  1.00  0.00     0.000 C 
BRANCH   9  10
ATOM     10  C   UNL     1       9.760  13.606 161.777  1.00  0.00     0.000 C 
BRANCH  10  11
ATOM     11  C   UNL     1      10.729  12.773 160.926  1.00  0.00     0.000 C 
BRANCH  11  12
ATOM     12  C   UNL     1      10.811  11.312 161.403  1.00  0.00     0.006 C 
BRANCH  12  13
ATOM     13  C   UNL     1       9.454  10.779 161.883  1.00  0.00     0.053 C 
BRANCH  13  14
ATOM     14  C   UNL     1       9.283   9.346 161.487  1.00  0.00     0.041 C 
ATOM     15  O   UNL     1      10.290   8.634 161.234  1.00  0.00    -0.550 OA
ATOM     16  O   UNL     1       8.008   8.805 161.366  1.00  0.00    -0.550 OA
ENDBRANCH  13  14
ENDBRANCH  12  13
ENDBRANCH  11  12
ENDBRANCH  10  11
ENDBRANCH   9  10
ENDBRANCH   8   9
ENDBRANCH   7   8
ENDBRANCH   6   7
ENDBRANCH   5   6
ENDBRANCH   4   5
ENDBRANCH   3   4
ENDBRANCH   2   3
ENDBRANCH   1   2
BRANCH   1  17
ATOM     17  C   UNL     1      11.795  14.328 165.728  1.00  0.00     0.000 C 
BRANCH  17  18
ATOM     18  C   UNL     1      11.153  15.728 165.839  1.00  0.00     0.000 C 
BRANCH  18  19
ATOM     19  C   UNL     1      11.241  16.560 164.546  1.00  0.00     0.000 C 
BRANCH  19  20
ATOM     20  C   UNL     1       9.880  17.096 164.081  1.00  0.00     0.000 C 
BRANCH  20  21
ATOM     21  C   UNL     1       9.830  18.630 164.165  1.00  0.00     0.000 C 
BRANCH  21  22
ATOM     22  C   UNL     1       9.005  19.125 165.367  1.00  0.00    -0.000 C 
BRANCH  22  23
ATOM     23  C   UNL     1       7.780  18.244 165.692  1.00  0.00    -0.000 C 
BRANCH  23  24
ATOM     24  C   UNL     1       6.556  19.033 166.198  1.00  0.00    -0.000 C 
BRANCH  24  25
ATOM     25  C   UNL     1       5.265  18.191 166.304  1.00  0.00    -0.000 C 
BRANCH  25  26
ATOM     26  C   UNL     1       5.428  16.724 165.860  1.00  0.00    -0.000 C 
BRANCH  26  27
ATOM     27  C   UNL     1       5.689  15.724 167.002  1.00  0.00    -0.000 C 
BRANCH  27  28
ATOM     28  C   UNL     1       6.026  16.402 168.338  1.00  0.00    -0.000 C 
BRANCH  28  29
ATOM     29  C   UNL     1       7.216  15.712 169.019  1.00  0.00    -0.003 C 
ATOM     30  C   UNL     1       8.351  15.465 168.030  1.00  0.00     0.004 C 
ENDBRANCH  28  29
ENDBRANCH  27  28
ENDBRANCH  26  27
ENDBRANCH  25  26
ENDBRANCH  24  25
ENDBRANCH  23  24
ENDBRANCH  22  23
ENDBRANCH  21  22
ENDBRANCH  20  21
ENDBRANCH  19  20
ENDBRANCH  18  19
ENDBRANCH  17  18
ENDBRANCH   1  17
TORSDOF 26
ENDMDL
MODEL 9
REMARK VINA RESULT:    -3.567      1.142      3.296
REMARK INTER + INTRA:         -12.721
REMARK INTER:                 -10.339
REMARK INTRA:                  -2.381
REMARK UNBOUND:                -3.731
REMARK SMILES CCCCCCCCCCCCCCCCCCCCCCCCCCCC(=O)[O-]
REMARK SMILES IDX 15 1 16 2 17 3 18 4 19 5 20 6 21 7 22 8 23 9 24 10 25 11
REMARK SMILES IDX 26 12 27 13 28 14 29 15 30 16 14 17 13 18 12 19 11 20 10 21
REMARK SMILES IDX 9 22 8 23 7 24 6 25 5 26 4 27 3 28 2 29 1 30
REMARK H PARENT
REMARK Flexibility Score: inf
ROOT
ATOM      1  C   UNL     1      12.326  16.318 162.651  1.00  0.00     0.000 C 
ENDROOT
BRANCH   1   2
ATOM      2  C   UNL     1      13.204  17.481 163.139  1.00  0.00     0.000 C 
BRANCH   2   3
ATOM      3  C   UNL     1      12.562  18.855 162.886  1.00  0.00     0.000 C 
BRANCH   3   4
ATOM      4  C   UNL     1      11.059  18.761 162.574  1.00  0.00     0.000 C 
BRANCH   4   5
ATOM      5  C   UNL     1      10.197  18.802 163.850  1.00  0.00     0.000 C 
BRANCH   5   6
ATOM      6  C   UNL     1       9.770  17.415 164.366  1.00  0.00     0.000 C 
BRANCH   6   7
ATOM      7  C   UNL     1       9.114  17.480 165.755  1.00  0.00     0.000 C 
BRANCH   7   8
ATOM      8  C   UNL     1       8.252  18.744 165.895  1.00  0.00     0.000 C 
BRANCH   8   9
ATOM      9  C   UNL     1       7.515  18.816 167.242  1.00  0.00     0.000 C 
BRANCH   9  10
ATOM     10  C   UNL     1       5.987  18.896 167.080  1.00  0.00     0.000 C 
BRANCH  10  11
ATOM     11  C   UNL     1       5.472  17.802 166.134  1.00  0.00     0.000 C 
BRANCH  11  12
ATOM     12  C   UNL     1       6.015  16.411 166.505  1.00  0.00     0.006 C 
BRANCH  12  13
ATOM     13  C   UNL     1       5.620  15.991 167.927  1.00  0.00     0.053 C 
BRANCH  13  14
ATOM     14  C   UNL     1       6.836  15.671 168.738  1.00  0.00     0.041 C 
ATOM     15  O   UNL     1       7.919  15.376 168.166  1.00  0.00    -0.550 OA
ATOM     16  O   UNL     1       6.767  15.668 170.126  1.00  0.00    -0.550 OA
ENDBRANCH  13  14
ENDBRANCH  12  13
ENDBRANCH  11  12
ENDBRANCH  10  11
ENDBRANCH   9  10
ENDBRANCH   8   9
ENDBRANCH   7   8
ENDBRANCH   6   7
ENDBRANCH   5   6
ENDBRANCH   4   5
ENDBRANCH   3   4
ENDBRANCH   2   3
ENDBRANCH   1   2
BRANCH   1  17
ATOM     17  C   UNL     1      12.835  15.757 161.314  1.00  0.00     0.000 C 
BRANCH  17  18
ATOM     18  C   UNL     1      11.821  15.961 160.168  1.00  0.00     0.000 C 
BRANCH  18  19
ATOM     19  C   UNL     1      10.395  16.292 160.647  1.00  0.00     0.000 C 
BRANCH  19  20
ATOM     20  C   UNL     1       9.455  15.079 160.619  1.00  0.00     0.000 C 
BRANCH  20  21
ATOM     21  C   UNL     1       9.697  14.162 161.829  1.00  0.00     0.000 C 
BRANCH  21  22
ATOM     22  C   UNL     1      10.281  12.797 161.422  1.00  0.00    -0.000 C 
BRANCH  22  23
ATOM     23  C   UNL     1      11.277  12.211 162.445  1.00  0.00    -0.000 C 
BRANCH  23  24
ATOM     24  C   UNL     1      11.276  12.935 163.806  1.00  0.00    -0.000 C 
BRANCH  24  25
ATOM     25  C   UNL     1      12.661  13.472 164.233  1.00  0.00    -0.000 C 
BRANCH  25  26
ATOM     26  C   UNL     1      13.779  13.234 163.199  1.00  0.00    -0.000 C 
BRANCH  26  27
ATOM     27  C   UNL     1      15.198  13.591 163.681  1.00  0.00    -0.000 C 
BRANCH  27  28
ATOM     28  C   UNL     1      15.839  14.739 162.887  1.00  0.00    -0.000 C 
BRANCH  28  29
ATOM     29  C   UNL     1      16.896  14.207 161.911  1.00  0.00    -0.003 C 
ATOM     30  C   UNL     1      18.218  13.936 162.622  1.00  0.00     0.004 C 
ENDBRANCH  28  29
ENDBRANCH  27  28
ENDBRANCH  26  27
ENDBRANCH  25  26
ENDBRANCH  24  25
ENDBRANCH  23  24
ENDBRANCH  22  23
ENDBRANCH  21  22
ENDBRANCH  20  21
ENDBRANCH  19  20
ENDBRANCH  18  19
ENDBRANCH  17  18
ENDBRANCH   1  17
TORSDOF 26
ENDMDL
