MODEL 1
REMARK VINA RESULT:    -4.083      0.000      0.000
REMARK INTER + INTRA:         -12.688
REMARK INTER:                  -9.334
REMARK INTRA:                  -3.355
REMARK UNBOUND:                -3.355
REMARK SMILES CCCCCCCCCCCCCCCCCCCCCCCC(=O)[O-]
REMARK SMILES IDX 13 1 14 2 15 3 16 4 17 5 18 6 19 7 20 8 21 9 22 10 23 11
REMARK SMILES IDX 24 12 25 13 26 14 12 15 11 16 10 17 9 18 8 19 7 20 6 21 5 22
REMARK SMILES IDX 4 23 3 24 2 25 1 26
REMARK H PARENT
REMARK Flexibility Score: inf
ROOT
ATOM      1  C   UNL     1     120.083 113.752 111.647  1.00  0.00     0.000 C 
ENDROOT
BRANCH   1   2
ATOM      2  C   UNL     1     121.551 113.391 111.926  1.00  0.00     0.000 C 
BRANCH   2   3
ATOM      3  C   UNL     1     121.701 112.017 112.602  1.00  0.00     0.000 C 
BRANCH   3   4
ATOM      4  C   UNL     1     120.355 111.300 112.796  1.00  0.00     0.000 C 
BRANCH   4   5
ATOM      5  C   UNL     1     120.216 110.008 111.962  1.00  0.00     0.000 C 
BRANCH   5   6
ATOM      6  C   UNL     1     119.093 110.114 110.915  1.00  0.00     0.000 C 
BRANCH   6   7
ATOM      7  C   UNL     1     119.617 109.995 109.468  1.00  0.00     0.000 C 
BRANCH   7   8
ATOM      8  C   UNL     1     120.296 111.276 108.944  1.00  0.00     0.000 C 
BRANCH   8   9
ATOM      9  C   UNL     1     121.830 111.213 108.852  1.00  0.00     0.000 C 
BRANCH   9  10
ATOM     10  C   UNL     1     122.512 112.489 108.319  1.00  0.00     0.006 C 
BRANCH  10  11
ATOM     11  C   UNL     1     121.552 113.681 108.136  1.00  0.00     0.053 C 
BRANCH  11  12
ATOM     12  C   UNL     1     121.499 114.164 106.718  1.00  0.00     0.041 C 
ATOM     13  O   UNL     1     121.419 115.395 106.469  1.00  0.00    -0.550 OA
ATOM     14  O   UNL     1     121.500 113.252 105.669  1.00  0.00    -0.550 OA
ENDBRANCH  11  12
ENDBRANCH  10  11
ENDBRANCH   9  10
ENDBRANCH   8   9
ENDBRANCH   7   8
ENDBRANCH   6   7
ENDBRANCH   5   6
ENDBRANCH   4   5
ENDBRANCH   3   4
ENDBRANCH   2   3
ENDBRANCH   1   2
BRANCH   1  15
ATOM     15  C   UNL     1     119.705 115.146 112.182  1.00  0.00     0.000 C 
BRANCH  15  16
ATOM     16  C   UNL     1     120.550 115.574 113.397  1.00  0.00     0.000 C 
BRANCH  16  17
ATOM     17  C   UNL     1     119.880 116.603 114.329  1.00  0.00     0.000 C 
BRANCH  17  18
ATOM     18  C   UNL     1     118.524 116.128 114.877  1.00  0.00    -0.000 C 
BRANCH  18  19
ATOM     19  C   UNL     1     118.609 114.750 115.561  1.00  0.00    -0.000 C 
BRANCH  19  20
ATOM     20  C   UNL     1     117.431 114.412 116.496  1.00  0.00    -0.000 C 
BRANCH  20  21
ATOM     21  C   UNL     1     117.828 113.887 117.891  1.00  0.00    -0.000 C 
BRANCH  21  22
ATOM     22  C   UNL     1     118.198 112.392 117.944  1.00  0.00    -0.000 C 
BRANCH  22  23
ATOM     23  C   UNL     1     119.654 112.150 118.374  1.00  0.00    -0.000 C 
BRANCH  23  24
ATOM     24  C   UNL     1     120.336 111.048 117.534  1.00  0.00    -0.000 C 
BRANCH  24  25
ATOM     25  C   UNL     1     120.941 111.566 116.219  1.00  0.00    -0.003 C 
ATOM     26  C   UNL     1     121.643 112.914 116.374  1.00  0.00     0.004 C 
ENDBRANCH  24  25
ENDBRANCH  23  24
ENDBRANCH  22  23
ENDBRANCH  21  22
ENDBRANCH  20  21
ENDBRANCH  19  20
ENDBRANCH  18  19
ENDBRANCH  17  18
ENDBRANCH  16  17
ENDBRANCH  15  16
ENDBRANCH   1  15
TORSDOF 22
ENDMDL
MODEL 2
REMARK VINA RESULT:    -4.079      2.996      6.518
REMARK INTER + INTRA:         -12.679
REMARK INTER:                  -8.275
REMARK INTRA:                  -4.405
REMARK UNBOUND:                -3.355
REMARK SMILES CCCCCCCCCCCCCCCCCCCCCCCC(=O)[O-]
REMARK SMILES IDX 13 1 14 2 15 3 16 4 17 5 18 6 19 7 20 8 21 9 22 10 23 11
REMARK SMILES IDX 24 12 25 13 26 14 12 15 11 16 10 17 9 18 8 19 7 20 6 21 5 22
REMARK SMILES IDX 4 23 3 24 2 25 1 26
REMARK H PARENT
REMARK Flexibility Score: inf
ROOT
ATOM      1  C   UNL     1     121.195 111.554 112.853  1.00  0.00     0.000 C 
ENDROOT
BRANCH   1   2
ATOM      2  C   UNL     1     120.085 112.612 112.960  1.00  0.00     0.000 C 
BRANCH   2   3
ATOM      3  C   UNL     1     120.325 113.813 112.030  1.00  0.00     0.000 C 
BRANCH   3   4
ATOM      4  C   UNL     1     121.453 113.564 111.015  1.00  0.00     0.000 C 
BRANCH   4   5
ATOM      5  C   UNL     1     122.251 114.835 110.652  1.00  0.00     0.000 C 
BRANCH   5   6
ATOM      6  C   UNL     1     123.019 114.677 109.328  1.00  0.00     0.000 C 
BRANCH   6   7
ATOM      7  C   UNL     1     122.954 113.239 108.772  1.00  0.00     0.000 C 
BRANCH   7   8
ATOM      8  C   UNL     1     123.729 113.044 107.453  1.00  0.00     0.000 C 
BRANCH   8   9
ATOM      9  C   UNL     1     122.956 112.314 106.341  1.00  0.00     0.000 C 
BRANCH   9  10
ATOM     10  C   UNL     1     122.207 113.227 105.350  1.00  0.00     0.006 C 
BRANCH  10  11
ATOM     11  C   UNL     1     120.839 113.718 105.862  1.00  0.00     0.053 C 
BRANCH  11  12
ATOM     12  C   UNL     1     120.755 115.212 105.937  1.00  0.00     0.041 C 
ATOM     13  O   UNL     1     119.663 115.798 105.720  1.00  0.00    -0.550 OA
ATOM     14  O   UNL     1     121.892 115.963 106.209  1.00  0.00    -0.550 OA
ENDBRANCH  11  12
ENDBRANCH  10  11
ENDBRANCH   9  10
ENDBRANCH   8   9
ENDBRANCH   7   8
ENDBRANCH   6   7
ENDBRANCH   5   6
ENDBRANCH   4   5
ENDBRANCH   3   4
ENDBRANCH   2   3
ENDBRANCH   1   2
BRANCH   1  15
ATOM     15  C   UNL     1     120.656 110.171 112.442  1.00  0.00     0.000 C 
BRANCH  15  16
ATOM     16  C   UNL     1     119.283 110.242 111.746  1.00  0.00     0.000 C 
BRANCH  16  17
ATOM     17  C   UNL     1     119.302 109.952 110.232  1.00  0.00     0.000 C 
BRANCH  17  18
ATOM     18  C   UNL     1     119.350 111.228 109.375  1.00  0.00    -0.000 C 
BRANCH  18  19
ATOM     19  C   UNL     1     120.064 111.011 108.027  1.00  0.00    -0.000 C 
BRANCH  19  20
ATOM     20  C   UNL     1     120.059 109.558 107.512  1.00  0.00    -0.000 C 
BRANCH  20  21
ATOM     21  C   UNL     1     121.359 109.101 106.819  1.00  0.00    -0.000 C 
BRANCH  21  22
ATOM     22  C   UNL     1     122.311 108.271 107.701  1.00  0.00    -0.000 C 
BRANCH  22  23
ATOM     23  C   UNL     1     123.438 109.112 108.323  1.00  0.00    -0.000 C 
BRANCH  23  24
ATOM     24  C   UNL     1     123.070 109.631 109.731  1.00  0.00    -0.000 C 
BRANCH  24  25
ATOM     25  C   UNL     1     124.214 110.390 110.423  1.00  0.00    -0.003 C 
ATOM     26  C   UNL     1     124.436 109.949 111.869  1.00  0.00     0.004 C 
ENDBRANCH  24  25
ENDBRANCH  23  24
ENDBRANCH  22  23
ENDBRANCH  21  22
ENDBRANCH  20  21
ENDBRANCH  19  20
ENDBRANCH  18  19
ENDBRANCH  17  18
ENDBRANCH  16  17
ENDBRANCH  15  16
ENDBRANCH   1  15
TORSDOF 22
ENDMDL
MODEL 3
REMARK VINA RESULT:    -4.051      1.765      4.132
REMARK INTER + INTRA:         -12.617
REMARK INTER:                  -9.954
REMARK INTRA:                  -2.663
REMARK UNBOUND:                -3.355
REMARK SMILES CCCCCCCCCCCCCCCCCCCCCCCC(=O)[O-]
REMARK SMILES IDX 13 1 14 2 15 3 16 4 17 5 18 6 19 7 20 8 21 9 22 10 23 11
REMARK SMILES IDX 24 12 25 13 26 14 12 15 11 16 10 17 9 18 8 19 7 20 6 21 5 22
REMARK SMILES IDX 4 23 3 24 2 25 1 26
REMARK H PARENT
REMARK Flexibility Score: inf
ROOT
ATOM      1  C   UNL     1     120.835 111.517 115.252  1.00  0.00     0.000 C 
ENDROOT
BRANCH   1   2
ATOM      2  C   UNL     1     121.034 112.083 113.836  1.00  0.00     0.000 C 
BRANCH   2   3
ATOM      3  C   UNL     1     121.558 111.026 112.849  1.00  0.00     0.000 C 
BRANCH   3   4
ATOM      4  C   UNL     1     120.492 109.987 112.468  1.00  0.00     0.000 C 
BRANCH   4   5
ATOM      5  C   UNL     1     119.264 110.593 111.754  1.00  0.00     0.000 C 
BRANCH   5   6
ATOM      6  C   UNL     1     119.225 110.229 110.260  1.00  0.00     0.000 C 
BRANCH   6   7
ATOM      7  C   UNL     1     120.395 109.313 109.841  1.00  0.00     0.000 C 
BRANCH   7   8
ATOM      8  C   UNL     1     120.603 109.224 108.316  1.00  0.00     0.000 C 
BRANCH   8   9
ATOM      9  C   UNL     1     120.145 110.459 107.520  1.00  0.00     0.000 C 
BRANCH   9  10
ATOM     10  C   UNL     1     121.235 111.517 107.258  1.00  0.00     0.006 C 
BRANCH  10  11
ATOM     11  C   UNL     1     121.013 112.843 108.009  1.00  0.00     0.053 C 
BRANCH  11  12
ATOM     12  C   UNL     1     121.608 112.833 109.385  1.00  0.00     0.041 C 
ATOM     13  O   UNL     1     122.601 112.104 109.642  1.00  0.00    -0.550 OA
ATOM     14  O   UNL     1     121.042 113.600 110.396  1.00  0.00    -0.550 OA
ENDBRANCH  11  12
ENDBRANCH  10  11
ENDBRANCH   9  10
ENDBRANCH   8   9
ENDBRANCH   7   8
ENDBRANCH   6   7
ENDBRANCH   5   6
ENDBRANCH   4   5
ENDBRANCH   3   4
ENDBRANCH   2   3
ENDBRANCH   1   2
BRANCH   1  15
ATOM     15  C   UNL     1     121.697 112.240 116.304  1.00  0.00     0.000 C 
BRANCH  15  16
ATOM     16  C   UNL     1     120.950 112.484 117.630  1.00  0.00     0.000 C 
BRANCH  16  17
ATOM     17  C   UNL     1     119.459 112.095 117.622  1.00  0.00     0.000 C 
BRANCH  17  18
ATOM     18  C   UNL     1     118.543 113.206 118.163  1.00  0.00    -0.000 C 
BRANCH  18  19
ATOM     19  C   UNL     1     117.533 113.707 117.113  1.00  0.00    -0.000 C 
BRANCH  19  20
ATOM     20  C   UNL     1     118.008 114.907 116.271  1.00  0.00    -0.000 C 
BRANCH  20  21
ATOM     21  C   UNL     1     118.787 114.545 114.989  1.00  0.00    -0.000 C 
BRANCH  21  22
ATOM     22  C   UNL     1     119.057 115.725 114.036  1.00  0.00    -0.000 C 
BRANCH  22  23
ATOM     23  C   UNL     1     120.493 116.264 114.142  1.00  0.00    -0.000 C 
BRANCH  23  24
ATOM     24  C   UNL     1     120.546 117.658 114.805  1.00  0.00    -0.000 C 
BRANCH  24  25
ATOM     25  C   UNL     1     119.184 118.372 114.840  1.00  0.00    -0.003 C 
ATOM     26  C   UNL     1     119.212 119.746 114.173  1.00  0.00     0.004 C 
ENDBRANCH  24  25
ENDBRANCH  23  24
ENDBRANCH  22  23
ENDBRANCH  21  22
ENDBRANCH  20  21
ENDBRANCH  19  20
ENDBRANCH  18  19
ENDBRANCH  17  18
ENDBRANCH  16  17
ENDBRANCH  15  16
ENDBRANCH   1  15
TORSDOF 22
ENDMDL
MODEL 4
REMARK VINA RESULT:    -3.993      1.894      4.796
REMARK INTER + INTRA:         -12.484
REMARK INTER:                 -10.170
REMARK INTRA:                  -2.314
REMARK UNBOUND:                -3.355
REMARK SMILES CCCCCCCCCCCCCCCCCCCCCCCC(=O)[O-]
REMARK SMILES IDX 13 1 14 2 15 3 16 4 17 5 18 6 19 7 20 8 21 9 22 10 23 11
REMARK SMILES IDX 24 12 25 13 26 14 12 15 11 16 10 17 9 18 8 19 7 20 6 21 5 22
REMARK SMILES IDX 4 23 3 24 2 25 1 26
REMARK H PARENT
REMARK Flexibility Score: inf
ROOT
ATOM      1  C   UNL     1     123.083 112.686 117.284  1.00  0.00     0.000 C 
ENDROOT
BRANCH   1   2
ATOM      2  C   UNL     1     123.133 111.622 116.175  1.00  0.00     0.000 C 
BRANCH   2   3
ATOM      3  C   UNL     1     122.959 112.226 114.771  1.00  0.00     0.000 C 
BRANCH   3   4
ATOM      4  C   UNL     1     121.608 112.940 114.594  1.00  0.00     0.000 C 
BRANCH   4   5
ATOM      5  C   UNL     1     120.560 112.100 113.832  1.00  0.00     0.000 C 
BRANCH   5   6
ATOM      6  C   UNL     1     121.004 110.637 113.660  1.00  0.00     0.000 C 
BRANCH   6   7
ATOM      7  C   UNL     1     120.469 110.004 112.358  1.00  0.00     0.000 C 
BRANCH   7   8
ATOM      8  C   UNL     1     119.261 110.747 111.753  1.00  0.00     0.000 C 
BRANCH   8   9
ATOM      9  C   UNL     1     118.922 110.370 110.300  1.00  0.00     0.000 C 
BRANCH   9  10
ATOM     10  C   UNL     1     120.036 109.631 109.533  1.00  0.00     0.006 C 
BRANCH  10  11
ATOM     11  C   UNL     1     120.003 109.857 108.010  1.00  0.00     0.053 C 
BRANCH  11  12
ATOM     12  C   UNL     1     120.878 110.995 107.578  1.00  0.00     0.041 C 
ATOM     13  O   UNL     1     120.370 112.103 107.266  1.00  0.00    -0.550 OA
ATOM     14  O   UNL     1     122.253 110.822 107.483  1.00  0.00    -0.550 OA
ENDBRANCH  11  12
ENDBRANCH  10  11
ENDBRANCH   9  10
ENDBRANCH   8   9
ENDBRANCH   7   8
ENDBRANCH   6   7
ENDBRANCH   5   6
ENDBRANCH   4   5
ENDBRANCH   3   4
ENDBRANCH   2   3
ENDBRANCH   1   2
BRANCH   1  15
ATOM     15  C   UNL     1     121.965 112.422 118.309  1.00  0.00     0.000 C 
BRANCH  15  16
ATOM     16  C   UNL     1     121.097 111.199 117.952  1.00  0.00     0.000 C 
BRANCH  16  17
ATOM     17  C   UNL     1     119.599 111.497 117.748  1.00  0.00     0.000 C 
BRANCH  17  18
ATOM     18  C   UNL     1     119.307 112.990 117.514  1.00  0.00    -0.000 C 
BRANCH  18  19
ATOM     19  C   UNL     1     117.803 113.317 117.569  1.00  0.00    -0.000 C 
BRANCH  19  20
ATOM     20  C   UNL     1     117.347 114.449 116.628  1.00  0.00    -0.000 C 
BRANCH  20  21
ATOM     21  C   UNL     1     118.407 114.933 115.618  1.00  0.00    -0.000 C 
BRANCH  21  22
ATOM     22  C   UNL     1     118.196 116.364 115.087  1.00  0.00    -0.000 C 
BRANCH  22  23
ATOM     23  C   UNL     1     119.516 117.109 114.832  1.00  0.00    -0.000 C 
BRANCH  23  24
ATOM     24  C   UNL     1     119.351 118.641 114.929  1.00  0.00    -0.000 C 
BRANCH  24  25
ATOM     25  C   UNL     1     119.827 119.390 113.674  1.00  0.00    -0.003 C 
ATOM     26  C   UNL     1     119.992 118.478 112.460  1.00  0.00     0.004 C 
ENDBRANCH  24  25
ENDBRANCH  23  24
ENDBRANCH  22  23
ENDBRANCH  21  22
ENDBRANCH  20  21
ENDBRANCH  19  20
ENDBRANCH  18  19
ENDBRANCH  17  18
ENDBRANCH  16  17
ENDBRANCH  15  16
ENDBRANCH   1  15
TORSDOF 22
ENDMDL
MODEL 5
REMARK VINA RESULT:    -3.962      2.051      7.699
REMARK INTER + INTRA:         -12.411
REMARK INTER:                  -9.585
REMARK INTRA:                  -2.826
REMARK UNBOUND:                -3.355
REMARK SMILES CCCCCCCCCCCCCCCCCCCCCCCC(=O)[O-]
REMARK SMILES IDX 13 1 14 2 15 3 16 4 17 5 18 6 19 7 20 8 21 9 22 10 23 11
REMARK SMILES IDX 24 12 25 13 26 14 12 15 11 16 10 17 9 18 8 19 7 20 6 21 5 22
REMARK SMILES IDX 4 23 3 24 2 25 1 26
REMARK H PARENT
REMARK Flexibility Score: inf
ROOT
ATOM      1  C   UNL     1     122.227 111.071 114.386  1.00  0.00     0.000 C 
ENDROOT
BRANCH   1   2
ATOM      2  C   UNL     1     121.224 112.010 115.078  1.00  0.00     0.000 C 
BRANCH   2   3
ATOM      3  C   UNL     1     120.708 111.440 116.410  1.00  0.00     0.000 C 
BRANCH   3   4
ATOM      4  C   UNL     1     120.889 112.417 117.584  1.00  0.00     0.000 C 
BRANCH   4   5
ATOM      5  C   UNL     1     119.679 112.463 118.542  1.00  0.00     0.000 C 
BRANCH   5   6
ATOM      6  C   UNL     1     118.347 112.598 117.785  1.00  0.00     0.000 C 
BRANCH   6   7
ATOM      7  C   UNL     1     117.811 114.046 117.779  1.00  0.00     0.000 C 
BRANCH   7   8
ATOM      8  C   UNL     1     117.549 114.608 116.367  1.00  0.00     0.000 C 
BRANCH   8   9
ATOM      9  C   UNL     1     118.776 114.643 115.439  1.00  0.00     0.000 C 
BRANCH   9  10
ATOM     10  C   UNL     1     118.858 115.864 114.501  1.00  0.00     0.006 C 
BRANCH  10  11
ATOM     11  C   UNL     1     119.383 115.535 113.090  1.00  0.00     0.053 C 
BRANCH  11  12
ATOM     12  C   UNL     1     120.661 116.249 112.771  1.00  0.00     0.041 C 
ATOM     13  O   UNL     1     121.464 115.768 111.930  1.00  0.00    -0.550 OA
ATOM     14  O   UNL     1     120.985 117.429 113.430  1.00  0.00    -0.550 OA
ENDBRANCH  11  12
ENDBRANCH  10  11
ENDBRANCH   9  10
ENDBRANCH   8   9
ENDBRANCH   7   8
ENDBRANCH   6   7
ENDBRANCH   5   6
ENDBRANCH   4   5
ENDBRANCH   3   4
ENDBRANCH   2   3
ENDBRANCH   1   2
BRANCH   1  15
ATOM     15  C   UNL     1     121.920 110.877 112.889  1.00  0.00     0.000 C 
BRANCH  15  16
ATOM     16  C   UNL     1     121.526 112.186 112.180  1.00  0.00     0.000 C 
BRANCH  16  17
ATOM     17  C   UNL     1     120.114 112.196 111.561  1.00  0.00     0.000 C 
BRANCH  17  18
ATOM     18  C   UNL     1     119.380 110.853 111.714  1.00  0.00    -0.000 C 
BRANCH  18  19
ATOM     19  C   UNL     1     119.024 110.214 110.358  1.00  0.00    -0.000 C 
BRANCH  19  20
ATOM     20  C   UNL     1     120.212 109.598 109.594  1.00  0.00    -0.000 C 
BRANCH  20  21
ATOM     21  C   UNL     1     120.093 109.626 108.057  1.00  0.00    -0.000 C 
BRANCH  21  22
ATOM     22  C   UNL     1     121.182 110.441 107.333  1.00  0.00    -0.000 C 
BRANCH  22  23
ATOM     23  C   UNL     1     121.825 111.512 108.230  1.00  0.00    -0.000 C 
BRANCH  23  24
ATOM     24  C   UNL     1     121.306 112.931 107.908  1.00  0.00    -0.000 C 
BRANCH  24  25
ATOM     25  C   UNL     1     120.870 113.106 106.444  1.00  0.00    -0.003 C 
ATOM     26  C   UNL     1     121.762 114.073 105.667  1.00  0.00     0.004 C 
ENDBRANCH  24  25
ENDBRANCH  23  24
ENDBRANCH  22  23
ENDBRANCH  21  22
ENDBRANCH  20  21
ENDBRANCH  19  20
ENDBRANCH  18  19
ENDBRANCH  17  18
ENDBRANCH  16  17
ENDBRANCH  15  16
ENDBRANCH   1  15
TORSDOF 22
ENDMDL
MODEL 6
REMARK VINA RESULT:    -3.956      3.692      8.404
REMARK INTER + INTRA:         -12.399
REMARK INTER:                  -8.621
REMARK INTRA:                  -3.777
REMARK UNBOUND:                -3.355
REMARK SMILES CCCCCCCCCCCCCCCCCCCCCCCC(=O)[O-]
REMARK SMILES IDX 13 1 14 2 15 3 16 4 17 5 18 6 19 7 20 8 21 9 22 10 23 11
REMARK SMILES IDX 24 12 25 13 26 14 12 15 11 16 10 17 9 18 8 19 7 20 6 21 5 22
REMARK SMILES IDX 4 23 3 24 2 25 1 26
REMARK H PARENT
REMARK Flexibility Score: inf
ROOT
ATOM      1  C   UNL     1     123.181 109.527 108.876  1.00  0.00     0.000 C 
ENDROOT
BRANCH   1   2
ATOM      2  C   UNL     1     121.689 109.280 108.601  1.00  0.00     0.000 C 
BRANCH   2   3
ATOM      3  C   UNL     1     120.875 109.090 109.893  1.00  0.00     0.000 C 
BRANCH   3   4
ATOM      4  C   UNL     1     119.576 109.912 109.903  1.00  0.00     0.000 C 
BRANCH   4   5
ATOM      5  C   UNL     1     119.109 110.313 111.320  1.00  0.00     0.000 C 
BRANCH   5   6
ATOM      6  C   UNL     1     120.205 110.087 112.376  1.00  0.00     0.000 C 
BRANCH   6   7
ATOM      7  C   UNL     1     120.854 111.405 112.850  1.00  0.00     0.000 C 
BRANCH   7   8
ATOM      8  C   UNL     1     120.205 112.669 112.253  1.00  0.00     0.000 C 
BRANCH   8   9
ATOM      9  C   UNL     1     120.007 113.832 113.241  1.00  0.00     0.000 C 
BRANCH   9  10
ATOM     10  C   UNL     1     119.651 113.418 114.683  1.00  0.00     0.006 C 
BRANCH  10  11
ATOM     11  C   UNL     1     118.806 114.459 115.442  1.00  0.00     0.053 C 
BRANCH  11  12
ATOM     12  C   UNL     1     118.372 113.974 116.792  1.00  0.00     0.041 C 
ATOM     13  O   UNL     1     117.287 114.372 117.291  1.00  0.00    -0.550 OA
ATOM     14  O   UNL     1     119.182 113.110 117.517  1.00  0.00    -0.550 OA
ENDBRANCH  11  12
ENDBRANCH  10  11
ENDBRANCH   9  10
ENDBRANCH   8   9
ENDBRANCH   7   8
ENDBRANCH   6   7
ENDBRANCH   5   6
ENDBRANCH   4   5
ENDBRANCH   3   4
ENDBRANCH   2   3
ENDBRANCH   1   2
BRANCH   1  15
ATOM     15  C   UNL     1     123.452 109.955 110.330  1.00  0.00     0.000 C 
BRANCH  15  16
ATOM     16  C   UNL     1     124.336 111.213 110.433  1.00  0.00     0.000 C 
BRANCH  16  17
ATOM     17  C   UNL     1     123.571 112.535 110.638  1.00  0.00     0.000 C 
BRANCH  17  18
ATOM     18  C   UNL     1     123.765 113.529 109.480  1.00  0.00    -0.000 C 
BRANCH  18  19
ATOM     19  C   UNL     1     122.429 114.015 108.885  1.00  0.00    -0.000 C 
BRANCH  19  20
ATOM     20  C   UNL     1     121.293 112.974 108.893  1.00  0.00    -0.000 C 
BRANCH  20  21
ATOM     21  C   UNL     1     120.769 112.560 107.503  1.00  0.00    -0.000 C 
BRANCH  21  22
ATOM     22  C   UNL     1     121.844 112.457 106.404  1.00  0.00    -0.000 C 
BRANCH  22  23
ATOM     23  C   UNL     1     121.721 113.560 105.340  1.00  0.00    -0.000 C 
BRANCH  23  24
ATOM     24  C   UNL     1     120.468 114.437 105.551  1.00  0.00    -0.000 C 
BRANCH  24  25
ATOM     25  C   UNL     1     120.748 115.945 105.438  1.00  0.00    -0.003 C 
ATOM     26  C   UNL     1     122.123 116.339 105.977  1.00  0.00     0.004 C 
ENDBRANCH  24  25
ENDBRANCH  23  24
ENDBRANCH  22  23
ENDBRANCH  21  22
ENDBRANCH  20  21
ENDBRANCH  19  20
ENDBRANCH  18  19
ENDBRANCH  17  18
ENDBRANCH  16  17
ENDBRANCH  15  16
ENDBRANCH   1  15
TORSDOF 22
ENDMDL
MODEL 7
REMARK VINA RESULT:    -3.933      1.884      4.059
REMARK INTER + INTRA:         -12.345
REMARK INTER:                  -9.617
REMARK INTRA:                  -2.728
REMARK UNBOUND:                -3.355
REMARK SMILES CCCCCCCCCCCCCCCCCCCCCCCC(=O)[O-]
REMARK SMILES IDX 13 1 14 2 15 3 16 4 17 5 18 6 19 7 20 8 21 9 22 10 23 11
REMARK SMILES IDX 24 12 25 13 26 14 12 15 11 16 10 17 9 18 8 19 7 20 6 21 5 22
REMARK SMILES IDX 4 23 3 24 2 25 1 26
REMARK H PARENT
REMARK Flexibility Score: inf
ROOT
ATOM      1  C   UNL     1     118.596 115.974 114.904  1.00  0.00     0.000 C 
ENDROOT
BRANCH   1   2
ATOM      2  C   UNL     1     119.890 116.194 114.103  1.00  0.00     0.000 C 
BRANCH   2   3
ATOM      3  C   UNL     1     120.827 114.975 114.153  1.00  0.00     0.000 C 
BRANCH   3   4
ATOM      4  C   UNL     1     121.005 114.304 112.782  1.00  0.00     0.000 C 
BRANCH   4   5
ATOM      5  C   UNL     1     120.044 113.119 112.543  1.00  0.00     0.000 C 
BRANCH   5   6
ATOM      6  C   UNL     1     120.523 111.836 113.243  1.00  0.00     0.000 C 
BRANCH   6   7
ATOM      7  C   UNL     1     120.525 110.612 112.302  1.00  0.00     0.000 C 
BRANCH   7   8
ATOM      8  C   UNL     1     119.162 110.333 111.639  1.00  0.00     0.000 C 
BRANCH   8   9
ATOM      9  C   UNL     1     119.221 109.985 110.142  1.00  0.00     0.000 C 
BRANCH   9  10
ATOM     10  C   UNL     1     119.748 111.107 109.225  1.00  0.00     0.006 C 
BRANCH  10  11
ATOM     11  C   UNL     1     121.125 110.811 108.601  1.00  0.00     0.053 C 
BRANCH  11  12
ATOM     12  C   UNL     1     121.021 110.061 107.308  1.00  0.00     0.041 C 
ATOM     13  O   UNL     1     119.940 109.506 106.980  1.00  0.00    -0.550 OA
ATOM     14  O   UNL     1     122.130 109.941 106.479  1.00  0.00    -0.550 OA
ENDBRANCH  11  12
ENDBRANCH  10  11
ENDBRANCH   9  10
ENDBRANCH   8   9
ENDBRANCH   7   8
ENDBRANCH   6   7
ENDBRANCH   5   6
ENDBRANCH   4   5
ENDBRANCH   3   4
ENDBRANCH   2   3
ENDBRANCH   1   2
BRANCH   1  15
ATOM     15  C   UNL     1     118.509 114.562 115.512  1.00  0.00     0.000 C 
BRANCH  15  16
ATOM     16  C   UNL     1     117.604 114.498 116.758  1.00  0.00     0.000 C 
BRANCH  16  17
ATOM     17  C   UNL     1     117.703 113.193 117.571  1.00  0.00     0.000 C 
BRANCH  17  18
ATOM     18  C   UNL     1     119.121 112.919 118.102  1.00  0.00    -0.000 C 
BRANCH  18  19
ATOM     19  C   UNL     1     119.626 111.508 117.745  1.00  0.00    -0.000 C 
BRANCH  19  20
ATOM     20  C   UNL     1     120.668 111.457 116.610  1.00  0.00    -0.000 C 
BRANCH  20  21
ATOM     21  C   UNL     1     121.808 112.491 116.714  1.00  0.00    -0.000 C 
BRANCH  21  22
ATOM     22  C   UNL     1     123.040 112.195 115.837  1.00  0.00    -0.000 C 
BRANCH  22  23
ATOM     23  C   UNL     1     124.057 111.271 116.527  1.00  0.00    -0.000 C 
BRANCH  23  24
ATOM     24  C   UNL     1     123.953 111.335 118.067  1.00  0.00    -0.000 C 
BRANCH  24  25
ATOM     25  C   UNL     1     123.853 109.953 118.732  1.00  0.00    -0.003 C 
ATOM     26  C   UNL     1     122.498 109.704 119.393  1.00  0.00     0.004 C 
ENDBRANCH  24  25
ENDBRANCH  23  24
ENDBRANCH  22  23
ENDBRANCH  21  22
ENDBRANCH  20  21
ENDBRANCH  19  20
ENDBRANCH  18  19
ENDBRANCH  17  18
ENDBRANCH  16  17
ENDBRANCH  15  16
ENDBRANCH   1  15
TORSDOF 22
ENDMDL
MODEL 8
REMARK VINA RESULT:    -3.883      1.964      3.171
REMARK INTER + INTRA:         -12.232
REMARK INTER:                  -8.242
REMARK INTRA:                  -3.990
REMARK UNBOUND:                -3.355
REMARK SMILES CCCCCCCCCCCCCCCCCCCCCCCC(=O)[O-]
REMARK SMILES IDX 13 1 14 2 15 3 16 4 17 5 18 6 19 7 20 8 21 9 22 10 23 11
REMARK SMILES IDX 24 12 25 13 26 14 12 15 11 16 10 17 9 18 8 19 7 20 6 21 5 22
REMARK SMILES IDX 4 23 3 24 2 25 1 26
REMARK H PARENT
REMARK Flexibility Score: inf
ROOT
ATOM      1  C   UNL     1     123.247 111.841 113.747  1.00  0.00     0.000 C 
ENDROOT
BRANCH   1   2
ATOM      2  C   UNL     1     123.930 111.657 112.382  1.00  0.00     0.000 C 
BRANCH   2   3
ATOM      3  C   UNL     1     123.040 112.112 111.213  1.00  0.00     0.000 C 
BRANCH   3   4
ATOM      4  C   UNL     1     122.485 113.533 111.406  1.00  0.00     0.000 C 
BRANCH   4   5
ATOM      5  C   UNL     1     120.968 113.647 111.138  1.00  0.00     0.000 C 
BRANCH   5   6
ATOM      6  C   UNL     1     120.413 112.405 110.420  1.00  0.00     0.000 C 
BRANCH   6   7
ATOM      7  C   UNL     1     119.592 111.495 111.358  1.00  0.00     0.000 C 
BRANCH   7   8
ATOM      8  C   UNL     1     119.781 109.989 111.088  1.00  0.00     0.000 C 
BRANCH   8   9
ATOM      9  C   UNL     1     120.129 109.622 109.635  1.00  0.00     0.000 C 
BRANCH   9  10
ATOM     10  C   UNL     1     121.463 108.872 109.445  1.00  0.00     0.006 C 
BRANCH  10  11
ATOM     11  C   UNL     1     122.478 109.615 108.556  1.00  0.00     0.053 C 
BRANCH  11  12
ATOM     12  C   UNL     1     121.964 109.846 107.167  1.00  0.00     0.041 C 
ATOM     13  O   UNL     1     121.529 108.884 106.483  1.00  0.00    -0.550 OA
ATOM     14  O   UNL     1     122.001 111.119 106.611  1.00  0.00    -0.550 OA
ENDBRANCH  11  12
ENDBRANCH  10  11
ENDBRANCH   9  10
ENDBRANCH   8   9
ENDBRANCH   7   8
ENDBRANCH   6   7
ENDBRANCH   5   6
ENDBRANCH   4   5
ENDBRANCH   3   4
ENDBRANCH   2   3
ENDBRANCH   1   2
BRANCH   1  15
ATOM     15  C   UNL     1     122.054 110.887 113.946  1.00  0.00     0.000 C 
BRANCH  15  16
ATOM     16  C   UNL     1     120.915 111.512 114.775  1.00  0.00     0.000 C 
BRANCH  16  17
ATOM     17  C   UNL     1     120.941 113.050 114.868  1.00  0.00     0.000 C 
BRANCH  17  18
ATOM     18  C   UNL     1     119.609 113.701 114.456  1.00  0.00    -0.000 C 
BRANCH  18  19
ATOM     19  C   UNL     1     119.087 114.700 115.505  1.00  0.00    -0.000 C 
BRANCH  19  20
ATOM     20  C   UNL     1     117.854 114.227 116.300  1.00  0.00    -0.000 C 
BRANCH  20  21
ATOM     21  C   UNL     1     118.137 113.779 117.749  1.00  0.00    -0.000 C 
BRANCH  21  22
ATOM     22  C   UNL     1     118.660 112.337 117.895  1.00  0.00    -0.000 C 
BRANCH  22  23
ATOM     23  C   UNL     1     120.082 112.271 118.475  1.00  0.00    -0.000 C 
BRANCH  23  24
ATOM     24  C   UNL     1     120.786 110.936 118.146  1.00  0.00    -0.000 C 
BRANCH  24  25
ATOM     25  C   UNL     1     122.313 110.991 118.311  1.00  0.00    -0.003 C 
ATOM     26  C   UNL     1     122.913 112.331 117.886  1.00  0.00     0.004 C 
ENDBRANCH  24  25
ENDBRANCH  23  24
ENDBRANCH  22  23
ENDBRANCH  21  22
ENDBRANCH  20  21
ENDBRANCH  19  20
ENDBRANCH  18  19
ENDBRANCH  17  18
ENDBRANCH  16  17
ENDBRANCH  15  16
ENDBRANCH   1  15
TORSDOF 22
ENDMDL
MODEL 9
REMARK VINA RESULT:    -3.852      3.967      8.564
REMARK INTER + INTRA:         -12.162
REMARK INTER:                  -7.589
REMARK INTRA:                  -4.573
REMARK UNBOUND:                -3.355
REMARK SMILES CCCCCCCCCCCCCCCCCCCCCCCC(=O)[O-]
REMARK SMILES IDX 13 1 14 2 15 3 16 4 17 5 18 6 19 7 20 8 21 9 22 10 23 11
REMARK SMILES IDX 24 12 25 13 26 14 12 15 11 16 10 17 9 18 8 19 7 20 6 21 5 22
REMARK SMILES IDX 4 23 3 24 2 25 1 26
REMARK H PARENT
REMARK Flexibility Score: inf
ROOT
ATOM      1  C   UNL     1     120.089 111.794 110.917  1.00  0.00     0.000 C 
ENDROOT
BRANCH   1   2
ATOM      2  C   UNL     1     119.604 110.748 111.934  1.00  0.00     0.000 C 
BRANCH   2   3
ATOM      3  C   UNL     1     120.767 110.036 112.645  1.00  0.00     0.000 C 
BRANCH   3   4
ATOM      4  C   UNL     1     122.135 110.367 112.027  1.00  0.00     0.000 C 
BRANCH   4   5
ATOM      5  C   UNL     1     123.213 110.735 113.070  1.00  0.00     0.000 C 
BRANCH   5   6
ATOM      6  C   UNL     1     123.947 112.038 112.708  1.00  0.00     0.000 C 
BRANCH   6   7
ATOM      7  C   UNL     1     122.987 113.237 112.554  1.00  0.00     0.000 C 
BRANCH   7   8
ATOM      8  C   UNL     1     122.445 113.777 113.892  1.00  0.00     0.000 C 
BRANCH   8   9
ATOM      9  C   UNL     1     120.986 113.401 114.206  1.00  0.00     0.000 C 
BRANCH   9  10
ATOM     10  C   UNL     1     120.698 113.048 115.679  1.00  0.00     0.006 C 
BRANCH  10  11
ATOM     11  C   UNL     1     120.764 111.540 115.986  1.00  0.00     0.053 C 
BRANCH  11  12
ATOM     12  C   UNL     1     120.371 111.222 117.397  1.00  0.00     0.041 C 
ATOM     13  O   UNL     1     119.175 111.350 117.767  1.00  0.00    -0.550 OA
ATOM     14  O   UNL     1     121.332 110.819 118.315  1.00  0.00    -0.550 OA
ENDBRANCH  11  12
ENDBRANCH  10  11
ENDBRANCH   9  10
ENDBRANCH   8   9
ENDBRANCH   7   8
ENDBRANCH   6   7
ENDBRANCH   5   6
ENDBRANCH   4   5
ENDBRANCH   3   4
ENDBRANCH   2   3
ENDBRANCH   1   2
BRANCH   1  15
ATOM     15  C   UNL     1     119.622 111.485 109.482  1.00  0.00     0.000 C 
BRANCH  15  16
ATOM     16  C   UNL     1     119.734 109.991 109.122  1.00  0.00     0.000 C 
BRANCH  16  17
ATOM     17  C   UNL     1     120.001 109.695 107.633  1.00  0.00     0.000 C 
BRANCH  17  18
ATOM     18  C   UNL     1     121.315 108.932 107.396  1.00  0.00    -0.000 C 
BRANCH  18  19
ATOM     19  C   UNL     1     121.947 108.417 108.703  1.00  0.00    -0.000 C 
BRANCH  19  20
ATOM     20  C   UNL     1     123.356 108.962 109.006  1.00  0.00    -0.000 C 
BRANCH  20  21
ATOM     21  C   UNL     1     123.771 110.205 108.191  1.00  0.00    -0.000 C 
BRANCH  21  22
ATOM     22  C   UNL     1     124.046 111.470 109.026  1.00  0.00    -0.000 C 
BRANCH  22  23
ATOM     23  C   UNL     1     123.027 112.591 108.767  1.00  0.00    -0.000 C 
BRANCH  23  24
ATOM     24  C   UNL     1     122.406 112.502 107.356  1.00  0.00    -0.000 C 
BRANCH  24  25
ATOM     25  C   UNL     1     121.442 113.656 107.036  1.00  0.00    -0.003 C 
ATOM     26  C   UNL     1     121.085 113.742 105.553  1.00  0.00     0.004 C 
ENDBRANCH  24  25
ENDBRANCH  23  24
ENDBRANCH  22  23
ENDBRANCH  21  22
ENDBRANCH  20  21
ENDBRANCH  19  20
ENDBRANCH  18  19
ENDBRANCH  17  18
ENDBRANCH  16  17
ENDBRANCH  15  16
ENDBRANCH   1  15
TORSDOF 22
ENDMDL
