MODEL 1
REMARK VINA RESULT:    -7.288      0.000      0.000
REMARK INTER + INTRA:          -8.753
REMARK INTER:                  -8.779
REMARK INTRA:                   0.025
REMARK UNBOUND:                 0.025
REMARK SMILES O=c1c(O)c(-c2ccc(O)c(O)c2)oc2cc(O)cc(O)c12
REMARK SMILES IDX 5 1 3 2 2 3 1 4 22 5 20 6 19 7 17 8 16 9 15 10 14 11 6 12
REMARK SMILES IDX 7 13 8 14 9 15 13 16 11 17 10 18 12 20 4 22 21 24 18 26
REMARK H PARENT 10 19 12 21 4 23 21 25 18 27
REMARK Flexibility Score: inf
ROOT
ATOM      1  C   UNL     1      83.583  93.949  84.759  1.00  0.00     0.180 A 
ATOM      2  C   UNL     1      82.642  93.040  85.274  1.00  0.00     0.208 A 
ATOM      3  C   UNL     1      82.225  91.966  84.472  1.00  0.00     0.238 A 
ATOM      4  O   UNL     1      81.342  91.186  84.918  1.00  0.00    -0.285 OA
ATOM      5  C   UNL     1      82.764  91.804  83.173  1.00  0.00     0.111 A 
ATOM      6  C   UNL     1      82.443  90.730  82.290  1.00  0.00     0.134 A 
ATOM      7  C   UNL     1      82.936  90.742  80.979  1.00  0.00     0.093 A 
ATOM      8  C   UNL     1      83.790  91.754  80.541  1.00  0.00     0.123 A 
ATOM      9  C   UNL     1      84.159  92.777  81.415  1.00  0.00     0.094 A 
ATOM     10  C   UNL     1      83.654  92.812  82.717  1.00  0.00     0.146 A 
ATOM     11  O   UNL     1      84.020  93.808  83.513  1.00  0.00    -0.452 OA
ENDROOT
BRANCH   1  12
ATOM     12  C   UNL     1      84.089  95.092  85.553  1.00  0.00     0.025 A 
ATOM     13  C   UNL     1      85.467  95.351  85.667  1.00  0.00     0.016 A 
ATOM     14  C   UNL     1      85.921  96.449  86.400  1.00  0.00     0.051 A 
ATOM     15  C   UNL     1      85.008  97.313  87.019  1.00  0.00     0.157 A 
ATOM     16  C   UNL     1      83.177  95.974  86.157  1.00  0.00     0.062 A 
ATOM     17  C   UNL     1      83.634  97.077  86.893  1.00  0.00     0.158 A 
BRANCH  15  18
ATOM     18  O   UNL     1      85.458  98.409  87.752  1.00  0.00    -0.504 OA
ATOM     19  H   UNL     1      85.724  98.321  88.726  1.00  0.00     0.293 HD
ENDBRANCH  15  18
BRANCH  17  20
ATOM     20  O   UNL     1      82.726  97.941  87.503  1.00  0.00    -0.504 OA
ATOM     21  H   UNL     1      83.000  98.545  88.270  1.00  0.00     0.293 HD
ENDBRANCH  17  20
ENDBRANCH   1  12
BRANCH   2  22
ATOM     22  O   UNL     1      82.106  93.231  86.551  1.00  0.00    -0.502 OA
ATOM     23  H   UNL     1      82.685  93.300  87.379  1.00  0.00     0.293 HD
ENDBRANCH   2  22
BRANCH   6  24
ATOM     24  O   UNL     1      81.672  89.622  82.655  1.00  0.00    -0.507 OA
ATOM     25  H   UNL     1      81.526  88.808  82.076  1.00  0.00     0.293 HD
ENDBRANCH   6  24
BRANCH   8  26
ATOM     26  O   UNL     1      84.275  91.725  79.235  1.00  0.00    -0.508 OA
ATOM     27  H   UNL     1      84.066  90.956  78.609  1.00  0.00     0.293 HD
ENDBRANCH   8  26
TORSDOF 6
ENDMDL
MODEL 2
REMARK VINA RESULT:    -7.206     15.062     16.410
REMARK INTER + INTRA:          -8.655
REMARK INTER:                  -8.697
REMARK INTRA:                   0.042
REMARK UNBOUND:                 0.025
REMARK SMILES O=c1c(O)c(-c2ccc(O)c(O)c2)oc2cc(O)cc(O)c12
REMARK SMILES IDX 5 1 3 2 2 3 1 4 22 5 20 6 19 7 17 8 16 9 15 10 14 11 6 12
REMARK SMILES IDX 7 13 8 14 9 15 13 16 11 17 10 18 12 20 4 22 21 24 18 26
REMARK H PARENT 10 19 12 21 4 23 21 25 18 27
REMARK Flexibility Score: inf
ROOT
ATOM      1  C   UNL     1      97.276  86.767  84.840  1.00  0.00     0.180 A 
ATOM      2  C   UNL     1      98.172  87.713  85.367  1.00  0.00     0.208 A 
ATOM      3  C   UNL     1      98.563  88.799  84.568  1.00  0.00     0.238 A 
ATOM      4  O   UNL     1      99.407  89.613  85.026  1.00  0.00    -0.285 OA
ATOM      5  C   UNL     1      98.041  88.936  83.260  1.00  0.00     0.111 A 
ATOM      6  C   UNL     1      98.336  90.017  82.377  1.00  0.00     0.134 A 
ATOM      7  C   UNL     1      97.867  89.982  81.058  1.00  0.00     0.093 A 
ATOM      8  C   UNL     1      97.060  88.937  80.610  1.00  0.00     0.123 A 
ATOM      9  C   UNL     1      96.715  87.904  81.481  1.00  0.00     0.094 A 
ATOM     10  C   UNL     1      97.198  87.893  82.793  1.00  0.00     0.146 A 
ATOM     11  O   UNL     1      96.856  86.886  83.586  1.00  0.00    -0.452 OA
ENDROOT
BRANCH   1  12
ATOM     12  C   UNL     1      96.799  85.608  85.630  1.00  0.00     0.025 A 
ATOM     13  C   UNL     1      95.433  85.284  85.701  1.00  0.00     0.016 A 
ATOM     14  C   UNL     1      95.009  84.172  86.432  1.00  0.00     0.051 A 
ATOM     15  C   UNL     1      95.941  83.360  87.090  1.00  0.00     0.157 A 
ATOM     16  C   UNL     1      97.732  84.779  86.274  1.00  0.00     0.062 A 
ATOM     17  C   UNL     1      97.306  83.662  87.008  1.00  0.00     0.158 A 
BRANCH  15  18
ATOM     18  O   UNL     1      95.521  82.251  87.822  1.00  0.00    -0.504 OA
ATOM     19  H   UNL     1      94.681  81.740  87.575  1.00  0.00     0.293 HD
ENDBRANCH  15  18
BRANCH  17  20
ATOM     20  O   UNL     1      98.233  82.850  87.657  1.00  0.00    -0.504 OA
ATOM     21  H   UNL     1      97.967  82.255  88.434  1.00  0.00     0.293 HD
ENDBRANCH  17  20
ENDBRANCH   1  12
BRANCH   2  22
ATOM     22  O   UNL     1      98.692  87.548  86.654  1.00  0.00    -0.502 OA
ATOM     23  H   UNL     1      98.533  86.711  87.202  1.00  0.00     0.293 HD
ENDBRANCH   2  22
BRANCH   6  24
ATOM     24  O   UNL     1      99.058  91.155  82.751  1.00  0.00    -0.507 OA
ATOM     25  H   UNL     1      99.573  91.250  83.614  1.00  0.00     0.293 HD
ENDBRANCH   6  24
BRANCH   8  26
ATOM     26  O   UNL     1      96.597  88.942  79.295  1.00  0.00    -0.508 OA
ATOM     27  H   UNL     1      95.974  88.221  78.950  1.00  0.00     0.293 HD
ENDBRANCH   8  26
TORSDOF 6
ENDMDL
MODEL 3
REMARK VINA RESULT:    -7.196     14.893     16.155
REMARK INTER + INTRA:          -8.643
REMARK INTER:                  -8.320
REMARK INTRA:                  -0.324
REMARK UNBOUND:                 0.025
REMARK SMILES O=c1c(O)c(-c2ccc(O)c(O)c2)oc2cc(O)cc(O)c12
REMARK SMILES IDX 5 1 3 2 2 3 1 4 22 5 20 6 19 7 17 8 16 9 15 10 14 11 6 12
REMARK SMILES IDX 7 13 8 14 9 15 13 16 11 17 10 18 12 20 4 22 21 24 18 26
REMARK H PARENT 10 19 12 21 4 23 21 25 18 27
REMARK Flexibility Score: inf
ROOT
ATOM      1  C   UNL     1      96.508  86.096  84.866  1.00  0.00     0.180 A 
ATOM      2  C   UNL     1      97.428  86.274  85.912  1.00  0.00     0.208 A 
ATOM      3  C   UNL     1      97.426  85.366  86.984  1.00  0.00     0.238 A 
ATOM      4  O   UNL     1      98.216  85.563  87.944  1.00  0.00    -0.285 OA
ATOM      5  C   UNL     1      96.514  84.283  86.987  1.00  0.00     0.111 A 
ATOM      6  C   UNL     1      96.450  83.280  88.000  1.00  0.00     0.134 A 
ATOM      7  C   UNL     1      95.423  82.330  87.968  1.00  0.00     0.093 A 
ATOM      8  C   UNL     1      94.497  82.306  86.926  1.00  0.00     0.123 A 
ATOM      9  C   UNL     1      94.586  83.244  85.897  1.00  0.00     0.094 A 
ATOM     10  C   UNL     1      95.579  84.228  85.921  1.00  0.00     0.146 A 
ATOM     11  O   UNL     1      95.621  85.109  84.930  1.00  0.00    -0.452 OA
ENDROOT
BRANCH   1  12
ATOM     12  C   UNL     1      96.466  86.997  83.691  1.00  0.00     0.025 A 
ATOM     13  C   UNL     1      95.665  88.153  83.683  1.00  0.00     0.016 A 
ATOM     14  C   UNL     1      95.661  89.001  82.574  1.00  0.00     0.051 A 
ATOM     15  C   UNL     1      96.464  88.717  81.462  1.00  0.00     0.157 A 
ATOM     16  C   UNL     1      97.286  86.727  82.583  1.00  0.00     0.062 A 
ATOM     17  C   UNL     1      97.281  87.579  81.468  1.00  0.00     0.158 A 
BRANCH  15  18
ATOM     18  O   UNL     1      96.461  89.560  80.353  1.00  0.00    -0.504 OA
ATOM     19  H   UNL     1      95.973  89.312  79.500  1.00  0.00     0.293 HD
ENDBRANCH  15  18
BRANCH  17  20
ATOM     20  O   UNL     1      98.085  87.300  80.365  1.00  0.00    -0.504 OA
ATOM     21  H   UNL     1      99.093  87.234  80.446  1.00  0.00     0.293 HD
ENDBRANCH  17  20
ENDBRANCH   1  12
BRANCH   2  22
ATOM     22  O   UNL     1      98.305  87.363  85.900  1.00  0.00    -0.502 OA
ATOM     23  H   UNL     1      99.307  87.254  85.796  1.00  0.00     0.293 HD
ENDBRANCH   2  22
BRANCH   6  24
ATOM     24  O   UNL     1      97.380  83.158  89.037  1.00  0.00    -0.507 OA
ATOM     25  H   UNL     1      98.381  83.119  88.910  1.00  0.00     0.293 HD
ENDBRANCH   6  24
BRANCH   8  26
ATOM     26  O   UNL     1      93.497  81.335  86.917  1.00  0.00    -0.508 OA
ATOM     27  H   UNL     1      93.694  80.374  86.663  1.00  0.00     0.293 HD
ENDBRANCH   8  26
TORSDOF 6
ENDMDL
MODEL 4
REMARK VINA RESULT:    -6.980     15.124     16.061
REMARK INTER + INTRA:          -8.382
REMARK INTER:                  -8.453
REMARK INTRA:                   0.070
REMARK UNBOUND:                 0.025
REMARK SMILES O=c1c(O)c(-c2ccc(O)c(O)c2)oc2cc(O)cc(O)c12
REMARK SMILES IDX 5 1 3 2 2 3 1 4 22 5 20 6 19 7 17 8 16 9 15 10 14 11 6 12
REMARK SMILES IDX 7 13 8 14 9 15 13 16 11 17 10 18 12 20 4 22 21 24 18 26
REMARK H PARENT 10 19 12 21 4 23 21 25 18 27
REMARK Flexibility Score: inf
ROOT
ATOM      1  C   UNL     1      96.334  85.255  86.077  1.00  0.00     0.180 A 
ATOM      2  C   UNL     1      97.116  84.775  87.141  1.00  0.00     0.208 A 
ATOM      3  C   UNL     1      96.694  83.629  87.834  1.00  0.00     0.238 A 
ATOM      4  O   UNL     1      97.370  83.235  88.820  1.00  0.00    -0.285 OA
ATOM      5  C   UNL     1      95.503  82.969  87.445  1.00  0.00     0.111 A 
ATOM      6  C   UNL     1      95.001  81.778  88.049  1.00  0.00     0.134 A 
ATOM      7  C   UNL     1      93.746  81.286  87.670  1.00  0.00     0.093 A 
ATOM      8  C   UNL     1      93.006  81.904  86.664  1.00  0.00     0.123 A 
ATOM      9  C   UNL     1      93.513  83.034  86.023  1.00  0.00     0.094 A 
ATOM     10  C   UNL     1      94.746  83.570  86.405  1.00  0.00     0.146 A 
ATOM     11  O   UNL     1      95.188  84.653  85.779  1.00  0.00    -0.452 OA
ENDROOT
BRANCH   1  12
ATOM     12  C   UNL     1      96.726  86.442  85.284  1.00  0.00     0.025 A 
ATOM     13  C   UNL     1      97.176  87.622  85.904  1.00  0.00     0.016 A 
ATOM     14  C   UNL     1      97.564  88.721  85.135  1.00  0.00     0.051 A 
ATOM     15  C   UNL     1      97.523  88.655  83.736  1.00  0.00     0.157 A 
ATOM     16  C   UNL     1      96.707  86.374  83.881  1.00  0.00     0.062 A 
ATOM     17  C   UNL     1      97.097  87.478  83.108  1.00  0.00     0.158 A 
BRANCH  15  18
ATOM     18  O   UNL     1      97.908  89.750  82.966  1.00  0.00    -0.504 OA
ATOM     19  H   UNL     1      97.651  89.826  81.988  1.00  0.00     0.293 HD
ENDBRANCH  15  18
BRANCH  17  20
ATOM     20  O   UNL     1      97.063  87.411  81.717  1.00  0.00    -0.504 OA
ATOM     21  H   UNL     1      97.577  86.702  81.206  1.00  0.00     0.293 HD
ENDBRANCH  17  20
ENDBRANCH   1  12
BRANCH   2  22
ATOM     22  O   UNL     1      98.277  85.454  87.523  1.00  0.00    -0.502 OA
ATOM     23  H   UNL     1      98.295  86.454  87.682  1.00  0.00     0.293 HD
ENDBRANCH   2  22
BRANCH   6  24
ATOM     24  O   UNL     1      95.702  81.030  89.001  1.00  0.00    -0.507 OA
ATOM     25  H   UNL     1      95.684  81.205  89.995  1.00  0.00     0.293 HD
ENDBRANCH   6  24
BRANCH   8  26
ATOM     26  O   UNL     1      91.767  81.377  86.300  1.00  0.00    -0.508 OA
ATOM     27  H   UNL     1      91.026  81.249  86.980  1.00  0.00     0.293 HD
ENDBRANCH   8  26
TORSDOF 6
ENDMDL
MODEL 5
REMARK VINA RESULT:    -6.951      1.887      7.365
REMARK INTER + INTRA:          -8.348
REMARK INTER:                  -8.723
REMARK INTRA:                   0.375
REMARK UNBOUND:                 0.025
REMARK SMILES O=c1c(O)c(-c2ccc(O)c(O)c2)oc2cc(O)cc(O)c12
REMARK SMILES IDX 5 1 3 2 2 3 1 4 22 5 20 6 19 7 17 8 16 9 15 10 14 11 6 12
REMARK SMILES IDX 7 13 8 14 9 15 13 16 11 17 10 18 12 20 4 22 21 24 18 26
REMARK H PARENT 10 19 12 21 4 23 21 25 18 27
REMARK Flexibility Score: inf
ROOT
ATOM      1  C   UNL     1      84.351  95.507  86.224  1.00  0.00     0.180 A 
ATOM      2  C   UNL     1      83.629  95.989  87.329  1.00  0.00     0.208 A 
ATOM      3  C   UNL     1      84.085  97.140  87.991  1.00  0.00     0.238 A 
ATOM      4  O   UNL     1      83.465  97.535  89.013  1.00  0.00    -0.285 OA
ATOM      5  C   UNL     1      85.247  97.805  87.530  1.00  0.00     0.111 A 
ATOM      6  C   UNL     1      85.776  99.001  88.099  1.00  0.00     0.134 A 
ATOM      7  C   UNL     1      87.004  99.498  87.645  1.00  0.00     0.093 A 
ATOM      8  C   UNL     1      87.689  98.879  86.600  1.00  0.00     0.123 A 
ATOM      9  C   UNL     1      87.151  97.743  85.996  1.00  0.00     0.094 A 
ATOM     10  C   UNL     1      85.945  97.203  86.451  1.00  0.00     0.146 A 
ATOM     11  O   UNL     1      85.474  96.114  85.857  1.00  0.00    -0.452 OA
ENDROOT
BRANCH   1  12
ATOM     12  C   UNL     1      83.920  94.314  85.460  1.00  0.00     0.025 A 
ATOM     13  C   UNL     1      83.064  93.352  86.027  1.00  0.00     0.016 A 
ATOM     14  C   UNL     1      82.651  92.247  85.279  1.00  0.00     0.051 A 
ATOM     15  C   UNL     1      83.073  92.092  83.953  1.00  0.00     0.157 A 
ATOM     16  C   UNL     1      84.323  94.165  84.123  1.00  0.00     0.062 A 
ATOM     17  C   UNL     1      83.908  93.055  83.373  1.00  0.00     0.158 A 
BRANCH  15  18
ATOM     18  O   UNL     1      82.663  90.991  83.205  1.00  0.00    -0.504 OA
ATOM     19  H   UNL     1      83.241  90.608  82.465  1.00  0.00     0.293 HD
ENDBRANCH  15  18
BRANCH  17  20
ATOM     20  O   UNL     1      84.321  92.904  82.050  1.00  0.00    -0.504 OA
ATOM     21  H   UNL     1      85.202  93.284  81.723  1.00  0.00     0.293 HD
ENDBRANCH  17  20
ENDBRANCH   1  12
BRANCH   2  22
ATOM     22  O   UNL     1      82.496  95.305  87.781  1.00  0.00    -0.502 OA
ATOM     23  H   UNL     1      82.094  94.526  87.276  1.00  0.00     0.293 HD
ENDBRANCH   2  22
BRANCH   6  24
ATOM     24  O   UNL     1      85.128  99.750  89.087  1.00  0.00    -0.507 OA
ATOM     25  H   UNL     1      85.572 100.456  89.656  1.00  0.00     0.293 HD
ENDBRANCH   6  24
BRANCH   8  26
ATOM     26  O   UNL     1      88.901  99.411  86.163  1.00  0.00    -0.508 OA
ATOM     27  H   UNL     1      88.998  99.818  85.240  1.00  0.00     0.293 HD
ENDBRANCH   8  26
TORSDOF 6
ENDMDL
MODEL 6
REMARK VINA RESULT:    -6.920     15.417     16.245
REMARK INTER + INTRA:          -8.310
REMARK INTER:                  -8.165
REMARK INTRA:                  -0.145
REMARK UNBOUND:                 0.025
REMARK SMILES O=c1c(O)c(-c2ccc(O)c(O)c2)oc2cc(O)cc(O)c12
REMARK SMILES IDX 5 1 3 2 2 3 1 4 22 5 20 6 19 7 17 8 16 9 15 10 14 11 6 12
REMARK SMILES IDX 7 13 8 14 9 15 13 16 11 17 10 18 12 20 4 22 21 24 18 26
REMARK H PARENT 10 19 12 21 4 23 21 25 18 27
REMARK Flexibility Score: inf
ROOT
ATOM      1  C   UNL     1      95.961  84.217  86.517  1.00  0.00     0.180 A 
ATOM      2  C   UNL     1      96.741  83.537  87.468  1.00  0.00     0.208 A 
ATOM      3  C   UNL     1      96.188  82.434  88.138  1.00  0.00     0.238 A 
ATOM      4  O   UNL     1      96.872  81.862  89.028  1.00  0.00    -0.285 OA
ATOM      5  C   UNL     1      94.869  82.015  87.838  1.00  0.00     0.111 A 
ATOM      6  C   UNL     1      94.223  80.888  88.427  1.00  0.00     0.134 A 
ATOM      7  C   UNL     1      92.871  80.644  88.152  1.00  0.00     0.093 A 
ATOM      8  C   UNL     1      92.162  81.448  87.261  1.00  0.00     0.123 A 
ATOM      9  C   UNL     1      92.801  82.518  86.633  1.00  0.00     0.094 A 
ATOM     10  C   UNL     1      94.139  82.808  86.915  1.00  0.00     0.146 A 
ATOM     11  O   UNL     1      94.705  83.842  86.306  1.00  0.00    -0.452 OA
ENDROOT
BRANCH   1  12
ATOM     12  C   UNL     1      96.483  85.373  85.752  1.00  0.00     0.025 A 
ATOM     13  C   UNL     1      96.608  85.329  84.352  1.00  0.00     0.016 A 
ATOM     14  C   UNL     1      97.079  86.440  83.650  1.00  0.00     0.051 A 
ATOM     15  C   UNL     1      97.420  87.615  84.331  1.00  0.00     0.157 A 
ATOM     16  C   UNL     1      96.806  86.561  86.429  1.00  0.00     0.062 A 
ATOM     17  C   UNL     1      97.280  87.677  85.723  1.00  0.00     0.158 A 
BRANCH  15  18
ATOM     18  O   UNL     1      97.892  88.725  83.633  1.00  0.00    -0.504 OA
ATOM     19  H   UNL     1      97.844  88.775  82.622  1.00  0.00     0.293 HD
ENDBRANCH  15  18
BRANCH  17  20
ATOM     20  O   UNL     1      97.612  88.849  86.399  1.00  0.00    -0.504 OA
ATOM     21  H   UNL     1      96.962  89.300  87.033  1.00  0.00     0.293 HD
ENDBRANCH  17  20
ENDBRANCH   1  12
BRANCH   2  22
ATOM     22  O   UNL     1      98.034  83.980  87.765  1.00  0.00    -0.502 OA
ATOM     23  H   UNL     1      98.251  84.956  87.923  1.00  0.00     0.293 HD
ENDBRANCH   2  22
BRANCH   6  24
ATOM     24  O   UNL     1      94.865  79.966  89.260  1.00  0.00    -0.507 OA
ATOM     25  H   UNL     1      95.219  80.176  90.183  1.00  0.00     0.293 HD
ENDBRANCH   6  24
BRANCH   8  26
ATOM     26  O   UNL     1      90.823  81.167  86.999  1.00  0.00    -0.508 OA
ATOM     27  H   UNL     1      90.116  81.893  87.016  1.00  0.00     0.293 HD
ENDBRANCH   8  26
TORSDOF 6
ENDMDL
MODEL 7
REMARK VINA RESULT:    -6.873     15.441     16.878
REMARK INTER + INTRA:          -8.254
REMARK INTER:                  -8.132
REMARK INTRA:                  -0.122
REMARK UNBOUND:                 0.025
REMARK SMILES O=c1c(O)c(-c2ccc(O)c(O)c2)oc2cc(O)cc(O)c12
REMARK SMILES IDX 5 1 3 2 2 3 1 4 22 5 20 6 19 7 17 8 16 9 15 10 14 11 6 12
REMARK SMILES IDX 7 13 8 14 9 15 13 16 11 17 10 18 12 20 4 22 21 24 18 26
REMARK H PARENT 10 19 12 21 4 23 21 25 18 27
REMARK Flexibility Score: inf
ROOT
ATOM      1  C   UNL     1      93.403  81.729  87.690  1.00  0.00     0.180 A 
ATOM      2  C   UNL     1      94.328  81.179  88.593  1.00  0.00     0.208 A 
ATOM      3  C   UNL     1      95.636  81.689  88.625  1.00  0.00     0.238 A 
ATOM      4  O   UNL     1      96.474  81.155  89.398  1.00  0.00    -0.285 OA
ATOM      5  C   UNL     1      95.997  82.754  87.765  1.00  0.00     0.111 A 
ATOM      6  C   UNL     1      97.282  83.375  87.740  1.00  0.00     0.134 A 
ATOM      7  C   UNL     1      97.568  84.332  86.758  1.00  0.00     0.093 A 
ATOM      8  C   UNL     1      96.597  84.735  85.843  1.00  0.00     0.123 A 
ATOM      9  C   UNL     1      95.320  84.178  85.895  1.00  0.00     0.094 A 
ATOM     10  C   UNL     1      95.015  83.195  86.841  1.00  0.00     0.146 A 
ATOM     11  O   UNL     1      93.791  82.682  86.850  1.00  0.00    -0.452 OA
ENDROOT
BRANCH   1  12
ATOM     12  C   UNL     1      92.000  81.261  87.615  1.00  0.00     0.025 A 
ATOM     13  C   UNL     1      91.492  80.654  86.452  1.00  0.00     0.016 A 
ATOM     14  C   UNL     1      90.172  80.198  86.413  1.00  0.00     0.051 A 
ATOM     15  C   UNL     1      89.345  80.328  87.536  1.00  0.00     0.157 A 
ATOM     16  C   UNL     1      91.173  81.369  88.745  1.00  0.00     0.062 A 
ATOM     17  C   UNL     1      89.848  80.911  88.706  1.00  0.00     0.158 A 
BRANCH  15  18
ATOM     18  O   UNL     1      88.028  79.875  87.500  1.00  0.00    -0.504 OA
ATOM     19  H   UNL     1      87.590  79.587  86.633  1.00  0.00     0.293 HD
ENDBRANCH  15  18
BRANCH  17  20
ATOM     20  O   UNL     1      89.027  81.033  89.825  1.00  0.00    -0.504 OA
ATOM     21  H   UNL     1      89.185  80.484  90.662  1.00  0.00     0.293 HD
ENDBRANCH  17  20
ENDBRANCH   1  12
BRANCH   2  22
ATOM     22  O   UNL     1      93.956  80.113  89.419  1.00  0.00    -0.502 OA
ATOM     23  H   UNL     1      93.658  80.246  90.378  1.00  0.00     0.293 HD
ENDBRANCH   2  22
BRANCH   6  24
ATOM     24  O   UNL     1      98.295  83.112  88.667  1.00  0.00    -0.507 OA
ATOM     25  H   UNL     1      98.824  82.252  88.711  1.00  0.00     0.293 HD
ENDBRANCH   6  24
BRANCH   8  26
ATOM     26  O   UNL     1      96.913  85.702  84.889  1.00  0.00    -0.508 OA
ATOM     27  H   UNL     1      97.781  85.668  84.368  1.00  0.00     0.293 HD
ENDBRANCH   8  26
TORSDOF 6
ENDMDL
MODEL 8
REMARK VINA RESULT:    -6.672     15.780     17.345
REMARK INTER + INTRA:          -8.012
REMARK INTER:                  -8.061
REMARK INTRA:                   0.049
REMARK UNBOUND:                 0.025
REMARK SMILES O=c1c(O)c(-c2ccc(O)c(O)c2)oc2cc(O)cc(O)c12
REMARK SMILES IDX 5 1 3 2 2 3 1 4 22 5 20 6 19 7 17 8 16 9 15 10 14 11 6 12
REMARK SMILES IDX 7 13 8 14 9 15 13 16 11 17 10 18 12 20 4 22 21 24 18 26
REMARK H PARENT 10 19 12 21 4 23 21 25 18 27
REMARK Flexibility Score: inf
ROOT
ATOM      1  C   UNL     1      93.249  81.778  87.873  1.00  0.00     0.180 A 
ATOM      2  C   UNL     1      93.822  82.515  86.823  1.00  0.00     0.208 A 
ATOM      3  C   UNL     1      95.163  82.917  86.926  1.00  0.00     0.238 A 
ATOM      4  O   UNL     1      95.655  83.624  86.008  1.00  0.00    -0.285 OA
ATOM      5  C   UNL     1      95.919  82.564  88.071  1.00  0.00     0.111 A 
ATOM      6  C   UNL     1      97.296  82.884  88.264  1.00  0.00     0.134 A 
ATOM      7  C   UNL     1      97.906  82.598  89.491  1.00  0.00     0.093 A 
ATOM      8  C   UNL     1      97.209  81.946  90.507  1.00  0.00     0.123 A 
ATOM      9  C   UNL     1      95.879  81.575  90.308  1.00  0.00     0.094 A 
ATOM     10  C   UNL     1      95.232  81.879  89.107  1.00  0.00     0.146 A 
ATOM     11  O   UNL     1      93.963  81.519  88.962  1.00  0.00    -0.452 OA
ENDROOT
BRANCH   1  12
ATOM     12  C   UNL     1      91.848  81.297  87.825  1.00  0.00     0.025 A 
ATOM     13  C   UNL     1      91.319  80.696  86.669  1.00  0.00     0.016 A 
ATOM     14  C   UNL     1      90.004  80.228  86.655  1.00  0.00     0.051 A 
ATOM     15  C   UNL     1      89.201  80.340  87.797  1.00  0.00     0.157 A 
ATOM     16  C   UNL     1      91.046  81.388  88.975  1.00  0.00     0.062 A 
ATOM     17  C   UNL     1      89.725  80.918  88.961  1.00  0.00     0.158 A 
BRANCH  15  18
ATOM     18  O   UNL     1      87.887  79.876  87.787  1.00  0.00    -0.504 OA
ATOM     19  H   UNL     1      87.648  78.972  87.398  1.00  0.00     0.293 HD
ENDBRANCH  15  18
BRANCH  17  20
ATOM     20  O   UNL     1      88.928  81.023  90.099  1.00  0.00    -0.504 OA
ATOM     21  H   UNL     1      87.931  80.839  90.068  1.00  0.00     0.293 HD
ENDBRANCH  17  20
ENDBRANCH   1  12
BRANCH   2  22
ATOM     22  O   UNL     1      93.052  82.871  85.711  1.00  0.00    -0.502 OA
ATOM     23  H   UNL     1      92.046  82.980  85.759  1.00  0.00     0.293 HD
ENDBRANCH   2  22
BRANCH   6  24
ATOM     24  O   UNL     1      98.110  83.453  87.280  1.00  0.00    -0.507 OA
ATOM     25  H   UNL     1      98.966  83.958  87.464  1.00  0.00     0.293 HD
ENDBRANCH   6  24
BRANCH   8  26
ATOM     26  O   UNL     1      97.853  81.663  91.710  1.00  0.00    -0.508 OA
ATOM     27  H   UNL     1      97.575  82.108  92.577  1.00  0.00     0.293 HD
ENDBRANCH   8  26
TORSDOF 6
ENDMDL
MODEL 9
REMARK VINA RESULT:    -6.590     14.376     15.801
REMARK INTER + INTRA:          -7.913
REMARK INTER:                  -7.609
REMARK INTRA:                  -0.304
REMARK UNBOUND:                 0.025
REMARK SMILES O=c1c(O)c(-c2ccc(O)c(O)c2)oc2cc(O)cc(O)c12
REMARK SMILES IDX 5 1 3 2 2 3 1 4 22 5 20 6 19 7 17 8 16 9 15 10 14 11 6 12
REMARK SMILES IDX 7 13 8 14 9 15 13 16 11 17 10 18 12 20 4 22 21 24 18 26
REMARK H PARENT 10 19 12 21 4 23 21 25 18 27
REMARK Flexibility Score: inf
ROOT
ATOM      1  C   UNL     1      96.712  87.033  84.087  1.00  0.00     0.180 A 
ATOM      2  C   UNL     1      97.616  87.574  85.016  1.00  0.00     0.208 A 
ATOM      3  C   UNL     1      97.853  86.886  86.217  1.00  0.00     0.238 A 
ATOM      4  O   UNL     1      98.622  87.403  87.069  1.00  0.00    -0.285 OA
ATOM      5  C   UNL     1      97.195  85.657  86.466  1.00  0.00     0.111 A 
ATOM      6  C   UNL     1      97.388  84.854  87.629  1.00  0.00     0.134 A 
ATOM      7  C   UNL     1      96.587  83.724  87.831  1.00  0.00     0.093 A 
ATOM      8  C   UNL     1      95.646  83.331  86.881  1.00  0.00     0.123 A 
ATOM      9  C   UNL     1      95.489  84.074  85.711  1.00  0.00     0.094 A 
ATOM     10  C   UNL     1      96.248  85.228  85.499  1.00  0.00     0.146 A 
ATOM     11  O   UNL     1      96.061  85.913  84.378  1.00  0.00    -0.452 OA
ENDROOT
BRANCH   1  12
ATOM     12  C   UNL     1      96.430  87.688  82.789  1.00  0.00     0.025 A 
ATOM     13  C   UNL     1      97.314  87.570  81.701  1.00  0.00     0.016 A 
ATOM     14  C   UNL     1      97.015  88.176  80.479  1.00  0.00     0.051 A 
ATOM     15  C   UNL     1      95.825  88.897  80.319  1.00  0.00     0.157 A 
ATOM     16  C   UNL     1      95.228  88.395  82.617  1.00  0.00     0.062 A 
ATOM     17  C   UNL     1      94.928  89.004  81.390  1.00  0.00     0.158 A 
BRANCH  15  18
ATOM     18  O   UNL     1      95.524  89.505  79.102  1.00  0.00    -0.504 OA
ATOM     19  H   UNL     1      95.015  90.379  79.058  1.00  0.00     0.293 HD
ENDBRANCH  15  18
BRANCH  17  20
ATOM     20  O   UNL     1      93.741  89.715  81.228  1.00  0.00    -0.504 OA
ATOM     21  H   UNL     1      93.605  90.625  81.655  1.00  0.00     0.293 HD
ENDBRANCH  17  20
ENDBRANCH   1  12
BRANCH   2  22
ATOM     22  O   UNL     1      98.239  88.800  84.760  1.00  0.00    -0.502 OA
ATOM     23  H   UNL     1      98.320  89.184  83.827  1.00  0.00     0.293 HD
ENDBRANCH   2  22
BRANCH   6  24
ATOM     24  O   UNL     1      98.366  85.106  88.598  1.00  0.00    -0.507 OA
ATOM     25  H   UNL     1      98.679  84.436  89.285  1.00  0.00     0.293 HD
ENDBRANCH   6  24
BRANCH   8  26
ATOM     26  O   UNL     1      94.876  82.191  87.107  1.00  0.00    -0.508 OA
ATOM     27  H   UNL     1      93.975  82.243  87.568  1.00  0.00     0.293 HD
ENDBRANCH   8  26
TORSDOF 6
ENDMDL
