MODEL 1
REMARK VINA RESULT:    -2.605      0.000      0.000
REMARK INTER + INTRA:          -2.681
REMARK INTER:                  -2.681
REMARK INTRA:                   0.000
REMARK UNBOUND:                 0.000
REMARK SMILES O=c1ccc2ccc(O)cc2o1
REMARK SMILES IDX 6 1 7 2 8 3 10 4 11 5 5 6 4 7 3 8 2 9 1 10 12 11 9 12
REMARK H PARENT 9 13
REMARK Flexibility Score: inf
ROOT
ATOM      1  C   UNL     1      22.234  13.875   3.400  1.00  0.00     0.016 A 
ATOM      2  C   UNL     1      23.569  14.117   3.063  1.00  0.00     0.047 A 
ATOM      3  C   UNL     1      23.893  14.734   1.849  1.00  0.00     0.119 A 
ATOM      4  C   UNL     1      22.873  15.113   0.963  1.00  0.00     0.094 A 
ATOM      5  C   UNL     1      21.534  14.876   1.291  1.00  0.00     0.142 A 
ATOM      6  C   UNL     1      21.212  14.252   2.518  1.00  0.00     0.018 A 
ATOM      7  C   UNL     1      19.865  14.028   2.818  1.00  0.00     0.019 A 
ATOM      8  C   UNL     1      18.885  14.422   1.906  1.00  0.00     0.094 A 
ATOM      9  C   UNL     1      19.279  15.034   0.711  1.00  0.00     0.336 A 
ATOM     10  O   UNL     1      18.410  15.397  -0.125  1.00  0.00    -0.246 OA
ATOM     11  O   UNL     1      20.568  15.236   0.450  1.00  0.00    -0.423 OA
ENDROOT
BRANCH   3  12
ATOM     12  O   UNL     1      25.230  14.966   1.531  1.00  0.00    -0.508 OA
ATOM     13  H   UNL     1      25.618  14.687   0.638  1.00  0.00     0.293 HD
ENDBRANCH   3  12
TORSDOF 1
ENDMDL
MODEL 2
REMARK VINA RESULT:    -2.449      1.520      4.738
REMARK INTER + INTRA:          -2.521
REMARK INTER:                  -2.521
REMARK INTRA:                   0.000
REMARK UNBOUND:                 0.000
REMARK SMILES O=c1ccc2ccc(O)cc2o1
REMARK SMILES IDX 6 1 7 2 8 3 10 4 11 5 5 6 4 7 3 8 2 9 1 10 12 11 9 12
REMARK H PARENT 9 13
REMARK Flexibility Score: inf
ROOT
ATOM      1  C   UNL     1      20.881  15.323  -0.119  1.00  0.00     0.016 A 
ATOM      2  C   UNL     1      19.633  15.350   0.510  1.00  0.00     0.047 A 
ATOM      3  C   UNL     1      19.513  15.010   1.863  1.00  0.00     0.119 A 
ATOM      4  C   UNL     1      20.652  14.641   2.595  1.00  0.00     0.094 A 
ATOM      5  C   UNL     1      21.906  14.611   1.975  1.00  0.00     0.142 A 
ATOM      6  C   UNL     1      22.021  14.954   0.609  1.00  0.00     0.018 A 
ATOM      7  C   UNL     1      23.287  14.916   0.017  1.00  0.00     0.019 A 
ATOM      8  C   UNL     1      24.391  14.541   0.784  1.00  0.00     0.094 A 
ATOM      9  C   UNL     1      24.201  14.214   2.131  1.00  0.00     0.336 A 
ATOM     10  O   UNL     1      25.184  13.875   2.841  1.00  0.00    -0.246 OA
ATOM     11  O   UNL     1      22.985  14.260   2.670  1.00  0.00    -0.423 OA
ENDROOT
BRANCH   3  12
ATOM     12  O   UNL     1      18.260  15.042   2.472  1.00  0.00    -0.508 OA
ATOM     13  H   UNL     1      17.744  14.193   2.668  1.00  0.00     0.293 HD
ENDBRANCH   3  12
TORSDOF 1
ENDMDL
