MODEL 1
REMARK VINA RESULT:    -3.984      0.000      0.000
REMARK INTER + INTRA:          -9.676
REMARK INTER:                  -7.478
REMARK INTRA:                  -2.198
REMARK UNBOUND:                -2.198
REMARK SMILES CCCCCCCCC=CCCCCCCCC(=O)[O-]
REMARK SMILES IDX 10 1 9 2 11 3 12 4 13 5 14 6 15 7 16 8 17 9 18 10 19 11
REMARK SMILES IDX 20 12 8 13 7 14 6 15 5 16 4 17 3 18 2 19 1 20
REMARK H PARENT
REMARK Flexibility Score: inf
ROOT
ATOM      1  C   UNL     1       9.732  63.438   8.494  1.00  0.00    -0.031 C 
ATOM      2  C   UNL     1       9.310  64.715   8.442  1.00  0.00    -0.031 C 
ENDROOT
BRANCH   1   3
ATOM      3  C   UNL     1      11.135  62.999   8.847  1.00  0.00     0.027 C 
BRANCH   3   4
ATOM      4  C   UNL     1      11.712  62.061   7.780  1.00  0.00     0.004 C 
BRANCH   4   5
ATOM      5  C   UNL     1      12.916  62.685   7.054  1.00  0.00     0.000 C 
BRANCH   5   6
ATOM      6  C   UNL     1      13.304  64.061   7.620  1.00  0.00     0.000 C 
BRANCH   6   7
ATOM      7  C   UNL     1      13.312  65.162   6.545  1.00  0.00     0.000 C 
BRANCH   7   8
ATOM      8  C   UNL     1      12.440  64.807   5.330  1.00  0.00     0.006 C 
BRANCH   8   9
ATOM      9  C   UNL     1      11.301  65.809   5.105  1.00  0.00     0.053 C 
BRANCH   9  10
ATOM     10  C   UNL     1      11.058  66.002   3.643  1.00  0.00     0.041 C 
ATOM     11  O   UNL     1       9.905  65.837   3.164  1.00  0.00    -0.550 OA
ATOM     12  O   UNL     1      12.115  66.316   2.798  1.00  0.00    -0.550 OA
ENDBRANCH   9  10
ENDBRANCH   8   9
ENDBRANCH   7   8
ENDBRANCH   6   7
ENDBRANCH   5   6
ENDBRANCH   4   5
ENDBRANCH   3   4
ENDBRANCH   1   3
BRANCH   2  13
ATOM     13  C   UNL     1      10.183  65.921   8.686  1.00  0.00     0.027 C 
BRANCH  13  14
ATOM     14  C   UNL     1       9.373  67.229   8.780  1.00  0.00     0.004 C 
BRANCH  14  15
ATOM     15  C   UNL     1       7.856  67.012   8.919  1.00  0.00     0.000 C 
BRANCH  15  16
ATOM     16  C   UNL     1       7.093  67.269   7.609  1.00  0.00     0.000 C 
BRANCH  16  17
ATOM     17  C   UNL     1       5.735  66.550   7.566  1.00  0.00    -0.000 C 
BRANCH  17  18
ATOM     18  C   UNL     1       5.248  66.120   8.958  1.00  0.00    -0.000 C 
BRANCH  18  19
ATOM     19  C   UNL     1       4.783  64.660   8.950  1.00  0.00    -0.003 C 
ATOM     20  C   UNL     1       5.881  63.734   8.434  1.00  0.00     0.004 C 
ENDBRANCH  18  19
ENDBRANCH  17  18
ENDBRANCH  16  17
ENDBRANCH  15  16
ENDBRANCH  14  15
ENDBRANCH  13  14
ENDBRANCH   2  13
TORSDOF 15
ENDMDL
MODEL 2
REMARK VINA RESULT:    -3.974      2.369      4.121
REMARK INTER + INTRA:          -9.657
REMARK INTER:                  -6.996
REMARK INTRA:                  -2.661
REMARK UNBOUND:                -2.198
REMARK SMILES CCCCCCCCC=CCCCCCCCC(=O)[O-]
REMARK SMILES IDX 10 1 9 2 11 3 12 4 13 5 14 6 15 7 16 8 17 9 18 10 19 11
REMARK SMILES IDX 20 12 8 13 7 14 6 15 5 16 4 17 3 18 2 19 1 20
REMARK H PARENT
REMARK Flexibility Score: inf
ROOT
ATOM      1  C   UNL     1      12.622  62.621   7.369  1.00  0.00    -0.031 C 
ATOM      2  C   UNL     1      11.493  62.169   7.944  1.00  0.00    -0.031 C 
ENDROOT
BRANCH   1   3
ATOM      3  C   UNL     1      13.373  63.865   7.786  1.00  0.00     0.027 C 
BRANCH   3   4
ATOM      4  C   UNL     1      13.627  64.791   6.591  1.00  0.00     0.004 C 
BRANCH   4   5
ATOM      5  C   UNL     1      12.663  64.509   5.426  1.00  0.00     0.000 C 
BRANCH   5   6
ATOM      6  C   UNL     1      12.268  65.783   4.660  1.00  0.00     0.000 C 
BRANCH   6   7
ATOM      7  C   UNL     1      11.781  65.486   3.231  1.00  0.00     0.000 C 
BRANCH   7   8
ATOM      8  C   UNL     1      10.271  65.718   3.063  1.00  0.00     0.006 C 
BRANCH   8   9
ATOM      9  C   UNL     1       9.753  66.886   3.912  1.00  0.00     0.053 C 
BRANCH   9  10
ATOM     10  C   UNL     1       9.563  68.103   3.065  1.00  0.00     0.041 C 
ATOM     11  O   UNL     1       9.177  69.184   3.584  1.00  0.00    -0.550 OA
ATOM     12  O   UNL     1       9.764  68.033   1.692  1.00  0.00    -0.550 OA
ENDBRANCH   9  10
ENDBRANCH   8   9
ENDBRANCH   7   8
ENDBRANCH   6   7
ENDBRANCH   5   6
ENDBRANCH   4   5
ENDBRANCH   3   4
ENDBRANCH   1   3
BRANCH   2  13
ATOM     13  C   UNL     1      10.767  62.856   9.075  1.00  0.00     0.027 C 
BRANCH  13  14
ATOM     14  C   UNL     1       9.441  63.499   8.623  1.00  0.00     0.004 C 
BRANCH  14  15
ATOM     15  C   UNL     1       9.423  65.033   8.738  1.00  0.00     0.000 C 
BRANCH  15  16
ATOM     16  C   UNL     1      10.076  65.731   7.533  1.00  0.00     0.000 C 
BRANCH  16  17
ATOM     17  C   UNL     1      10.757  67.054   7.915  1.00  0.00    -0.000 C 
BRANCH  17  18
ATOM     18  C   UNL     1      11.066  67.149   9.417  1.00  0.00    -0.000 C 
BRANCH  18  19
ATOM     19  C   UNL     1      12.511  66.727   9.707  1.00  0.00    -0.003 C 
ATOM     20  C   UNL     1      12.580  65.783  10.904  1.00  0.00     0.004 C 
ENDBRANCH  18  19
ENDBRANCH  17  18
ENDBRANCH  16  17
ENDBRANCH  15  16
ENDBRANCH  14  15
ENDBRANCH  13  14
ENDBRANCH   2  13
TORSDOF 15
ENDMDL
MODEL 3
REMARK VINA RESULT:    -3.942      1.062      2.688
REMARK INTER + INTRA:          -9.596
REMARK INTER:                  -7.607
REMARK INTRA:                  -1.988
REMARK UNBOUND:                -2.198
REMARK SMILES CCCCCCCCC=CCCCCCCCC(=O)[O-]
REMARK SMILES IDX 10 1 9 2 11 3 12 4 13 5 14 6 15 7 16 8 17 9 18 10 19 11
REMARK SMILES IDX 20 12 8 13 7 14 6 15 5 16 4 17 3 18 2 19 1 20
REMARK H PARENT
REMARK Flexibility Score: inf
ROOT
ATOM      1  C   UNL     1      12.759  62.713   7.450  1.00  0.00    -0.031 C 
ATOM      2  C   UNL     1      11.563  62.305   7.915  1.00  0.00    -0.031 C 
ENDROOT
BRANCH   1   3
ATOM      3  C   UNL     1      13.541  63.892   7.982  1.00  0.00     0.027 C 
BRANCH   3   4
ATOM      4  C   UNL     1      13.860  64.898   6.868  1.00  0.00     0.004 C 
BRANCH   4   5
ATOM      5  C   UNL     1      12.826  66.034   6.802  1.00  0.00     0.000 C 
BRANCH   5   6
ATOM      6  C   UNL     1      11.744  65.791   5.736  1.00  0.00     0.000 C 
BRANCH   6   7
ATOM      7  C   UNL     1      12.265  64.971   4.542  1.00  0.00     0.000 C 
BRANCH   7   8
ATOM      8  C   UNL     1      11.843  65.567   3.189  1.00  0.00     0.006 C 
BRANCH   8   9
ATOM      9  C   UNL     1      10.320  65.650   3.027  1.00  0.00     0.053 C 
BRANCH   9  10
ATOM     10  C   UNL     1       9.896  67.067   2.805  1.00  0.00     0.041 C 
ATOM     11  O   UNL     1      10.752  67.952   2.544  1.00  0.00    -0.550 OA
ATOM     12  O   UNL     1       8.558  67.421   2.936  1.00  0.00    -0.550 OA
ENDBRANCH   9  10
ENDBRANCH   8   9
ENDBRANCH   7   8
ENDBRANCH   6   7
ENDBRANCH   5   6
ENDBRANCH   4   5
ENDBRANCH   3   4
ENDBRANCH   1   3
BRANCH   2  13
ATOM     13  C   UNL     1      10.788  62.986   9.015  1.00  0.00     0.027 C 
BRANCH  13  14
ATOM     14  C   UNL     1       9.730  63.969   8.473  1.00  0.00     0.004 C 
BRANCH  14  15
ATOM     15  C   UNL     1       9.903  65.411   8.981  1.00  0.00     0.000 C 
BRANCH  15  16
ATOM     16  C   UNL     1       8.866  66.381   8.390  1.00  0.00     0.000 C 
BRANCH  16  17
ATOM     17  C   UNL     1       7.521  66.330   9.130  1.00  0.00    -0.000 C 
BRANCH  17  18
ATOM     18  C   UNL     1       6.376  65.815   8.244  1.00  0.00    -0.000 C 
BRANCH  18  19
ATOM     19  C   UNL     1       6.064  64.346   8.551  1.00  0.00    -0.003 C 
ATOM     20  C   UNL     1       4.646  64.184   9.091  1.00  0.00     0.004 C 
ENDBRANCH  18  19
ENDBRANCH  17  18
ENDBRANCH  16  17
ENDBRANCH  15  16
ENDBRANCH  14  15
ENDBRANCH  13  14
ENDBRANCH   2  13
TORSDOF 15
ENDMDL
MODEL 4
REMARK VINA RESULT:    -3.935      1.139      2.103
REMARK INTER + INTRA:          -9.583
REMARK INTER:                  -7.651
REMARK INTRA:                  -1.932
REMARK UNBOUND:                -2.198
REMARK SMILES CCCCCCCCC=CCCCCCCCC(=O)[O-]
REMARK SMILES IDX 10 1 9 2 11 3 12 4 13 5 14 6 15 7 16 8 17 9 18 10 19 11
REMARK SMILES IDX 20 12 8 13 7 14 6 15 5 16 4 17 3 18 2 19 1 20
REMARK H PARENT
REMARK Flexibility Score: inf
ROOT
ATOM      1  C   UNL     1      11.659  62.693   8.759  1.00  0.00    -0.031 C 
ATOM      2  C   UNL     1      10.633  63.425   9.231  1.00  0.00    -0.031 C 
ENDROOT
BRANCH   1   3
ATOM      3  C   UNL     1      11.753  62.128   7.361  1.00  0.00     0.027 C 
BRANCH   3   4
ATOM      4  C   UNL     1      12.927  62.741   6.587  1.00  0.00     0.004 C 
BRANCH   4   5
ATOM      5  C   UNL     1      13.576  63.907   7.353  1.00  0.00     0.000 C 
BRANCH   5   6
ATOM      6  C   UNL     1      13.421  65.254   6.628  1.00  0.00     0.000 C 
BRANCH   6   7
ATOM      7  C   UNL     1      12.107  65.970   6.987  1.00  0.00     0.000 C 
BRANCH   7   8
ATOM      8  C   UNL     1      11.166  66.115   5.781  1.00  0.00     0.006 C 
BRANCH   8   9
ATOM      9  C   UNL     1      11.878  66.656   4.535  1.00  0.00     0.053 C 
BRANCH   9  10
ATOM     10  C   UNL     1      11.640  65.755   3.365  1.00  0.00     0.041 C 
ATOM     11  O   UNL     1      10.951  66.152   2.388  1.00  0.00    -0.550 OA
ATOM     12  O   UNL     1      12.136  64.457   3.374  1.00  0.00    -0.550 OA
ENDBRANCH   9  10
ENDBRANCH   8   9
ENDBRANCH   7   8
ENDBRANCH   6   7
ENDBRANCH   5   6
ENDBRANCH   4   5
ENDBRANCH   3   4
ENDBRANCH   1   3
BRANCH   2  13
ATOM     13  C   UNL     1       9.386  63.764   8.451  1.00  0.00     0.027 C 
BRANCH  13  14
ATOM     14  C   UNL     1       8.920  65.215   8.681  1.00  0.00     0.004 C 
BRANCH  14  15
ATOM     15  C   UNL     1       7.429  65.341   9.037  1.00  0.00     0.000 C 
BRANCH  15  16
ATOM     16  C   UNL     1       6.646  64.038   8.800  1.00  0.00     0.000 C 
BRANCH  16  17
ATOM     17  C   UNL     1       5.162  64.290   8.490  1.00  0.00    -0.000 C 
BRANCH  17  18
ATOM     18  C   UNL     1       4.829  65.784   8.363  1.00  0.00    -0.000 C 
BRANCH  18  19
ATOM     19  C   UNL     1       4.636  66.179   6.894  1.00  0.00    -0.003 C 
ATOM     20  C   UNL     1       5.415  67.447   6.557  1.00  0.00     0.004 C 
ENDBRANCH  18  19
ENDBRANCH  17  18
ENDBRANCH  16  17
ENDBRANCH  15  16
ENDBRANCH  14  15
ENDBRANCH  13  14
ENDBRANCH   2  13
TORSDOF 15
ENDMDL
MODEL 5
REMARK VINA RESULT:    -3.893      2.759      6.283
REMARK INTER + INTRA:          -9.505
REMARK INTER:                  -7.931
REMARK INTRA:                  -1.574
REMARK UNBOUND:                -2.198
REMARK SMILES CCCCCCCCC=CCCCCCCCC(=O)[O-]
REMARK SMILES IDX 10 1 9 2 11 3 12 4 13 5 14 6 15 7 16 8 17 9 18 10 19 11
REMARK SMILES IDX 20 12 8 13 7 14 6 15 5 16 4 17 3 18 2 19 1 20
REMARK H PARENT
REMARK Flexibility Score: inf
ROOT
ATOM      1  C   UNL     1      11.523  62.405   7.957  1.00  0.00    -0.031 C 
ATOM      2  C   UNL     1      12.609  62.681   7.210  1.00  0.00    -0.031 C 
ENDROOT
BRANCH   1   3
ATOM      3  C   UNL     1      11.098  63.171   9.188  1.00  0.00     0.027 C 
BRANCH   3   4
ATOM      4  C   UNL     1       9.952  64.141   8.875  1.00  0.00     0.004 C 
BRANCH   4   5
ATOM      5  C   UNL     1       8.624  63.405   8.628  1.00  0.00     0.000 C 
BRANCH   5   6
ATOM      6  C   UNL     1       7.403  64.334   8.725  1.00  0.00     0.000 C 
BRANCH   6   7
ATOM      7  C   UNL     1       6.083  63.612   8.399  1.00  0.00     0.000 C 
BRANCH   7   8
ATOM      8  C   UNL     1       4.851  64.383   8.899  1.00  0.00     0.006 C 
BRANCH   8   9
ATOM      9  C   UNL     1       5.075  65.900   8.935  1.00  0.00     0.053 C 
BRANCH   9  10
ATOM     10  C   UNL     1       4.306  66.567   7.840  1.00  0.00     0.041 C 
ATOM     11  O   UNL     1       4.413  66.164   6.652  1.00  0.00    -0.550 OA
ATOM     12  O   UNL     1       3.506  67.669   8.123  1.00  0.00    -0.550 OA
ENDBRANCH   9  10
ENDBRANCH   8   9
ENDBRANCH   7   8
ENDBRANCH   6   7
ENDBRANCH   5   6
ENDBRANCH   4   5
ENDBRANCH   3   4
ENDBRANCH   1   3
BRANCH   2  13
ATOM     13  C   UNL     1      13.603  63.776   7.508  1.00  0.00     0.027 C 
BRANCH  13  14
ATOM     14  C   UNL     1      13.504  64.952   6.515  1.00  0.00     0.004 C 
BRANCH  14  15
ATOM     15  C   UNL     1      12.424  65.985   6.880  1.00  0.00     0.000 C 
BRANCH  15  16
ATOM     16  C   UNL     1      11.294  66.061   5.840  1.00  0.00     0.000 C 
BRANCH  16  17
ATOM     17  C   UNL     1      11.729  65.551   4.457  1.00  0.00    -0.000 C 
BRANCH  17  18
ATOM     18  C   UNL     1      10.722  65.904   3.352  1.00  0.00    -0.000 C 
BRANCH  18  19
ATOM     19  C   UNL     1      10.008  67.225   3.662  1.00  0.00    -0.003 C 
ATOM     20  C   UNL     1       8.557  67.191   3.193  1.00  0.00     0.004 C 
ENDBRANCH  18  19
ENDBRANCH  17  18
ENDBRANCH  16  17
ENDBRANCH  15  16
ENDBRANCH  14  15
ENDBRANCH  13  14
ENDBRANCH   2  13
TORSDOF 15
ENDMDL
MODEL 6
REMARK VINA RESULT:    -3.874      2.257      4.256
REMARK INTER + INTRA:          -9.468
REMARK INTER:                  -6.849
REMARK INTRA:                  -2.619
REMARK UNBOUND:                -2.198
REMARK SMILES CCCCCCCCC=CCCCCCCCC(=O)[O-]
REMARK SMILES IDX 10 1 9 2 11 3 12 4 13 5 14 6 15 7 16 8 17 9 18 10 19 11
REMARK SMILES IDX 20 12 8 13 7 14 6 15 5 16 4 17 3 18 2 19 1 20
REMARK H PARENT
REMARK Flexibility Score: inf
ROOT
ATOM      1  C   UNL     1      12.719  62.729   7.511  1.00  0.00    -0.031 C 
ATOM      2  C   UNL     1      11.511  62.384   7.994  1.00  0.00    -0.031 C 
ENDROOT
BRANCH   1   3
ATOM      3  C   UNL     1      13.568  63.869   8.026  1.00  0.00     0.027 C 
BRANCH   3   4
ATOM      4  C   UNL     1      14.047  64.771   6.882  1.00  0.00     0.004 C 
BRANCH   4   5
ATOM      5  C   UNL     1      13.581  66.226   7.060  1.00  0.00     0.000 C 
BRANCH   5   6
ATOM      6  C   UNL     1      12.686  66.709   5.906  1.00  0.00     0.000 C 
BRANCH   6   7
ATOM      7  C   UNL     1      11.482  65.782   5.663  1.00  0.00     0.000 C 
BRANCH   7   8
ATOM      8  C   UNL     1      11.030  65.775   4.194  1.00  0.00     0.006 C 
BRANCH   8   9
ATOM      9  C   UNL     1      12.169  65.437   3.225  1.00  0.00     0.053 C 
BRANCH   9  10
ATOM     10  C   UNL     1      12.322  66.517   2.202  1.00  0.00     0.041 C 
ATOM     11  O   UNL     1      11.501  67.470   2.158  1.00  0.00    -0.550 OA
ATOM     12  O   UNL     1      13.344  66.446   1.263  1.00  0.00    -0.550 OA
ENDBRANCH   9  10
ENDBRANCH   8   9
ENDBRANCH   7   8
ENDBRANCH   6   7
ENDBRANCH   5   6
ENDBRANCH   4   5
ENDBRANCH   3   4
ENDBRANCH   1   3
BRANCH   2  13
ATOM     13  C   UNL     1      10.788  63.107   9.103  1.00  0.00     0.027 C 
BRANCH  13  14
ATOM     14  C   UNL     1       9.437  63.694   8.644  1.00  0.00     0.004 C 
BRANCH  14  15
ATOM     15  C   UNL     1       9.370  65.230   8.716  1.00  0.00     0.000 C 
BRANCH  15  16
ATOM     16  C   UNL     1      10.678  65.862   9.221  1.00  0.00     0.000 C 
BRANCH  16  17
ATOM     17  C   UNL     1      10.467  66.738  10.466  1.00  0.00    -0.000 C 
BRANCH  17  18
ATOM     18  C   UNL     1      11.569  66.543  11.519  1.00  0.00    -0.000 C 
BRANCH  18  19
ATOM     19  C   UNL     1      12.756  65.770  10.934  1.00  0.00    -0.003 C 
ATOM     20  C   UNL     1      13.980  66.669  10.784  1.00  0.00     0.004 C 
ENDBRANCH  18  19
ENDBRANCH  17  18
ENDBRANCH  16  17
ENDBRANCH  15  16
ENDBRANCH  14  15
ENDBRANCH  13  14
ENDBRANCH   2  13
TORSDOF 15
ENDMDL
MODEL 7
REMARK VINA RESULT:    -3.831      2.702      5.542
REMARK INTER + INTRA:          -9.388
REMARK INTER:                  -7.176
REMARK INTRA:                  -2.212
REMARK UNBOUND:                -2.198
REMARK SMILES CCCCCCCCC=CCCCCCCCC(=O)[O-]
REMARK SMILES IDX 10 1 9 2 11 3 12 4 13 5 14 6 15 7 16 8 17 9 18 10 19 11
REMARK SMILES IDX 20 12 8 13 7 14 6 15 5 16 4 17 3 18 2 19 1 20
REMARK H PARENT
REMARK Flexibility Score: inf
ROOT
ATOM      1  C   UNL     1      13.601  63.745   8.189  1.00  0.00    -0.031 C 
ATOM      2  C   UNL     1      13.963  65.037   8.090  1.00  0.00    -0.031 C 
ENDROOT
BRANCH   1   3
ATOM      3  C   UNL     1      12.924  62.945   7.100  1.00  0.00     0.027 C 
BRANCH   3   4
ATOM      4  C   UNL     1      11.735  62.147   7.648  1.00  0.00     0.004 C 
BRANCH   4   5
ATOM      5  C   UNL     1      11.109  62.819   8.882  1.00  0.00     0.000 C 
BRANCH   5   6
ATOM      6  C   UNL     1       9.805  63.565   8.554  1.00  0.00     0.000 C 
BRANCH   6   7
ATOM      7  C   UNL     1       9.902  65.075   8.832  1.00  0.00     0.000 C 
BRANCH   7   8
ATOM      8  C   UNL     1       8.582  65.812   8.553  1.00  0.00     0.006 C 
BRANCH   8   9
ATOM      9  C   UNL     1       7.349  64.929   8.787  1.00  0.00     0.053 C 
BRANCH   9  10
ATOM     10  C   UNL     1       6.096  65.727   8.620  1.00  0.00     0.041 C 
ATOM     11  O   UNL     1       6.093  66.962   8.868  1.00  0.00    -0.550 OA
ATOM     12  O   UNL     1       4.916  65.099   8.239  1.00  0.00    -0.550 OA
ENDBRANCH   9  10
ENDBRANCH   8   9
ENDBRANCH   7   8
ENDBRANCH   6   7
ENDBRANCH   5   6
ENDBRANCH   4   5
ENDBRANCH   3   4
ENDBRANCH   1   3
BRANCH   2  13
ATOM     13  C   UNL     1      13.712  65.912   6.887  1.00  0.00     0.027 C 
BRANCH  13  14
ATOM     14  C   UNL     1      12.625  66.975   7.143  1.00  0.00     0.004 C 
BRANCH  14  15
ATOM     15  C   UNL     1      11.527  67.015   6.066  1.00  0.00     0.000 C 
BRANCH  15  16
ATOM     16  C   UNL     1      11.328  65.660   5.366  1.00  0.00     0.000 C 
BRANCH  16  17
ATOM     17  C   UNL     1      11.562  65.740   3.849  1.00  0.00    -0.000 C 
BRANCH  17  18
ATOM     18  C   UNL     1      10.253  65.714   3.046  1.00  0.00    -0.000 C 
BRANCH  18  19
ATOM     19  C   UNL     1       9.725  67.134   2.812  1.00  0.00    -0.003 C 
ATOM     20  C   UNL     1       8.318  67.301   3.380  1.00  0.00     0.004 C 
ENDBRANCH  18  19
ENDBRANCH  17  18
ENDBRANCH  16  17
ENDBRANCH  15  16
ENDBRANCH  14  15
ENDBRANCH  13  14
ENDBRANCH   2  13
TORSDOF 15
ENDMDL
MODEL 8
REMARK VINA RESULT:    -3.814      2.812      5.223
REMARK INTER + INTRA:          -9.356
REMARK INTER:                  -6.958
REMARK INTRA:                  -2.398
REMARK UNBOUND:                -2.198
REMARK SMILES CCCCCCCCC=CCCCCCCCC(=O)[O-]
REMARK SMILES IDX 10 1 9 2 11 3 12 4 13 5 14 6 15 7 16 8 17 9 18 10 19 11
REMARK SMILES IDX 20 12 8 13 7 14 6 15 5 16 4 17 3 18 2 19 1 20
REMARK H PARENT
REMARK Flexibility Score: inf
ROOT
ATOM      1  C   UNL     1      12.797  66.014   6.493  1.00  0.00    -0.031 C 
ATOM      2  C   UNL     1      12.045  66.015   5.377  1.00  0.00    -0.031 C 
ENDROOT
BRANCH   1   3
ATOM      3  C   UNL     1      13.909  65.035   6.791  1.00  0.00     0.027 C 
BRANCH   3   4
ATOM      4  C   UNL     1      13.464  63.977   7.809  1.00  0.00     0.004 C 
BRANCH   4   5
ATOM      5  C   UNL     1      12.997  62.680   7.126  1.00  0.00     0.000 C 
BRANCH   5   6
ATOM      6  C   UNL     1      11.675  62.148   7.704  1.00  0.00     0.000 C 
BRANCH   6   7
ATOM      7  C   UNL     1      11.173  62.980   8.897  1.00  0.00     0.000 C 
BRANCH   7   8
ATOM      8  C   UNL     1       9.733  63.481   8.702  1.00  0.00     0.006 C 
BRANCH   8   9
ATOM      9  C   UNL     1       9.667  64.969   8.335  1.00  0.00     0.053 C 
BRANCH   9  10
ATOM     10  C   UNL     1       8.429  65.590   8.897  1.00  0.00     0.041 C 
ATOM     11  O   UNL     1       7.366  64.921   8.982  1.00  0.00    -0.550 OA
ATOM     12  O   UNL     1       8.434  66.926   9.281  1.00  0.00    -0.550 OA
ENDBRANCH   9  10
ENDBRANCH   8   9
ENDBRANCH   7   8
ENDBRANCH   6   7
ENDBRANCH   5   6
ENDBRANCH   4   5
ENDBRANCH   3   4
ENDBRANCH   1   3
BRANCH   2  13
ATOM     13  C   UNL     1      12.162  65.008   4.259  1.00  0.00     0.027 C 
BRANCH  13  14
ATOM     14  C   UNL     1      11.169  65.280   3.111  1.00  0.00     0.004 C 
BRANCH  14  15
ATOM     15  C   UNL     1      11.380  66.637   2.415  1.00  0.00     0.000 C 
BRANCH  15  16
ATOM     16  C   UNL     1      10.093  67.474   2.335  1.00  0.00     0.000 C 
BRANCH  16  17
ATOM     17  C   UNL     1       9.001  66.970   3.291  1.00  0.00    -0.000 C 
BRANCH  17  18
ATOM     18  C   UNL     1       8.370  68.101   4.118  1.00  0.00    -0.000 C 
BRANCH  18  19
ATOM     19  C   UNL     1       8.431  67.785   5.617  1.00  0.00    -0.003 C 
ATOM     20  C   UNL     1       9.529  68.589   6.306  1.00  0.00     0.004 C 
ENDBRANCH  18  19
ENDBRANCH  17  18
ENDBRANCH  16  17
ENDBRANCH  15  16
ENDBRANCH  14  15
ENDBRANCH  13  14
ENDBRANCH   2  13
TORSDOF 15
ENDMDL
MODEL 9
REMARK VINA RESULT:    -3.745      2.090      6.496
REMARK INTER + INTRA:          -9.226
REMARK INTER:                  -7.157
REMARK INTRA:                  -2.069
REMARK UNBOUND:                -2.198
REMARK SMILES CCCCCCCCC=CCCCCCCCC(=O)[O-]
REMARK SMILES IDX 10 1 9 2 11 3 12 4 13 5 14 6 15 7 16 8 17 9 18 10 19 11
REMARK SMILES IDX 20 12 8 13 7 14 6 15 5 16 4 17 3 18 2 19 1 20
REMARK H PARENT
REMARK Flexibility Score: inf
ROOT
ATOM      1  C   UNL     1       9.229  64.445   8.534  1.00  0.00    -0.031 C 
ATOM      2  C   UNL     1       9.751  63.208   8.437  1.00  0.00    -0.031 C 
ENDROOT
BRANCH   1   3
ATOM      3  C   UNL     1      10.003  65.689   8.908  1.00  0.00     0.027 C 
BRANCH   3   4
ATOM      4  C   UNL     1       9.064  66.821   9.341  1.00  0.00     0.004 C 
BRANCH   4   5
ATOM      5  C   UNL     1       7.768  66.845   8.513  1.00  0.00     0.000 C 
BRANCH   5   6
ATOM      6  C   UNL     1       6.504  66.864   9.388  1.00  0.00     0.000 C 
BRANCH   6   7
ATOM      7  C   UNL     1       5.765  65.514   9.389  1.00  0.00     0.000 C 
BRANCH   7   8
ATOM      8  C   UNL     1       5.113  65.199   8.033  1.00  0.00     0.006 C 
BRANCH   8   9
ATOM      9  C   UNL     1       4.318  66.383   7.468  1.00  0.00     0.053 C 
BRANCH   9  10
ATOM     10  C   UNL     1       4.668  66.608   6.032  1.00  0.00     0.041 C 
ATOM     11  O   UNL     1       5.703  67.256   5.725  1.00  0.00    -0.550 OA
ATOM     12  O   UNL     1       3.824  66.145   5.029  1.00  0.00    -0.550 OA
ENDBRANCH   9  10
ENDBRANCH   8   9
ENDBRANCH   7   8
ENDBRANCH   6   7
ENDBRANCH   5   6
ENDBRANCH   4   5
ENDBRANCH   3   4
ENDBRANCH   1   3
BRANCH   2  13
ATOM     13  C   UNL     1      11.189  62.855   8.730  1.00  0.00     0.027 C 
BRANCH  13  14
ATOM     14  C   UNL     1      11.839  62.034   7.599  1.00  0.00     0.004 C 
BRANCH  14  15
ATOM     15  C   UNL     1      12.979  62.769   6.873  1.00  0.00     0.000 C 
BRANCH  15  16
ATOM     16  C   UNL     1      13.353  64.101   7.543  1.00  0.00     0.000 C 
BRANCH  16  17
ATOM     17  C   UNL     1      13.361  65.278   6.554  1.00  0.00    -0.000 C 
BRANCH  17  18
ATOM     18  C   UNL     1      12.432  65.047   5.352  1.00  0.00    -0.000 C 
BRANCH  18  19
ATOM     19  C   UNL     1      11.105  65.793   5.532  1.00  0.00    -0.003 C 
ATOM     20  C   UNL     1      10.578  66.313   4.198  1.00  0.00     0.004 C 
ENDBRANCH  18  19
ENDBRANCH  17  18
ENDBRANCH  16  17
ENDBRANCH  15  16
ENDBRANCH  14  15
ENDBRANCH  13  14
ENDBRANCH   2  13
TORSDOF 15
ENDMDL
