MODEL 1
REMARK VINA RESULT:    -4.409      0.000      0.000
REMARK INTER + INTRA:          -8.900
REMARK INTER:                  -7.501
REMARK INTRA:                  -1.399
REMARK UNBOUND:                -1.399
REMARK SMILES CCCCCCCCCCCCCC(=O)[O-]
REMARK SMILES IDX 8 1 9 2 10 3 11 4 12 5 13 6 14 7 15 8 16 9 7 10 6 11 5 12
REMARK SMILES IDX 4 13 3 14 2 15 1 16
REMARK H PARENT
REMARK Flexibility Score: inf
ROOT
ATOM      1  C   UNL     1     -49.944  14.243 -30.365  1.00  0.00     0.000 C 
ENDROOT
BRANCH   1   2
ATOM      2  C   UNL     1     -50.468  13.970 -28.950  1.00  0.00     0.000 C 
BRANCH   2   3
ATOM      3  C   UNL     1     -51.495  12.831 -28.953  1.00  0.00     0.000 C 
BRANCH   3   4
ATOM      4  C   UNL     1     -51.648  12.234 -30.361  1.00  0.00     0.000 C 
BRANCH   4   5
ATOM      5  C   UNL     1     -51.367  10.724 -30.395  1.00  0.00     0.006 C 
BRANCH   5   6
ATOM      6  C   UNL     1     -49.958  10.395 -30.906  1.00  0.00     0.053 C 
BRANCH   6   7
ATOM      7  C   UNL     1     -49.085   9.950 -29.776  1.00  0.00     0.041 C 
ATOM      8  O   UNL     1     -48.739   8.743 -29.680  1.00  0.00    -0.550 OA
ATOM      9  O   UNL     1     -48.610  10.876 -28.857  1.00  0.00    -0.550 OA
ENDBRANCH   6   7
ENDBRANCH   5   6
ENDBRANCH   4   5
ENDBRANCH   3   4
ENDBRANCH   2   3
ENDBRANCH   1   2
BRANCH   1  10
ATOM     10  C   UNL     1     -50.260  15.682 -30.800  1.00  0.00     0.000 C 
BRANCH  10  11
ATOM     11  C   UNL     1     -51.643  15.813 -31.458  1.00  0.00    -0.000 C 
BRANCH  11  12
ATOM     12  C   UNL     1     -52.271  17.201 -31.245  1.00  0.00    -0.000 C 
BRANCH  12  13
ATOM     13  C   UNL     1     -51.819  17.859 -29.932  1.00  0.00    -0.000 C 
BRANCH  13  14
ATOM     14  C   UNL     1     -53.000  18.300 -29.050  1.00  0.00    -0.000 C 
BRANCH  14  15
ATOM     15  C   UNL     1     -52.879  17.792 -27.605  1.00  0.00    -0.003 C 
ATOM     16  C   UNL     1     -52.861  16.266 -27.517  1.00  0.00     0.004 C 
ENDBRANCH  14  15
ENDBRANCH  13  14
ENDBRANCH  12  13
ENDBRANCH  11  12
ENDBRANCH  10  11
ENDBRANCH   1  10
TORSDOF 12
ENDMDL
MODEL 2
REMARK VINA RESULT:    -4.404      3.734      6.283
REMARK INTER + INTRA:          -8.892
REMARK INTER:                  -6.694
REMARK INTRA:                  -2.197
REMARK UNBOUND:                -1.399
REMARK SMILES CCCCCCCCCCCCCC(=O)[O-]
REMARK SMILES IDX 8 1 9 2 10 3 11 4 12 5 13 6 14 7 15 8 16 9 7 10 6 11 5 12
REMARK SMILES IDX 4 13 3 14 2 15 1 16
REMARK H PARENT
REMARK Flexibility Score: inf
ROOT
ATOM      1  C   UNL     1     -50.670  13.927 -28.983  1.00  0.00     0.000 C 
ENDROOT
BRANCH   1   2
ATOM      2  C   UNL     1     -50.109  14.292 -30.363  1.00  0.00     0.000 C 
BRANCH   2   3
ATOM      3  C   UNL     1     -50.358  15.770 -30.686  1.00  0.00     0.000 C 
BRANCH   3   4
ATOM      4  C   UNL     1     -51.296  15.918 -31.895  1.00  0.00     0.000 C 
BRANCH   4   5
ATOM      5  C   UNL     1     -52.338  17.029 -31.702  1.00  0.00     0.006 C 
BRANCH   5   6
ATOM      6  C   UNL     1     -51.966  18.002 -30.576  1.00  0.00     0.053 C 
BRANCH   6   7
ATOM      7  C   UNL     1     -53.197  18.499 -29.886  1.00  0.00     0.041 C 
ATOM      8  O   UNL     1     -53.559  17.991 -28.792  1.00  0.00    -0.550 OA
ATOM      9  O   UNL     1     -53.917  19.557 -30.425  1.00  0.00    -0.550 OA
ENDBRANCH   6   7
ENDBRANCH   5   6
ENDBRANCH   4   5
ENDBRANCH   3   4
ENDBRANCH   2   3
ENDBRANCH   1   2
BRANCH   1  10
ATOM     10  C   UNL     1     -51.700  14.967 -28.515  1.00  0.00     0.000 C 
BRANCH  10  11
ATOM     11  C   UNL     1     -53.115  14.384 -28.384  1.00  0.00    -0.000 C 
BRANCH  11  12
ATOM     12  C   UNL     1     -53.918  14.480 -29.693  1.00  0.00    -0.000 C 
BRANCH  12  13
ATOM     13  C   UNL     1     -54.104  13.115 -30.373  1.00  0.00    -0.000 C 
BRANCH  13  14
ATOM     14  C   UNL     1     -53.269  12.972 -31.658  1.00  0.00    -0.000 C 
BRANCH  14  15
ATOM     15  C   UNL     1     -52.334  11.753 -31.620  1.00  0.00    -0.003 C 
ATOM     16  C   UNL     1     -52.601  10.842 -30.422  1.00  0.00     0.004 C 
ENDBRANCH  14  15
ENDBRANCH  13  14
ENDBRANCH  12  13
ENDBRANCH  11  12
ENDBRANCH  10  11
ENDBRANCH   1  10
TORSDOF 12
ENDMDL
MODEL 3
REMARK VINA RESULT:    -4.372      1.468      3.296
REMARK INTER + INTRA:          -8.838
REMARK INTER:                  -6.965
REMARK INTRA:                  -1.873
REMARK UNBOUND:                -1.399
REMARK SMILES CCCCCCCCCCCCCC(=O)[O-]
REMARK SMILES IDX 8 1 9 2 10 3 11 4 12 5 13 6 14 7 15 8 16 9 7 10 6 11 5 12
REMARK SMILES IDX 4 13 3 14 2 15 1 16
REMARK H PARENT
REMARK Flexibility Score: inf
ROOT
ATOM      1  C   UNL     1     -52.628  16.379 -27.498  1.00  0.00     0.000 C 
ENDROOT
BRANCH   1   2
ATOM      2  C   UNL     1     -53.826  15.647 -28.115  1.00  0.00     0.000 C 
BRANCH   2   3
ATOM      3  C   UNL     1     -53.567  14.137 -28.195  1.00  0.00     0.000 C 
BRANCH   3   4
ATOM      4  C   UNL     1     -53.346  13.695 -29.650  1.00  0.00     0.000 C 
BRANCH   4   5
ATOM      5  C   UNL     1     -52.225  12.654 -29.788  1.00  0.00     0.006 C 
BRANCH   5   6
ATOM      6  C   UNL     1     -51.013  12.969 -28.901  1.00  0.00     0.053 C 
BRANCH   6   7
ATOM      7  C   UNL     1     -49.915  11.983 -29.148  1.00  0.00     0.041 C 
ATOM      8  O   UNL     1     -49.155  11.632 -28.207  1.00  0.00    -0.550 OA
ATOM      9  O   UNL     1     -49.762  11.412 -30.405  1.00  0.00    -0.550 OA
ENDBRANCH   6   7
ENDBRANCH   5   6
ENDBRANCH   4   5
ENDBRANCH   3   4
ENDBRANCH   2   3
ENDBRANCH   1   2
BRANCH   1  10
ATOM     10  C   UNL     1     -52.585  17.846 -27.954  1.00  0.00     0.000 C 
BRANCH  10  11
ATOM     11  C   UNL     1     -53.864  18.276 -28.689  1.00  0.00    -0.000 C 
BRANCH  11  12
ATOM     12  C   UNL     1     -53.577  18.865 -30.081  1.00  0.00    -0.000 C 
BRANCH  12  13
ATOM     13  C   UNL     1     -52.369  18.205 -30.764  1.00  0.00    -0.000 C 
BRANCH  13  14
ATOM     14  C   UNL     1     -52.734  16.892 -31.480  1.00  0.00    -0.000 C 
BRANCH  14  15
ATOM     15  C   UNL     1     -51.497  16.056 -31.842  1.00  0.00    -0.003 C 
ATOM     16  C   UNL     1     -50.484  15.977 -30.701  1.00  0.00     0.004 C 
ENDBRANCH  14  15
ENDBRANCH  13  14
ENDBRANCH  12  13
ENDBRANCH  11  12
ENDBRANCH  10  11
ENDBRANCH   1  10
TORSDOF 12
ENDMDL
MODEL 4
REMARK VINA RESULT:    -4.367      1.853      2.464
REMARK INTER + INTRA:          -8.829
REMARK INTER:                  -7.413
REMARK INTRA:                  -1.416
REMARK UNBOUND:                -1.399
REMARK SMILES CCCCCCCCCCCCCC(=O)[O-]
REMARK SMILES IDX 8 1 9 2 10 3 11 4 12 5 13 6 14 7 15 8 16 9 7 10 6 11 5 12
REMARK SMILES IDX 4 13 3 14 2 15 1 16
REMARK H PARENT
REMARK Flexibility Score: inf
ROOT
ATOM      1  C   UNL     1     -50.362  15.743 -30.698  1.00  0.00     0.000 C 
ENDROOT
BRANCH   1   2
ATOM      2  C   UNL     1     -50.156  14.236 -30.505  1.00  0.00     0.000 C 
BRANCH   2   3
ATOM      3  C   UNL     1     -50.215  13.858 -29.019  1.00  0.00     0.000 C 
BRANCH   3   4
ATOM      4  C   UNL     1     -50.279  12.332 -28.843  1.00  0.00     0.000 C 
BRANCH   4   5
ATOM      5  C   UNL     1     -49.885  11.573 -30.119  1.00  0.00     0.006 C 
BRANCH   5   6
ATOM      6  C   UNL     1     -50.908  10.497 -30.507  1.00  0.00     0.053 C 
BRANCH   6   7
ATOM      7  C   UNL     1     -51.698  10.933 -31.700  1.00  0.00     0.041 C 
ATOM      8  O   UNL     1     -52.538  11.866 -31.597  1.00  0.00    -0.550 OA
ATOM      9  O   UNL     1     -51.472  10.345 -32.937  1.00  0.00    -0.550 OA
ENDBRANCH   6   7
ENDBRANCH   5   6
ENDBRANCH   4   5
ENDBRANCH   3   4
ENDBRANCH   2   3
ENDBRANCH   1   2
BRANCH   1  10
ATOM     10  C   UNL     1     -51.567  16.021 -31.610  1.00  0.00     0.000 C 
BRANCH  10  11
ATOM     11  C   UNL     1     -52.304  17.318 -31.241  1.00  0.00    -0.000 C 
BRANCH  11  12
ATOM     12  C   UNL     1     -51.865  17.882 -29.879  1.00  0.00    -0.000 C 
BRANCH  12  13
ATOM     13  C   UNL     1     -53.050  18.378 -29.037  1.00  0.00    -0.000 C 
BRANCH  13  14
ATOM     14  C   UNL     1     -53.071  17.770 -27.623  1.00  0.00    -0.000 C 
BRANCH  14  15
ATOM     15  C   UNL     1     -52.554  16.323 -27.596  1.00  0.00    -0.003 C 
ATOM     16  C   UNL     1     -53.620  15.308 -28.007  1.00  0.00     0.004 C 
ENDBRANCH  14  15
ENDBRANCH  13  14
ENDBRANCH  12  13
ENDBRANCH  11  12
ENDBRANCH  10  11
ENDBRANCH   1  10
TORSDOF 12
ENDMDL
MODEL 5
REMARK VINA RESULT:    -4.346      0.950      2.880
REMARK INTER + INTRA:          -8.794
REMARK INTER:                  -7.292
REMARK INTRA:                  -1.502
REMARK UNBOUND:                -1.399
REMARK SMILES CCCCCCCCCCCCCC(=O)[O-]
REMARK SMILES IDX 8 1 9 2 10 3 11 4 12 5 13 6 14 7 15 8 16 9 7 10 6 11 5 12
REMARK SMILES IDX 4 13 3 14 2 15 1 16
REMARK H PARENT
REMARK Flexibility Score: inf
ROOT
ATOM      1  C   UNL     1     -53.465  15.318 -28.142  1.00  0.00     0.000 C 
ENDROOT
BRANCH   1   2
ATOM      2  C   UNL     1     -52.506  14.222 -28.623  1.00  0.00     0.000 C 
BRANCH   2   3
ATOM      3  C   UNL     1     -51.078  14.763 -28.768  1.00  0.00     0.000 C 
BRANCH   3   4
ATOM      4  C   UNL     1     -50.138  13.688 -29.337  1.00  0.00     0.000 C 
BRANCH   4   5
ATOM      5  C   UNL     1     -50.798  12.303 -29.404  1.00  0.00     0.006 C 
BRANCH   5   6
ATOM      6  C   UNL     1     -50.062  11.341 -30.346  1.00  0.00     0.053 C 
BRANCH   6   7
ATOM      7  C   UNL     1     -49.234  10.373 -29.563  1.00  0.00     0.041 C 
ATOM      8  O   UNL     1     -49.418   9.134 -29.689  1.00  0.00    -0.550 OA
ATOM      9  O   UNL     1     -48.224  10.837 -28.730  1.00  0.00    -0.550 OA
ENDBRANCH   6   7
ENDBRANCH   5   6
ENDBRANCH   4   5
ENDBRANCH   3   4
ENDBRANCH   2   3
ENDBRANCH   1   2
BRANCH   1  10
ATOM     10  C   UNL     1     -52.726  16.355 -27.281  1.00  0.00     0.000 C 
BRANCH  10  11
ATOM     11  C   UNL     1     -53.237  17.786 -27.507  1.00  0.00    -0.000 C 
BRANCH  11  12
ATOM     12  C   UNL     1     -54.091  17.916 -28.779  1.00  0.00    -0.000 C 
BRANCH  12  13
ATOM     13  C   UNL     1     -53.414  18.773 -29.860  1.00  0.00    -0.000 C 
BRANCH  13  14
ATOM     14  C   UNL     1     -52.247  18.045 -30.551  1.00  0.00    -0.000 C 
BRANCH  14  15
ATOM     15  C   UNL     1     -52.722  16.901 -31.460  1.00  0.00    -0.003 C 
ATOM     16  C   UNL     1     -51.569  16.040 -31.975  1.00  0.00     0.004 C 
ENDBRANCH  14  15
ENDBRANCH  13  14
ENDBRANCH  12  13
ENDBRANCH  11  12
ENDBRANCH  10  11
ENDBRANCH   1  10
TORSDOF 12
ENDMDL
MODEL 6
REMARK VINA RESULT:    -4.330      1.373      2.456
REMARK INTER + INTRA:          -8.766
REMARK INTER:                  -7.701
REMARK INTRA:                  -1.065
REMARK UNBOUND:                -1.399
REMARK SMILES CCCCCCCCCCCCCC(=O)[O-]
REMARK SMILES IDX 8 1 9 2 10 3 11 4 12 5 13 6 14 7 15 8 16 9 7 10 6 11 5 12
REMARK SMILES IDX 4 13 3 14 2 15 1 16
REMARK H PARENT
REMARK Flexibility Score: inf
ROOT
ATOM      1  C   UNL     1     -50.599  14.416 -30.123  1.00  0.00     0.000 C 
ENDROOT
BRANCH   1   2
ATOM      2  C   UNL     1     -49.278  13.646 -29.999  1.00  0.00     0.000 C 
BRANCH   2   3
ATOM      3  C   UNL     1     -49.523  12.202 -29.542  1.00  0.00     0.000 C 
BRANCH   3   4
ATOM      4  C   UNL     1     -50.290  11.411 -30.612  1.00  0.00     0.000 C 
BRANCH   4   5
ATOM      5  C   UNL     1     -49.733   9.993 -30.811  1.00  0.00     0.006 C 
BRANCH   5   6
ATOM      6  C   UNL     1     -48.912   9.506 -29.610  1.00  0.00     0.053 C 
BRANCH   6   7
ATOM      7  C   UNL     1     -47.590   8.973 -30.064  1.00  0.00     0.041 C 
ATOM      8  O   UNL     1     -46.521   9.431 -29.579  1.00  0.00    -0.550 OA
ATOM      9  O   UNL     1     -47.537   7.935 -30.985  1.00  0.00    -0.550 OA
ENDBRANCH   6   7
ENDBRANCH   5   6
ENDBRANCH   4   5
ENDBRANCH   3   4
ENDBRANCH   2   3
ENDBRANCH   1   2
BRANCH   1  10
ATOM     10  C   UNL     1     -51.297  14.532 -28.759  1.00  0.00     0.000 C 
BRANCH  10  11
ATOM     11  C   UNL     1     -52.820  14.347 -28.854  1.00  0.00    -0.000 C 
BRANCH  11  12
ATOM     12  C   UNL     1     -53.596  15.403 -28.051  1.00  0.00    -0.000 C 
BRANCH  12  13
ATOM     13  C   UNL     1     -52.670  16.379 -27.309  1.00  0.00    -0.000 C 
BRANCH  13  14
ATOM     14  C   UNL     1     -52.996  17.853 -27.609  1.00  0.00    -0.000 C 
BRANCH  14  15
ATOM     15  C   UNL     1     -53.095  18.139 -29.115  1.00  0.00    -0.003 C 
ATOM     16  C   UNL     1     -51.749  18.015 -29.829  1.00  0.00     0.004 C 
ENDBRANCH  14  15
ENDBRANCH  13  14
ENDBRANCH  12  13
ENDBRANCH  11  12
ENDBRANCH  10  11
ENDBRANCH   1  10
TORSDOF 12
ENDMDL
MODEL 7
REMARK VINA RESULT:    -4.297     14.828     16.579
REMARK INTER + INTRA:          -8.711
REMARK INTER:                  -6.897
REMARK INTRA:                  -1.813
REMARK UNBOUND:                -1.399
REMARK SMILES CCCCCCCCCCCCCC(=O)[O-]
REMARK SMILES IDX 8 1 9 2 10 3 11 4 12 5 13 6 14 7 15 8 16 9 7 10 6 11 5 12
REMARK SMILES IDX 4 13 3 14 2 15 1 16
REMARK H PARENT
REMARK Flexibility Score: inf
ROOT
ATOM      1  C   UNL     1     -39.213  21.104 -29.425  1.00  0.00     0.000 C 
ENDROOT
BRANCH   1   2
ATOM      2  C   UNL     1     -38.509  22.145 -28.546  1.00  0.00     0.000 C 
BRANCH   2   3
ATOM      3  C   UNL     1     -37.121  22.486 -29.101  1.00  0.00     0.000 C 
BRANCH   3   4
ATOM      4  C   UNL     1     -36.866  21.756 -30.430  1.00  0.00     0.000 C 
BRANCH   4   5
ATOM      5  C   UNL     1     -35.495  22.092 -31.035  1.00  0.00     0.006 C 
BRANCH   5   6
ATOM      6  C   UNL     1     -35.223  21.334 -32.341  1.00  0.00     0.053 C 
BRANCH   6   7
ATOM      7  C   UNL     1     -35.413  22.238 -33.518  1.00  0.00     0.041 C 
ATOM      8  O   UNL     1     -36.216  21.924 -34.435  1.00  0.00    -0.550 OA
ATOM      9  O   UNL     1     -34.740  23.451 -33.579  1.00  0.00    -0.550 OA
ENDBRANCH   6   7
ENDBRANCH   5   6
ENDBRANCH   4   5
ENDBRANCH   3   4
ENDBRANCH   2   3
ENDBRANCH   1   2
BRANCH   1  10
ATOM     10  C   UNL     1     -39.475  19.809 -28.640  1.00  0.00     0.000 C 
BRANCH  10  11
ATOM     11  C   UNL     1     -39.544  18.569 -29.545  1.00  0.00    -0.000 C 
BRANCH  11  12
ATOM     12  C   UNL     1     -38.241  18.336 -30.330  1.00  0.00    -0.000 C 
BRANCH  12  13
ATOM     13  C   UNL     1     -37.207  17.528 -29.532  1.00  0.00    -0.000 C 
BRANCH  13  14
ATOM     14  C   UNL     1     -35.757  17.902 -29.887  1.00  0.00    -0.000 C 
BRANCH  14  15
ATOM     15  C   UNL     1     -35.140  18.887 -28.883  1.00  0.00    -0.003 C 
ATOM     16  C   UNL     1     -35.953  19.002 -27.593  1.00  0.00     0.004 C 
ENDBRANCH  14  15
ENDBRANCH  13  14
ENDBRANCH  12  13
ENDBRANCH  11  12
ENDBRANCH  10  11
ENDBRANCH   1  10
TORSDOF 12
ENDMDL
MODEL 8
REMARK VINA RESULT:    -4.223      1.846      3.088
REMARK INTER + INTRA:          -8.585
REMARK INTER:                  -7.046
REMARK INTRA:                  -1.538
REMARK UNBOUND:                -1.399
REMARK SMILES CCCCCCCCCCCCCC(=O)[O-]
REMARK SMILES IDX 8 1 9 2 10 3 11 4 12 5 13 6 14 7 15 8 16 9 7 10 6 11 5 12
REMARK SMILES IDX 4 13 3 14 2 15 1 16
REMARK H PARENT
REMARK Flexibility Score: inf
ROOT
ATOM      1  C   UNL     1     -51.432  14.652 -28.865  1.00  0.00     0.000 C 
ENDROOT
BRANCH   1   2
ATOM      2  C   UNL     1     -50.741  14.735 -30.232  1.00  0.00     0.000 C 
BRANCH   2   3
ATOM      3  C   UNL     1     -49.558  13.762 -30.311  1.00  0.00     0.000 C 
BRANCH   3   4
ATOM      4  C   UNL     1     -49.581  12.773 -29.136  1.00  0.00     0.000 C 
BRANCH   4   5
ATOM      5  C   UNL     1     -49.788  11.320 -29.590  1.00  0.00     0.006 C 
BRANCH   5   6
ATOM      6  C   UNL     1     -50.397  11.220 -30.995  1.00  0.00     0.053 C 
BRANCH   6   7
ATOM      7  C   UNL     1     -51.823  10.777 -30.915  1.00  0.00     0.041 C 
ATOM      8  O   UNL     1     -52.548  11.142 -29.953  1.00  0.00    -0.550 OA
ATOM      9  O   UNL     1     -52.368  10.001 -31.930  1.00  0.00    -0.550 OA
ENDBRANCH   6   7
ENDBRANCH   5   6
ENDBRANCH   4   5
ENDBRANCH   3   4
ENDBRANCH   2   3
ENDBRANCH   1   2
BRANCH   1  10
ATOM     10  C   UNL     1     -52.954  14.511 -29.026  1.00  0.00     0.000 C 
BRANCH  10  11
ATOM     11  C   UNL     1     -53.739  15.396 -28.046  1.00  0.00    -0.000 C 
BRANCH  11  12
ATOM     12  C   UNL     1     -52.832  16.354 -27.255  1.00  0.00    -0.000 C 
BRANCH  12  13
ATOM     13  C   UNL     1     -53.298  17.815 -27.342  1.00  0.00    -0.000 C 
BRANCH  13  14
ATOM     14  C   UNL     1     -53.474  18.298 -28.793  1.00  0.00    -0.000 C 
BRANCH  14  15
ATOM     15  C   UNL     1     -52.165  18.246 -29.594  1.00  0.00    -0.003 C 
ATOM     16  C   UNL     1     -52.393  17.965 -31.079  1.00  0.00     0.004 C 
ENDBRANCH  14  15
ENDBRANCH  13  14
ENDBRANCH  12  13
ENDBRANCH  11  12
ENDBRANCH  10  11
ENDBRANCH   1  10
TORSDOF 12
ENDMDL
MODEL 9
REMARK VINA RESULT:    -4.220     13.854     15.064
REMARK INTER + INTRA:          -8.579
REMARK INTER:                  -7.173
REMARK INTRA:                  -1.406
REMARK UNBOUND:                -1.399
REMARK SMILES CCCCCCCCCCCCCC(=O)[O-]
REMARK SMILES IDX 8 1 9 2 10 3 11 4 12 5 13 6 14 7 15 8 16 9 7 10 6 11 5 12
REMARK SMILES IDX 4 13 3 14 2 15 1 16
REMARK H PARENT
REMARK Flexibility Score: inf
ROOT
ATOM      1  C   UNL     1     -34.880  21.120 -29.748  1.00  0.00     0.000 C 
ENDROOT
BRANCH   1   2
ATOM      2  C   UNL     1     -34.957  20.681 -28.280  1.00  0.00     0.000 C 
BRANCH   2   3
ATOM      3  C   UNL     1     -35.361  19.206 -28.166  1.00  0.00     0.000 C 
BRANCH   3   4
ATOM      4  C   UNL     1     -34.607  18.349 -29.196  1.00  0.00     0.000 C 
BRANCH   4   5
ATOM      5  C   UNL     1     -35.550  17.499 -30.061  1.00  0.00     0.006 C 
BRANCH   5   6
ATOM      6  C   UNL     1     -37.012  17.955 -29.968  1.00  0.00     0.053 C 
BRANCH   6   7
ATOM      7  C   UNL     1     -37.934  16.830 -30.318  1.00  0.00     0.041 C 
ATOM      8  O   UNL     1     -37.692  15.663 -29.912  1.00  0.00    -0.550 OA
ATOM      9  O   UNL     1     -39.087  17.078 -31.050  1.00  0.00    -0.550 OA
ENDBRANCH   6   7
ENDBRANCH   5   6
ENDBRANCH   4   5
ENDBRANCH   3   4
ENDBRANCH   2   3
ENDBRANCH   1   2
BRANCH   1  10
ATOM     10  C   UNL     1     -36.004  22.111 -30.085  1.00  0.00     0.000 C 
BRANCH  10  11
ATOM     11  C   UNL     1     -36.624  22.754 -28.834  1.00  0.00    -0.000 C 
BRANCH  11  12
ATOM     12  C   UNL     1     -38.068  22.289 -28.584  1.00  0.00    -0.000 C 
BRANCH  12  13
ATOM     13  C   UNL     1     -38.537  21.243 -29.607  1.00  0.00    -0.000 C 
BRANCH  13  14
ATOM     14  C   UNL     1     -39.925  20.666 -29.274  1.00  0.00    -0.000 C 
BRANCH  14  15
ATOM     15  C   UNL     1     -39.847  19.424 -28.373  1.00  0.00    -0.003 C 
ATOM     16  C   UNL     1     -41.209  19.011 -27.817  1.00  0.00     0.004 C 
ENDBRANCH  14  15
ENDBRANCH  13  14
ENDBRANCH  12  13
ENDBRANCH  11  12
ENDBRANCH  10  11
ENDBRANCH   1  10
TORSDOF 12
ENDMDL
