MODEL 1
REMARK VINA RESULT:    -5.726      0.000      0.000
REMARK INTER + INTRA:         -17.949
REMARK INTER:                 -15.098
REMARK INTRA:                  -2.851
REMARK UNBOUND:                -2.851
REMARK SMILES CCCCCCCCCCCCCCCCCCCCCCCCCCCCCC(=O)[O-]
REMARK SMILES IDX 16 1 17 2 18 3 19 4 20 5 21 6 22 7 23 8 24 9 25 10 26 11
REMARK SMILES IDX 27 12 28 13 29 14 30 15 31 16 32 17 15 18 14 19 13 20 12 21
REMARK SMILES IDX 11 22 10 23 9 24 8 25 7 26 6 27 5 28 4 29 3 30 2 31 1 32
REMARK H PARENT
REMARK Flexibility Score: inf
ROOT
ATOM      1  C   UNL     1      42.886   6.934 128.627  1.00  0.00     0.000 C 
ENDROOT
BRANCH   1   2
ATOM      2  C   UNL     1      42.455   5.958 127.519  1.00  0.00     0.000 C 
BRANCH   2   3
ATOM      3  C   UNL     1      43.636   5.234 126.839  1.00  0.00     0.000 C 
BRANCH   3   4
ATOM      4  C   UNL     1      44.317   6.106 125.768  1.00  0.00     0.000 C 
BRANCH   4   5
ATOM      5  C   UNL     1      45.803   6.354 126.073  1.00  0.00     0.000 C 
BRANCH   5   6
ATOM      6  C   UNL     1      46.245   7.780 125.706  1.00  0.00     0.000 C 
BRANCH   6   7
ATOM      7  C   UNL     1      46.243   8.036 124.188  1.00  0.00     0.000 C 
BRANCH   7   8
ATOM      8  C   UNL     1      47.621   8.377 123.590  1.00  0.00     0.000 C 
BRANCH   8   9
ATOM      9  C   UNL     1      47.766   9.866 123.228  1.00  0.00     0.000 C 
BRANCH   9  10
ATOM     10  C   UNL     1      47.438  10.799 124.404  1.00  0.00     0.000 C 
BRANCH  10  11
ATOM     11  C   UNL     1      46.519  11.963 123.997  1.00  0.00     0.000 C 
BRANCH  11  12
ATOM     12  C   UNL     1      45.025  11.604 124.084  1.00  0.00     0.000 C 
BRANCH  12  13
ATOM     13  C   UNL     1      44.289  11.541 122.729  1.00  0.00     0.006 C 
BRANCH  13  14
ATOM     14  C   UNL     1      44.742  12.595 121.708  1.00  0.00     0.053 C 
BRANCH  14  15
ATOM     15  C   UNL     1      45.391  11.976 120.509  1.00  0.00     0.041 C 
ATOM     16  O   UNL     1      46.640  11.822 120.474  1.00  0.00    -0.550 OA
ATOM     17  O   UNL     1      44.618  11.581 119.424  1.00  0.00    -0.550 OA
ENDBRANCH  14  15
ENDBRANCH  13  14
ENDBRANCH  12  13
ENDBRANCH  11  12
ENDBRANCH  10  11
ENDBRANCH   9  10
ENDBRANCH   8   9
ENDBRANCH   7   8
ENDBRANCH   6   7
ENDBRANCH   5   6
ENDBRANCH   4   5
ENDBRANCH   3   4
ENDBRANCH   2   3
ENDBRANCH   1   2
BRANCH   1  18
ATOM     18  C   UNL     1      44.126   6.457 129.394  1.00  0.00     0.000 C 
BRANCH  18  19
ATOM     19  C   UNL     1      45.239   7.513 129.350  1.00  0.00     0.000 C 
BRANCH  19  20
ATOM     20  C   UNL     1      46.645   6.893 129.361  1.00  0.00     0.000 C 
BRANCH  20  21
ATOM     21  C   UNL     1      46.606   5.358 129.481  1.00  0.00     0.000 C 
BRANCH  21  22
ATOM     22  C   UNL     1      47.763   4.796 130.325  1.00  0.00     0.000 C 
BRANCH  22  23
ATOM     23  C   UNL     1      47.333   4.033 131.592  1.00  0.00     0.000 C 
BRANCH  23  24
ATOM     24  C   UNL     1      45.838   4.204 131.945  1.00  0.00    -0.000 C 
BRANCH  24  25
ATOM     25  C   UNL     1      45.549   4.069 133.451  1.00  0.00    -0.000 C 
BRANCH  25  26
ATOM     26  C   UNL     1      46.325   2.907 134.091  1.00  0.00    -0.000 C 
BRANCH  26  27
ATOM     27  C   UNL     1      45.822   2.628 135.515  1.00  0.00    -0.000 C 
BRANCH  27  28
ATOM     28  C   UNL     1      44.665   1.613 135.555  1.00  0.00    -0.000 C 
BRANCH  28  29
ATOM     29  C   UNL     1      44.048   1.275 134.186  1.00  0.00    -0.000 C 
BRANCH  29  30
ATOM     30  C   UNL     1      42.696   0.556 134.300  1.00  0.00    -0.000 C 
BRANCH  30  31
ATOM     31  C   UNL     1      42.214   0.073 132.927  1.00  0.00    -0.003 C 
ATOM     32  C   UNL     1      43.204   0.457 131.830  1.00  0.00     0.004 C 
ENDBRANCH  30  31
ENDBRANCH  29  30
ENDBRANCH  28  29
ENDBRANCH  27  28
ENDBRANCH  26  27
ENDBRANCH  25  26
ENDBRANCH  24  25
ENDBRANCH  23  24
ENDBRANCH  22  23
ENDBRANCH  21  22
ENDBRANCH  20  21
ENDBRANCH  19  20
ENDBRANCH  18  19
ENDBRANCH   1  18
TORSDOF 28
ENDMDL
MODEL 2
REMARK VINA RESULT:    -5.631      4.170     12.012
REMARK INTER + INTRA:         -17.699
REMARK INTER:                 -14.418
REMARK INTRA:                  -3.282
REMARK UNBOUND:                -2.851
REMARK SMILES CCCCCCCCCCCCCCCCCCCCCCCCCCCCCC(=O)[O-]
REMARK SMILES IDX 16 1 17 2 18 3 19 4 20 5 21 6 22 7 23 8 24 9 25 10 26 11
REMARK SMILES IDX 27 12 28 13 29 14 30 15 31 16 32 17 15 18 14 19 13 20 12 21
REMARK SMILES IDX 11 22 10 23 9 24 8 25 7 26 6 27 5 28 4 29 3 30 2 31 1 32
REMARK H PARENT
REMARK Flexibility Score: inf
ROOT
ATOM      1  C   UNL     1      44.041   6.447 129.367  1.00  0.00     0.000 C 
ENDROOT
BRANCH   1   2
ATOM      2  C   UNL     1      45.170   7.492 129.368  1.00  0.00     0.000 C 
BRANCH   2   3
ATOM      3  C   UNL     1      46.583   6.875 129.386  1.00  0.00     0.000 C 
BRANCH   3   4
ATOM      4  C   UNL     1      46.554   5.355 129.627  1.00  0.00     0.000 C 
BRANCH   4   5
ATOM      5  C   UNL     1      47.721   4.879 130.508  1.00  0.00     0.000 C 
BRANCH   5   6
ATOM      6  C   UNL     1      47.243   4.066 131.722  1.00  0.00     0.000 C 
BRANCH   6   7
ATOM      7  C   UNL     1      45.734   3.764 131.685  1.00  0.00     0.000 C 
BRANCH   7   8
ATOM      8  C   UNL     1      44.992   4.026 133.009  1.00  0.00     0.000 C 
BRANCH   8   9
ATOM      9  C   UNL     1      45.925   4.015 134.234  1.00  0.00     0.000 C 
BRANCH   9  10
ATOM     10  C   UNL     1      46.073   2.618 134.854  1.00  0.00     0.000 C 
BRANCH  10  11
ATOM     11  C   UNL     1      44.811   2.170 135.611  1.00  0.00     0.000 C 
BRANCH  11  12
ATOM     12  C   UNL     1      44.573   0.651 135.530  1.00  0.00     0.000 C 
BRANCH  12  13
ATOM     13  C   UNL     1      43.278   0.232 134.805  1.00  0.00     0.006 C 
BRANCH  13  14
ATOM     14  C   UNL     1      42.945   1.067 133.559  1.00  0.00     0.053 C 
BRANCH  14  15
ATOM     15  C   UNL     1      43.531   0.477 132.314  1.00  0.00     0.041 C 
ATOM     16  O   UNL     1      42.784   0.157 131.353  1.00  0.00    -0.550 OA
ATOM     17  O   UNL     1      44.902   0.267 132.221  1.00  0.00    -0.550 OA
ENDBRANCH  14  15
ENDBRANCH  13  14
ENDBRANCH  12  13
ENDBRANCH  11  12
ENDBRANCH  10  11
ENDBRANCH   9  10
ENDBRANCH   8   9
ENDBRANCH   7   8
ENDBRANCH   6   7
ENDBRANCH   5   6
ENDBRANCH   4   5
ENDBRANCH   3   4
ENDBRANCH   2   3
ENDBRANCH   1   2
BRANCH   1  18
ATOM     18  C   UNL     1      42.788   6.923 128.619  1.00  0.00     0.000 C 
BRANCH  18  19
ATOM     19  C   UNL     1      42.469   5.995 127.439  1.00  0.00     0.000 C 
BRANCH  19  20
ATOM     20  C   UNL     1      43.713   5.264 126.908  1.00  0.00     0.000 C 
BRANCH  20  21
ATOM     21  C   UNL     1      44.389   6.025 125.752  1.00  0.00     0.000 C 
BRANCH  21  22
ATOM     22  C   UNL     1      45.872   6.329 126.025  1.00  0.00     0.000 C 
BRANCH  22  23
ATOM     23  C   UNL     1      46.282   7.800 125.822  1.00  0.00     0.000 C 
BRANCH  23  24
ATOM     24  C   UNL     1      46.472   8.195 124.340  1.00  0.00    -0.000 C 
BRANCH  24  25
ATOM     25  C   UNL     1      47.569   9.253 124.127  1.00  0.00    -0.000 C 
BRANCH  25  26
ATOM     26  C   UNL     1      47.096  10.409 123.232  1.00  0.00    -0.000 C 
BRANCH  26  27
ATOM     27  C   UNL     1      46.602  11.593 124.078  1.00  0.00    -0.000 C 
BRANCH  27  28
ATOM     28  C   UNL     1      45.068  11.659 124.182  1.00  0.00    -0.000 C 
BRANCH  28  29
ATOM     29  C   UNL     1      44.319  11.524 122.843  1.00  0.00    -0.000 C 
BRANCH  29  30
ATOM     30  C   UNL     1      44.709  12.607 121.827  1.00  0.00    -0.000 C 
BRANCH  30  31
ATOM     31  C   UNL     1      44.810  12.022 120.414  1.00  0.00    -0.003 C 
ATOM     32  C   UNL     1      45.820  12.794 119.569  1.00  0.00     0.004 C 
ENDBRANCH  30  31
ENDBRANCH  29  30
ENDBRANCH  28  29
ENDBRANCH  27  28
ENDBRANCH  26  27
ENDBRANCH  25  26
ENDBRANCH  24  25
ENDBRANCH  23  24
ENDBRANCH  22  23
ENDBRANCH  21  22
ENDBRANCH  20  21
ENDBRANCH  19  20
ENDBRANCH  18  19
ENDBRANCH   1  18
TORSDOF 28
ENDMDL
MODEL 3
REMARK VINA RESULT:    -5.367      4.817     13.393
REMARK INTER + INTRA:         -17.005
REMARK INTER:                 -14.075
REMARK INTRA:                  -2.930
REMARK UNBOUND:                -2.851
REMARK SMILES CCCCCCCCCCCCCCCCCCCCCCCCCCCCCC(=O)[O-]
REMARK SMILES IDX 16 1 17 2 18 3 19 4 20 5 21 6 22 7 23 8 24 9 25 10 26 11
REMARK SMILES IDX 27 12 28 13 29 14 30 15 31 16 32 17 15 18 14 19 13 20 12 21
REMARK SMILES IDX 11 22 10 23 9 24 8 25 7 26 6 27 5 28 4 29 3 30 2 31 1 32
REMARK H PARENT
REMARK Flexibility Score: inf
ROOT
ATOM      1  C   UNL     1      47.264   9.785 123.934  1.00  0.00     0.000 C 
ENDROOT
BRANCH   1   2
ATOM      2  C   UNL     1      47.573   8.365 124.439  1.00  0.00     0.000 C 
BRANCH   2   3
ATOM      3  C   UNL     1      46.333   7.609 124.958  1.00  0.00     0.000 C 
BRANCH   3   4
ATOM      4  C   UNL     1      46.346   7.447 126.490  1.00  0.00     0.000 C 
BRANCH   4   5
ATOM      5  C   UNL     1      47.751   7.145 127.034  1.00  0.00     0.000 C 
BRANCH   5   6
ATOM      6  C   UNL     1      47.860   7.400 128.547  1.00  0.00     0.000 C 
BRANCH   6   7
ATOM      7  C   UNL     1      46.634   6.896 129.328  1.00  0.00     0.000 C 
BRANCH   7   8
ATOM      8  C   UNL     1      46.620   5.380 129.600  1.00  0.00     0.000 C 
BRANCH   8   9
ATOM      9  C   UNL     1      48.013   4.818 129.939  1.00  0.00     0.000 C 
BRANCH   9  10
ATOM     10  C   UNL     1      48.037   4.056 131.273  1.00  0.00     0.000 C 
BRANCH  10  11
ATOM     11  C   UNL     1      46.647   3.960 131.925  1.00  0.00     0.000 C 
BRANCH  11  12
ATOM     12  C   UNL     1      46.583   2.901 133.040  1.00  0.00     0.000 C 
BRANCH  12  13
ATOM     13  C   UNL     1      45.158   2.510 133.485  1.00  0.00     0.006 C 
BRANCH  13  14
ATOM     14  C   UNL     1      44.191   2.202 132.332  1.00  0.00     0.053 C 
BRANCH  14  15
ATOM     15  C   UNL     1      43.669   0.801 132.394  1.00  0.00     0.041 C 
ATOM     16  O   UNL     1      43.923   0.074 133.389  1.00  0.00    -0.550 OA
ATOM     17  O   UNL     1      42.914   0.291 131.344  1.00  0.00    -0.550 OA
ENDBRANCH  14  15
ENDBRANCH  13  14
ENDBRANCH  12  13
ENDBRANCH  11  12
ENDBRANCH  10  11
ENDBRANCH   9  10
ENDBRANCH   8   9
ENDBRANCH   7   8
ENDBRANCH   6   7
ENDBRANCH   5   6
ENDBRANCH   4   5
ENDBRANCH   3   4
ENDBRANCH   2   3
ENDBRANCH   1   2
BRANCH   1  18
ATOM     18  C   UNL     1      47.820  10.054 122.530  1.00  0.00     0.000 C 
BRANCH  18  19
ATOM     19  C   UNL     1      46.862  10.939 121.721  1.00  0.00     0.000 C 
BRANCH  19  20
ATOM     20  C   UNL     1      45.384  10.617 121.997  1.00  0.00     0.000 C 
BRANCH  20  21
ATOM     21  C   UNL     1      44.571  11.873 122.362  1.00  0.00     0.000 C 
BRANCH  21  22
ATOM     22  C   UNL     1      45.046  13.130 121.614  1.00  0.00     0.000 C 
BRANCH  22  23
ATOM     23  C   UNL     1      44.100  13.621 120.501  1.00  0.00     0.000 C 
BRANCH  23  24
ATOM     24  C   UNL     1      44.040  12.683 119.275  1.00  0.00    -0.000 C 
BRANCH  24  25
ATOM     25  C   UNL     1      45.065  13.040 118.184  1.00  0.00    -0.000 C 
BRANCH  25  26
ATOM     26  C   UNL     1      46.413  12.332 118.398  1.00  0.00    -0.000 C 
BRANCH  26  27
ATOM     27  C   UNL     1      46.500  11.049 117.558  1.00  0.00    -0.000 C 
BRANCH  27  28
ATOM     28  C   UNL     1      45.859   9.832 118.251  1.00  0.00    -0.000 C 
BRANCH  28  29
ATOM     29  C   UNL     1      44.735   9.147 117.453  1.00  0.00    -0.000 C 
BRANCH  29  30
ATOM     30  C   UNL     1      44.413   9.865 116.135  1.00  0.00    -0.000 C 
BRANCH  30  31
ATOM     31  C   UNL     1      42.900   9.905 115.888  1.00  0.00    -0.003 C 
ATOM     32  C   UNL     1      42.184  10.693 116.982  1.00  0.00     0.004 C 
ENDBRANCH  30  31
ENDBRANCH  29  30
ENDBRANCH  28  29
ENDBRANCH  27  28
ENDBRANCH  26  27
ENDBRANCH  25  26
ENDBRANCH  24  25
ENDBRANCH  23  24
ENDBRANCH  22  23
ENDBRANCH  21  22
ENDBRANCH  20  21
ENDBRANCH  19  20
ENDBRANCH  18  19
ENDBRANCH   1  18
TORSDOF 28
ENDMDL
MODEL 4
REMARK VINA RESULT:    -5.320      4.495     11.312
REMARK INTER + INTRA:         -16.879
REMARK INTER:                 -13.302
REMARK INTRA:                  -3.577
REMARK UNBOUND:                -2.851
REMARK SMILES CCCCCCCCCCCCCCCCCCCCCCCCCCCCCC(=O)[O-]
REMARK SMILES IDX 16 1 17 2 18 3 19 4 20 5 21 6 22 7 23 8 24 9 25 10 26 11
REMARK SMILES IDX 27 12 28 13 29 14 30 15 31 16 32 17 15 18 14 19 13 20 12 21
REMARK SMILES IDX 11 22 10 23 9 24 8 25 7 26 6 27 5 28 4 29 3 30 2 31 1 32
REMARK H PARENT
REMARK Flexibility Score: inf
ROOT
ATOM      1  C   UNL     1      43.534   6.412 129.399  1.00  0.00     0.000 C 
ENDROOT
BRANCH   1   2
ATOM      2  C   UNL     1      42.587   6.774 128.242  1.00  0.00     0.000 C 
BRANCH   2   3
ATOM      3  C   UNL     1      42.466   5.668 127.173  1.00  0.00     0.000 C 
BRANCH   3   4
ATOM      4  C   UNL     1      43.742   5.538 126.320  1.00  0.00     0.000 C 
BRANCH   4   5
ATOM      5  C   UNL     1      44.472   4.207 126.558  1.00  0.00     0.000 C 
BRANCH   5   6
ATOM      6  C   UNL     1      45.838   4.403 127.236  1.00  0.00     0.000 C 
BRANCH   6   7
ATOM      7  C   UNL     1      45.793   4.158 128.755  1.00  0.00     0.000 C 
BRANCH   7   8
ATOM      8  C   UNL     1      47.121   4.421 129.490  1.00  0.00     0.000 C 
BRANCH   8   9
ATOM      9  C   UNL     1      46.924   4.785 130.973  1.00  0.00     0.000 C 
BRANCH   9  10
ATOM     10  C   UNL     1      47.335   3.651 131.923  1.00  0.00     0.000 C 
BRANCH  10  11
ATOM     11  C   UNL     1      46.168   3.154 132.792  1.00  0.00     0.000 C 
BRANCH  11  12
ATOM     12  C   UNL     1      44.804   3.700 132.331  1.00  0.00     0.000 C 
BRANCH  12  13
ATOM     13  C   UNL     1      43.592   2.821 132.698  1.00  0.00     0.006 C 
BRANCH  13  14
ATOM     14  C   UNL     1      43.950   1.397 133.151  1.00  0.00     0.053 C 
BRANCH  14  15
ATOM     15  C   UNL     1      43.019   0.374 132.578  1.00  0.00     0.041 C 
ATOM     16  O   UNL     1      42.847   0.301 131.333  1.00  0.00    -0.550 OA
ATOM     17  O   UNL     1      42.329  -0.490 133.421  1.00  0.00    -0.550 OA
ENDBRANCH  14  15
ENDBRANCH  13  14
ENDBRANCH  12  13
ENDBRANCH  11  12
ENDBRANCH  10  11
ENDBRANCH   9  10
ENDBRANCH   8   9
ENDBRANCH   7   8
ENDBRANCH   6   7
ENDBRANCH   5   6
ENDBRANCH   4   5
ENDBRANCH   3   4
ENDBRANCH   2   3
ENDBRANCH   1   2
BRANCH   1  18
ATOM     18  C   UNL     1      44.581   7.499 129.677  1.00  0.00     0.000 C 
BRANCH  18  19
ATOM     19  C   UNL     1      45.387   7.819 128.410  1.00  0.00     0.000 C 
BRANCH  19  20
ATOM     20  C   UNL     1      46.904   7.719 128.632  1.00  0.00     0.000 C 
BRANCH  20  21
ATOM     21  C   UNL     1      47.662   7.355 127.342  1.00  0.00     0.000 C 
BRANCH  21  22
ATOM     22  C   UNL     1      46.846   7.642 126.070  1.00  0.00     0.000 C 
BRANCH  22  23
ATOM     23  C   UNL     1      47.674   8.105 124.857  1.00  0.00     0.000 C 
BRANCH  23  24
ATOM     24  C   UNL     1      47.008   9.238 124.043  1.00  0.00    -0.000 C 
BRANCH  24  25
ATOM     25  C   UNL     1      47.365  10.646 124.553  1.00  0.00    -0.000 C 
BRANCH  25  26
ATOM     26  C   UNL     1      46.637  11.750 123.770  1.00  0.00    -0.000 C 
BRANCH  26  27
ATOM     27  C   UNL     1      45.136  11.756 124.096  1.00  0.00    -0.000 C 
BRANCH  27  28
ATOM     28  C   UNL     1      44.251  11.486 122.866  1.00  0.00    -0.000 C 
BRANCH  28  29
ATOM     29  C   UNL     1      44.671  12.232 121.586  1.00  0.00    -0.000 C 
BRANCH  29  30
ATOM     30  C   UNL     1      45.086  11.285 120.450  1.00  0.00    -0.000 C 
BRANCH  30  31
ATOM     31  C   UNL     1      46.499  11.612 119.953  1.00  0.00    -0.003 C 
ATOM     32  C   UNL     1      46.945  10.626 118.876  1.00  0.00     0.004 C 
ENDBRANCH  30  31
ENDBRANCH  29  30
ENDBRANCH  28  29
ENDBRANCH  27  28
ENDBRANCH  26  27
ENDBRANCH  25  26
ENDBRANCH  24  25
ENDBRANCH  23  24
ENDBRANCH  22  23
ENDBRANCH  21  22
ENDBRANCH  20  21
ENDBRANCH  19  20
ENDBRANCH  18  19
ENDBRANCH   1  18
TORSDOF 28
ENDMDL
MODEL 5
REMARK VINA RESULT:    -5.305      4.979     12.436
REMARK INTER + INTRA:         -16.840
REMARK INTER:                 -14.619
REMARK INTRA:                  -2.221
REMARK UNBOUND:                -2.851
REMARK SMILES CCCCCCCCCCCCCCCCCCCCCCCCCCCCCC(=O)[O-]
REMARK SMILES IDX 16 1 17 2 18 3 19 4 20 5 21 6 22 7 23 8 24 9 25 10 26 11
REMARK SMILES IDX 27 12 28 13 29 14 30 15 31 16 32 17 15 18 14 19 13 20 12 21
REMARK SMILES IDX 11 22 10 23 9 24 8 25 7 26 6 27 5 28 4 29 3 30 2 31 1 32
REMARK H PARENT
REMARK Flexibility Score: inf
ROOT
ATOM      1  C   UNL     1      43.082   5.626 126.839  1.00  0.00     0.000 C 
ENDROOT
BRANCH   1   2
ATOM      2  C   UNL     1      42.818   6.614 127.989  1.00  0.00     0.000 C 
BRANCH   2   3
ATOM      3  C   UNL     1      43.032   6.003 129.389  1.00  0.00     0.000 C 
BRANCH   3   4
ATOM      4  C   UNL     1      44.474   6.193 129.895  1.00  0.00     0.000 C 
BRANCH   4   5
ATOM      5  C   UNL     1      45.168   4.856 130.203  1.00  0.00     0.000 C 
BRANCH   5   6
ATOM      6  C   UNL     1      46.700   4.975 130.184  1.00  0.00     0.000 C 
BRANCH   6   7
ATOM      7  C   UNL     1      47.357   4.462 131.478  1.00  0.00     0.000 C 
BRANCH   7   8
ATOM      8  C   UNL     1      46.382   4.228 132.647  1.00  0.00     0.000 C 
BRANCH   8   9
ATOM      9  C   UNL     1      46.382   2.772 133.147  1.00  0.00     0.000 C 
BRANCH   9  10
ATOM     10  C   UNL     1      45.763   2.623 134.544  1.00  0.00     0.000 C 
BRANCH  10  11
ATOM     11  C   UNL     1      44.461   1.805 134.530  1.00  0.00     0.000 C 
BRANCH  11  12
ATOM     12  C   UNL     1      43.642   2.005 133.241  1.00  0.00     0.000 C 
BRANCH  12  13
ATOM     13  C   UNL     1      43.497   0.748 132.359  1.00  0.00     0.006 C 
BRANCH  13  14
ATOM     14  C   UNL     1      42.070   0.182 132.286  1.00  0.00     0.053 C 
BRANCH  14  15
ATOM     15  C   UNL     1      41.728  -0.637 133.491  1.00  0.00     0.041 C 
ATOM     16  O   UNL     1      40.525  -0.802 133.823  1.00  0.00    -0.550 OA
ATOM     17  O   UNL     1      42.738  -1.206 134.257  1.00  0.00    -0.550 OA
ENDBRANCH  14  15
ENDBRANCH  13  14
ENDBRANCH  12  13
ENDBRANCH  11  12
ENDBRANCH  10  11
ENDBRANCH   9  10
ENDBRANCH   8   9
ENDBRANCH   7   8
ENDBRANCH   6   7
ENDBRANCH   5   6
ENDBRANCH   4   5
ENDBRANCH   3   4
ENDBRANCH   2   3
ENDBRANCH   1   2
BRANCH   1  18
ATOM     18  C   UNL     1      44.334   5.978 126.025  1.00  0.00     0.000 C 
BRANCH  18  19
ATOM     19  C   UNL     1      45.605   5.490 126.735  1.00  0.00     0.000 C 
BRANCH  19  20
ATOM     20  C   UNL     1      46.589   6.631 127.039  1.00  0.00     0.000 C 
BRANCH  20  21
ATOM     21  C   UNL     1      46.509   7.765 126.000  1.00  0.00     0.000 C 
BRANCH  21  22
ATOM     22  C   UNL     1      47.868   8.076 125.351  1.00  0.00     0.000 C 
BRANCH  22  23
ATOM     23  C   UNL     1      47.882   9.314 124.433  1.00  0.00     0.000 C 
BRANCH  23  24
ATOM     24  C   UNL     1      46.475   9.777 123.991  1.00  0.00    -0.000 C 
BRANCH  24  25
ATOM     25  C   UNL     1      46.248  11.289 124.169  1.00  0.00    -0.000 C 
BRANCH  25  26
ATOM     26  C   UNL     1      44.766  11.674 124.033  1.00  0.00    -0.000 C 
BRANCH  26  27
ATOM     27  C   UNL     1      44.342  11.715 122.557  1.00  0.00    -0.000 C 
BRANCH  27  28
ATOM     28  C   UNL     1      45.233  12.633 121.700  1.00  0.00    -0.000 C 
BRANCH  28  29
ATOM     29  C   UNL     1      46.265  11.902 120.822  1.00  0.00    -0.000 C 
BRANCH  29  30
ATOM     30  C   UNL     1      45.824  11.780 119.356  1.00  0.00    -0.000 C 
BRANCH  30  31
ATOM     31  C   UNL     1      45.379  10.348 119.036  1.00  0.00    -0.003 C 
ATOM     32  C   UNL     1      46.125   9.799 117.822  1.00  0.00     0.004 C 
ENDBRANCH  30  31
ENDBRANCH  29  30
ENDBRANCH  28  29
ENDBRANCH  27  28
ENDBRANCH  26  27
ENDBRANCH  25  26
ENDBRANCH  24  25
ENDBRANCH  23  24
ENDBRANCH  22  23
ENDBRANCH  21  22
ENDBRANCH  20  21
ENDBRANCH  19  20
ENDBRANCH  18  19
ENDBRANCH   1  18
TORSDOF 28
ENDMDL
MODEL 6
REMARK VINA RESULT:    -5.292      1.589      3.206
REMARK INTER + INTRA:         -16.805
REMARK INTER:                 -14.033
REMARK INTRA:                  -2.772
REMARK UNBOUND:                -2.851
REMARK SMILES CCCCCCCCCCCCCCCCCCCCCCCCCCCCCC(=O)[O-]
REMARK SMILES IDX 16 1 17 2 18 3 19 4 20 5 21 6 22 7 23 8 24 9 25 10 26 11
REMARK SMILES IDX 27 12 28 13 29 14 30 15 31 16 32 17 15 18 14 19 13 20 12 21
REMARK SMILES IDX 11 22 10 23 9 24 8 25 7 26 6 27 5 28 4 29 3 30 2 31 1 32
REMARK H PARENT
REMARK Flexibility Score: inf
ROOT
ATOM      1  C   UNL     1      45.569   7.140 126.549  1.00  0.00     0.000 C 
ENDROOT
BRANCH   1   2
ATOM      2  C   UNL     1      46.876   7.242 127.354  1.00  0.00     0.000 C 
BRANCH   2   3
ATOM      3  C   UNL     1      48.125   7.474 126.479  1.00  0.00     0.000 C 
BRANCH   3   4
ATOM      4  C   UNL     1      47.761   7.835 125.027  1.00  0.00     0.000 C 
BRANCH   4   5
ATOM      5  C   UNL     1      48.062   9.306 124.696  1.00  0.00     0.000 C 
BRANCH   5   6
ATOM      6  C   UNL     1      47.818   9.634 123.214  1.00  0.00     0.000 C 
BRANCH   6   7
ATOM      7  C   UNL     1      46.868  10.828 123.013  1.00  0.00     0.000 C 
BRANCH   7   8
ATOM      8  C   UNL     1      45.395  10.447 122.777  1.00  0.00     0.000 C 
BRANCH   8   9
ATOM      9  C   UNL     1      44.419  11.595 123.092  1.00  0.00     0.000 C 
BRANCH   9  10
ATOM     10  C   UNL     1      43.851  12.255 121.827  1.00  0.00     0.000 C 
BRANCH  10  11
ATOM     11  C   UNL     1      44.770  13.356 121.270  1.00  0.00     0.000 C 
BRANCH  11  12
ATOM     12  C   UNL     1      45.390  12.984 119.910  1.00  0.00     0.000 C 
BRANCH  12  13
ATOM     13  C   UNL     1      44.816  11.710 119.257  1.00  0.00     0.006 C 
BRANCH  13  14
ATOM     14  C   UNL     1      45.798  10.531 119.188  1.00  0.00     0.053 C 
BRANCH  14  15
ATOM     15  C   UNL     1      45.959  10.015 117.792  1.00  0.00     0.041 C 
ATOM     16  O   UNL     1      45.088   9.257 117.292  1.00  0.00    -0.550 OA
ATOM     17  O   UNL     1      47.081  10.359 117.047  1.00  0.00    -0.550 OA
ENDBRANCH  14  15
ENDBRANCH  13  14
ENDBRANCH  12  13
ENDBRANCH  11  12
ENDBRANCH  10  11
ENDBRANCH   9  10
ENDBRANCH   8   9
ENDBRANCH   7   8
ENDBRANCH   6   7
ENDBRANCH   5   6
ENDBRANCH   4   5
ENDBRANCH   3   4
ENDBRANCH   2   3
ENDBRANCH   1   2
BRANCH   1  18
ATOM     18  C   UNL     1      44.726   5.916 126.931  1.00  0.00     0.000 C 
BRANCH  18  19
ATOM     19  C   UNL     1      43.582   6.312 127.875  1.00  0.00     0.000 C 
BRANCH  19  20
ATOM     20  C   UNL     1      43.876   5.959 129.342  1.00  0.00     0.000 C 
BRANCH  20  21
ATOM     21  C   UNL     1      45.008   4.924 129.479  1.00  0.00     0.000 C 
BRANCH  21  22
ATOM     22  C   UNL     1      46.184   5.435 130.327  1.00  0.00     0.000 C 
BRANCH  22  23
ATOM     23  C   UNL     1      47.426   4.524 130.332  1.00  0.00     0.000 C 
BRANCH  23  24
ATOM     24  C   UNL     1      47.682   3.826 131.688  1.00  0.00    -0.000 C 
BRANCH  24  25
ATOM     25  C   UNL     1      46.555   4.052 132.711  1.00  0.00    -0.000 C 
BRANCH  25  26
ATOM     26  C   UNL     1      46.090   2.741 133.364  1.00  0.00    -0.000 C 
BRANCH  26  27
ATOM     27  C   UNL     1      44.559   2.626 133.337  1.00  0.00    -0.000 C 
BRANCH  27  28
ATOM     28  C   UNL     1      44.018   2.107 131.993  1.00  0.00    -0.000 C 
BRANCH  28  29
ATOM     29  C   UNL     1      43.684   0.604 131.961  1.00  0.00    -0.000 C 
BRANCH  29  30
ATOM     30  C   UNL     1      42.207   0.313 132.259  1.00  0.00    -0.000 C 
BRANCH  30  31
ATOM     31  C   UNL     1      42.058  -0.507 133.545  1.00  0.00    -0.003 C 
ATOM     32  C   UNL     1      43.420  -0.815 134.163  1.00  0.00     0.004 C 
ENDBRANCH  30  31
ENDBRANCH  29  30
ENDBRANCH  28  29
ENDBRANCH  27  28
ENDBRANCH  26  27
ENDBRANCH  25  26
ENDBRANCH  24  25
ENDBRANCH  23  24
ENDBRANCH  22  23
ENDBRANCH  21  22
ENDBRANCH  20  21
ENDBRANCH  19  20
ENDBRANCH  18  19
ENDBRANCH   1  18
TORSDOF 28
ENDMDL
MODEL 7
REMARK VINA RESULT:    -5.266      1.575      2.601
REMARK INTER + INTRA:         -16.737
REMARK INTER:                 -13.964
REMARK INTRA:                  -2.774
REMARK UNBOUND:                -2.851
REMARK SMILES CCCCCCCCCCCCCCCCCCCCCCCCCCCCCC(=O)[O-]
REMARK SMILES IDX 16 1 17 2 18 3 19 4 20 5 21 6 22 7 23 8 24 9 25 10 26 11
REMARK SMILES IDX 27 12 28 13 29 14 30 15 31 16 32 17 15 18 14 19 13 20 12 21
REMARK SMILES IDX 11 22 10 23 9 24 8 25 7 26 6 27 5 28 4 29 3 30 2 31 1 32
REMARK H PARENT
REMARK Flexibility Score: inf
ROOT
ATOM      1  C   UNL     1      44.045   6.753 127.937  1.00  0.00     0.000 C 
ENDROOT
BRANCH   1   2
ATOM      2  C   UNL     1      45.201   7.701 127.572  1.00  0.00     0.000 C 
BRANCH   2   3
ATOM      3  C   UNL     1      46.005   7.247 126.336  1.00  0.00     0.000 C 
BRANCH   3   4
ATOM      4  C   UNL     1      47.517   7.486 126.503  1.00  0.00     0.000 C 
BRANCH   4   5
ATOM      5  C   UNL     1      48.121   8.261 125.322  1.00  0.00     0.000 C 
BRANCH   5   6
ATOM      6  C   UNL     1      47.220   8.225 124.076  1.00  0.00     0.000 C 
BRANCH   6   7
ATOM      7  C   UNL     1      47.064   9.603 123.410  1.00  0.00     0.000 C 
BRANCH   7   8
ATOM      8  C   UNL     1      45.924  10.468 123.978  1.00  0.00     0.000 C 
BRANCH   8   9
ATOM      9  C   UNL     1      44.837  10.790 122.937  1.00  0.00     0.000 C 
BRANCH   9  10
ATOM     10  C   UNL     1      44.810  12.275 122.545  1.00  0.00     0.000 C 
BRANCH  10  11
ATOM     11  C   UNL     1      45.685  12.579 121.318  1.00  0.00     0.000 C 
BRANCH  11  12
ATOM     12  C   UNL     1      45.361  11.676 120.114  1.00  0.00     0.000 C 
BRANCH  12  13
ATOM     13  C   UNL     1      46.463  10.661 119.745  1.00  0.00     0.006 C 
BRANCH  13  14
ATOM     14  C   UNL     1      46.562  10.345 118.245  1.00  0.00     0.053 C 
BRANCH  14  15
ATOM     15  C   UNL     1      45.285   9.784 117.702  1.00  0.00     0.041 C 
ATOM     16  O   UNL     1      44.879   8.654 118.080  1.00  0.00    -0.550 OA
ATOM     17  O   UNL     1      44.550  10.502 116.767  1.00  0.00    -0.550 OA
ENDBRANCH  14  15
ENDBRANCH  13  14
ENDBRANCH  12  13
ENDBRANCH  11  12
ENDBRANCH  10  11
ENDBRANCH   9  10
ENDBRANCH   8   9
ENDBRANCH   7   8
ENDBRANCH   6   7
ENDBRANCH   5   6
ENDBRANCH   4   5
ENDBRANCH   3   4
ENDBRANCH   2   3
ENDBRANCH   1   2
BRANCH   1  18
ATOM     18  C   UNL     1      44.379   5.278 127.680  1.00  0.00     0.000 C 
BRANCH  18  19
ATOM     19  C   UNL     1      45.127   4.669 128.874  1.00  0.00     0.000 C 
BRANCH  19  20
ATOM     20  C   UNL     1      46.630   4.496 128.605  1.00  0.00     0.000 C 
BRANCH  20  21
ATOM     21  C   UNL     1      47.497   5.273 129.613  1.00  0.00     0.000 C 
BRANCH  21  22
ATOM     22  C   UNL     1      47.933   4.414 130.812  1.00  0.00     0.000 C 
BRANCH  22  23
ATOM     23  C   UNL     1      46.967   4.435 132.012  1.00  0.00     0.000 C 
BRANCH  23  24
ATOM     24  C   UNL     1      46.567   3.029 132.514  1.00  0.00    -0.000 C 
BRANCH  24  25
ATOM     25  C   UNL     1      45.249   3.018 133.308  1.00  0.00    -0.000 C 
BRANCH  25  26
ATOM     26  C   UNL     1      45.430   2.462 134.729  1.00  0.00    -0.000 C 
BRANCH  26  27
ATOM     27  C   UNL     1      44.147   1.774 135.219  1.00  0.00    -0.000 C 
BRANCH  27  28
ATOM     28  C   UNL     1      44.280   0.242 135.300  1.00  0.00    -0.000 C 
BRANCH  28  29
ATOM     29  C   UNL     1      43.739  -0.523 134.079  1.00  0.00    -0.000 C 
BRANCH  29  30
ATOM     30  C   UNL     1      42.251  -0.252 133.813  1.00  0.00    -0.000 C 
BRANCH  30  31
ATOM     31  C   UNL     1      42.020   0.155 132.353  1.00  0.00    -0.003 C 
ATOM     32  C   UNL     1      43.344   0.398 131.634  1.00  0.00     0.004 C 
ENDBRANCH  30  31
ENDBRANCH  29  30
ENDBRANCH  28  29
ENDBRANCH  27  28
ENDBRANCH  26  27
ENDBRANCH  25  26
ENDBRANCH  24  25
ENDBRANCH  23  24
ENDBRANCH  22  23
ENDBRANCH  21  22
ENDBRANCH  20  21
ENDBRANCH  19  20
ENDBRANCH  18  19
ENDBRANCH   1  18
TORSDOF 28
ENDMDL
MODEL 8
REMARK VINA RESULT:    -5.249      5.015     13.488
REMARK INTER + INTRA:         -16.693
REMARK INTER:                 -14.283
REMARK INTRA:                  -2.409
REMARK UNBOUND:                -2.851
REMARK SMILES CCCCCCCCCCCCCCCCCCCCCCCCCCCCCC(=O)[O-]
REMARK SMILES IDX 16 1 17 2 18 3 19 4 20 5 21 6 22 7 23 8 24 9 25 10 26 11
REMARK SMILES IDX 27 12 28 13 29 14 30 15 31 16 32 17 15 18 14 19 13 20 12 21
REMARK SMILES IDX 11 22 10 23 9 24 8 25 7 26 6 27 5 28 4 29 3 30 2 31 1 32
REMARK H PARENT
REMARK Flexibility Score: inf
ROOT
ATOM      1  C   UNL     1      47.315   8.372 124.830  1.00  0.00     0.000 C 
ENDROOT
BRANCH   1   2
ATOM      2  C   UNL     1      48.076   7.688 125.978  1.00  0.00     0.000 C 
BRANCH   2   3
ATOM      3  C   UNL     1      47.154   7.015 127.017  1.00  0.00     0.000 C 
BRANCH   3   4
ATOM      4  C   UNL     1      45.670   7.087 126.613  1.00  0.00     0.000 C 
BRANCH   4   5
ATOM      5  C   UNL     1      44.782   6.185 127.484  1.00  0.00     0.000 C 
BRANCH   5   6
ATOM      6  C   UNL     1      45.582   5.068 128.175  1.00  0.00     0.000 C 
BRANCH   6   7
ATOM      7  C   UNL     1      45.641   5.232 129.704  1.00  0.00     0.000 C 
BRANCH   7   8
ATOM      8  C   UNL     1      47.061   5.208 130.301  1.00  0.00     0.000 C 
BRANCH   8   9
ATOM      9  C   UNL     1      47.137   4.451 131.639  1.00  0.00     0.000 C 
BRANCH   9  10
ATOM     10  C   UNL     1      45.764   3.966 132.127  1.00  0.00     0.000 C 
BRANCH  10  11
ATOM     11  C   UNL     1      45.750   3.646 133.631  1.00  0.00     0.000 C 
BRANCH  11  12
ATOM     12  C   UNL     1      45.187   2.246 133.939  1.00  0.00     0.000 C 
BRANCH  12  13
ATOM     13  C   UNL     1      44.830   1.400 132.700  1.00  0.00     0.006 C 
BRANCH  13  14
ATOM     14  C   UNL     1      44.200   0.036 133.019  1.00  0.00     0.053 C 
BRANCH  14  15
ATOM     15  C   UNL     1      42.712   0.122 133.163  1.00  0.00     0.041 C 
ATOM     16  O   UNL     1      41.987   0.296 132.149  1.00  0.00    -0.550 OA
ATOM     17  O   UNL     1      42.127   0.026 134.420  1.00  0.00    -0.550 OA
ENDBRANCH  14  15
ENDBRANCH  13  14
ENDBRANCH  12  13
ENDBRANCH  11  12
ENDBRANCH  10  11
ENDBRANCH   9  10
ENDBRANCH   8   9
ENDBRANCH   7   8
ENDBRANCH   6   7
ENDBRANCH   5   6
ENDBRANCH   4   5
ENDBRANCH   3   4
ENDBRANCH   2   3
ENDBRANCH   1   2
BRANCH   1  18
ATOM     18  C   UNL     1      48.123   9.494 124.163  1.00  0.00     0.000 C 
BRANCH  18  19
ATOM     19  C   UNL     1      47.342  10.112 122.995  1.00  0.00     0.000 C 
BRANCH  19  20
ATOM     20  C   UNL     1      45.821  10.067 123.211  1.00  0.00     0.000 C 
BRANCH  20  21
ATOM     21  C   UNL     1      45.252  11.429 123.650  1.00  0.00     0.000 C 
BRANCH  21  22
ATOM     22  C   UNL     1      44.345  12.068 122.585  1.00  0.00     0.000 C 
BRANCH  22  23
ATOM     23  C   UNL     1      44.732  11.753 121.127  1.00  0.00     0.000 C 
BRANCH  23  24
ATOM     24  C   UNL     1      45.911  12.601 120.599  1.00  0.00    -0.000 C 
BRANCH  24  25
ATOM     25  C   UNL     1      46.528  12.046 119.303  1.00  0.00    -0.000 C 
BRANCH  25  26
ATOM     26  C   UNL     1      46.461  10.512 119.236  1.00  0.00    -0.000 C 
BRANCH  26  27
ATOM     27  C   UNL     1      46.302  10.030 117.787  1.00  0.00    -0.000 C 
BRANCH  27  28
ATOM     28  C   UNL     1      45.026   9.198 117.566  1.00  0.00    -0.000 C 
BRANCH  28  29
ATOM     29  C   UNL     1      44.151   9.649 116.381  1.00  0.00    -0.000 C 
BRANCH  29  30
ATOM     30  C   UNL     1      42.859  10.351 116.824  1.00  0.00    -0.000 C 
BRANCH  30  31
ATOM     31  C   UNL     1      42.701  11.703 116.120  1.00  0.00    -0.003 C 
ATOM     32  C   UNL     1      43.856  12.641 116.463  1.00  0.00     0.004 C 
ENDBRANCH  30  31
ENDBRANCH  29  30
ENDBRANCH  28  29
ENDBRANCH  27  28
ENDBRANCH  26  27
ENDBRANCH  25  26
ENDBRANCH  24  25
ENDBRANCH  23  24
ENDBRANCH  22  23
ENDBRANCH  21  22
ENDBRANCH  20  21
ENDBRANCH  19  20
ENDBRANCH  18  19
ENDBRANCH   1  18
TORSDOF 28
ENDMDL
MODEL 9
REMARK VINA RESULT:    -5.169      4.491     12.938
REMARK INTER + INTRA:         -16.481
REMARK INTER:                 -13.558
REMARK INTRA:                  -2.923
REMARK UNBOUND:                -2.851
REMARK SMILES CCCCCCCCCCCCCCCCCCCCCCCCCCCCCC(=O)[O-]
REMARK SMILES IDX 16 1 17 2 18 3 19 4 20 5 21 6 22 7 23 8 24 9 25 10 26 11
REMARK SMILES IDX 27 12 28 13 29 14 30 15 31 16 32 17 15 18 14 19 13 20 12 21
REMARK SMILES IDX 11 22 10 23 9 24 8 25 7 26 6 27 5 28 4 29 3 30 2 31 1 32
REMARK H PARENT
REMARK Flexibility Score: inf
ROOT
ATOM      1  C   UNL     1      47.362   8.233 124.653  1.00  0.00     0.000 C 
ENDROOT
BRANCH   1   2
ATOM      2  C   UNL     1      48.125   7.579 125.818  1.00  0.00     0.000 C 
BRANCH   2   3
ATOM      3  C   UNL     1      47.213   7.120 126.974  1.00  0.00     0.000 C 
BRANCH   3   4
ATOM      4  C   UNL     1      45.764   7.614 126.807  1.00  0.00     0.000 C 
BRANCH   4   5
ATOM      5  C   UNL     1      44.744   6.667 127.459  1.00  0.00     0.000 C 
BRANCH   5   6
ATOM      6  C   UNL     1      44.970   5.200 127.061  1.00  0.00     0.000 C 
BRANCH   6   7
ATOM      7  C   UNL     1      45.668   4.381 128.162  1.00  0.00     0.000 C 
BRANCH   7   8
ATOM      8  C   UNL     1      45.377   4.852 129.598  1.00  0.00     0.000 C 
BRANCH   8   9
ATOM      9  C   UNL     1      46.580   5.552 130.257  1.00  0.00     0.000 C 
BRANCH   9  10
ATOM     10  C   UNL     1      47.765   4.603 130.487  1.00  0.00     0.000 C 
BRANCH  10  11
ATOM     11  C   UNL     1      47.488   3.565 131.588  1.00  0.00     0.000 C 
BRANCH  11  12
ATOM     12  C   UNL     1      46.662   4.138 132.755  1.00  0.00     0.000 C 
BRANCH  12  13
ATOM     13  C   UNL     1      45.892   3.090 133.584  1.00  0.00     0.006 C 
BRANCH  13  14
ATOM     14  C   UNL     1      45.152   2.034 132.749  1.00  0.00     0.053 C 
BRANCH  14  15
ATOM     15  C   UNL     1      43.665   2.153 132.881  1.00  0.00     0.041 C 
ATOM     16  O   UNL     1      43.096   3.254 132.662  1.00  0.00    -0.550 OA
ATOM     17  O   UNL     1      42.909   1.051 133.260  1.00  0.00    -0.550 OA
ENDBRANCH  14  15
ENDBRANCH  13  14
ENDBRANCH  12  13
ENDBRANCH  11  12
ENDBRANCH  10  11
ENDBRANCH   9  10
ENDBRANCH   8   9
ENDBRANCH   7   8
ENDBRANCH   6   7
ENDBRANCH   5   6
ENDBRANCH   4   5
ENDBRANCH   3   4
ENDBRANCH   2   3
ENDBRANCH   1   2
BRANCH   1  18
ATOM     18  C   UNL     1      47.852   9.653 124.341  1.00  0.00     0.000 C 
BRANCH  18  19
ATOM     19  C   UNL     1      47.294  10.142 122.997  1.00  0.00     0.000 C 
BRANCH  19  20
ATOM     20  C   UNL     1      45.768   9.985 122.898  1.00  0.00     0.000 C 
BRANCH  20  21
ATOM     21  C   UNL     1      45.018  11.242 123.376  1.00  0.00     0.000 C 
BRANCH  21  22
ATOM     22  C   UNL     1      44.346  12.009 122.225  1.00  0.00     0.000 C 
BRANCH  22  23
ATOM     23  C   UNL     1      45.296  12.877 121.379  1.00  0.00     0.000 C 
BRANCH  23  24
ATOM     24  C   UNL     1      44.588  13.660 120.250  1.00  0.00    -0.000 C 
BRANCH  24  25
ATOM     25  C   UNL     1      43.128  13.224 120.030  1.00  0.00    -0.000 C 
BRANCH  25  26
ATOM     26  C   UNL     1      42.909  12.607 118.639  1.00  0.00    -0.000 C 
BRANCH  26  27
ATOM     27  C   UNL     1      44.230  12.086 118.054  1.00  0.00    -0.000 C 
BRANCH  27  28
ATOM     28  C   UNL     1      44.147  10.620 117.593  1.00  0.00    -0.000 C 
BRANCH  28  29
ATOM     29  C   UNL     1      45.417   9.786 117.845  1.00  0.00    -0.000 C 
BRANCH  29  30
ATOM     30  C   UNL     1      46.125  10.156 119.156  1.00  0.00    -0.000 C 
BRANCH  30  31
ATOM     31  C   UNL     1      47.473  10.832 118.879  1.00  0.00    -0.003 C 
ATOM     32  C   UNL     1      47.815  10.789 117.392  1.00  0.00     0.004 C 
ENDBRANCH  30  31
ENDBRANCH  29  30
ENDBRANCH  28  29
ENDBRANCH  27  28
ENDBRANCH  26  27
ENDBRANCH  25  26
ENDBRANCH  24  25
ENDBRANCH  23  24
ENDBRANCH  22  23
ENDBRANCH  21  22
ENDBRANCH  20  21
ENDBRANCH  19  20
ENDBRANCH  18  19
ENDBRANCH   1  18
TORSDOF 28
ENDMDL
