MODEL 1
REMARK VINA RESULT:    -3.953      0.000      0.000
REMARK INTER + INTRA:          -3.953
REMARK INTER:                  -3.953
REMARK INTRA:                   0.000
REMARK UNBOUND:                 0.000
REMARK SMILES CC1(C)C(=O)[C@]2(C)CC[C@H]1C2
REMARK SMILES IDX 1 1 2 2 10 3 9 4 8 5 6 6 11 7 4 8 5 9 7 10 3 11
REMARK H PARENT
REMARK Flexibility Score: inf
ROOT
ATOM      1  C   UNL     1     116.327 116.413 115.303  1.00  0.00     0.020 C 
ATOM      2  C   UNL     1     116.337 116.661 116.827  1.00  0.00     0.027 C 
ATOM      3  C   UNL     1     117.741 116.346 117.457  1.00  0.00     0.003 C 
ATOM      4  C   UNL     1     117.794 116.770 118.947  1.00  0.00     0.005 C 
ATOM      5  C   UNL     1     116.830 115.774 119.628  1.00  0.00     0.015 C 
ATOM      6  C   UNL     1     116.427 114.846 118.464  1.00  0.00     0.027 C 
ATOM      7  C   UNL     1     117.695 114.829 117.636  1.00  0.00     0.019 C 
ATOM      8  C   UNL     1     115.523 115.628 117.552  1.00  0.00     0.144 C 
ATOM      9  O   UNL     1     114.311 115.497 117.468  1.00  0.00    -0.298 OA
ATOM     10  C   UNL     1     115.909 113.467 118.874  1.00  0.00     0.020 C 
ATOM     11  C   UNL     1     115.821 118.089 117.110  1.00  0.00     0.020 C 
ENDROOT
TORSDOF 0
ENDMDL
MODEL 2
REMARK VINA RESULT:    -3.946      1.638      2.440
REMARK INTER + INTRA:          -3.946
REMARK INTER:                  -3.946
REMARK INTRA:                   0.000
REMARK UNBOUND:                 0.000
REMARK SMILES CC1(C)C(=O)[C@]2(C)CC[C@H]1C2
REMARK SMILES IDX 1 1 2 2 10 3 9 4 8 5 6 6 11 7 4 8 5 9 7 10 3 11
REMARK H PARENT
REMARK Flexibility Score: inf
ROOT
ATOM      1  C   UNL     1     116.392 116.827 115.265  1.00  0.00     0.020 C 
ATOM      2  C   UNL     1     116.651 116.858 116.787  1.00  0.00     0.027 C 
ATOM      3  C   UNL     1     116.354 115.467 117.453  1.00  0.00     0.003 C 
ATOM      4  C   UNL     1     116.789 115.455 118.941  1.00  0.00     0.005 C 
ATOM      5  C   UNL     1     115.788 116.426 119.605  1.00  0.00     0.015 C 
ATOM      6  C   UNL     1     114.849 116.791 118.439  1.00  0.00     0.027 C 
ATOM      7  C   UNL     1     114.839 115.502 117.642  1.00  0.00     0.019 C 
ATOM      8  C   UNL     1     115.615 117.679 117.498  1.00  0.00     0.144 C 
ATOM      9  O   UNL     1     115.471 118.888 117.386  1.00  0.00    -0.298 OA
ATOM     10  C   UNL     1     113.467 117.305 118.845  1.00  0.00     0.020 C 
ATOM     11  C   UNL     1     118.076 117.394 117.047  1.00  0.00     0.020 C 
ENDROOT
TORSDOF 0
ENDMDL
MODEL 3
REMARK VINA RESULT:    -3.934      2.076      3.455
REMARK INTER + INTRA:          -3.934
REMARK INTER:                  -3.934
REMARK INTRA:                   0.000
REMARK UNBOUND:                 0.000
REMARK SMILES CC1(C)C(=O)[C@]2(C)CC[C@H]1C2
REMARK SMILES IDX 1 1 2 2 10 3 9 4 8 5 6 6 11 7 4 8 5 9 7 10 3 11
REMARK H PARENT
REMARK Flexibility Score: inf
ROOT
ATOM      1  C   UNL     1     116.844 116.804 115.257  1.00  0.00     0.020 C 
ATOM      2  C   UNL     1     116.874 116.549 116.780  1.00  0.00     0.027 C 
ATOM      3  C   UNL     1     115.476 116.828 117.441  1.00  0.00     0.003 C 
ATOM      4  C   UNL     1     115.465 116.396 118.930  1.00  0.00     0.005 C 
ATOM      5  C   UNL     1     116.420 117.413 119.595  1.00  0.00     0.015 C 
ATOM      6  C   UNL     1     116.775 118.355 118.427  1.00  0.00     0.027 C 
ATOM      7  C   UNL     1     115.489 118.344 117.626  1.00  0.00     0.019 C 
ATOM      8  C   UNL     1     117.678 117.599 117.492  1.00  0.00     0.144 C 
ATOM      9  O   UNL     1     118.884 117.760 117.383  1.00  0.00    -0.298 OA
ATOM     10  C   UNL     1     117.268 119.745 118.832  1.00  0.00     0.020 C 
ATOM     11  C   UNL     1     117.430 115.133 117.045  1.00  0.00     0.020 C 
ENDROOT
TORSDOF 0
ENDMDL
MODEL 4
REMARK VINA RESULT:    -3.925      1.658      2.490
REMARK INTER + INTRA:          -3.925
REMARK INTER:                  -3.925
REMARK INTRA:                   0.000
REMARK UNBOUND:                 0.000
REMARK SMILES CC1(C)C(=O)[C@]2(C)CC[C@H]1C2
REMARK SMILES IDX 1 1 2 2 10 3 9 4 8 5 6 6 11 7 4 8 5 9 7 10 3 11
REMARK H PARENT
REMARK Flexibility Score: inf
ROOT
ATOM      1  C   UNL     1     116.729 116.419 115.314  1.00  0.00     0.020 C 
ATOM      2  C   UNL     1     116.515 116.383 116.843  1.00  0.00     0.027 C 
ATOM      3  C   UNL     1     116.788 117.784 117.500  1.00  0.00     0.003 C 
ATOM      4  C   UNL     1     116.395 117.785 118.999  1.00  0.00     0.005 C 
ATOM      5  C   UNL     1     117.444 116.845 119.635  1.00  0.00     0.015 C 
ATOM      6  C   UNL     1     118.361 116.508 118.443  1.00  0.00     0.027 C 
ATOM      7  C   UNL     1     118.308 117.795 117.645  1.00  0.00     0.019 C 
ATOM      8  C   UNL     1     117.596 115.595 117.525  1.00  0.00     0.144 C 
ATOM      9  O   UNL     1     117.773 114.391 117.409  1.00  0.00    -0.298 OA
ATOM     10  C   UNL     1     119.768 116.037 118.810  1.00  0.00     0.020 C 
ATOM     11  C   UNL     1     115.115 115.804 117.143  1.00  0.00     0.020 C 
ENDROOT
TORSDOF 0
ENDMDL
MODEL 5
REMARK VINA RESULT:    -3.602      1.792      3.132
REMARK INTER + INTRA:          -3.602
REMARK INTER:                  -3.602
REMARK INTRA:                   0.000
REMARK UNBOUND:                 0.000
REMARK SMILES CC1(C)C(=O)[C@]2(C)CC[C@H]1C2
REMARK SMILES IDX 1 1 2 2 10 3 9 4 8 5 6 6 11 7 4 8 5 9 7 10 3 11
REMARK H PARENT
REMARK Flexibility Score: inf
ROOT
ATOM      1  C   UNL     1     115.192 115.883 117.363  1.00  0.00     0.020 C 
ATOM      2  C   UNL     1     116.389 116.831 117.128  1.00  0.00     0.027 C 
ATOM      3  C   UNL     1     117.621 116.439 118.021  1.00  0.00     0.003 C 
ATOM      4  C   UNL     1     118.871 117.277 117.647  1.00  0.00     0.005 C 
ATOM      5  C   UNL     1     118.489 118.699 118.114  1.00  0.00     0.015 C 
ATOM      6  C   UNL     1     117.118 118.477 118.783  1.00  0.00     0.027 C 
ATOM      7  C   UNL     1     117.283 117.087 119.362  1.00  0.00     0.019 C 
ATOM      8  C   UNL     1     116.120 118.196 117.694  1.00  0.00     0.144 C 
ATOM      9  O   UNL     1     115.277 118.978 117.282  1.00  0.00    -0.298 OA
ATOM     10  C   UNL     1     116.700 119.548 119.792  1.00  0.00     0.020 C 
ATOM     11  C   UNL     1     116.695 116.893 115.616  1.00  0.00     0.020 C 
ENDROOT
TORSDOF 0
ENDMDL
MODEL 6
REMARK VINA RESULT:    -3.597      1.830      3.041
REMARK INTER + INTRA:          -3.597
REMARK INTER:                  -3.597
REMARK INTRA:                   0.000
REMARK UNBOUND:                 0.000
REMARK SMILES CC1(C)C(=O)[C@]2(C)CC[C@H]1C2
REMARK SMILES IDX 1 1 2 2 10 3 9 4 8 5 6 6 11 7 4 8 5 9 7 10 3 11
REMARK H PARENT
REMARK Flexibility Score: inf
ROOT
ATOM      1  C   UNL     1     115.870 118.063 117.287  1.00  0.00     0.020 C 
ATOM      2  C   UNL     1     116.825 116.859 117.138  1.00  0.00     0.027 C 
ATOM      3  C   UNL     1     116.410 115.671 118.080  1.00  0.00     0.003 C 
ATOM      4  C   UNL     1     117.259 114.407 117.792  1.00  0.00     0.005 C 
ATOM      5  C   UNL     1     118.668 114.815 118.277  1.00  0.00     0.015 C 
ATOM      6  C   UNL     1     118.427 116.217 118.871  1.00  0.00     0.027 C 
ATOM      7  C   UNL     1     117.021 116.077 119.419  1.00  0.00     0.019 C 
ATOM      8  C   UNL     1     118.173 117.158 117.726  1.00  0.00     0.144 C 
ATOM      9  O   UNL     1     118.966 117.982 117.294  1.00  0.00    -0.298 OA
ATOM     10  C   UNL     1     119.469 116.687 119.887  1.00  0.00     0.020 C 
ATOM     11  C   UNL     1     116.929 116.478 115.645  1.00  0.00     0.020 C 
ENDROOT
TORSDOF 0
ENDMDL
MODEL 7
REMARK VINA RESULT:    -3.581      1.531      2.472
REMARK INTER + INTRA:          -3.581
REMARK INTER:                  -3.581
REMARK INTRA:                   0.000
REMARK UNBOUND:                 0.000
REMARK SMILES CC1(C)C(=O)[C@]2(C)CC[C@H]1C2
REMARK SMILES IDX 1 1 2 2 10 3 9 4 8 5 6 6 11 7 4 8 5 9 7 10 3 11
REMARK H PARENT
REMARK Flexibility Score: inf
ROOT
ATOM      1  C   UNL     1     118.060 117.339 117.364  1.00  0.00     0.020 C 
ATOM      2  C   UNL     1     116.832 116.426 117.158  1.00  0.00     0.027 C 
ATOM      3  C   UNL     1     115.641 116.837 118.096  1.00  0.00     0.003 C 
ATOM      4  C   UNL     1     114.358 116.036 117.755  1.00  0.00     0.005 C 
ATOM      5  C   UNL     1     114.718 114.598 118.191  1.00  0.00     0.015 C 
ATOM      6  C   UNL     1     116.116 114.777 118.816  1.00  0.00     0.027 C 
ATOM      7  C   UNL     1     116.006 116.163 119.417  1.00  0.00     0.019 C 
ATOM      8  C   UNL     1     117.084 115.047 117.698  1.00  0.00     0.144 C 
ATOM      9  O   UNL     1     117.892 114.249 117.248  1.00  0.00    -0.298 OA
ATOM     10  C   UNL     1     116.539 113.683 119.798  1.00  0.00     0.020 C 
ATOM     11  C   UNL     1     116.474 116.391 115.656  1.00  0.00     0.020 C 
ENDROOT
TORSDOF 0
ENDMDL
MODEL 8
REMARK VINA RESULT:    -3.561      1.913      3.100
REMARK INTER + INTRA:          -3.561
REMARK INTER:                  -3.561
REMARK INTRA:                   0.000
REMARK UNBOUND:                 0.000
REMARK SMILES CC1(C)C(=O)[C@]2(C)CC[C@H]1C2
REMARK SMILES IDX 1 1 2 2 10 3 9 4 8 5 6 6 11 7 4 8 5 9 7 10 3 11
REMARK H PARENT
REMARK Flexibility Score: inf
ROOT
ATOM      1  C   UNL     1     114.527 117.360 119.408  1.00  0.00     0.020 C 
ATOM      2  C   UNL     1     115.481 117.674 118.236  1.00  0.00     0.027 C 
ATOM      3  C   UNL     1     115.472 116.530 117.159  1.00  0.00     0.003 C 
ATOM      4  C   UNL     1     116.289 116.935 115.906  1.00  0.00     0.005 C 
ATOM      5  C   UNL     1     117.742 116.964 116.430  1.00  0.00     0.015 C 
ATOM      6  C   UNL     1     117.585 116.476 117.884  1.00  0.00     0.027 C 
ATOM      7  C   UNL     1     116.432 115.501 117.755  1.00  0.00     0.019 C 
ATOM      8  C   UNL     1     116.918 117.576 118.663  1.00  0.00     0.144 C 
ATOM      9  O   UNL     1     117.471 118.320 119.459  1.00  0.00    -0.298 OA
ATOM     10  C   UNL     1     118.848 115.896 118.521  1.00  0.00     0.020 C 
ATOM     11  C   UNL     1     115.151 119.075 117.675  1.00  0.00     0.020 C 
ENDROOT
TORSDOF 0
ENDMDL
MODEL 9
REMARK VINA RESULT:    -3.544      1.469      2.572
REMARK INTER + INTRA:          -3.544
REMARK INTER:                  -3.544
REMARK INTRA:                   0.000
REMARK UNBOUND:                 0.000
REMARK SMILES CC1(C)C(=O)[C@]2(C)CC[C@H]1C2
REMARK SMILES IDX 1 1 2 2 10 3 9 4 8 5 6 6 11 7 4 8 5 9 7 10 3 11
REMARK H PARENT
REMARK Flexibility Score: inf
ROOT
ATOM      1  C   UNL     1     117.345 115.141 117.375  1.00  0.00     0.020 C 
ATOM      2  C   UNL     1     116.363 116.315 117.171  1.00  0.00     0.027 C 
ATOM      3  C   UNL     1     116.748 117.553 118.058  1.00  0.00     0.003 C 
ATOM      4  C   UNL     1     115.870 118.783 117.712  1.00  0.00     0.005 C 
ATOM      5  C   UNL     1     114.470 118.365 118.214  1.00  0.00     0.015 C 
ATOM      6  C   UNL     1     114.743 116.997 118.871  1.00  0.00     0.027 C 
ATOM      7  C   UNL     1     116.143 117.194 119.414  1.00  0.00     0.019 C 
ATOM      8  C   UNL     1     115.020 116.011 117.770  1.00  0.00     0.144 C 
ATOM      9  O   UNL     1     114.248 115.150 117.375  1.00  0.00    -0.298 OA
ATOM     10  C   UNL     1     113.710 116.549 119.906  1.00  0.00     0.020 C 
ATOM     11  C   UNL     1     116.253 116.626 115.661  1.00  0.00     0.020 C 
ENDROOT
TORSDOF 0
ENDMDL
