MODEL 1
REMARK VINA RESULT:    -4.997      0.000      0.000
REMARK INTER + INTRA:         -11.959
REMARK INTER:                 -10.839
REMARK INTRA:                  -1.121
REMARK UNBOUND:                -1.121
REMARK SMILES CCCCCCCCCCCCCCCCCCCCCC(=O)[O-]
REMARK SMILES IDX 12 1 11 2 10 3 9 4 8 5 7 6 6 7 5 8 4 9 3 10 2 11 1 12 13 13
REMARK SMILES IDX 14 14 15 15 16 16 17 17 18 18 19 19 20 20 21 21 22 22 23 23
REMARK SMILES IDX 24 24
REMARK H PARENT
REMARK Flexibility Score: inf
ROOT
ATOM      1  C   UNL     1      -9.014   5.570  -8.116  1.00  0.00     0.000 C 
ENDROOT
BRANCH   1   2
ATOM      2  C   UNL     1      -7.536   5.776  -7.754  1.00  0.00     0.000 C 
BRANCH   2   3
ATOM      3  C   UNL     1      -7.390   6.328  -6.330  1.00  0.00     0.000 C 
BRANCH   3   4
ATOM      4  C   UNL     1      -7.675   5.239  -5.290  1.00  0.00    -0.000 C 
BRANCH   4   5
ATOM      5  C   UNL     1      -8.745   5.695  -4.290  1.00  0.00    -0.000 C 
BRANCH   5   6
ATOM      6  C   UNL     1      -9.313   7.067  -4.682  1.00  0.00    -0.000 C 
BRANCH   6   7
ATOM      7  C   UNL     1      -9.436   8.022  -3.484  1.00  0.00    -0.000 C 
BRANCH   7   8
ATOM      8  C   UNL     1     -10.812   8.700  -3.405  1.00  0.00    -0.000 C 
BRANCH   8   9
ATOM      9  C   UNL     1     -11.255   8.872  -1.947  1.00  0.00    -0.000 C 
BRANCH   9  10
ATOM     10  C   UNL     1     -12.316   9.973  -1.821  1.00  0.00    -0.000 C 
BRANCH  10  11
ATOM     11  C   UNL     1     -12.457  10.753  -3.133  1.00  0.00    -0.003 C 
ATOM     12  C   UNL     1     -13.908  10.770  -3.609  1.00  0.00     0.004 C 
ENDBRANCH  10  11
ENDBRANCH   9  10
ENDBRANCH   8   9
ENDBRANCH   7   8
ENDBRANCH   6   7
ENDBRANCH   5   6
ENDBRANCH   4   5
ENDBRANCH   3   4
ENDBRANCH   2   3
ENDBRANCH   1   2
BRANCH   1  13
ATOM     13  C   UNL     1      -9.223   4.505  -9.209  1.00  0.00     0.000 C 
BRANCH  13  14
ATOM     14  C   UNL     1      -9.547   5.059 -10.610  1.00  0.00     0.000 C 
BRANCH  14  15
ATOM     15  C   UNL     1      -8.342   5.038 -11.560  1.00  0.00     0.000 C 
BRANCH  15  16
ATOM     16  C   UNL     1      -8.747   4.523 -12.949  1.00  0.00     0.000 C 
BRANCH  16  17
ATOM     17  C   UNL     1      -7.800   4.998 -14.063  1.00  0.00     0.000 C 
BRANCH  17  18
ATOM     18  C   UNL     1      -6.328   4.643 -13.785  1.00  0.00     0.000 C 
BRANCH  18  19
ATOM     19  C   UNL     1      -5.350   5.562 -14.535  1.00  0.00     0.000 C 
BRANCH  19  20
ATOM     20  C   UNL     1      -5.930   6.074 -15.866  1.00  0.00     0.006 C 
BRANCH  20  21
ATOM     21  C   UNL     1      -5.085   7.204 -16.470  1.00  0.00     0.053 C 
BRANCH  21  22
ATOM     22  C   UNL     1      -5.938   8.269 -17.091  1.00  0.00     0.041 C 
ATOM     23  O   UNL     1      -7.121   8.011 -17.437  1.00  0.00    -0.550 OA
ATOM     24  O   UNL     1      -5.435   9.554 -17.257  1.00  0.00    -0.550 OA
ENDBRANCH  21  22
ENDBRANCH  20  21
ENDBRANCH  19  20
ENDBRANCH  18  19
ENDBRANCH  17  18
ENDBRANCH  16  17
ENDBRANCH  15  16
ENDBRANCH  14  15
ENDBRANCH  13  14
ENDBRANCH   1  13
TORSDOF 20
ENDMDL
MODEL 2
REMARK VINA RESULT:    -4.995      5.305      7.638
REMARK INTER + INTRA:         -11.955
REMARK INTER:                  -8.750
REMARK INTRA:                  -3.205
REMARK UNBOUND:                -1.121
REMARK SMILES CCCCCCCCCCCCCCCCCCCCCC(=O)[O-]
REMARK SMILES IDX 12 1 11 2 10 3 9 4 8 5 7 6 6 7 5 8 4 9 3 10 2 11 1 12 13 13
REMARK SMILES IDX 14 14 15 15 16 16 17 17 18 18 19 19 20 20 21 21 22 22 23 23
REMARK SMILES IDX 24 24
REMARK H PARENT
REMARK Flexibility Score: inf
ROOT
ATOM      1  C   UNL     1      -6.844   3.066  -1.823  1.00  0.00     0.000 C 
ENDROOT
BRANCH   1   2
ATOM      2  C   UNL     1      -7.419   4.063  -0.806  1.00  0.00     0.000 C 
BRANCH   2   3
ATOM      3  C   UNL     1      -8.603   4.835  -1.401  1.00  0.00     0.000 C 
BRANCH   3   4
ATOM      4  C   UNL     1      -9.042   5.969  -0.468  1.00  0.00    -0.000 C 
BRANCH   4   5
ATOM      5  C   UNL     1     -10.362   6.593  -0.937  1.00  0.00    -0.000 C 
BRANCH   5   6
ATOM      6  C   UNL     1     -10.554   7.991  -0.330  1.00  0.00    -0.000 C 
BRANCH   6   7
ATOM      7  C   UNL     1     -11.348   8.933  -1.249  1.00  0.00    -0.000 C 
BRANCH   7   8
ATOM      8  C   UNL     1     -10.442   9.789  -2.146  1.00  0.00    -0.000 C 
BRANCH   8   9
ATOM      9  C   UNL     1     -11.274  10.710  -3.046  1.00  0.00    -0.000 C 
BRANCH   9  10
ATOM     10  C   UNL     1     -12.556  10.010  -3.515  1.00  0.00    -0.000 C 
BRANCH  10  11
ATOM     11  C   UNL     1     -13.739  10.984  -3.531  1.00  0.00    -0.003 C 
ATOM     12  C   UNL     1     -13.506  12.148  -2.570  1.00  0.00     0.004 C 
ENDBRANCH  10  11
ENDBRANCH   9  10
ENDBRANCH   8   9
ENDBRANCH   7   8
ENDBRANCH   6   7
ENDBRANCH   5   6
ENDBRANCH   4   5
ENDBRANCH   3   4
ENDBRANCH   2   3
ENDBRANCH   1   2
BRANCH   1  13
ATOM     13  C   UNL     1      -6.566   3.700  -3.199  1.00  0.00     0.000 C 
BRANCH  13  14
ATOM     14  C   UNL     1      -5.256   4.504  -3.296  1.00  0.00     0.000 C 
BRANCH  14  15
ATOM     15  C   UNL     1      -5.454   5.910  -3.882  1.00  0.00     0.000 C 
BRANCH  15  16
ATOM     16  C   UNL     1      -5.766   6.927  -2.773  1.00  0.00     0.000 C 
BRANCH  16  17
ATOM     17  C   UNL     1      -7.066   7.707  -3.026  1.00  0.00     0.000 C 
BRANCH  17  18
ATOM     18  C   UNL     1      -7.621   7.494  -4.446  1.00  0.00     0.000 C 
BRANCH  18  19
ATOM     19  C   UNL     1      -9.130   7.198  -4.449  1.00  0.00     0.000 C 
BRANCH  19  20
ATOM     20  C   UNL     1      -9.531   6.216  -5.565  1.00  0.00     0.006 C 
BRANCH  20  21
ATOM     21  C   UNL     1      -8.329   5.430  -6.107  1.00  0.00     0.053 C 
BRANCH  21  22
ATOM     22  C   UNL     1      -8.216   5.540  -7.598  1.00  0.00     0.041 C 
ATOM     23  O   UNL     1      -9.244   5.451  -8.319  1.00  0.00    -0.550 OA
ATOM     24  O   UNL     1      -6.979   5.774  -8.186  1.00  0.00    -0.550 OA
ENDBRANCH  21  22
ENDBRANCH  20  21
ENDBRANCH  19  20
ENDBRANCH  18  19
ENDBRANCH  17  18
ENDBRANCH  16  17
ENDBRANCH  15  16
ENDBRANCH  14  15
ENDBRANCH  13  14
ENDBRANCH   1  13
TORSDOF 20
ENDMDL
MODEL 3
REMARK VINA RESULT:    -4.940      2.428      3.865
REMARK INTER + INTRA:         -11.836
REMARK INTER:                  -9.613
REMARK INTRA:                  -2.223
REMARK UNBOUND:                -1.121
REMARK SMILES CCCCCCCCCCCCCCCCCCCCCC(=O)[O-]
REMARK SMILES IDX 12 1 11 2 10 3 9 4 8 5 7 6 6 7 5 8 4 9 3 10 2 11 1 12 13 13
REMARK SMILES IDX 14 14 15 15 16 16 17 17 18 18 19 19 20 20 21 21 22 22 23 23
REMARK SMILES IDX 24 24
REMARK H PARENT
REMARK Flexibility Score: inf
ROOT
ATOM      1  C   UNL     1      -9.109   5.531  -8.261  1.00  0.00     0.000 C 
ENDROOT
BRANCH   1   2
ATOM      2  C   UNL     1      -7.785   5.534  -7.482  1.00  0.00     0.000 C 
BRANCH   2   3
ATOM      3  C   UNL     1      -8.029   5.338  -5.981  1.00  0.00     0.000 C 
BRANCH   3   4
ATOM      4  C   UNL     1      -9.217   6.182  -5.505  1.00  0.00    -0.000 C 
BRANCH   4   5
ATOM      5  C   UNL     1      -8.784   7.195  -4.438  1.00  0.00    -0.000 C 
BRANCH   5   6
ATOM      6  C   UNL     1      -9.103   6.677  -3.028  1.00  0.00    -0.000 C 
BRANCH   6   7
ATOM      7  C   UNL     1      -7.861   6.139  -2.299  1.00  0.00    -0.000 C 
BRANCH   7   8
ATOM      8  C   UNL     1      -6.568   6.845  -2.731  1.00  0.00    -0.000 C 
BRANCH   8   9
ATOM      9  C   UNL     1      -5.491   5.825  -3.121  1.00  0.00    -0.000 C 
BRANCH   9  10
ATOM     10  C   UNL     1      -4.727   6.282  -4.370  1.00  0.00    -0.000 C 
BRANCH  10  11
ATOM     11  C   UNL     1      -4.989   7.763  -4.663  1.00  0.00    -0.003 C 
ATOM     12  C   UNL     1      -5.413   7.971  -6.115  1.00  0.00     0.004 C 
ENDBRANCH  10  11
ENDBRANCH   9  10
ENDBRANCH   8   9
ENDBRANCH   7   8
ENDBRANCH   6   7
ENDBRANCH   5   6
ENDBRANCH   4   5
ENDBRANCH   3   4
ENDBRANCH   2   3
ENDBRANCH   1   2
BRANCH   1  13
ATOM     13  C   UNL     1      -9.124   4.517  -9.420  1.00  0.00     0.000 C 
BRANCH  13  14
ATOM     14  C   UNL     1      -9.534   5.092 -10.789  1.00  0.00     0.000 C 
BRANCH  14  15
ATOM     15  C   UNL     1      -8.591   4.674 -11.925  1.00  0.00     0.000 C 
BRANCH  15  16
ATOM     16  C   UNL     1      -7.364   5.598 -11.988  1.00  0.00     0.000 C 
BRANCH  16  17
ATOM     17  C   UNL     1      -6.236   5.035 -12.869  1.00  0.00     0.000 C 
BRANCH  17  18
ATOM     18  C   UNL     1      -6.755   4.094 -13.971  1.00  0.00     0.000 C 
BRANCH  18  19
ATOM     19  C   UNL     1      -6.165   4.423 -15.351  1.00  0.00     0.000 C 
BRANCH  19  20
ATOM     20  C   UNL     1      -6.348   5.905 -15.728  1.00  0.00     0.006 C 
BRANCH  20  21
ATOM     21  C   UNL     1      -7.817   6.254 -16.007  1.00  0.00     0.053 C 
BRANCH  21  22
ATOM     22  C   UNL     1      -8.051   6.569 -17.454  1.00  0.00     0.041 C 
ATOM     23  O   UNL     1      -8.748   5.797 -18.164  1.00  0.00    -0.550 OA
ATOM     24  O   UNL     1      -7.527   7.731 -18.006  1.00  0.00    -0.550 OA
ENDBRANCH  21  22
ENDBRANCH  20  21
ENDBRANCH  19  20
ENDBRANCH  18  19
ENDBRANCH  17  18
ENDBRANCH  16  17
ENDBRANCH  15  16
ENDBRANCH  14  15
ENDBRANCH  13  14
ENDBRANCH   1  13
TORSDOF 20
ENDMDL
MODEL 4
REMARK VINA RESULT:    -4.909      5.557     11.461
REMARK INTER + INTRA:         -11.769
REMARK INTER:                  -9.865
REMARK INTRA:                  -1.904
REMARK UNBOUND:                -1.121
REMARK SMILES CCCCCCCCCCCCCCCCCCCCCC(=O)[O-]
REMARK SMILES IDX 12 1 11 2 10 3 9 4 8 5 7 6 6 7 5 8 4 9 3 10 2 11 1 12 13 13
REMARK SMILES IDX 14 14 15 15 16 16 17 17 18 18 19 19 20 20 21 21 22 22 23 23
REMARK SMILES IDX 24 24
REMARK H PARENT
REMARK Flexibility Score: inf
ROOT
ATOM      1  C   UNL     1      -9.483   5.123 -10.586  1.00  0.00     0.000 C 
ENDROOT
BRANCH   1   2
ATOM      2  C   UNL     1      -8.285   4.868 -11.512  1.00  0.00     0.000 C 
BRANCH   2   3
ATOM      3  C   UNL     1      -8.750   4.435 -12.908  1.00  0.00     0.000 C 
BRANCH   3   4
ATOM      4  C   UNL     1      -8.000   5.208 -13.999  1.00  0.00    -0.000 C 
BRANCH   4   5
ATOM      5  C   UNL     1      -6.495   5.253 -13.711  1.00  0.00    -0.000 C 
BRANCH   5   6
ATOM      6  C   UNL     1      -5.741   4.224 -14.565  1.00  0.00    -0.000 C 
BRANCH   6   7
ATOM      7  C   UNL     1      -4.855   4.877 -15.638  1.00  0.00    -0.000 C 
BRANCH   7   8
ATOM      8  C   UNL     1      -4.795   6.406 -15.506  1.00  0.00    -0.000 C 
BRANCH   8   9
ATOM      9  C   UNL     1      -5.529   7.085 -16.669  1.00  0.00    -0.000 C 
BRANCH   9  10
ATOM     10  C   UNL     1      -6.182   6.047 -17.590  1.00  0.00    -0.000 C 
BRANCH  10  11
ATOM     11  C   UNL     1      -7.705   6.219 -17.620  1.00  0.00    -0.003 C 
ATOM     12  C   UNL     1      -8.131   7.477 -16.865  1.00  0.00     0.004 C 
ENDBRANCH  10  11
ENDBRANCH   9  10
ENDBRANCH   8   9
ENDBRANCH   7   8
ENDBRANCH   6   7
ENDBRANCH   5   6
ENDBRANCH   4   5
ENDBRANCH   3   4
ENDBRANCH   2   3
ENDBRANCH   1   2
BRANCH   1  13
ATOM     13  C   UNL     1      -9.293   4.531  -9.177  1.00  0.00     0.000 C 
BRANCH  13  14
ATOM     14  C   UNL     1      -9.062   5.564  -8.059  1.00  0.00     0.000 C 
BRANCH  14  15
ATOM     15  C   UNL     1      -7.739   5.354  -7.308  1.00  0.00     0.000 C 
BRANCH  15  16
ATOM     16  C   UNL     1      -6.741   6.476  -7.631  1.00  0.00     0.000 C 
BRANCH  16  17
ATOM     17  C   UNL     1      -6.136   7.118  -6.372  1.00  0.00     0.000 C 
BRANCH  17  18
ATOM     18  C   UNL     1      -7.206   7.589  -5.371  1.00  0.00     0.000 C 
BRANCH  18  19
ATOM     19  C   UNL     1      -7.172   6.792  -4.057  1.00  0.00     0.000 C 
BRANCH  19  20
ATOM     20  C   UNL     1      -6.069   5.718  -4.051  1.00  0.00     0.006 C 
BRANCH  20  21
ATOM     21  C   UNL     1      -6.634   4.308  -3.829  1.00  0.00     0.053 C 
BRANCH  21  22
ATOM     22  C   UNL     1      -6.248   3.757  -2.489  1.00  0.00     0.041 C 
ATOM     23  O   UNL     1      -6.924   2.831  -1.967  1.00  0.00    -0.550 OA
ATOM     24  O   UNL     1      -5.123   4.244  -1.834  1.00  0.00    -0.550 OA
ENDBRANCH  21  22
ENDBRANCH  20  21
ENDBRANCH  19  20
ENDBRANCH  18  19
ENDBRANCH  17  18
ENDBRANCH  16  17
ENDBRANCH  15  16
ENDBRANCH  14  15
ENDBRANCH  13  14
ENDBRANCH   1  13
TORSDOF 20
ENDMDL
MODEL 5
REMARK VINA RESULT:    -4.909      2.026      3.115
REMARK INTER + INTRA:         -11.768
REMARK INTER:                  -9.578
REMARK INTRA:                  -2.191
REMARK UNBOUND:                -1.121
REMARK SMILES CCCCCCCCCCCCCCCCCCCCCC(=O)[O-]
REMARK SMILES IDX 12 1 11 2 10 3 9 4 8 5 7 6 6 7 5 8 4 9 3 10 2 11 1 12 13 13
REMARK SMILES IDX 14 14 15 15 16 16 17 17 18 18 19 19 20 20 21 21 22 22 23 23
REMARK SMILES IDX 24 24
REMARK H PARENT
REMARK Flexibility Score: inf
ROOT
ATOM      1  C   UNL     1      -9.118   5.583  -8.078  1.00  0.00     0.000 C 
ENDROOT
BRANCH   1   2
ATOM      2  C   UNL     1      -7.776   5.604  -7.330  1.00  0.00     0.000 C 
BRANCH   2   3
ATOM      3  C   UNL     1      -6.619   5.920  -8.285  1.00  0.00     0.000 C 
BRANCH   3   4
ATOM      4  C   UNL     1      -5.728   7.031  -7.717  1.00  0.00    -0.000 C 
BRANCH   4   5
ATOM      5  C   UNL     1      -6.122   7.375  -6.276  1.00  0.00    -0.000 C 
BRANCH   5   6
ATOM      6  C   UNL     1      -4.974   7.066  -5.304  1.00  0.00    -0.000 C 
BRANCH   6   7
ATOM      7  C   UNL     1      -5.471   6.662  -3.907  1.00  0.00    -0.000 C 
BRANCH   7   8
ATOM      8  C   UNL     1      -6.325   5.387  -3.928  1.00  0.00    -0.000 C 
BRANCH   8   9
ATOM      9  C   UNL     1      -7.627   5.587  -3.141  1.00  0.00    -0.000 C 
BRANCH   9  10
ATOM     10  C   UNL     1      -8.823   5.746  -4.088  1.00  0.00    -0.000 C 
BRANCH  10  11
ATOM     11  C   UNL     1      -9.209   7.221  -4.242  1.00  0.00    -0.003 C 
ATOM     12  C   UNL     1      -8.875   8.012  -2.978  1.00  0.00     0.004 C 
ENDBRANCH  10  11
ENDBRANCH   9  10
ENDBRANCH   8   9
ENDBRANCH   7   8
ENDBRANCH   6   7
ENDBRANCH   5   6
ENDBRANCH   4   5
ENDBRANCH   3   4
ENDBRANCH   2   3
ENDBRANCH   1   2
BRANCH   1  13
ATOM     13  C   UNL     1      -9.150   4.561  -9.230  1.00  0.00     0.000 C 
BRANCH  13  14
ATOM     14  C   UNL     1      -9.504   5.144 -10.611  1.00  0.00     0.000 C 
BRANCH  14  15
ATOM     15  C   UNL     1      -8.321   5.133 -11.590  1.00  0.00     0.000 C 
BRANCH  15  16
ATOM     16  C   UNL     1      -8.706   4.443 -12.908  1.00  0.00     0.000 C 
BRANCH  16  17
ATOM     17  C   UNL     1      -7.487   3.937 -13.697  1.00  0.00     0.000 C 
BRANCH  17  18
ATOM     18  C   UNL     1      -6.210   4.745 -13.401  1.00  0.00     0.000 C 
BRANCH  18  19
ATOM     19  C   UNL     1      -5.857   5.721 -14.535  1.00  0.00     0.000 C 
BRANCH  19  20
ATOM     20  C   UNL     1      -6.394   5.252 -15.900  1.00  0.00     0.006 C 
BRANCH  20  21
ATOM     21  C   UNL     1      -7.279   6.313 -16.570  1.00  0.00     0.053 C 
BRANCH  21  22
ATOM     22  C   UNL     1      -6.476   7.258 -17.414  1.00  0.00     0.041 C 
ATOM     23  O   UNL     1      -6.111   6.919 -18.570  1.00  0.00    -0.550 OA
ATOM     24  O   UNL     1      -6.163   8.523 -16.934  1.00  0.00    -0.550 OA
ENDBRANCH  21  22
ENDBRANCH  20  21
ENDBRANCH  19  20
ENDBRANCH  18  19
ENDBRANCH  17  18
ENDBRANCH  16  17
ENDBRANCH  15  16
ENDBRANCH  14  15
ENDBRANCH  13  14
ENDBRANCH   1  13
TORSDOF 20
ENDMDL
MODEL 6
REMARK VINA RESULT:    -4.901      1.768      2.681
REMARK INTER + INTRA:         -11.753
REMARK INTER:                 -10.339
REMARK INTRA:                  -1.414
REMARK UNBOUND:                -1.121
REMARK SMILES CCCCCCCCCCCCCCCCCCCCCC(=O)[O-]
REMARK SMILES IDX 12 1 11 2 10 3 9 4 8 5 7 6 6 7 5 8 4 9 3 10 2 11 1 12 13 13
REMARK SMILES IDX 14 14 15 15 16 16 17 17 18 18 19 19 20 20 21 21 22 22 23 23
REMARK SMILES IDX 24 24
REMARK H PARENT
REMARK Flexibility Score: inf
ROOT
ATOM      1  C   UNL     1      -9.325   4.562  -9.283  1.00  0.00     0.000 C 
ENDROOT
BRANCH   1   2
ATOM      2  C   UNL     1      -8.995   5.556  -8.158  1.00  0.00     0.000 C 
BRANCH   2   3
ATOM      3  C   UNL     1      -7.536   5.416  -7.710  1.00  0.00     0.000 C 
BRANCH   3   4
ATOM      4  C   UNL     1      -7.023   6.724  -7.096  1.00  0.00    -0.000 C 
BRANCH   4   5
ATOM      5  C   UNL     1      -6.677   6.541  -5.613  1.00  0.00    -0.000 C 
BRANCH   5   6
ATOM      6  C   UNL     1      -7.445   5.355  -5.012  1.00  0.00    -0.000 C 
BRANCH   6   7
ATOM      7  C   UNL     1      -8.495   5.791  -3.978  1.00  0.00    -0.000 C 
BRANCH   7   8
ATOM      8  C   UNL     1      -9.354   6.966  -4.464  1.00  0.00    -0.000 C 
BRANCH   8   9
ATOM      9  C   UNL     1      -9.767   7.865  -3.292  1.00  0.00    -0.000 C 
BRANCH   9  10
ATOM     10  C   UNL     1      -9.388   7.228  -1.949  1.00  0.00    -0.000 C 
BRANCH  10  11
ATOM     11  C   UNL     1     -10.598   7.166  -1.010  1.00  0.00    -0.003 C 
ATOM     12  C   UNL     1     -11.437   8.438  -1.110  1.00  0.00     0.004 C 
ENDBRANCH  10  11
ENDBRANCH   9  10
ENDBRANCH   8   9
ENDBRANCH   7   8
ENDBRANCH   6   7
ENDBRANCH   5   6
ENDBRANCH   4   5
ENDBRANCH   3   4
ENDBRANCH   2   3
ENDBRANCH   1   2
BRANCH   1  13
ATOM     13  C   UNL     1      -9.483   5.238 -10.657  1.00  0.00     0.000 C 
BRANCH  13  14
ATOM     14  C   UNL     1      -8.747   4.543 -11.818  1.00  0.00     0.000 C 
BRANCH  14  15
ATOM     15  C   UNL     1      -7.889   5.506 -12.651  1.00  0.00     0.000 C 
BRANCH  15  16
ATOM     16  C   UNL     1      -6.393   5.257 -12.409  1.00  0.00     0.000 C 
BRANCH  16  17
ATOM     17  C   UNL     1      -5.527   5.577 -13.638  1.00  0.00     0.000 C 
BRANCH  17  18
ATOM     18  C   UNL     1      -6.007   4.853 -14.910  1.00  0.00     0.000 C 
BRANCH  18  19
ATOM     19  C   UNL     1      -6.313   5.827 -16.059  1.00  0.00     0.000 C 
BRANCH  19  20
ATOM     20  C   UNL     1      -7.815   6.148 -16.171  1.00  0.00     0.006 C 
BRANCH  20  21
ATOM     21  C   UNL     1      -8.077   7.408 -17.009  1.00  0.00     0.053 C 
BRANCH  21  22
ATOM     22  C   UNL     1      -8.650   7.074 -18.353  1.00  0.00     0.041 C 
ATOM     23  O   UNL     1      -9.130   5.930 -18.571  1.00  0.00    -0.550 OA
ATOM     24  O   UNL     1      -8.683   8.038 -19.354  1.00  0.00    -0.550 OA
ENDBRANCH  21  22
ENDBRANCH  20  21
ENDBRANCH  19  20
ENDBRANCH  18  19
ENDBRANCH  17  18
ENDBRANCH  16  17
ENDBRANCH  15  16
ENDBRANCH  14  15
ENDBRANCH  13  14
ENDBRANCH   1  13
TORSDOF 20
ENDMDL
MODEL 7
REMARK VINA RESULT:    -4.895      5.585     11.212
REMARK INTER + INTRA:         -11.740
REMARK INTER:                  -9.750
REMARK INTRA:                  -1.990
REMARK UNBOUND:                -1.121
REMARK SMILES CCCCCCCCCCCCCCCCCCCCCC(=O)[O-]
REMARK SMILES IDX 12 1 11 2 10 3 9 4 8 5 7 6 6 7 5 8 4 9 3 10 2 11 1 12 13 13
REMARK SMILES IDX 14 14 15 15 16 16 17 17 18 18 19 19 20 20 21 21 22 22 23 23
REMARK SMILES IDX 24 24
REMARK H PARENT
REMARK Flexibility Score: inf
ROOT
ATOM      1  C   UNL     1      -9.081   5.390  -8.257  1.00  0.00     0.000 C 
ENDROOT
BRANCH   1   2
ATOM      2  C   UNL     1      -9.187   4.428  -9.450  1.00  0.00     0.000 C 
BRANCH   2   3
ATOM      3  C   UNL     1      -9.499   5.189 -10.745  1.00  0.00     0.000 C 
BRANCH   3   4
ATOM      4  C   UNL     1      -8.495   4.829 -11.847  1.00  0.00    -0.000 C 
BRANCH   4   5
ATOM      5  C   UNL     1      -7.168   5.571 -11.651  1.00  0.00    -0.000 C 
BRANCH   5   6
ATOM      6  C   UNL     1      -6.237   5.358 -12.853  1.00  0.00    -0.000 C 
BRANCH   6   7
ATOM      7  C   UNL     1      -6.685   4.194 -13.751  1.00  0.00    -0.000 C 
BRANCH   7   8
ATOM      8  C   UNL     1      -6.271   4.383 -15.217  1.00  0.00    -0.000 C 
BRANCH   8   9
ATOM      9  C   UNL     1      -5.422   5.649 -15.388  1.00  0.00    -0.000 C 
BRANCH   9  10
ATOM     10  C   UNL     1      -6.072   6.618 -16.384  1.00  0.00    -0.000 C 
BRANCH  10  11
ATOM     11  C   UNL     1      -7.599   6.591 -16.260  1.00  0.00    -0.003 C 
ATOM     12  C   UNL     1      -8.260   7.263 -17.461  1.00  0.00     0.004 C 
ENDBRANCH  10  11
ENDBRANCH   9  10
ENDBRANCH   8   9
ENDBRANCH   7   8
ENDBRANCH   6   7
ENDBRANCH   5   6
ENDBRANCH   4   5
ENDBRANCH   3   4
ENDBRANCH   2   3
ENDBRANCH   1   2
BRANCH   1  13
ATOM     13  C   UNL     1      -7.676   5.417  -7.628  1.00  0.00     0.000 C 
BRANCH  13  14
ATOM     14  C   UNL     1      -7.230   6.786  -7.080  1.00  0.00     0.000 C 
BRANCH  14  15
ATOM     15  C   UNL     1      -5.743   7.078  -7.326  1.00  0.00     0.000 C 
BRANCH  15  16
ATOM     16  C   UNL     1      -5.002   7.306  -6.000  1.00  0.00     0.000 C 
BRANCH  16  17
ATOM     17  C   UNL     1      -5.857   8.044  -4.956  1.00  0.00     0.000 C 
BRANCH  17  18
ATOM     18  C   UNL     1      -6.046   7.235  -3.660  1.00  0.00     0.000 C 
BRANCH  18  19
ATOM     19  C   UNL     1      -5.712   5.746  -3.844  1.00  0.00     0.000 C 
BRANCH  19  20
ATOM     20  C   UNL     1      -6.974   4.876  -3.986  1.00  0.00     0.006 C 
BRANCH  20  21
ATOM     21  C   UNL     1      -8.235   5.597  -3.487  1.00  0.00     0.053 C 
BRANCH  21  22
ATOM     22  C   UNL     1      -8.595   5.190  -2.090  1.00  0.00     0.041 C 
ATOM     23  O   UNL     1      -9.533   5.772  -1.483  1.00  0.00    -0.550 OA
ATOM     24  O   UNL     1      -7.915   4.147  -1.472  1.00  0.00    -0.550 OA
ENDBRANCH  21  22
ENDBRANCH  20  21
ENDBRANCH  19  20
ENDBRANCH  18  19
ENDBRANCH  17  18
ENDBRANCH  16  17
ENDBRANCH  15  16
ENDBRANCH  14  15
ENDBRANCH  13  14
ENDBRANCH   1  13
TORSDOF 20
ENDMDL
MODEL 8
REMARK VINA RESULT:    -4.872      4.800     11.937
REMARK INTER + INTRA:         -11.689
REMARK INTER:                 -10.584
REMARK INTRA:                  -1.105
REMARK UNBOUND:                -1.121
REMARK SMILES CCCCCCCCCCCCCCCCCCCCCC(=O)[O-]
REMARK SMILES IDX 12 1 11 2 10 3 9 4 8 5 7 6 6 7 5 8 4 9 3 10 2 11 1 12 13 13
REMARK SMILES IDX 14 14 15 15 16 16 17 17 18 18 19 19 20 20 21 21 22 22 23 23
REMARK SMILES IDX 24 24
REMARK H PARENT
REMARK Flexibility Score: inf
ROOT
ATOM      1  C   UNL     1      -9.132   5.587  -8.223  1.00  0.00     0.000 C 
ENDROOT
BRANCH   1   2
ATOM      2  C   UNL     1      -9.129   4.540  -9.347  1.00  0.00     0.000 C 
BRANCH   2   3
ATOM      3  C   UNL     1      -9.474   5.180 -10.697  1.00  0.00     0.000 C 
BRANCH   3   4
ATOM      4  C   UNL     1      -8.686   4.520 -11.834  1.00  0.00    -0.000 C 
BRANCH   4   5
ATOM      5  C   UNL     1      -7.862   5.554 -12.610  1.00  0.00    -0.000 C 
BRANCH   5   6
ATOM      6  C   UNL     1      -6.474   4.998 -12.962  1.00  0.00    -0.000 C 
BRANCH   6   7
ATOM      7  C   UNL     1      -6.523   3.940 -14.076  1.00  0.00    -0.000 C 
BRANCH   7   8
ATOM      8  C   UNL     1      -5.411   4.124 -15.117  1.00  0.00    -0.000 C 
BRANCH   8   9
ATOM      9  C   UNL     1      -5.983   4.630 -16.447  1.00  0.00    -0.000 C 
BRANCH   9  10
ATOM     10  C   UNL     1      -6.073   6.161 -16.461  1.00  0.00    -0.000 C 
BRANCH  10  11
ATOM     11  C   UNL     1      -7.527   6.628 -16.333  1.00  0.00    -0.003 C 
ATOM     12  C   UNL     1      -8.249   6.550 -17.676  1.00  0.00     0.004 C 
ENDBRANCH  10  11
ENDBRANCH   9  10
ENDBRANCH   8   9
ENDBRANCH   7   8
ENDBRANCH   6   7
ENDBRANCH   5   6
ENDBRANCH   4   5
ENDBRANCH   3   4
ENDBRANCH   2   3
ENDBRANCH   1   2
BRANCH   1  13
ATOM     13  C   UNL     1      -7.809   5.629  -7.435  1.00  0.00     0.000 C 
BRANCH  13  14
ATOM     14  C   UNL     1      -7.920   5.243  -5.948  1.00  0.00     0.000 C 
BRANCH  14  15
ATOM     15  C   UNL     1      -9.126   5.885  -5.248  1.00  0.00     0.000 C 
BRANCH  15  16
ATOM     16  C   UNL     1      -8.708   6.533  -3.919  1.00  0.00     0.000 C 
BRANCH  16  17
ATOM     17  C   UNL     1      -9.505   7.808  -3.598  1.00  0.00     0.000 C 
BRANCH  17  18
ATOM     18  C   UNL     1     -10.152   7.771  -2.202  1.00  0.00     0.000 C 
BRANCH  18  19
ATOM     19  C   UNL     1     -11.053   8.988  -1.939  1.00  0.00     0.000 C 
BRANCH  19  20
ATOM     20  C   UNL     1     -11.694   9.532  -3.229  1.00  0.00     0.006 C 
BRANCH  20  21
ATOM     21  C   UNL     1     -11.908  11.051  -3.174  1.00  0.00     0.053 C 
BRANCH  21  22
ATOM     22  C   UNL     1     -13.363  11.412  -3.199  1.00  0.00     0.041 C 
ATOM     23  O   UNL     1     -13.779  12.410  -2.554  1.00  0.00    -0.550 OA
ATOM     24  O   UNL     1     -14.252  10.664  -3.962  1.00  0.00    -0.550 OA
ENDBRANCH  21  22
ENDBRANCH  20  21
ENDBRANCH  19  20
ENDBRANCH  18  19
ENDBRANCH  17  18
ENDBRANCH  16  17
ENDBRANCH  15  16
ENDBRANCH  14  15
ENDBRANCH  13  14
ENDBRANCH   1  13
TORSDOF 20
ENDMDL
MODEL 9
REMARK VINA RESULT:    -4.865      5.035     11.059
REMARK INTER + INTRA:         -11.675
REMARK INTER:                  -9.333
REMARK INTRA:                  -2.342
REMARK UNBOUND:                -1.121
REMARK SMILES CCCCCCCCCCCCCCCCCCCCCC(=O)[O-]
REMARK SMILES IDX 12 1 11 2 10 3 9 4 8 5 7 6 6 7 5 8 4 9 3 10 2 11 1 12 13 13
REMARK SMILES IDX 14 14 15 15 16 16 17 17 18 18 19 19 20 20 21 21 22 22 23 23
REMARK SMILES IDX 24 24
REMARK H PARENT
REMARK Flexibility Score: inf
ROOT
ATOM      1  C   UNL     1      -6.495   7.379  -6.633  1.00  0.00     0.000 C 
ENDROOT
BRANCH   1   2
ATOM      2  C   UNL     1      -6.671   6.368  -7.775  1.00  0.00     0.000 C 
BRANCH   2   3
ATOM      3  C   UNL     1      -7.735   5.321  -7.425  1.00  0.00     0.000 C 
BRANCH   3   4
ATOM      4  C   UNL     1      -9.060   5.629  -8.131  1.00  0.00    -0.000 C 
BRANCH   4   5
ATOM      5  C   UNL     1      -9.447   4.504  -9.099  1.00  0.00    -0.000 C 
BRANCH   5   6
ATOM      6  C   UNL     1      -9.634   5.046 -10.524  1.00  0.00    -0.000 C 
BRANCH   6   7
ATOM      7  C   UNL     1      -8.300   5.256 -11.258  1.00  0.00    -0.000 C 
BRANCH   7   8
ATOM      8  C   UNL     1      -8.277   4.598 -12.645  1.00  0.00    -0.000 C 
BRANCH   8   9
ATOM      9  C   UNL     1      -7.181   5.212 -13.525  1.00  0.00    -0.000 C 
BRANCH   9  10
ATOM     10  C   UNL     1      -6.450   4.130 -14.330  1.00  0.00    -0.000 C 
BRANCH  10  11
ATOM     11  C   UNL     1      -6.121   4.624 -15.743  1.00  0.00    -0.003 C 
ATOM     12  C   UNL     1      -5.422   5.980 -15.702  1.00  0.00     0.004 C 
ENDBRANCH  10  11
ENDBRANCH   9  10
ENDBRANCH   8   9
ENDBRANCH   7   8
ENDBRANCH   6   7
ENDBRANCH   5   6
ENDBRANCH   4   5
ENDBRANCH   3   4
ENDBRANCH   2   3
ENDBRANCH   1   2
BRANCH   1  13
ATOM     13  C   UNL     1      -5.227   7.129  -5.796  1.00  0.00     0.000 C 
BRANCH  13  14
ATOM     14  C   UNL     1      -5.471   6.891  -4.293  1.00  0.00     0.000 C 
BRANCH  14  15
ATOM     15  C   UNL     1      -5.310   5.420  -3.883  1.00  0.00     0.000 C 
BRANCH  15  16
ATOM     16  C   UNL     1      -6.680   4.741  -3.731  1.00  0.00     0.000 C 
BRANCH  16  17
ATOM     17  C   UNL     1      -7.787   5.717  -3.300  1.00  0.00     0.000 C 
BRANCH  17  18
ATOM     18  C   UNL     1      -8.992   5.712  -4.258  1.00  0.00     0.000 C 
BRANCH  18  19
ATOM     19  C   UNL     1      -9.503   7.128  -4.567  1.00  0.00     0.000 C 
BRANCH  19  20
ATOM     20  C   UNL     1      -8.966   8.174  -3.573  1.00  0.00     0.006 C 
BRANCH  20  21
ATOM     21  C   UNL     1     -10.094   8.988  -2.923  1.00  0.00     0.053 C 
BRANCH  21  22
ATOM     22  C   UNL     1     -10.455   8.458  -1.567  1.00  0.00     0.041 C 
ATOM     23  O   UNL     1     -10.788   7.251  -1.428  1.00  0.00    -0.550 OA
ATOM     24  O   UNL     1     -10.391   9.289  -0.456  1.00  0.00    -0.550 OA
ENDBRANCH  21  22
ENDBRANCH  20  21
ENDBRANCH  19  20
ENDBRANCH  18  19
ENDBRANCH  17  18
ENDBRANCH  16  17
ENDBRANCH  15  16
ENDBRANCH  14  15
ENDBRANCH  13  14
ENDBRANCH   1  13
TORSDOF 20
ENDMDL
