MODEL 1
REMARK VINA RESULT:    15.990      0.000      0.000
REMARK INTER + INTRA:          34.906
REMARK INTER:                  36.556
REMARK INTRA:                  -1.650
REMARK UNBOUND:                -1.650
REMARK SMILES CCCCCCCCCCCCCCCCCCCCCCCC(=O)[O-]
REMARK SMILES IDX 13 1 14 2 15 3 16 4 17 5 18 6 19 7 20 8 21 9 22 10 23 11
REMARK SMILES IDX 24 12 25 13 26 14 12 15 11 16 10 17 9 18 8 19 7 20 6 21 5 22
REMARK SMILES IDX 4 23 3 24 2 25 1 26
REMARK H PARENT
REMARK Flexibility Score: inf
ROOT
ATOM      1  C   UNL     1     -32.018  12.114  18.522  1.00  0.00     0.000 C 
ENDROOT
BRANCH   1   2
ATOM      2  C   UNL     1     -33.175  11.321  19.155  1.00  0.00     0.000 C 
BRANCH   2   3
ATOM      3  C   UNL     1     -33.792  12.034  20.372  1.00  0.00     0.000 C 
BRANCH   3   4
ATOM      4  C   UNL     1     -34.159  11.113  21.554  1.00  0.00     0.000 C 
BRANCH   4   5
ATOM      5  C   UNL     1     -33.471   9.737  21.553  1.00  0.00     0.000 C 
BRANCH   5   6
ATOM      6  C   UNL     1     -34.469   8.570  21.653  1.00  0.00     0.000 C 
BRANCH   6   7
ATOM      7  C   UNL     1     -33.948   7.414  22.525  1.00  0.00     0.000 C 
BRANCH   7   8
ATOM      8  C   UNL     1     -35.010   6.375  22.935  1.00  0.00     0.000 C 
BRANCH   8   9
ATOM      9  C   UNL     1     -35.249   6.294  24.458  1.00  0.00     0.000 C 
BRANCH   9  10
ATOM     10  C   UNL     1     -34.297   7.211  25.246  1.00  0.00     0.006 C 
BRANCH  10  11
ATOM     11  C   UNL     1     -35.010   8.457  25.789  1.00  0.00     0.053 C 
BRANCH  11  12
ATOM     12  C   UNL     1     -34.053   9.583  26.031  1.00  0.00     0.041 C 
ATOM     13  O   UNL     1     -34.131  10.641  25.352  1.00  0.00    -0.550 OA
ATOM     14  O   UNL     1     -33.094   9.475  27.031  1.00  0.00    -0.550 OA
ENDBRANCH  11  12
ENDBRANCH  10  11
ENDBRANCH   9  10
ENDBRANCH   8   9
ENDBRANCH   7   8
ENDBRANCH   6   7
ENDBRANCH   5   6
ENDBRANCH   4   5
ENDBRANCH   3   4
ENDBRANCH   2   3
ENDBRANCH   1   2
BRANCH   1  15
ATOM     15  C   UNL     1     -32.418  12.777  17.190  1.00  0.00     0.000 C 
BRANCH  15  16
ATOM     16  C   UNL     1     -33.820  12.393  16.667  1.00  0.00     0.000 C 
BRANCH  16  17
ATOM     17  C   UNL     1     -34.896  13.494  16.789  1.00  0.00     0.000 C 
BRANCH  17  18
ATOM     18  C   UNL     1     -34.435  14.766  17.527  1.00  0.00    -0.000 C 
BRANCH  18  19
ATOM     19  C   UNL     1     -35.036  16.046  16.924  1.00  0.00    -0.000 C 
BRANCH  19  20
ATOM     20  C   UNL     1     -34.902  17.248  17.874  1.00  0.00    -0.000 C 
BRANCH  20  21
ATOM     21  C   UNL     1     -36.227  17.603  18.587  1.00  0.00    -0.000 C 
BRANCH  21  22
ATOM     22  C   UNL     1     -37.453  16.892  17.988  1.00  0.00    -0.000 C 
BRANCH  22  23
ATOM     23  C   UNL     1     -37.929  15.709  18.844  1.00  0.00    -0.000 C 
BRANCH  23  24
ATOM     24  C   UNL     1     -39.295  15.161  18.397  1.00  0.00    -0.000 C 
BRANCH  24  25
ATOM     25  C   UNL     1     -40.420  16.215  18.429  1.00  0.00    -0.003 C 
ATOM     26  C   UNL     1     -40.763  16.742  17.035  1.00  0.00     0.004 C 
ENDBRANCH  24  25
ENDBRANCH  23  24
ENDBRANCH  22  23
ENDBRANCH  21  22
ENDBRANCH  20  21
ENDBRANCH  19  20
ENDBRANCH  18  19
ENDBRANCH  17  18
ENDBRANCH  16  17
ENDBRANCH  15  16
ENDBRANCH   1  15
TORSDOF 22
ENDMDL
MODEL 2
REMARK VINA RESULT:    16.084      4.549      7.104
REMARK INTER + INTRA:          35.121
REMARK INTER:                  35.939
REMARK INTRA:                  -0.819
REMARK UNBOUND:                -1.650
REMARK SMILES CCCCCCCCCCCCCCCCCCCCCCCC(=O)[O-]
REMARK SMILES IDX 13 1 14 2 15 3 16 4 17 5 18 6 19 7 20 8 21 9 22 10 23 11
REMARK SMILES IDX 24 12 25 13 26 14 12 15 11 16 10 17 9 18 8 19 7 20 6 21 5 22
REMARK SMILES IDX 4 23 3 24 2 25 1 26
REMARK H PARENT
REMARK Flexibility Score: inf
ROOT
ATOM      1  C   UNL     1     -31.714  12.375  18.707  1.00  0.00     0.000 C 
ENDROOT
BRANCH   1   2
ATOM      2  C   UNL     1     -31.099  12.724  17.340  1.00  0.00     0.000 C 
BRANCH   2   3
ATOM      3  C   UNL     1     -29.566  12.846  17.388  1.00  0.00     0.000 C 
BRANCH   3   4
ATOM      4  C   UNL     1     -28.924  13.519  16.157  1.00  0.00     0.000 C 
BRANCH   4   5
ATOM      5  C   UNL     1     -28.091  14.777  16.456  1.00  0.00     0.000 C 
BRANCH   5   6
ATOM      6  C   UNL     1     -27.235  14.639  17.728  1.00  0.00     0.000 C 
BRANCH   6   7
ATOM      7  C   UNL     1     -26.161  15.734  17.845  1.00  0.00     0.000 C 
BRANCH   7   8
ATOM      8  C   UNL     1     -26.223  16.575  19.135  1.00  0.00     0.000 C 
BRANCH   8   9
ATOM      9  C   UNL     1     -26.127  15.739  20.430  1.00  0.00     0.000 C 
BRANCH   9  10
ATOM     10  C   UNL     1     -26.511  16.554  21.678  1.00  0.00     0.006 C 
BRANCH  10  11
ATOM     11  C   UNL     1     -27.916  16.206  22.188  1.00  0.00     0.053 C 
BRANCH  11  12
ATOM     12  C   UNL     1     -28.115  14.725  22.295  1.00  0.00     0.041 C 
ATOM     13  O   UNL     1     -29.275  14.236  22.265  1.00  0.00    -0.550 OA
ATOM     14  O   UNL     1     -27.015  13.882  22.397  1.00  0.00    -0.550 OA
ENDBRANCH  11  12
ENDBRANCH  10  11
ENDBRANCH   9  10
ENDBRANCH   8   9
ENDBRANCH   7   8
ENDBRANCH   6   7
ENDBRANCH   5   6
ENDBRANCH   4   5
ENDBRANCH   3   4
ENDBRANCH   2   3
ENDBRANCH   1   2
BRANCH   1  15
ATOM     15  C   UNL     1     -33.253  12.310  18.662  1.00  0.00     0.000 C 
BRANCH  15  16
ATOM     16  C   UNL     1     -33.855  12.124  17.252  1.00  0.00     0.000 C 
BRANCH  16  17
ATOM     17  C   UNL     1     -34.546  13.372  16.657  1.00  0.00     0.000 C 
BRANCH  17  18
ATOM     18  C   UNL     1     -34.498  14.622  17.556  1.00  0.00    -0.000 C 
BRANCH  18  19
ATOM     19  C   UNL     1     -34.889  15.903  16.801  1.00  0.00    -0.000 C 
BRANCH  19  20
ATOM     20  C   UNL     1     -35.124  17.086  17.755  1.00  0.00    -0.000 C 
BRANCH  20  21
ATOM     21  C   UNL     1     -36.472  16.994  18.507  1.00  0.00    -0.000 C 
BRANCH  21  22
ATOM     22  C   UNL     1     -37.517  16.129  17.783  1.00  0.00    -0.000 C 
BRANCH  22  23
ATOM     23  C   UNL     1     -38.422  15.357  18.755  1.00  0.00    -0.000 C 
BRANCH  23  24
ATOM     24  C   UNL     1     -39.869  15.879  18.765  1.00  0.00    -0.000 C 
BRANCH  24  25
ATOM     25  C   UNL     1     -40.479  16.027  17.356  1.00  0.00    -0.003 C 
ATOM     26  C   UNL     1     -40.825  17.478  17.023  1.00  0.00     0.004 C 
ENDBRANCH  24  25
ENDBRANCH  23  24
ENDBRANCH  22  23
ENDBRANCH  21  22
ENDBRANCH  20  21
ENDBRANCH  19  20
ENDBRANCH  18  19
ENDBRANCH  17  18
ENDBRANCH  16  17
ENDBRANCH  15  16
ENDBRANCH   1  15
TORSDOF 22
ENDMDL
MODEL 3
REMARK VINA RESULT:    16.106      0.825      1.267
REMARK INTER + INTRA:          35.171
REMARK INTER:                  35.883
REMARK INTRA:                  -0.713
REMARK UNBOUND:                -1.650
REMARK SMILES CCCCCCCCCCCCCCCCCCCCCCCC(=O)[O-]
REMARK SMILES IDX 13 1 14 2 15 3 16 4 17 5 18 6 19 7 20 8 21 9 22 10 23 11
REMARK SMILES IDX 24 12 25 13 26 14 12 15 11 16 10 17 9 18 8 19 7 20 6 21 5 22
REMARK SMILES IDX 4 23 3 24 2 25 1 26
REMARK H PARENT
REMARK Flexibility Score: inf
ROOT
ATOM      1  C   UNL     1     -32.294  11.809  19.183  1.00  0.00     0.000 C 
ENDROOT
BRANCH   1   2
ATOM      2  C   UNL     1     -33.611  11.743  19.977  1.00  0.00     0.000 C 
BRANCH   2   3
ATOM      3  C   UNL     1     -34.076  10.300  20.245  1.00  0.00     0.000 C 
BRANCH   3   4
ATOM      4  C   UNL     1     -33.873   9.804  21.691  1.00  0.00     0.000 C 
BRANCH   4   5
ATOM      5  C   UNL     1     -33.564   8.304  21.834  1.00  0.00     0.000 C 
BRANCH   5   6
ATOM      6  C   UNL     1     -34.803   7.472  22.211  1.00  0.00     0.000 C 
BRANCH   6   7
ATOM      7  C   UNL     1     -34.441   6.138  22.886  1.00  0.00     0.000 C 
BRANCH   7   8
ATOM      8  C   UNL     1     -34.628   6.107  24.416  1.00  0.00     0.000 C 
BRANCH   8   9
ATOM      9  C   UNL     1     -35.514   7.249  24.960  1.00  0.00     0.000 C 
BRANCH   9  10
ATOM     10  C   UNL     1     -34.796   8.080  26.038  1.00  0.00     0.006 C 
BRANCH  10  11
ATOM     11  C   UNL     1     -35.211   9.557  26.001  1.00  0.00     0.053 C 
BRANCH  11  12
ATOM     12  C   UNL     1     -34.054  10.449  25.671  1.00  0.00     0.041 C 
ATOM     13  O   UNL     1     -32.969  10.343  26.301  1.00  0.00    -0.550 OA
ATOM     14  O   UNL     1     -34.166  11.378  24.643  1.00  0.00    -0.550 OA
ENDBRANCH  11  12
ENDBRANCH  10  11
ENDBRANCH   9  10
ENDBRANCH   8   9
ENDBRANCH   7   8
ENDBRANCH   6   7
ENDBRANCH   5   6
ENDBRANCH   4   5
ENDBRANCH   3   4
ENDBRANCH   2   3
ENDBRANCH   1   2
BRANCH   1  15
ATOM     15  C   UNL     1     -32.488  12.392  17.770  1.00  0.00     0.000 C 
BRANCH  15  16
ATOM     16  C   UNL     1     -33.958  12.516  17.313  1.00  0.00     0.000 C 
BRANCH  16  17
ATOM     17  C   UNL     1     -34.341  13.870  16.673  1.00  0.00     0.000 C 
BRANCH  17  18
ATOM     18  C   UNL     1     -34.846  14.931  17.669  1.00  0.00    -0.000 C 
BRANCH  18  19
ATOM     19  C   UNL     1     -35.030  16.310  17.015  1.00  0.00    -0.000 C 
BRANCH  19  20
ATOM     20  C   UNL     1     -35.648  17.331  17.985  1.00  0.00    -0.000 C 
BRANCH  20  21
ATOM     21  C   UNL     1     -37.161  17.106  18.212  1.00  0.00    -0.000 C 
BRANCH  21  22
ATOM     22  C   UNL     1     -37.573  15.624  18.159  1.00  0.00    -0.000 C 
BRANCH  22  23
ATOM     23  C   UNL     1     -38.664  15.276  19.181  1.00  0.00    -0.000 C 
BRANCH  23  24
ATOM     24  C   UNL     1     -40.037  15.863  18.813  1.00  0.00    -0.000 C 
BRANCH  24  25
ATOM     25  C   UNL     1     -40.210  16.118  17.301  1.00  0.00    -0.003 C 
ATOM     26  C   UNL     1     -40.764  17.512  17.006  1.00  0.00     0.004 C 
ENDBRANCH  24  25
ENDBRANCH  23  24
ENDBRANCH  22  23
ENDBRANCH  21  22
ENDBRANCH  20  21
ENDBRANCH  19  20
ENDBRANCH  18  19
ENDBRANCH  17  18
ENDBRANCH  16  17
ENDBRANCH  15  16
ENDBRANCH   1  15
TORSDOF 22
ENDMDL
MODEL 4
REMARK VINA RESULT:    16.282      4.730      7.185
REMARK INTER + INTRA:          35.573
REMARK INTER:                  36.916
REMARK INTRA:                  -1.343
REMARK UNBOUND:                -1.650
REMARK SMILES CCCCCCCCCCCCCCCCCCCCCCCC(=O)[O-]
REMARK SMILES IDX 13 1 14 2 15 3 16 4 17 5 18 6 19 7 20 8 21 9 22 10 23 11
REMARK SMILES IDX 24 12 25 13 26 14 12 15 11 16 10 17 9 18 8 19 7 20 6 21 5 22
REMARK SMILES IDX 4 23 3 24 2 25 1 26
REMARK H PARENT
REMARK Flexibility Score: inf
ROOT
ATOM      1  C   UNL     1     -32.879  12.279  18.550  1.00  0.00     0.000 C 
ENDROOT
BRANCH   1   2
ATOM      2  C   UNL     1     -31.344  12.378  18.504  1.00  0.00     0.000 C 
BRANCH   2   3
ATOM      3  C   UNL     1     -30.809  12.720  17.102  1.00  0.00     0.000 C 
BRANCH   3   4
ATOM      4  C   UNL     1     -29.303  13.049  17.039  1.00  0.00     0.000 C 
BRANCH   4   5
ATOM      5  C   UNL     1     -28.897  14.060  15.952  1.00  0.00     0.000 C 
BRANCH   5   6
ATOM      6  C   UNL     1     -27.788  15.022  16.416  1.00  0.00     0.000 C 
BRANCH   6   7
ATOM      7  C   UNL     1     -27.260  14.688  17.822  1.00  0.00     0.000 C 
BRANCH   7   8
ATOM      8  C   UNL     1     -25.957  15.410  18.220  1.00  0.00     0.000 C 
BRANCH   8   9
ATOM      9  C   UNL     1     -26.166  16.576  19.209  1.00  0.00     0.000 C 
BRANCH   9  10
ATOM     10  C   UNL     1     -26.013  16.130  20.674  1.00  0.00     0.006 C 
BRANCH  10  11
ATOM     11  C   UNL     1     -27.165  16.631  21.556  1.00  0.00     0.053 C 
BRANCH  11  12
ATOM     12  C   UNL     1     -27.794  15.516  22.334  1.00  0.00     0.041 C 
ATOM     13  O   UNL     1     -27.441  14.324  22.134  1.00  0.00    -0.550 OA
ATOM     14  O   UNL     1     -28.748  15.800  23.303  1.00  0.00    -0.550 OA
ENDBRANCH  11  12
ENDBRANCH  10  11
ENDBRANCH   9  10
ENDBRANCH   8   9
ENDBRANCH   7   8
ENDBRANCH   6   7
ENDBRANCH   5   6
ENDBRANCH   4   5
ENDBRANCH   3   4
ENDBRANCH   2   3
ENDBRANCH   1   2
BRANCH   1  15
ATOM     15  C   UNL     1     -33.500  12.105  17.151  1.00  0.00     0.000 C 
BRANCH  15  16
ATOM     16  C   UNL     1     -34.523  13.192  16.753  1.00  0.00     0.000 C 
BRANCH  16  17
ATOM     17  C   UNL     1     -34.438  14.508  17.559  1.00  0.00     0.000 C 
BRANCH  17  18
ATOM     18  C   UNL     1     -35.101  15.721  16.880  1.00  0.00    -0.000 C 
BRANCH  18  19
ATOM     19  C   UNL     1     -34.742  17.049  17.568  1.00  0.00    -0.000 C 
BRANCH  19  20
ATOM     20  C   UNL     1     -35.922  17.618  18.374  1.00  0.00    -0.000 C 
BRANCH  20  21
ATOM     21  C   UNL     1     -37.261  16.912  18.058  1.00  0.00    -0.000 C 
BRANCH  21  22
ATOM     22  C   UNL     1     -37.580  15.749  19.012  1.00  0.00    -0.000 C 
BRANCH  22  23
ATOM     23  C   UNL     1     -39.056  15.328  18.963  1.00  0.00    -0.000 C 
BRANCH  23  24
ATOM     24  C   UNL     1     -39.716  15.627  17.606  1.00  0.00    -0.000 C 
BRANCH  24  25
ATOM     25  C   UNL     1     -41.001  16.474  17.722  1.00  0.00    -0.003 C 
ATOM     26  C   UNL     1     -41.017  17.642  16.735  1.00  0.00     0.004 C 
ENDBRANCH  24  25
ENDBRANCH  23  24
ENDBRANCH  22  23
ENDBRANCH  21  22
ENDBRANCH  20  21
ENDBRANCH  19  20
ENDBRANCH  18  19
ENDBRANCH  17  18
ENDBRANCH  16  17
ENDBRANCH  15  16
ENDBRANCH   1  15
TORSDOF 22
ENDMDL
MODEL 5
REMARK VINA RESULT:    16.322      1.742      2.847
REMARK INTER + INTRA:          35.664
REMARK INTER:                  36.246
REMARK INTRA:                  -0.582
REMARK UNBOUND:                -1.650
REMARK SMILES CCCCCCCCCCCCCCCCCCCCCCCC(=O)[O-]
REMARK SMILES IDX 13 1 14 2 15 3 16 4 17 5 18 6 19 7 20 8 21 9 22 10 23 11
REMARK SMILES IDX 24 12 25 13 26 14 12 15 11 16 10 17 9 18 8 19 7 20 6 21 5 22
REMARK SMILES IDX 4 23 3 24 2 25 1 26
REMARK H PARENT
REMARK Flexibility Score: inf
ROOT
ATOM      1  C   UNL     1     -33.625  10.596  19.884  1.00  0.00     0.000 C 
ENDROOT
BRANCH   1   2
ATOM      2  C   UNL     1     -33.990  10.568  21.379  1.00  0.00     0.000 C 
BRANCH   2   3
ATOM      3  C   UNL     1     -34.391  11.951  21.922  1.00  0.00     0.000 C 
BRANCH   3   4
ATOM      4  C   UNL     1     -34.402  12.073  23.459  1.00  0.00     0.000 C 
BRANCH   4   5
ATOM      5  C   UNL     1     -34.010  10.796  24.223  1.00  0.00     0.000 C 
BRANCH   5   6
ATOM      6  C   UNL     1     -34.293  10.892  25.733  1.00  0.00     0.000 C 
BRANCH   6   7
ATOM      7  C   UNL     1     -33.203  10.222  26.587  1.00  0.00     0.000 C 
BRANCH   7   8
ATOM      8  C   UNL     1     -33.413   8.718  26.851  1.00  0.00     0.000 C 
BRANCH   8   9
ATOM      9  C   UNL     1     -34.511   8.077  25.975  1.00  0.00     0.000 C 
BRANCH   9  10
ATOM     10  C   UNL     1     -34.024   6.794  25.279  1.00  0.00     0.006 C 
BRANCH  10  11
ATOM     11  C   UNL     1     -35.118   6.155  24.412  1.00  0.00     0.053 C 
BRANCH  11  12
ATOM     12  C   UNL     1     -34.932   6.476  22.960  1.00  0.00     0.041 C 
ATOM     13  O   UNL     1     -33.999   7.237  22.591  1.00  0.00    -0.550 OA
ATOM     14  O   UNL     1     -35.773   5.906  22.011  1.00  0.00    -0.550 OA
ENDBRANCH  11  12
ENDBRANCH  10  11
ENDBRANCH   9  10
ENDBRANCH   8   9
ENDBRANCH   7   8
ENDBRANCH   6   7
ENDBRANCH   5   6
ENDBRANCH   4   5
ENDBRANCH   3   4
ENDBRANCH   2   3
ENDBRANCH   1   2
BRANCH   1  15
ATOM     15  C   UNL     1     -33.232  12.005  19.399  1.00  0.00     0.000 C 
BRANCH  15  16
ATOM     16  C   UNL     1     -32.853  12.096  17.905  1.00  0.00     0.000 C 
BRANCH  16  17
ATOM     17  C   UNL     1     -33.735  13.037  17.054  1.00  0.00     0.000 C 
BRANCH  17  18
ATOM     18  C   UNL     1     -34.372  14.201  17.836  1.00  0.00    -0.000 C 
BRANCH  18  19
ATOM     19  C   UNL     1     -35.084  15.207  16.916  1.00  0.00    -0.000 C 
BRANCH  19  20
ATOM     20  C   UNL     1     -34.787  16.662  17.314  1.00  0.00    -0.000 C 
BRANCH  20  21
ATOM     21  C   UNL     1     -35.710  17.178  18.441  1.00  0.00    -0.000 C 
BRANCH  21  22
ATOM     22  C   UNL     1     -37.208  17.017  18.126  1.00  0.00    -0.000 C 
BRANCH  22  23
ATOM     23  C   UNL     1     -37.668  15.553  18.168  1.00  0.00    -0.000 C 
BRANCH  23  24
ATOM     24  C   UNL     1     -39.073  15.385  18.770  1.00  0.00    -0.000 C 
BRANCH  24  25
ATOM     25  C   UNL     1     -40.031  16.544  18.425  1.00  0.00    -0.003 C 
ATOM     26  C   UNL     1     -40.756  16.323  17.098  1.00  0.00     0.004 C 
ENDBRANCH  24  25
ENDBRANCH  23  24
ENDBRANCH  22  23
ENDBRANCH  21  22
ENDBRANCH  20  21
ENDBRANCH  19  20
ENDBRANCH  18  19
ENDBRANCH  17  18
ENDBRANCH  16  17
ENDBRANCH  15  16
ENDBRANCH   1  15
TORSDOF 22
ENDMDL
MODEL 6
REMARK VINA RESULT:    16.449      2.861      9.771
REMARK INTER + INTRA:          35.954
REMARK INTER:                  37.143
REMARK INTRA:                  -1.190
REMARK UNBOUND:                -1.650
REMARK SMILES CCCCCCCCCCCCCCCCCCCCCCCC(=O)[O-]
REMARK SMILES IDX 13 1 14 2 15 3 16 4 17 5 18 6 19 7 20 8 21 9 22 10 23 11
REMARK SMILES IDX 24 12 25 13 26 14 12 15 11 16 10 17 9 18 8 19 7 20 6 21 5 22
REMARK SMILES IDX 4 23 3 24 2 25 1 26
REMARK H PARENT
REMARK Flexibility Score: inf
ROOT
ATOM      1  C   UNL     1     -33.248  11.088  19.374  1.00  0.00     0.000 C 
ENDROOT
BRANCH   1   2
ATOM      2  C   UNL     1     -32.138  12.038  18.891  1.00  0.00     0.000 C 
BRANCH   2   3
ATOM      3  C   UNL     1     -32.454  12.683  17.530  1.00  0.00     0.000 C 
BRANCH   3   4
ATOM      4  C   UNL     1     -33.866  12.393  16.980  1.00  0.00     0.000 C 
BRANCH   4   5
ATOM      5  C   UNL     1     -34.715  13.636  16.662  1.00  0.00     0.000 C 
BRANCH   5   6
ATOM      6  C   UNL     1     -34.594  14.733  17.736  1.00  0.00     0.000 C 
BRANCH   6   7
ATOM      7  C   UNL     1     -34.814  16.146  17.170  1.00  0.00     0.000 C 
BRANCH   7   8
ATOM      8  C   UNL     1     -34.832  17.275  18.220  1.00  0.00     0.000 C 
BRANCH   8   9
ATOM      9  C   UNL     1     -36.208  17.958  18.380  1.00  0.00     0.000 C 
BRANCH   9  10
ATOM     10  C   UNL     1     -37.344  17.131  17.753  1.00  0.00     0.006 C 
BRANCH  10  11
ATOM     11  C   UNL     1     -37.573  15.807  18.494  1.00  0.00     0.053 C 
BRANCH  11  12
ATOM     12  C   UNL     1     -39.028  15.559  18.750  1.00  0.00     0.041 C 
ATOM     13  O   UNL     1     -39.903  16.110  18.031  1.00  0.00    -0.550 OA
ATOM     14  O   UNL     1     -39.415  14.691  19.764  1.00  0.00    -0.550 OA
ENDBRANCH  11  12
ENDBRANCH  10  11
ENDBRANCH   9  10
ENDBRANCH   8   9
ENDBRANCH   7   8
ENDBRANCH   6   7
ENDBRANCH   5   6
ENDBRANCH   4   5
ENDBRANCH   3   4
ENDBRANCH   2   3
ENDBRANCH   1   2
BRANCH   1  15
ATOM     15  C   UNL     1     -33.948  11.599  20.648  1.00  0.00     0.000 C 
BRANCH  15  16
ATOM     16  C   UNL     1     -34.172  10.530  21.740  1.00  0.00     0.000 C 
BRANCH  16  17
ATOM     17  C   UNL     1     -33.854   9.078  21.321  1.00  0.00     0.000 C 
BRANCH  17  18
ATOM     18  C   UNL     1     -33.766   8.076  22.489  1.00  0.00    -0.000 C 
BRANCH  18  19
ATOM     19  C   UNL     1     -34.673   6.852  22.281  1.00  0.00    -0.000 C 
BRANCH  19  20
ATOM     20  C   UNL     1     -34.814   6.015  23.564  1.00  0.00    -0.000 C 
BRANCH  20  21
ATOM     21  C   UNL     1     -34.550   6.835  24.848  1.00  0.00    -0.000 C 
BRANCH  21  22
ATOM     22  C   UNL     1     -35.726   7.744  25.246  1.00  0.00    -0.000 C 
BRANCH  22  23
ATOM     23  C   UNL     1     -35.360   8.732  26.363  1.00  0.00    -0.000 C 
BRANCH  23  24
ATOM     24  C   UNL     1     -34.816  10.067  25.825  1.00  0.00    -0.000 C 
BRANCH  24  25
ATOM     25  C   UNL     1     -33.285  10.206  25.964  1.00  0.00    -0.003 C 
ATOM     26  C   UNL     1     -32.757   9.563  27.245  1.00  0.00     0.004 C 
ENDBRANCH  24  25
ENDBRANCH  23  24
ENDBRANCH  22  23
ENDBRANCH  21  22
ENDBRANCH  20  21
ENDBRANCH  19  20
ENDBRANCH  18  19
ENDBRANCH  17  18
ENDBRANCH  16  17
ENDBRANCH  15  16
ENDBRANCH   1  15
TORSDOF 22
ENDMDL
MODEL 7
REMARK VINA RESULT:    16.521      0.898      1.882
REMARK INTER + INTRA:          36.118
REMARK INTER:                  37.016
REMARK INTRA:                  -0.898
REMARK UNBOUND:                -1.650
REMARK SMILES CCCCCCCCCCCCCCCCCCCCCCCC(=O)[O-]
REMARK SMILES IDX 13 1 14 2 15 3 16 4 17 5 18 6 19 7 20 8 21 9 22 10 23 11
REMARK SMILES IDX 24 12 25 13 26 14 12 15 11 16 10 17 9 18 8 19 7 20 6 21 5 22
REMARK SMILES IDX 4 23 3 24 2 25 1 26
REMARK H PARENT
REMARK Flexibility Score: inf
ROOT
ATOM      1  C   UNL     1     -33.802  12.139  19.926  1.00  0.00     0.000 C 
ENDROOT
BRANCH   1   2
ATOM      2  C   UNL     1     -33.972  11.272  21.186  1.00  0.00     0.000 C 
BRANCH   2   3
ATOM      3  C   UNL     1     -33.744   9.774  20.915  1.00  0.00     0.000 C 
BRANCH   3   4
ATOM      4  C   UNL     1     -34.485   8.816  21.871  1.00  0.00     0.000 C 
BRANCH   4   5
ATOM      5  C   UNL     1     -33.712   7.540  22.251  1.00  0.00     0.000 C 
BRANCH   5   6
ATOM      6  C   UNL     1     -34.634   6.328  22.474  1.00  0.00     0.000 C 
BRANCH   6   7
ATOM      7  C   UNL     1     -35.311   6.341  23.855  1.00  0.00     0.000 C 
BRANCH   7   8
ATOM      8  C   UNL     1     -34.365   6.604  25.044  1.00  0.00     0.000 C 
BRANCH   8   9
ATOM      9  C   UNL     1     -34.683   7.900  25.821  1.00  0.00     0.000 C 
BRANCH   9  10
ATOM     10  C   UNL     1     -33.478   8.399  26.637  1.00  0.00     0.006 C 
BRANCH  10  11
ATOM     11  C   UNL     1     -33.288   9.918  26.520  1.00  0.00     0.053 C 
BRANCH  11  12
ATOM     12  C   UNL     1     -34.364  10.549  25.690  1.00  0.00     0.041 C 
ATOM     13  O   UNL     1     -34.073  11.157  24.627  1.00  0.00    -0.550 OA
ATOM     14  O   UNL     1     -35.694  10.435  26.078  1.00  0.00    -0.550 OA
ENDBRANCH  11  12
ENDBRANCH  10  11
ENDBRANCH   9  10
ENDBRANCH   8   9
ENDBRANCH   7   8
ENDBRANCH   6   7
ENDBRANCH   5   6
ENDBRANCH   4   5
ENDBRANCH   3   4
ENDBRANCH   2   3
ENDBRANCH   1   2
BRANCH   1  15
ATOM     15  C   UNL     1     -32.520  11.797  19.143  1.00  0.00     0.000 C 
BRANCH  15  16
ATOM     16  C   UNL     1     -32.566  12.139  17.638  1.00  0.00     0.000 C 
BRANCH  16  17
ATOM     17  C   UNL     1     -33.964  12.486  17.080  1.00  0.00     0.000 C 
BRANCH  17  18
ATOM     18  C   UNL     1     -34.031  13.808  16.291  1.00  0.00    -0.000 C 
BRANCH  18  19
ATOM     19  C   UNL     1     -35.139  14.743  16.804  1.00  0.00    -0.000 C 
BRANCH  19  20
ATOM     20  C   UNL     1     -34.974  16.177  16.274  1.00  0.00    -0.000 C 
BRANCH  20  21
ATOM     21  C   UNL     1     -35.279  17.252  17.343  1.00  0.00    -0.000 C 
BRANCH  21  22
ATOM     22  C   UNL     1     -36.119  16.724  18.518  1.00  0.00    -0.000 C 
BRANCH  22  23
ATOM     23  C   UNL     1     -37.630  16.838  18.266  1.00  0.00    -0.000 C 
BRANCH  23  24
ATOM     24  C   UNL     1     -38.375  15.512  18.491  1.00  0.00    -0.000 C 
BRANCH  24  25
ATOM     25  C   UNL     1     -39.910  15.656  18.456  1.00  0.00    -0.003 C 
ATOM     26  C   UNL     1     -40.375  16.655  17.396  1.00  0.00     0.004 C 
ENDBRANCH  24  25
ENDBRANCH  23  24
ENDBRANCH  22  23
ENDBRANCH  21  22
ENDBRANCH  20  21
ENDBRANCH  19  20
ENDBRANCH  18  19
ENDBRANCH  17  18
ENDBRANCH  16  17
ENDBRANCH  15  16
ENDBRANCH   1  15
TORSDOF 22
ENDMDL
MODEL 8
REMARK VINA RESULT:    16.540      2.911      9.808
REMARK INTER + INTRA:          36.163
REMARK INTER:                  37.060
REMARK INTRA:                  -0.897
REMARK UNBOUND:                -1.650
REMARK SMILES CCCCCCCCCCCCCCCCCCCCCCCC(=O)[O-]
REMARK SMILES IDX 13 1 14 2 15 3 16 4 17 5 18 6 19 7 20 8 21 9 22 10 23 11
REMARK SMILES IDX 24 12 25 13 26 14 12 15 11 16 10 17 9 18 8 19 7 20 6 21 5 22
REMARK SMILES IDX 4 23 3 24 2 25 1 26
REMARK H PARENT
REMARK Flexibility Score: inf
ROOT
ATOM      1  C   UNL     1     -34.183  11.253  21.399  1.00  0.00     0.000 C 
ENDROOT
BRANCH   1   2
ATOM      2  C   UNL     1     -33.649  12.185  20.297  1.00  0.00     0.000 C 
BRANCH   2   3
ATOM      3  C   UNL     1     -32.807  11.444  19.243  1.00  0.00     0.000 C 
BRANCH   3   4
ATOM      4  C   UNL     1     -33.361  11.500  17.804  1.00  0.00     0.000 C 
BRANCH   4   5
ATOM      5  C   UNL     1     -33.040  12.788  17.026  1.00  0.00     0.000 C 
BRANCH   5   6
ATOM      6  C   UNL     1     -34.300  13.589  16.652  1.00  0.00     0.000 C 
BRANCH   6   7
ATOM      7  C   UNL     1     -34.608  14.716  17.652  1.00  0.00     0.000 C 
BRANCH   7   8
ATOM      8  C   UNL     1     -34.900  16.091  17.017  1.00  0.00     0.000 C 
BRANCH   8   9
ATOM      9  C   UNL     1     -35.308  17.176  18.037  1.00  0.00     0.000 C 
BRANCH   9  10
ATOM     10  C   UNL     1     -36.827  17.197  18.288  1.00  0.00     0.006 C 
BRANCH  10  11
ATOM     11  C   UNL     1     -37.491  15.861  17.930  1.00  0.00     0.053 C 
BRANCH  11  12
ATOM     12  C   UNL     1     -38.860  15.745  18.526  1.00  0.00     0.041 C 
ATOM     13  O   UNL     1     -39.835  16.345  18.002  1.00  0.00    -0.550 OA
ATOM     14  O   UNL     1     -39.064  14.944  19.643  1.00  0.00    -0.550 OA
ENDBRANCH  11  12
ENDBRANCH  10  11
ENDBRANCH   9  10
ENDBRANCH   8   9
ENDBRANCH   7   8
ENDBRANCH   6   7
ENDBRANCH   5   6
ENDBRANCH   4   5
ENDBRANCH   3   4
ENDBRANCH   2   3
ENDBRANCH   1   2
BRANCH   1  15
ATOM     15  C   UNL     1     -34.013   9.763  21.044  1.00  0.00     0.000 C 
BRANCH  15  16
ATOM     16  C   UNL     1     -33.946   8.809  22.257  1.00  0.00     0.000 C 
BRANCH  16  17
ATOM     17  C   UNL     1     -33.797   7.310  21.912  1.00  0.00     0.000 C 
BRANCH  17  18
ATOM     18  C   UNL     1     -34.707   6.370  22.726  1.00  0.00    -0.000 C 
BRANCH  18  19
ATOM     19  C   UNL     1     -34.924   6.863  24.166  1.00  0.00    -0.000 C 
BRANCH  19  20
ATOM     20  C   UNL     1     -34.106   6.049  25.183  1.00  0.00    -0.000 C 
BRANCH  20  21
ATOM     21  C   UNL     1     -33.247   6.936  26.113  1.00  0.00    -0.000 C 
BRANCH  21  22
ATOM     22  C   UNL     1     -34.050   8.050  26.808  1.00  0.00    -0.000 C 
BRANCH  22  23
ATOM     23  C   UNL     1     -33.182   9.259  27.186  1.00  0.00    -0.000 C 
BRANCH  23  24
ATOM     24  C   UNL     1     -33.096  10.307  26.064  1.00  0.00    -0.000 C 
BRANCH  24  25
ATOM     25  C   UNL     1     -34.475  10.813  25.591  1.00  0.00    -0.003 C 
ATOM     26  C   UNL     1     -34.390  11.583  24.273  1.00  0.00     0.004 C 
ENDBRANCH  24  25
ENDBRANCH  23  24
ENDBRANCH  22  23
ENDBRANCH  21  22
ENDBRANCH  20  21
ENDBRANCH  19  20
ENDBRANCH  18  19
ENDBRANCH  17  18
ENDBRANCH  16  17
ENDBRANCH  15  16
ENDBRANCH   1  15
TORSDOF 22
ENDMDL
MODEL 9
REMARK VINA RESULT:    16.629      2.928      9.631
REMARK INTER + INTRA:          36.365
REMARK INTER:                  36.252
REMARK INTRA:                   0.113
REMARK UNBOUND:                -1.650
REMARK SMILES CCCCCCCCCCCCCCCCCCCCCCCC(=O)[O-]
REMARK SMILES IDX 13 1 14 2 15 3 16 4 17 5 18 6 19 7 20 8 21 9 22 10 23 11
REMARK SMILES IDX 24 12 25 13 26 14 12 15 11 16 10 17 9 18 8 19 7 20 6 21 5 22
REMARK SMILES IDX 4 23 3 24 2 25 1 26
REMARK H PARENT
REMARK Flexibility Score: inf
ROOT
ATOM      1  C   UNL     1     -33.378  11.955  19.483  1.00  0.00     0.000 C 
ENDROOT
BRANCH   1   2
ATOM      2  C   UNL     1     -32.174  12.141  18.543  1.00  0.00     0.000 C 
BRANCH   2   3
ATOM      3  C   UNL     1     -32.552  12.018  17.056  1.00  0.00     0.000 C 
BRANCH   3   4
ATOM      4  C   UNL     1     -33.214  13.269  16.443  1.00  0.00     0.000 C 
BRANCH   4   5
ATOM      5  C   UNL     1     -34.673  13.514  16.864  1.00  0.00     0.000 C 
BRANCH   5   6
ATOM      6  C   UNL     1     -34.837  14.758  17.756  1.00  0.00     0.000 C 
BRANCH   6   7
ATOM      7  C   UNL     1     -35.015  16.052  16.944  1.00  0.00     0.000 C 
BRANCH   7   8
ATOM      8  C   UNL     1     -34.693  17.352  17.708  1.00  0.00     0.000 C 
BRANCH   8   9
ATOM      9  C   UNL     1     -35.887  17.919  18.507  1.00  0.00     0.000 C 
BRANCH   9  10
ATOM     10  C   UNL     1     -37.234  17.367  18.009  1.00  0.00     0.006 C 
BRANCH  10  11
ATOM     11  C   UNL     1     -37.470  15.920  18.463  1.00  0.00     0.053 C 
BRANCH  11  12
ATOM     12  C   UNL     1     -38.928  15.625  18.643  1.00  0.00     0.041 C 
ATOM     13  O   UNL     1     -39.788  16.232  17.952  1.00  0.00    -0.550 OA
ATOM     14  O   UNL     1     -39.332  14.654  19.551  1.00  0.00    -0.550 OA
ENDBRANCH  11  12
ENDBRANCH  10  11
ENDBRANCH   9  10
ENDBRANCH   8   9
ENDBRANCH   7   8
ENDBRANCH   6   7
ENDBRANCH   5   6
ENDBRANCH   4   5
ENDBRANCH   3   4
ENDBRANCH   2   3
ENDBRANCH   1   2
BRANCH   1  15
ATOM     15  C   UNL     1     -33.420  10.551  20.115  1.00  0.00     0.000 C 
BRANCH  15  16
ATOM     16  C   UNL     1     -34.073  10.486  21.514  1.00  0.00     0.000 C 
BRANCH  16  17
ATOM     17  C   UNL     1     -34.257  11.846  22.222  1.00  0.00     0.000 C 
BRANCH  17  18
ATOM     18  C   UNL     1     -34.612  11.749  23.718  1.00  0.00    -0.000 C 
BRANCH  18  19
ATOM     19  C   UNL     1     -33.679  10.795  24.482  1.00  0.00    -0.000 C 
BRANCH  19  20
ATOM     20  C   UNL     1     -34.040  10.709  25.975  1.00  0.00    -0.000 C 
BRANCH  20  21
ATOM     21  C   UNL     1     -33.075   9.804  26.775  1.00  0.00    -0.000 C 
BRANCH  21  22
ATOM     22  C   UNL     1     -33.589   8.365  26.950  1.00  0.00    -0.000 C 
BRANCH  22  23
ATOM     23  C   UNL     1     -34.710   8.012  25.962  1.00  0.00    -0.000 C 
BRANCH  23  24
ATOM     24  C   UNL     1     -34.383   6.777  25.105  1.00  0.00    -0.000 C 
BRANCH  24  25
ATOM     25  C   UNL     1     -35.368   6.563  23.936  1.00  0.00    -0.003 C 
ATOM     26  C   UNL     1     -34.654   6.209  22.632  1.00  0.00     0.004 C 
ENDBRANCH  24  25
ENDBRANCH  23  24
ENDBRANCH  22  23
ENDBRANCH  21  22
ENDBRANCH  20  21
ENDBRANCH  19  20
ENDBRANCH  18  19
ENDBRANCH  17  18
ENDBRANCH  16  17
ENDBRANCH  15  16
ENDBRANCH   1  15
TORSDOF 22
ENDMDL
