MODEL 1
REMARK VINA RESULT:    -4.436      0.000      0.000
REMARK INTER + INTRA:          -8.974
REMARK INTER:                  -7.547
REMARK INTRA:                  -1.427
REMARK UNBOUND:                -1.427
REMARK SMILES CCCCCCCCCCCCCC(=O)[O-]
REMARK SMILES IDX 8 1 9 2 10 3 11 4 12 5 13 6 14 7 15 8 16 9 7 10 6 11 5 12
REMARK SMILES IDX 4 13 3 14 2 15 1 16
REMARK H PARENT
REMARK Flexibility Score: inf
ROOT
ATOM      1  C   UNL     1       9.941  28.457 -13.564  1.00  0.00     0.000 C 
ENDROOT
BRANCH   1   2
ATOM      2  C   UNL     1       8.993  29.508 -12.964  1.00  0.00     0.000 C 
BRANCH   2   3
ATOM      3  C   UNL     1       7.521  29.067 -13.011  1.00  0.00     0.000 C 
BRANCH   3   4
ATOM      4  C   UNL     1       7.199  28.225 -14.258  1.00  0.00     0.000 C 
BRANCH   4   5
ATOM      5  C   UNL     1       6.293  28.964 -15.259  1.00  0.00     0.006 C 
BRANCH   5   6
ATOM      6  C   UNL     1       5.850  30.364 -14.800  1.00  0.00     0.053 C 
BRANCH   6   7
ATOM      7  C   UNL     1       6.421  31.444 -15.665  1.00  0.00     0.041 C 
ATOM      8  O   UNL     1       5.907  31.696 -16.786  1.00  0.00    -0.550 OA
ATOM      9  O   UNL     1       7.503  32.193 -15.220  1.00  0.00    -0.550 OA
ENDBRANCH   6   7
ENDBRANCH   5   6
ENDBRANCH   4   5
ENDBRANCH   3   4
ENDBRANCH   2   3
ENDBRANCH   1   2
BRANCH   1  10
ATOM     10  C   UNL     1      10.759  27.708 -12.495  1.00  0.00     0.000 C 
BRANCH  10  11
ATOM     11  C   UNL     1      10.409  26.217 -12.331  1.00  0.00    -0.000 C 
BRANCH  11  12
ATOM     12  C   UNL     1       9.822  25.596 -13.608  1.00  0.00    -0.000 C 
BRANCH  12  13
ATOM     13  C   UNL     1       8.825  24.482 -13.268  1.00  0.00    -0.000 C 
BRANCH  13  14
ATOM     14  C   UNL     1       7.592  25.046 -12.554  1.00  0.00    -0.000 C 
BRANCH  14  15
ATOM     15  C   UNL     1       7.065  24.061 -11.504  1.00  0.00    -0.003 C 
ATOM     16  C   UNL     1       8.190  23.559 -10.605  1.00  0.00     0.004 C 
ENDBRANCH  14  15
ENDBRANCH  13  14
ENDBRANCH  12  13
ENDBRANCH  11  12
ENDBRANCH  10  11
ENDBRANCH   1  10
TORSDOF 12
ENDMDL
MODEL 2
REMARK VINA RESULT:    -4.428      3.855      6.970
REMARK INTER + INTRA:          -8.961
REMARK INTER:                  -7.870
REMARK INTRA:                  -1.091
REMARK UNBOUND:                -1.427
REMARK SMILES CCCCCCCCCCCCCC(=O)[O-]
REMARK SMILES IDX 8 1 9 2 10 3 11 4 12 5 13 6 14 7 15 8 16 9 7 10 6 11 5 12
REMARK SMILES IDX 4 13 3 14 2 15 1 16
REMARK H PARENT
REMARK Flexibility Score: inf
ROOT
ATOM      1  C   UNL     1       7.611  28.577 -12.996  1.00  0.00     0.000 C 
ENDROOT
BRANCH   1   2
ATOM      2  C   UNL     1       8.133  27.131 -13.058  1.00  0.00     0.000 C 
BRANCH   2   3
ATOM      3  C   UNL     1       9.668  27.061 -13.072  1.00  0.00     0.000 C 
BRANCH   3   4
ATOM      4  C   UNL     1      10.209  25.845 -12.300  1.00  0.00     0.000 C 
BRANCH   4   5
ATOM      5  C   UNL     1       9.121  24.800 -11.997  1.00  0.00     0.006 C 
BRANCH   5   6
ATOM      6  C   UNL     1       8.984  24.438 -10.508  1.00  0.00     0.053 C 
BRANCH   6   7
ATOM      7  C   UNL     1       7.800  23.559 -10.252  1.00  0.00     0.041 C 
ATOM      8  O   UNL     1       7.812  22.742  -9.294  1.00  0.00    -0.550 OA
ATOM      9  O   UNL     1       6.670  23.663 -11.053  1.00  0.00    -0.550 OA
ENDBRANCH   6   7
ENDBRANCH   5   6
ENDBRANCH   4   5
ENDBRANCH   3   4
ENDBRANCH   2   3
ENDBRANCH   1   2
BRANCH   1  10
ATOM     10  C   UNL     1       8.739  29.616 -12.854  1.00  0.00     0.000 C 
BRANCH  10  11
ATOM     11  C   UNL     1       8.269  31.076 -12.722  1.00  0.00    -0.000 C 
BRANCH  11  12
ATOM     12  C   UNL     1       7.785  31.672 -14.052  1.00  0.00    -0.000 C 
BRANCH  12  13
ATOM     13  C   UNL     1       6.285  31.984 -14.000  1.00  0.00    -0.000 C 
BRANCH  13  14
ATOM     14  C   UNL     1       5.486  30.991 -14.852  1.00  0.00    -0.000 C 
BRANCH  14  15
ATOM     15  C   UNL     1       6.284  30.555 -16.085  1.00  0.00    -0.003 C 
ATOM     16  C   UNL     1       6.324  29.035 -16.209  1.00  0.00     0.004 C 
ENDBRANCH  14  15
ENDBRANCH  13  14
ENDBRANCH  12  13
ENDBRANCH  11  12
ENDBRANCH  10  11
ENDBRANCH   1  10
TORSDOF 12
ENDMDL
MODEL 3
REMARK VINA RESULT:    -4.426      3.730      6.185
REMARK INTER + INTRA:          -8.957
REMARK INTER:                  -7.561
REMARK INTRA:                  -1.396
REMARK UNBOUND:                -1.427
REMARK SMILES CCCCCCCCCCCCCC(=O)[O-]
REMARK SMILES IDX 8 1 9 2 10 3 11 4 12 5 13 6 14 7 15 8 16 9 7 10 6 11 5 12
REMARK SMILES IDX 4 13 3 14 2 15 1 16
REMARK H PARENT
REMARK Flexibility Score: inf
ROOT
ATOM      1  C   UNL     1      10.885  27.144 -15.400  1.00  0.00     0.000 C 
ENDROOT
BRANCH   1   2
ATOM      2  C   UNL     1      10.919  26.076 -14.293  1.00  0.00     0.000 C 
BRANCH   2   3
ATOM      3  C   UNL     1      10.128  24.813 -14.670  1.00  0.00     0.000 C 
BRANCH   3   4
ATOM      4  C   UNL     1       9.226  24.319 -13.526  1.00  0.00     0.000 C 
BRANCH   4   5
ATOM      5  C   UNL     1       9.347  25.182 -12.257  1.00  0.00     0.006 C 
BRANCH   5   6
ATOM      6  C   UNL     1       9.067  24.427 -10.947  1.00  0.00     0.053 C 
BRANCH   6   7
ATOM      7  C   UNL     1       7.923  23.470 -11.085  1.00  0.00     0.041 C 
ATOM      8  O   UNL     1       8.112  22.233 -10.952  1.00  0.00    -0.550 OA
ATOM      9  O   UNL     1       6.643  23.949 -11.332  1.00  0.00    -0.550 OA
ENDBRANCH   6   7
ENDBRANCH   5   6
ENDBRANCH   4   5
ENDBRANCH   3   4
ENDBRANCH   2   3
ENDBRANCH   1   2
BRANCH   1  10
ATOM     10  C   UNL     1      10.497  28.539 -14.875  1.00  0.00     0.000 C 
BRANCH  10  11
ATOM     11  C   UNL     1      10.927  28.836 -13.427  1.00  0.00    -0.000 C 
BRANCH  11  12
ATOM     12  C   UNL     1      10.171  30.022 -12.809  1.00  0.00    -0.000 C 
BRANCH  12  13
ATOM     13  C   UNL     1       8.823  30.236 -13.506  1.00  0.00    -0.000 C 
BRANCH  13  14
ATOM     14  C   UNL     1       7.677  29.625 -12.691  1.00  0.00    -0.000 C 
BRANCH  14  15
ATOM     15  C   UNL     1       7.346  28.211 -13.181  1.00  0.00    -0.003 C 
ATOM     16  C   UNL     1       6.652  28.245 -14.539  1.00  0.00     0.004 C 
ENDBRANCH  14  15
ENDBRANCH  13  14
ENDBRANCH  12  13
ENDBRANCH  11  12
ENDBRANCH  10  11
ENDBRANCH   1  10
TORSDOF 12
ENDMDL
MODEL 4
REMARK VINA RESULT:    -4.370      3.395      6.311
REMARK INTER + INTRA:          -8.862
REMARK INTER:                  -7.466
REMARK INTRA:                  -1.395
REMARK UNBOUND:                -1.427
REMARK SMILES CCCCCCCCCCCCCC(=O)[O-]
REMARK SMILES IDX 8 1 9 2 10 3 11 4 12 5 13 6 14 7 15 8 16 9 7 10 6 11 5 12
REMARK SMILES IDX 4 13 3 14 2 15 1 16
REMARK H PARENT
REMARK Flexibility Score: inf
ROOT
ATOM      1  C   UNL     1      10.027  28.829 -14.529  1.00  0.00     0.000 C 
ENDROOT
BRANCH   1   2
ATOM      2  C   UNL     1      10.825  27.604 -15.007  1.00  0.00     0.000 C 
BRANCH   2   3
ATOM      3  C   UNL     1      10.768  26.438 -14.006  1.00  0.00     0.000 C 
BRANCH   3   4
ATOM      4  C   UNL     1      10.167  25.163 -14.623  1.00  0.00     0.000 C 
BRANCH   4   5
ATOM      5  C   UNL     1       9.268  24.393 -13.640  1.00  0.00     0.006 C 
BRANCH   5   6
ATOM      6  C   UNL     1       9.382  24.857 -12.178  1.00  0.00     0.053 C 
BRANCH   6   7
ATOM      7  C   UNL     1       8.239  24.366 -11.343  1.00  0.00     0.041 C 
ATOM      8  O   UNL     1       7.100  24.215 -11.856  1.00  0.00    -0.550 OA
ATOM      9  O   UNL     1       8.441  24.047 -10.007  1.00  0.00    -0.550 OA
ENDBRANCH   6   7
ENDBRANCH   5   6
ENDBRANCH   4   5
ENDBRANCH   3   4
ENDBRANCH   2   3
ENDBRANCH   1   2
BRANCH   1  10
ATOM     10  C   UNL     1       9.518  28.686 -13.083  1.00  0.00     0.000 C 
BRANCH  10  11
ATOM     11  C   UNL     1       7.996  28.829 -12.909  1.00  0.00    -0.000 C 
BRANCH  11  12
ATOM     12  C   UNL     1       7.198  27.838 -13.771  1.00  0.00    -0.000 C 
BRANCH  12  13
ATOM     13  C   UNL     1       6.384  28.574 -14.841  1.00  0.00    -0.000 C 
BRANCH  13  14
ATOM     14  C   UNL     1       6.505  30.093 -14.678  1.00  0.00    -0.000 C 
BRANCH  14  15
ATOM     15  C   UNL     1       6.211  30.814 -15.999  1.00  0.00    -0.003 C 
ATOM     16  C   UNL     1       5.504  32.144 -15.756  1.00  0.00     0.004 C 
ENDBRANCH  14  15
ENDBRANCH  13  14
ENDBRANCH  12  13
ENDBRANCH  11  12
ENDBRANCH  10  11
ENDBRANCH   1  10
TORSDOF 12
ENDMDL
MODEL 5
REMARK VINA RESULT:    -4.364      1.847      2.472
REMARK INTER + INTRA:          -8.852
REMARK INTER:                  -7.947
REMARK INTRA:                  -0.906
REMARK UNBOUND:                -1.427
REMARK SMILES CCCCCCCCCCCCCC(=O)[O-]
REMARK SMILES IDX 8 1 9 2 10 3 11 4 12 5 13 6 14 7 15 8 16 9 7 10 6 11 5 12
REMARK SMILES IDX 4 13 3 14 2 15 1 16
REMARK H PARENT
REMARK Flexibility Score: inf
ROOT
ATOM      1  C   UNL     1       8.855  29.262 -12.837  1.00  0.00     0.000 C 
ENDROOT
BRANCH   1   2
ATOM      2  C   UNL     1       7.514  30.014 -12.786  1.00  0.00     0.000 C 
BRANCH   2   3
ATOM      3  C   UNL     1       7.697  31.541 -12.778  1.00  0.00     0.000 C 
BRANCH   3   4
ATOM      4  C   UNL     1       7.552  32.159 -14.179  1.00  0.00     0.000 C 
BRANCH   4   5
ATOM      5  C   UNL     1       6.694  31.298 -15.124  1.00  0.00     0.006 C 
BRANCH   5   6
ATOM      6  C   UNL     1       5.476  32.027 -15.716  1.00  0.00     0.053 C 
BRANCH   6   7
ATOM      7  C   UNL     1       4.632  32.661 -14.654  1.00  0.00     0.041 C 
ATOM      8  O   UNL     1       4.047  31.946 -13.799  1.00  0.00    -0.550 OA
ATOM      9  O   UNL     1       4.516  34.043 -14.590  1.00  0.00    -0.550 OA
ENDBRANCH   6   7
ENDBRANCH   5   6
ENDBRANCH   4   5
ENDBRANCH   3   4
ENDBRANCH   2   3
ENDBRANCH   1   2
BRANCH   1  10
ATOM     10  C   UNL     1       8.695  27.777 -13.214  1.00  0.00     0.000 C 
BRANCH  10  11
ATOM     11  C   UNL     1       7.272  27.213 -13.056  1.00  0.00    -0.000 C 
BRANCH  11  12
ATOM     12  C   UNL     1       7.242  25.680 -12.963  1.00  0.00    -0.000 C 
BRANCH  12  13
ATOM     13  C   UNL     1       8.662  25.107 -12.884  1.00  0.00    -0.000 C 
BRANCH  13  14
ATOM     14  C   UNL     1       8.698  23.838 -12.025  1.00  0.00    -0.000 C 
BRANCH  14  15
ATOM     15  C   UNL     1       8.504  24.171 -10.542  1.00  0.00    -0.003 C 
ATOM     16  C   UNL     1       7.828  23.021  -9.801  1.00  0.00     0.004 C 
ENDBRANCH  14  15
ENDBRANCH  13  14
ENDBRANCH  12  13
ENDBRANCH  11  12
ENDBRANCH  10  11
ENDBRANCH   1  10
TORSDOF 12
ENDMDL
MODEL 6
REMARK VINA RESULT:    -4.298      4.078      7.318
REMARK INTER + INTRA:          -8.739
REMARK INTER:                  -7.878
REMARK INTRA:                  -0.862
REMARK UNBOUND:                -1.427
REMARK SMILES CCCCCCCCCCCCCC(=O)[O-]
REMARK SMILES IDX 8 1 9 2 10 3 11 4 12 5 13 6 14 7 15 8 16 9 7 10 6 11 5 12
REMARK SMILES IDX 4 13 3 14 2 15 1 16
REMARK H PARENT
REMARK Flexibility Score: inf
ROOT
ATOM      1  C   UNL     1       8.096  28.793 -13.130  1.00  0.00     0.000 C 
ENDROOT
BRANCH   1   2
ATOM      2  C   UNL     1       7.011  27.732 -13.383  1.00  0.00     0.000 C 
BRANCH   2   3
ATOM      3  C   UNL     1       7.473  26.317 -13.001  1.00  0.00     0.000 C 
BRANCH   3   4
ATOM      4  C   UNL     1       8.979  26.252 -12.692  1.00  0.00     0.000 C 
BRANCH   4   5
ATOM      5  C   UNL     1       9.440  24.847 -12.265  1.00  0.00     0.006 C 
BRANCH   5   6
ATOM      6  C   UNL     1       8.937  24.409 -10.879  1.00  0.00     0.053 C 
BRANCH   6   7
ATOM      7  C   UNL     1       7.959  23.278 -10.970  1.00  0.00     0.041 C 
ATOM      8  O   UNL     1       8.361  22.112 -11.219  1.00  0.00    -0.550 OA
ATOM      9  O   UNL     1       6.607  23.509 -10.748  1.00  0.00    -0.550 OA
ENDBRANCH   6   7
ENDBRANCH   5   6
ENDBRANCH   4   5
ENDBRANCH   3   4
ENDBRANCH   2   3
ENDBRANCH   1   2
BRANCH   1  10
ATOM     10  C   UNL     1       7.513  30.176 -12.786  1.00  0.00     0.000 C 
BRANCH  10  11
ATOM     11  C   UNL     1       7.574  31.212 -13.924  1.00  0.00    -0.000 C 
BRANCH  11  12
ATOM     12  C   UNL     1       6.492  30.993 -14.992  1.00  0.00    -0.000 C 
BRANCH  12  13
ATOM     13  C   UNL     1       5.467  32.133 -14.978  1.00  0.00    -0.000 C 
BRANCH  13  14
ATOM     14  C   UNL     1       4.321  31.831 -14.006  1.00  0.00    -0.000 C 
BRANCH  14  15
ATOM     15  C   UNL     1       4.067  33.016 -13.067  1.00  0.00    -0.003 C 
ATOM     16  C   UNL     1       4.817  32.846 -11.749  1.00  0.00     0.004 C 
ENDBRANCH  14  15
ENDBRANCH  13  14
ENDBRANCH  12  13
ENDBRANCH  11  12
ENDBRANCH  10  11
ENDBRANCH   1  10
TORSDOF 12
ENDMDL
MODEL 7
REMARK VINA RESULT:    -4.282     10.633     12.344
REMARK INTER + INTRA:          -8.713
REMARK INTER:                  -7.085
REMARK INTRA:                  -1.628
REMARK UNBOUND:                -1.427
REMARK SMILES CCCCCCCCCCCCCC(=O)[O-]
REMARK SMILES IDX 8 1 9 2 10 3 11 4 12 5 13 6 14 7 15 8 16 9 7 10 6 11 5 12
REMARK SMILES IDX 4 13 3 14 2 15 1 16
REMARK H PARENT
REMARK Flexibility Score: inf
ROOT
ATOM      1  C   UNL     1       1.910  21.384  -8.092  1.00  0.00     0.000 C 
ENDROOT
BRANCH   1   2
ATOM      2  C   UNL     1       2.993  20.301  -7.946  1.00  0.00     0.000 C 
BRANCH   2   3
ATOM      3  C   UNL     1       2.680  19.042  -8.770  1.00  0.00     0.000 C 
BRANCH   3   4
ATOM      4  C   UNL     1       3.551  18.934 -10.034  1.00  0.00     0.000 C 
BRANCH   4   5
ATOM      5  C   UNL     1       2.777  18.388 -11.246  1.00  0.00     0.006 C 
BRANCH   5   6
ATOM      6  C   UNL     1       2.323  19.464 -12.247  1.00  0.00     0.053 C 
BRANCH   6   7
ATOM      7  C   UNL     1       1.004  20.063 -11.865  1.00  0.00     0.041 C 
ATOM      8  O   UNL     1      -0.054  19.392 -11.982  1.00  0.00    -0.550 OA
ATOM      9  O   UNL     1       0.949  21.352 -11.350  1.00  0.00    -0.550 OA
ENDBRANCH   6   7
ENDBRANCH   5   6
ENDBRANCH   4   5
ENDBRANCH   3   4
ENDBRANCH   2   3
ENDBRANCH   1   2
BRANCH   1  10
ATOM     10  C   UNL     1       0.586  21.004  -7.403  1.00  0.00     0.000 C 
BRANCH  10  11
ATOM     11  C   UNL     1       0.614  21.046  -5.865  1.00  0.00    -0.000 C 
BRANCH  11  12
ATOM     12  C   UNL     1       0.220  19.708  -5.221  1.00  0.00    -0.000 C 
BRANCH  12  13
ATOM     13  C   UNL     1      -0.124  18.665  -6.291  1.00  0.00    -0.000 C 
BRANCH  13  14
ATOM     14  C   UNL     1       0.672  17.373  -6.077  1.00  0.00    -0.000 C 
BRANCH  14  15
ATOM     15  C   UNL     1       1.732  17.553  -4.985  1.00  0.00    -0.003 C 
ATOM     16  C   UNL     1       3.133  17.283  -5.526  1.00  0.00     0.004 C 
ENDBRANCH  14  15
ENDBRANCH  13  14
ENDBRANCH  12  13
ENDBRANCH  11  12
ENDBRANCH  10  11
ENDBRANCH   1  10
TORSDOF 12
ENDMDL
MODEL 8
REMARK VINA RESULT:    -4.270      1.780      2.372
REMARK INTER + INTRA:          -8.693
REMARK INTER:                  -7.980
REMARK INTRA:                  -0.713
REMARK UNBOUND:                -1.427
REMARK SMILES CCCCCCCCCCCCCC(=O)[O-]
REMARK SMILES IDX 8 1 9 2 10 3 11 4 12 5 13 6 14 7 15 8 16 9 7 10 6 11 5 12
REMARK SMILES IDX 4 13 3 14 2 15 1 16
REMARK H PARENT
REMARK Flexibility Score: inf
ROOT
ATOM      1  C   UNL     1       8.266  29.171 -12.772  1.00  0.00     0.000 C 
ENDROOT
BRANCH   1   2
ATOM      2  C   UNL     1       8.712  30.079 -13.931  1.00  0.00     0.000 C 
BRANCH   2   3
ATOM      3  C   UNL     1       8.109  31.490 -13.836  1.00  0.00     0.000 C 
BRANCH   3   4
ATOM      4  C   UNL     1       6.626  31.471 -13.429  1.00  0.00     0.000 C 
BRANCH   4   5
ATOM      5  C   UNL     1       5.696  31.991 -14.540  1.00  0.00     0.006 C 
BRANCH   5   6
ATOM      6  C   UNL     1       6.137  31.613 -15.964  1.00  0.00     0.053 C 
BRANCH   6   7
ATOM      7  C   UNL     1       5.475  32.468 -17.001  1.00  0.00     0.041 C 
ATOM      8  O   UNL     1       5.605  32.197 -18.223  1.00  0.00    -0.550 OA
ATOM      9  O   UNL     1       4.690  33.547 -16.614  1.00  0.00    -0.550 OA
ENDBRANCH   6   7
ENDBRANCH   5   6
ENDBRANCH   4   5
ENDBRANCH   3   4
ENDBRANCH   2   3
ENDBRANCH   1   2
BRANCH   1  10
ATOM     10  C   UNL     1       8.330  27.673 -13.127  1.00  0.00     0.000 C 
BRANCH  10  11
ATOM     11  C   UNL     1       6.973  26.946 -13.138  1.00  0.00    -0.000 C 
BRANCH  11  12
ATOM     12  C   UNL     1       7.089  25.457 -12.778  1.00  0.00    -0.000 C 
BRANCH  12  13
ATOM     13  C   UNL     1       8.536  24.970 -12.914  1.00  0.00    -0.000 C 
BRANCH  13  14
ATOM     14  C   UNL     1       8.800  23.765 -12.005  1.00  0.00    -0.000 C 
BRANCH  14  15
ATOM     15  C   UNL     1       8.509  24.106 -10.539  1.00  0.00    -0.003 C 
ATOM     16  C   UNL     1       7.712  22.996  -9.861  1.00  0.00     0.004 C 
ENDBRANCH  14  15
ENDBRANCH  13  14
ENDBRANCH  12  13
ENDBRANCH  11  12
ENDBRANCH  10  11
ENDBRANCH   1  10
TORSDOF 12
ENDMDL
MODEL 9
REMARK VINA RESULT:    -4.150     10.191     12.942
REMARK INTER + INTRA:          -8.487
REMARK INTER:                  -6.279
REMARK INTRA:                  -2.208
REMARK UNBOUND:                -1.427
REMARK SMILES CCCCCCCCCCCCCC(=O)[O-]
REMARK SMILES IDX 8 1 9 2 10 3 11 4 12 5 13 6 14 7 15 8 16 9 7 10 6 11 5 12
REMARK SMILES IDX 4 13 3 14 2 15 1 16
REMARK H PARENT
REMARK Flexibility Score: inf
ROOT
ATOM      1  C   UNL     1       2.060  17.957  -5.988  1.00  0.00     0.000 C 
ENDROOT
BRANCH   1   2
ATOM      2  C   UNL     1       2.962  18.042  -7.231  1.00  0.00     0.000 C 
BRANCH   2   3
ATOM      3  C   UNL     1       2.242  17.590  -8.512  1.00  0.00     0.000 C 
BRANCH   3   4
ATOM      4  C   UNL     1       0.712  17.559  -8.347  1.00  0.00     0.000 C 
BRANCH   4   5
ATOM      5  C   UNL     1      -0.034  17.949  -9.636  1.00  0.00     0.006 C 
BRANCH   5   6
ATOM      6  C   UNL     1       0.840  17.943 -10.902  1.00  0.00     0.053 C 
BRANCH   6   7
ATOM      7  C   UNL     1       0.315  18.876 -11.949  1.00  0.00     0.041 C 
ATOM      8  O   UNL     1       1.021  19.835 -12.356  1.00  0.00    -0.550 OA
ATOM      9  O   UNL     1      -0.944  18.667 -12.497  1.00  0.00    -0.550 OA
ENDBRANCH   6   7
ENDBRANCH   5   6
ENDBRANCH   4   5
ENDBRANCH   3   4
ENDBRANCH   2   3
ENDBRANCH   1   2
BRANCH   1  10
ATOM     10  C   UNL     1       2.425  18.995  -4.911  1.00  0.00     0.000 C 
BRANCH  10  11
ATOM     11  C   UNL     1       1.766  20.376  -5.085  1.00  0.00    -0.000 C 
BRANCH  11  12
ATOM     12  C   UNL     1       0.298  20.287  -5.533  1.00  0.00    -0.000 C 
BRANCH  12  13
ATOM     13  C   UNL     1       0.093  20.985  -6.882  1.00  0.00    -0.000 C 
BRANCH  13  14
ATOM     14  C   UNL     1       1.434  21.397  -7.499  1.00  0.00    -0.000 C 
BRANCH  14  15
ATOM     15  C   UNL     1       1.359  21.400  -9.030  1.00  0.00    -0.003 C 
ATOM     16  C   UNL     1       2.734  21.178  -9.651  1.00  0.00     0.004 C 
ENDBRANCH  14  15
ENDBRANCH  13  14
ENDBRANCH  12  13
ENDBRANCH  11  12
ENDBRANCH  10  11
ENDBRANCH   1  10
TORSDOF 12
ENDMDL
