MODEL 1
REMARK VINA RESULT:    -3.837      0.000      0.000
REMARK INTER + INTRA:          -8.416
REMARK INTER:                  -6.978
REMARK INTRA:                  -1.438
REMARK UNBOUND:                -1.438
REMARK SMILES CCCCCCCCCCCCCCCC(=O)[O-]
REMARK SMILES IDX 9 1 10 2 11 3 12 4 13 5 14 6 15 7 16 8 17 9 18 10 8 11 7 12
REMARK SMILES IDX 6 13 5 14 4 15 3 16 2 17 1 18
REMARK H PARENT
REMARK Flexibility Score: inf
ROOT
ATOM      1  C   UNL     1       4.835 -59.463  -8.628  1.00  0.00     0.000 C 
ENDROOT
BRANCH   1   2
ATOM      2  C   UNL     1       3.388 -59.544  -9.157  1.00  0.00     0.000 C 
BRANCH   2   3
ATOM      3  C   UNL     1       2.804 -60.971  -9.152  1.00  0.00     0.000 C 
BRANCH   3   4
ATOM      4  C   UNL     1       1.769 -61.245  -8.047  1.00  0.00     0.000 C 
BRANCH   4   5
ATOM      5  C   UNL     1       2.221 -62.344  -7.070  1.00  0.00     0.000 C 
BRANCH   5   6
ATOM      6  C   UNL     1       3.405 -61.903  -6.195  1.00  0.00     0.006 C 
BRANCH   6   7
ATOM      7  C   UNL     1       2.969 -61.078  -4.978  1.00  0.00     0.053 C 
BRANCH   7   8
ATOM      8  C   UNL     1       3.223 -59.623  -5.215  1.00  0.00     0.041 C 
ATOM      9  O   UNL     1       4.393 -59.164  -5.148  1.00  0.00    -0.550 OA
ATOM     10  O   UNL     1       2.172 -58.781  -5.561  1.00  0.00    -0.550 OA
ENDBRANCH   7   8
ENDBRANCH   6   7
ENDBRANCH   5   6
ENDBRANCH   4   5
ENDBRANCH   3   4
ENDBRANCH   2   3
ENDBRANCH   1   2
BRANCH   1  11
ATOM     11  C   UNL     1       5.754 -60.510  -9.284  1.00  0.00     0.000 C 
BRANCH  11  12
ATOM     12  C   UNL     1       6.387 -61.475  -8.266  1.00  0.00    -0.000 C 
BRANCH  12  13
ATOM     13  C   UNL     1       6.871 -62.814  -8.852  1.00  0.00    -0.000 C 
BRANCH  13  14
ATOM     14  C   UNL     1       8.099 -62.658  -9.766  1.00  0.00    -0.000 C 
BRANCH  14  15
ATOM     15  C   UNL     1       7.788 -62.996 -11.234  1.00  0.00    -0.000 C 
BRANCH  15  16
ATOM     16  C   UNL     1       7.874 -64.505 -11.522  1.00  0.00    -0.000 C 
BRANCH  16  17
ATOM     17  C   UNL     1       8.996 -65.193 -10.728  1.00  0.00    -0.003 C 
ATOM     18  C   UNL     1       9.346 -66.577 -11.273  1.00  0.00     0.004 C 
ENDBRANCH  16  17
ENDBRANCH  15  16
ENDBRANCH  14  15
ENDBRANCH  13  14
ENDBRANCH  12  13
ENDBRANCH  11  12
ENDBRANCH   1  11
TORSDOF 14
ENDMDL
MODEL 2
REMARK VINA RESULT:    -3.740      4.024      7.832
REMARK INTER + INTRA:          -8.239
REMARK INTER:                  -7.007
REMARK INTRA:                  -1.231
REMARK UNBOUND:                -1.438
REMARK SMILES CCCCCCCCCCCCCCCC(=O)[O-]
REMARK SMILES IDX 9 1 10 2 11 3 12 4 13 5 14 6 15 7 16 8 17 9 18 10 8 11 7 12
REMARK SMILES IDX 6 13 5 14 4 15 3 16 2 17 1 18
REMARK H PARENT
REMARK Flexibility Score: inf
ROOT
ATOM      1  C   UNL     1       6.264 -61.212  -8.312  1.00  0.00     0.000 C 
ENDROOT
BRANCH   1   2
ATOM      2  C   UNL     1       7.095 -61.602  -9.552  1.00  0.00     0.000 C 
BRANCH   2   3
ATOM      3  C   UNL     1       7.864 -62.929  -9.392  1.00  0.00     0.000 C 
BRANCH   3   4
ATOM      4  C   UNL     1       8.328 -63.574 -10.710  1.00  0.00     0.000 C 
BRANCH   4   5
ATOM      5  C   UNL     1       7.670 -62.937 -11.946  1.00  0.00     0.000 C 
BRANCH   5   6
ATOM      6  C   UNL     1       7.566 -63.915 -13.127  1.00  0.00     0.006 C 
BRANCH   6   7
ATOM      7  C   UNL     1       7.586 -65.384 -12.685  1.00  0.00     0.053 C 
BRANCH   7   8
ATOM      8  C   UNL     1       6.512 -66.155 -13.385  1.00  0.00     0.041 C 
ATOM      9  O   UNL     1       5.755 -66.922 -12.734  1.00  0.00    -0.550 OA
ATOM     10  O   UNL     1       6.315 -65.989 -14.751  1.00  0.00    -0.550 OA
ENDBRANCH   7   8
ENDBRANCH   6   7
ENDBRANCH   5   6
ENDBRANCH   4   5
ENDBRANCH   3   4
ENDBRANCH   2   3
ENDBRANCH   1   2
BRANCH   1  11
ATOM     11  C   UNL     1       5.952 -62.425  -7.416  1.00  0.00     0.000 C 
BRANCH  11  12
ATOM     12  C   UNL     1       5.021 -62.079  -6.240  1.00  0.00    -0.000 C 
BRANCH  12  13
ATOM     13  C   UNL     1       3.519 -62.076  -6.579  1.00  0.00    -0.000 C 
BRANCH  13  14
ATOM     14  C   UNL     1       2.734 -60.999  -5.809  1.00  0.00    -0.000 C 
BRANCH  14  15
ATOM     15  C   UNL     1       2.924 -59.594  -6.406  1.00  0.00    -0.000 C 
BRANCH  15  16
ATOM     16  C   UNL     1       2.008 -59.339  -7.616  1.00  0.00    -0.000 C 
BRANCH  16  17
ATOM     17  C   UNL     1       2.779 -58.811  -8.836  1.00  0.00    -0.003 C 
ATOM     18  C   UNL     1       3.187 -59.921  -9.805  1.00  0.00     0.004 C 
ENDBRANCH  16  17
ENDBRANCH  15  16
ENDBRANCH  14  15
ENDBRANCH  13  14
ENDBRANCH  12  13
ENDBRANCH  11  12
ENDBRANCH   1  11
TORSDOF 14
ENDMDL
MODEL 3
REMARK VINA RESULT:    -3.739      3.622      7.425
REMARK INTER + INTRA:          -8.238
REMARK INTER:                  -6.679
REMARK INTRA:                  -1.559
REMARK UNBOUND:                -1.438
REMARK SMILES CCCCCCCCCCCCCCCC(=O)[O-]
REMARK SMILES IDX 9 1 10 2 11 3 12 4 13 5 14 6 15 7 16 8 17 9 18 10 8 11 7 12
REMARK SMILES IDX 6 13 5 14 4 15 3 16 2 17 1 18
REMARK H PARENT
REMARK Flexibility Score: inf
ROOT
ATOM      1  C   UNL     1       6.169 -60.198  -9.509  1.00  0.00     0.000 C 
ENDROOT
BRANCH   1   2
ATOM      2  C   UNL     1       5.946 -60.455  -8.003  1.00  0.00     0.000 C 
BRANCH   2   3
ATOM      3  C   UNL     1       6.249 -61.903  -7.569  1.00  0.00     0.000 C 
BRANCH   3   4
ATOM      4  C   UNL     1       6.462 -62.896  -8.724  1.00  0.00     0.000 C 
BRANCH   4   5
ATOM      5  C   UNL     1       7.892 -63.461  -8.766  1.00  0.00     0.000 C 
BRANCH   5   6
ATOM      6  C   UNL     1       8.600 -63.174 -10.099  1.00  0.00     0.006 C 
BRANCH   6   7
ATOM      7  C   UNL     1       7.711 -63.460 -11.316  1.00  0.00     0.053 C 
BRANCH   7   8
ATOM      8  C   UNL     1       7.818 -64.897 -11.716  1.00  0.00     0.041 C 
ATOM      9  O   UNL     1       8.867 -65.548 -11.469  1.00  0.00    -0.550 OA
ATOM     10  O   UNL     1       6.738 -65.534 -12.315  1.00  0.00    -0.550 OA
ENDBRANCH   7   8
ENDBRANCH   6   7
ENDBRANCH   5   6
ENDBRANCH   4   5
ENDBRANCH   3   4
ENDBRANCH   2   3
ENDBRANCH   1   2
BRANCH   1  11
ATOM     11  C   UNL     1       4.853 -59.895 -10.248  1.00  0.00     0.000 C 
BRANCH  11  12
ATOM     12  C   UNL     1       3.696 -59.546  -9.295  1.00  0.00    -0.000 C 
BRANCH  12  13
ATOM     13  C   UNL     1       2.533 -60.556  -9.286  1.00  0.00    -0.000 C 
BRANCH  13  14
ATOM     14  C   UNL     1       1.189 -59.917  -8.894  1.00  0.00    -0.000 C 
BRANCH  14  15
ATOM     15  C   UNL     1       0.891 -60.049  -7.392  1.00  0.00    -0.000 C 
BRANCH  15  16
ATOM     16  C   UNL     1       1.319 -58.805  -6.594  1.00  0.00    -0.000 C 
BRANCH  16  17
ATOM     17  C   UNL     1       2.136 -59.161  -5.342  1.00  0.00    -0.003 C 
ATOM     18  C   UNL     1       3.164 -60.263  -5.598  1.00  0.00     0.004 C 
ENDBRANCH  16  17
ENDBRANCH  15  16
ENDBRANCH  14  15
ENDBRANCH  13  14
ENDBRANCH  12  13
ENDBRANCH  11  12
ENDBRANCH   1  11
TORSDOF 14
ENDMDL
MODEL 4
REMARK VINA RESULT:    -3.698     10.703     13.369
REMARK INTER + INTRA:          -8.163
REMARK INTER:                  -6.225
REMARK INTRA:                  -1.937
REMARK UNBOUND:                -1.438
REMARK SMILES CCCCCCCCCCCCCCCC(=O)[O-]
REMARK SMILES IDX 9 1 10 2 11 3 12 4 13 5 14 6 15 7 16 8 17 9 18 10 8 11 7 12
REMARK SMILES IDX 6 13 5 14 4 15 3 16 2 17 1 18
REMARK H PARENT
REMARK Flexibility Score: inf
ROOT
ATOM      1  C   UNL     1       1.693 -67.446   1.171  1.00  0.00     0.000 C 
ENDROOT
BRANCH   1   2
ATOM      2  C   UNL     1       2.273 -67.950   2.509  1.00  0.00     0.000 C 
BRANCH   2   3
ATOM      3  C   UNL     1       2.157 -66.930   3.659  1.00  0.00     0.000 C 
BRANCH   3   4
ATOM      4  C   UNL     1       3.337 -65.950   3.780  1.00  0.00     0.000 C 
BRANCH   4   5
ATOM      5  C   UNL     1       2.925 -64.596   4.385  1.00  0.00     0.000 C 
BRANCH   5   6
ATOM      6  C   UNL     1       3.736 -63.424   3.812  1.00  0.00     0.006 C 
BRANCH   6   7
ATOM      7  C   UNL     1       3.859 -63.478   2.284  1.00  0.00     0.053 C 
BRANCH   7   8
ATOM      8  C   UNL     1       4.797 -62.419   1.797  1.00  0.00     0.041 C 
ATOM      9  O   UNL     1       4.350 -61.393   1.221  1.00  0.00    -0.550 OA
ATOM     10  O   UNL     1       6.162 -62.542   2.024  1.00  0.00    -0.550 OA
ENDBRANCH   7   8
ENDBRANCH   6   7
ENDBRANCH   5   6
ENDBRANCH   4   5
ENDBRANCH   3   4
ENDBRANCH   2   3
ENDBRANCH   1   2
BRANCH   1  11
ATOM     11  C   UNL     1       0.156 -67.529   1.136  1.00  0.00     0.000 C 
BRANCH  11  12
ATOM     12  C   UNL     1      -0.512 -66.175   0.835  1.00  0.00    -0.000 C 
BRANCH  12  13
ATOM     13  C   UNL     1       0.460 -64.993   0.667  1.00  0.00    -0.000 C 
BRANCH  13  14
ATOM     14  C   UNL     1       0.247 -63.891   1.719  1.00  0.00    -0.000 C 
BRANCH  14  15
ATOM     15  C   UNL     1      -0.476 -64.406   2.974  1.00  0.00    -0.000 C 
BRANCH  15  16
ATOM     16  C   UNL     1      -1.288 -63.306   3.680  1.00  0.00    -0.000 C 
BRANCH  16  17
ATOM     17  C   UNL     1      -2.443 -62.779   2.814  1.00  0.00    -0.003 C 
ATOM     18  C   UNL     1      -3.816 -63.037   3.434  1.00  0.00     0.004 C 
ENDBRANCH  16  17
ENDBRANCH  15  16
ENDBRANCH  14  15
ENDBRANCH  13  14
ENDBRANCH  12  13
ENDBRANCH  11  12
ENDBRANCH   1  11
TORSDOF 14
ENDMDL
MODEL 5
REMARK VINA RESULT:    -3.680      9.748     12.076
REMARK INTER + INTRA:          -8.131
REMARK INTER:                  -5.675
REMARK INTRA:                  -2.456
REMARK UNBOUND:                -1.438
REMARK SMILES CCCCCCCCCCCCCCCC(=O)[O-]
REMARK SMILES IDX 9 1 10 2 11 3 12 4 13 5 14 6 15 7 16 8 17 9 18 10 8 11 7 12
REMARK SMILES IDX 6 13 5 14 4 15 3 16 2 17 1 18
REMARK H PARENT
REMARK Flexibility Score: inf
ROOT
ATOM      1  C   UNL     1       2.955 -66.235   3.899  1.00  0.00     0.000 C 
ENDROOT
BRANCH   1   2
ATOM      2  C   UNL     1       3.192 -64.711   3.860  1.00  0.00     0.000 C 
BRANCH   2   3
ATOM      3  C   UNL     1       3.276 -64.132   2.434  1.00  0.00     0.000 C 
BRANCH   3   4
ATOM      4  C   UNL     1       2.192 -63.097   2.088  1.00  0.00     0.000 C 
BRANCH   4   5
ATOM      5  C   UNL     1       1.019 -63.110   3.084  1.00  0.00     0.000 C 
BRANCH   5   6
ATOM      6  C   UNL     1      -0.325 -62.777   2.417  1.00  0.00     0.006 C 
BRANCH   6   7
ATOM      7  C   UNL     1      -1.517 -63.440   3.119  1.00  0.00     0.053 C 
BRANCH   7   8
ATOM      8  C   UNL     1      -2.745 -62.598   2.969  1.00  0.00     0.041 C 
ATOM      9  O   UNL     1      -3.768 -63.065   2.401  1.00  0.00    -0.550 OA
ATOM     10  O   UNL     1      -2.777 -61.315   3.501  1.00  0.00    -0.550 OA
ENDBRANCH   7   8
ENDBRANCH   6   7
ENDBRANCH   5   6
ENDBRANCH   4   5
ENDBRANCH   3   4
ENDBRANCH   2   3
ENDBRANCH   1   2
BRANCH   1  11
ATOM     11  C   UNL     1       2.901 -66.852   2.489  1.00  0.00     0.000 C 
BRANCH  11  12
ATOM     12  C   UNL     1       1.540 -67.494   2.167  1.00  0.00    -0.000 C 
BRANCH  12  13
ATOM     13  C   UNL     1       0.359 -66.509   2.082  1.00  0.00    -0.000 C 
BRANCH  13  14
ATOM     14  C   UNL     1      -0.245 -66.420   0.670  1.00  0.00    -0.000 C 
BRANCH  14  15
ATOM     15  C   UNL     1       0.394 -65.305  -0.175  1.00  0.00    -0.000 C 
BRANCH  15  16
ATOM     16  C   UNL     1       1.166 -65.854  -1.388  1.00  0.00    -0.000 C 
BRANCH  16  17
ATOM     17  C   UNL     1       2.668 -66.015  -1.105  1.00  0.00    -0.003 C 
ATOM     18  C   UNL     1       3.201 -67.393  -1.496  1.00  0.00     0.004 C 
ENDBRANCH  16  17
ENDBRANCH  15  16
ENDBRANCH  14  15
ENDBRANCH  13  14
ENDBRANCH  12  13
ENDBRANCH  11  12
ENDBRANCH   1  11
TORSDOF 14
ENDMDL
MODEL 6
REMARK VINA RESULT:    -3.675      1.952      3.048
REMARK INTER + INTRA:          -8.121
REMARK INTER:                  -7.038
REMARK INTRA:                  -1.083
REMARK UNBOUND:                -1.438
REMARK SMILES CCCCCCCCCCCCCCCC(=O)[O-]
REMARK SMILES IDX 9 1 10 2 11 3 12 4 13 5 14 6 15 7 16 8 17 9 18 10 8 11 7 12
REMARK SMILES IDX 6 13 5 14 4 15 3 16 2 17 1 18
REMARK H PARENT
REMARK Flexibility Score: inf
ROOT
ATOM      1  C   UNL     1       6.336 -62.457  -7.784  1.00  0.00     0.000 C 
ENDROOT
BRANCH   1   2
ATOM      2  C   UNL     1       5.360 -61.262  -7.772  1.00  0.00     0.000 C 
BRANCH   2   3
ATOM      3  C   UNL     1       5.401 -60.415  -9.060  1.00  0.00     0.000 C 
BRANCH   3   4
ATOM      4  C   UNL     1       4.171 -59.519  -9.288  1.00  0.00     0.000 C 
BRANCH   4   5
ATOM      5  C   UNL     1       3.175 -59.569  -8.116  1.00  0.00     0.000 C 
BRANCH   5   6
ATOM      6  C   UNL     1       1.826 -60.185  -8.517  1.00  0.00     0.006 C 
BRANCH   6   7
ATOM      7  C   UNL     1       1.608 -61.579  -7.914  1.00  0.00     0.053 C 
BRANCH   7   8
ATOM      8  C   UNL     1       0.689 -61.501  -6.735  1.00  0.00     0.041 C 
ATOM      9  O   UNL     1       0.699 -62.409  -5.863  1.00  0.00    -0.550 OA
ATOM     10  O   UNL     1      -0.142 -60.399  -6.574  1.00  0.00    -0.550 OA
ENDBRANCH   7   8
ENDBRANCH   6   7
ENDBRANCH   5   6
ENDBRANCH   4   5
ENDBRANCH   3   4
ENDBRANCH   2   3
ENDBRANCH   1   2
BRANCH   1  11
ATOM     11  C   UNL     1       7.424 -62.309  -8.862  1.00  0.00     0.000 C 
BRANCH  11  12
ATOM     12  C   UNL     1       8.007 -63.660  -9.316  1.00  0.00    -0.000 C 
BRANCH  12  13
ATOM     13  C   UNL     1       8.629 -63.660 -10.724  1.00  0.00    -0.000 C 
BRANCH  13  14
ATOM     14  C   UNL     1       7.704 -64.279 -11.786  1.00  0.00    -0.000 C 
BRANCH  14  15
ATOM     15  C   UNL     1       7.942 -65.787 -11.968  1.00  0.00    -0.000 C 
BRANCH  15  16
ATOM     16  C   UNL     1       9.389 -66.199 -11.642  1.00  0.00    -0.000 C 
BRANCH  16  17
ATOM     17  C   UNL     1       9.457 -67.433 -10.729  1.00  0.00    -0.003 C 
ATOM     18  C   UNL     1       9.395 -67.077  -9.244  1.00  0.00     0.004 C 
ENDBRANCH  16  17
ENDBRANCH  15  16
ENDBRANCH  14  15
ENDBRANCH  13  14
ENDBRANCH  12  13
ENDBRANCH  11  12
ENDBRANCH   1  11
TORSDOF 14
ENDMDL
MODEL 7
REMARK VINA RESULT:    -3.650      9.451     11.877
REMARK INTER + INTRA:          -8.075
REMARK INTER:                  -6.169
REMARK INTRA:                  -1.907
REMARK UNBOUND:                -1.438
REMARK SMILES CCCCCCCCCCCCCCCC(=O)[O-]
REMARK SMILES IDX 9 1 10 2 11 3 12 4 13 5 14 6 15 7 16 8 17 9 18 10 8 11 7 12
REMARK SMILES IDX 6 13 5 14 4 15 3 16 2 17 1 18
REMARK H PARENT
REMARK Flexibility Score: inf
ROOT
ATOM      1  C   UNL     1      -1.105 -67.480   0.239  1.00  0.00     0.000 C 
ENDROOT
BRANCH   1   2
ATOM      2  C   UNL     1       0.229 -67.731   0.972  1.00  0.00     0.000 C 
BRANCH   2   3
ATOM      3  C   UNL     1       0.817 -66.472   1.641  1.00  0.00     0.000 C 
BRANCH   3   4
ATOM      4  C   UNL     1      -0.085 -65.227   1.587  1.00  0.00     0.000 C 
BRANCH   4   5
ATOM      5  C   UNL     1      -0.271 -64.569   2.965  1.00  0.00     0.000 C 
BRANCH   5   6
ATOM      6  C   UNL     1      -1.220 -63.362   2.918  1.00  0.00     0.006 C 
BRANCH   6   7
ATOM      7  C   UNL     1      -2.276 -63.393   4.030  1.00  0.00     0.053 C 
BRANCH   7   8
ATOM      8  C   UNL     1      -3.546 -62.753   3.563  1.00  0.00     0.041 C 
ATOM      9  O   UNL     1      -4.125 -63.175   2.527  1.00  0.00    -0.550 OA
ATOM     10  O   UNL     1      -4.117 -61.723   4.300  1.00  0.00    -0.550 OA
ENDBRANCH   7   8
ENDBRANCH   6   7
ENDBRANCH   5   6
ENDBRANCH   4   5
ENDBRANCH   3   4
ENDBRANCH   2   3
ENDBRANCH   1   2
BRANCH   1  11
ATOM     11  C   UNL     1      -1.018 -67.815  -1.260  1.00  0.00     0.000 C 
BRANCH  11  12
ATOM     12  C   UNL     1       0.417 -67.734  -1.811  1.00  0.00    -0.000 C 
BRANCH  12  13
ATOM     13  C   UNL     1       0.670 -66.582  -2.802  1.00  0.00    -0.000 C 
BRANCH  13  14
ATOM     14  C   UNL     1       0.700 -65.204  -2.120  1.00  0.00    -0.000 C 
BRANCH  14  15
ATOM     15  C   UNL     1       2.045 -64.916  -1.431  1.00  0.00    -0.000 C 
BRANCH  15  16
ATOM     16  C   UNL     1       2.100 -63.511  -0.808  1.00  0.00    -0.000 C 
BRANCH  16  17
ATOM     17  C   UNL     1       2.995 -63.455   0.440  1.00  0.00    -0.003 C 
ATOM     18  C   UNL     1       2.540 -62.403   1.450  1.00  0.00     0.004 C 
ENDBRANCH  16  17
ENDBRANCH  15  16
ENDBRANCH  14  15
ENDBRANCH  13  14
ENDBRANCH  12  13
ENDBRANCH  11  12
ENDBRANCH   1  11
TORSDOF 14
ENDMDL
MODEL 8
REMARK VINA RESULT:    -3.612      9.758     12.813
REMARK INTER + INTRA:          -8.007
REMARK INTER:                  -5.724
REMARK INTRA:                  -2.283
REMARK UNBOUND:                -1.438
REMARK SMILES CCCCCCCCCCCCCCCC(=O)[O-]
REMARK SMILES IDX 9 1 10 2 11 3 12 4 13 5 14 6 15 7 16 8 17 9 18 10 8 11 7 12
REMARK SMILES IDX 6 13 5 14 4 15 3 16 2 17 1 18
REMARK H PARENT
REMARK Flexibility Score: inf
ROOT
ATOM      1  C   UNL     1       0.753 -67.857   1.675  1.00  0.00     0.000 C 
ENDROOT
BRANCH   1   2
ATOM      2  C   UNL     1       0.025 -66.547   1.308  1.00  0.00     0.000 C 
BRANCH   2   3
ATOM      3  C   UNL     1       0.016 -66.244  -0.203  1.00  0.00     0.000 C 
BRANCH   3   4
ATOM      4  C   UNL     1       0.760 -64.962  -0.613  1.00  0.00     0.000 C 
BRANCH   4   5
ATOM      5  C   UNL     1       1.266 -64.156   0.597  1.00  0.00     0.000 C 
BRANCH   5   6
ATOM      6  C   UNL     1       2.800 -64.128   0.686  1.00  0.00     0.006 C 
BRANCH   6   7
ATOM      7  C   UNL     1       3.386 -62.742   0.391  1.00  0.00     0.053 C 
BRANCH   7   8
ATOM      8  C   UNL     1       4.453 -62.404   1.384  1.00  0.00     0.041 C 
ATOM      9  O   UNL     1       5.195 -61.403   1.201  1.00  0.00    -0.550 OA
ATOM     10  O   UNL     1       4.595 -63.165   2.537  1.00  0.00    -0.550 OA
ENDBRANCH   7   8
ENDBRANCH   6   7
ENDBRANCH   5   6
ENDBRANCH   4   5
ENDBRANCH   3   4
ENDBRANCH   2   3
ENDBRANCH   1   2
BRANCH   1  11
ATOM     11  C   UNL     1       2.284 -67.714   1.594  1.00  0.00     0.000 C 
BRANCH  11  12
ATOM     12  C   UNL     1       2.985 -67.991   2.936  1.00  0.00    -0.000 C 
BRANCH  12  13
ATOM     13  C   UNL     1       2.415 -67.218   4.140  1.00  0.00    -0.000 C 
BRANCH  13  14
ATOM     14  C   UNL     1       2.913 -65.764   4.206  1.00  0.00    -0.000 C 
BRANCH  14  15
ATOM     15  C   UNL     1       1.759 -64.747   4.212  1.00  0.00    -0.000 C 
BRANCH  15  16
ATOM     16  C   UNL     1       0.439 -65.355   4.715  1.00  0.00    -0.000 C 
BRANCH  16  17
ATOM     17  C   UNL     1      -0.688 -64.316   4.815  1.00  0.00    -0.003 C 
ATOM     18  C   UNL     1      -1.096 -63.750   3.455  1.00  0.00     0.004 C 
ENDBRANCH  16  17
ENDBRANCH  15  16
ENDBRANCH  14  15
ENDBRANCH  13  14
ENDBRANCH  12  13
ENDBRANCH  11  12
ENDBRANCH   1  11
TORSDOF 14
ENDMDL
MODEL 9
REMARK VINA RESULT:    -3.591      8.650     11.746
REMARK INTER + INTRA:          -7.968
REMARK INTER:                  -5.873
REMARK INTRA:                  -2.095
REMARK UNBOUND:                -1.438
REMARK SMILES CCCCCCCCCCCCCCCC(=O)[O-]
REMARK SMILES IDX 9 1 10 2 11 3 12 4 13 5 14 6 15 7 16 8 17 9 18 10 8 11 7 12
REMARK SMILES IDX 6 13 5 14 4 15 3 16 2 17 1 18
REMARK H PARENT
REMARK Flexibility Score: inf
ROOT
ATOM      1  C   UNL     1      -0.769 -67.022   0.391  1.00  0.00     0.000 C 
ENDROOT
BRANCH   1   2
ATOM      2  C   UNL     1       0.443 -67.332   1.294  1.00  0.00     0.000 C 
BRANCH   2   3
ATOM      3  C   UNL     1       1.633 -67.960   0.543  1.00  0.00     0.000 C 
BRANCH   3   4
ATOM      4  C   UNL     1       3.004 -67.753   1.209  1.00  0.00     0.000 C 
BRANCH   4   5
ATOM      5  C   UNL     1       3.001 -68.125   2.702  1.00  0.00     0.000 C 
BRANCH   5   6
ATOM      6  C   UNL     1       3.380 -66.941   3.605  1.00  0.00     0.006 C 
BRANCH   6   7
ATOM      7  C   UNL     1       2.264 -66.562   4.587  1.00  0.00     0.053 C 
BRANCH   7   8
ATOM      8  C   UNL     1       1.648 -65.255   4.199  1.00  0.00     0.041 C 
ATOM      9  O   UNL     1       0.402 -65.165   4.039  1.00  0.00    -0.550 OA
ATOM     10  O   UNL     1       2.443 -64.125   4.061  1.00  0.00    -0.550 OA
ENDBRANCH   7   8
ENDBRANCH   6   7
ENDBRANCH   5   6
ENDBRANCH   4   5
ENDBRANCH   3   4
ENDBRANCH   2   3
ENDBRANCH   1   2
BRANCH   1  11
ATOM     11  C   UNL     1      -0.914 -68.038  -0.757  1.00  0.00     0.000 C 
BRANCH  11  12
ATOM     12  C   UNL     1      -1.151 -67.371  -2.123  1.00  0.00    -0.000 C 
BRANCH  12  13
ATOM     13  C   UNL     1       0.123 -66.902  -2.850  1.00  0.00    -0.000 C 
BRANCH  13  14
ATOM     14  C   UNL     1       0.016 -65.460  -3.374  1.00  0.00    -0.000 C 
BRANCH  14  15
ATOM     15  C   UNL     1       1.278 -64.632  -3.081  1.00  0.00    -0.000 C 
BRANCH  15  16
ATOM     16  C   UNL     1       1.984 -65.071  -1.786  1.00  0.00    -0.000 C 
BRANCH  16  17
ATOM     17  C   UNL     1       1.454 -64.333  -0.547  1.00  0.00    -0.003 C 
ATOM     18  C   UNL     1       2.563 -63.927   0.422  1.00  0.00     0.004 C 
ENDBRANCH  16  17
ENDBRANCH  15  16
ENDBRANCH  14  15
ENDBRANCH  13  14
ENDBRANCH  12  13
ENDBRANCH  11  12
ENDBRANCH   1  11
TORSDOF 14
ENDMDL
