MODEL 1
REMARK VINA RESULT:    -6.101      0.000      0.000
REMARK INTER + INTRA:          -7.697
REMARK INTER:                  -7.349
REMARK INTRA:                  -0.349
REMARK UNBOUND:                -0.349
REMARK SMILES Oc1cc(O)c2cc(O)c(-c3ccc(O)c(O)c3)[o+]c2c1
REMARK SMILES IDX 10 1 19 2 20 3 21 4 2 5 3 6 4 7 6 8 7 9 8 10 11 11 12 12
REMARK SMILES IDX 13 13 14 14 18 15 16 16 15 17 17 19 9 21 1 23 5 25
REMARK H PARENT 15 18 17 20 9 22 1 24 5 26
REMARK Flexibility Score: inf
ROOT
ATOM      1  C   UNL     1     137.197 142.857 123.363  1.00  0.00     0.402 A 
ATOM      2  O   UNL     1     137.819 142.814 122.186  1.00  0.00    -0.202 OA
ATOM      3  C   UNL     1     139.095 142.467 122.049  1.00  0.00     0.368 A 
ATOM      4  C   UNL     1     139.673 142.442 120.776  1.00  0.00     0.162 A 
ATOM      5  C   UNL     1     141.015 142.076 120.619  1.00  0.00     0.128 A 
ATOM      6  C   UNL     1     141.780 141.733 121.738  1.00  0.00     0.093 A 
ATOM      7  C   UNL     1     141.215 141.754 123.021  1.00  0.00     0.136 A 
ATOM      8  C   UNL     1     139.865 142.122 123.180  1.00  0.00     0.125 A 
ATOM      9  C   UNL     1     139.251 142.169 124.436  1.00  0.00     0.078 A 
ATOM     10  C   UNL     1     137.909 142.548 124.541  1.00  0.00     0.223 A 
ENDROOT
BRANCH   1  11
ATOM     11  C   UNL     1     135.769 143.249 123.388  1.00  0.00     0.087 A 
ATOM     12  C   UNL     1     135.429 144.602 123.541  1.00  0.00     0.022 A 
ATOM     13  C   UNL     1     134.090 144.999 123.547  1.00  0.00     0.051 A 
ATOM     14  C   UNL     1     133.071 144.051 123.385  1.00  0.00     0.157 A 
ATOM     15  C   UNL     1     134.746 142.303 123.205  1.00  0.00     0.068 A 
ATOM     16  C   UNL     1     133.402 142.697 123.208  1.00  0.00     0.158 A 
BRANCH  14  17
ATOM     17  O   UNL     1     131.734 144.449 123.393  1.00  0.00    -0.504 OA
ATOM     18  H   UNL     1     131.387 145.154 122.754  1.00  0.00     0.293 HD
ENDBRANCH  14  17
BRANCH  16  19
ATOM     19  O   UNL     1     132.412 141.731 123.030  1.00  0.00    -0.504 OA
ATOM     20  H   UNL     1     132.500 140.795 123.406  1.00  0.00     0.293 HD
ENDBRANCH  16  19
ENDBRANCH   1  11
BRANCH  10  21
ATOM     21  O   UNL     1     137.305 142.645 125.793  1.00  0.00    -0.500 OA
ATOM     22  H   UNL     1     137.163 141.830 126.379  1.00  0.00     0.294 HD
ENDBRANCH  10  21
BRANCH   5  23
ATOM     23  O   UNL     1     141.599 142.049 119.354  1.00  0.00    -0.507 OA
ATOM     24  H   UNL     1     141.044 142.144 118.511  1.00  0.00     0.293 HD
ENDBRANCH   5  23
BRANCH   7  25
ATOM     25  O   UNL     1     141.990 141.411 124.130  1.00  0.00    -0.507 OA
ATOM     26  H   UNL     1     142.880 140.937 124.030  1.00  0.00     0.293 HD
ENDBRANCH   7  25
TORSDOF 6
ENDMDL
MODEL 2
REMARK VINA RESULT:    -6.031      7.886     10.632
REMARK INTER + INTRA:          -7.614
REMARK INTER:                  -7.265
REMARK INTRA:                  -0.349
REMARK UNBOUND:                -0.349
REMARK SMILES Oc1cc(O)c2cc(O)c(-c3ccc(O)c(O)c3)[o+]c2c1
REMARK SMILES IDX 10 1 19 2 20 3 21 4 2 5 3 6 4 7 6 8 7 9 8 10 11 11 12 12
REMARK SMILES IDX 13 13 14 14 18 15 16 16 15 17 17 19 9 21 1 23 5 25
REMARK H PARENT 15 18 17 20 9 22 1 24 5 26
REMARK Flexibility Score: inf
ROOT
ATOM      1  C   UNL     1     131.927 136.870 126.746  1.00  0.00     0.402 A 
ATOM      2  O   UNL     1     132.020 135.688 126.139  1.00  0.00    -0.202 OA
ATOM      3  C   UNL     1     131.446 134.583 126.605  1.00  0.00     0.368 A 
ATOM      4  C   UNL     1     131.588 133.381 125.906  1.00  0.00     0.162 A 
ATOM      5  C   UNL     1     130.986 132.211 126.385  1.00  0.00     0.128 A 
ATOM      6  C   UNL     1     130.239 132.245 127.567  1.00  0.00     0.093 A 
ATOM      7  C   UNL     1     130.089 133.442 128.281  1.00  0.00     0.136 A 
ATOM      8  C   UNL     1     130.694 134.619 127.799  1.00  0.00     0.125 A 
ATOM      9  C   UNL     1     130.585 135.841 128.473  1.00  0.00     0.078 A 
ATOM     10  C   UNL     1     131.211 136.979 127.956  1.00  0.00     0.223 A 
ENDROOT
BRANCH   1  11
ATOM     11  C   UNL     1     132.602 138.032 126.125  1.00  0.00     0.087 A 
ATOM     12  C   UNL     1     133.927 138.331 126.481  1.00  0.00     0.022 A 
ATOM     13  C   UNL     1     134.592 139.410 125.894  1.00  0.00     0.051 A 
ATOM     14  C   UNL     1     133.948 140.197 124.930  1.00  0.00     0.157 A 
ATOM     15  C   UNL     1     131.966 138.811 125.142  1.00  0.00     0.068 A 
ATOM     16  C   UNL     1     132.631 139.892 124.550  1.00  0.00     0.158 A 
BRANCH  14  17
ATOM     17  O   UNL     1     134.613 141.275 124.347  1.00  0.00    -0.504 OA
ATOM     18  H   UNL     1     134.206 142.203 124.331  1.00  0.00     0.293 HD
ENDBRANCH  14  17
BRANCH  16  19
ATOM     19  O   UNL     1     131.967 140.647 123.583  1.00  0.00    -0.504 OA
ATOM     20  H   UNL     1     132.125 140.511 122.593  1.00  0.00     0.293 HD
ENDBRANCH  16  19
ENDBRANCH   1  11
BRANCH  10  21
ATOM     21  O   UNL     1     131.148 138.187 128.649  1.00  0.00    -0.500 OA
ATOM     22  H   UNL     1     131.122 138.219 129.661  1.00  0.00     0.294 HD
ENDBRANCH  10  21
BRANCH   5  23
ATOM     23  O   UNL     1     131.122 131.009 125.694  1.00  0.00    -0.507 OA
ATOM     24  H   UNL     1     132.018 130.541 125.615  1.00  0.00     0.293 HD
ENDBRANCH   5  23
BRANCH   7  25
ATOM     25  O   UNL     1     129.343 133.463 129.460  1.00  0.00    -0.507 OA
ATOM     26  H   UNL     1     128.873 134.303 129.776  1.00  0.00     0.293 HD
ENDBRANCH   7  25
TORSDOF 6
ENDMDL
MODEL 3
REMARK VINA RESULT:    -6.027      9.235     11.967
REMARK INTER + INTRA:          -7.608
REMARK INTER:                  -7.484
REMARK INTRA:                  -0.125
REMARK UNBOUND:                -0.349
REMARK SMILES Oc1cc(O)c2cc(O)c(-c3ccc(O)c(O)c3)[o+]c2c1
REMARK SMILES IDX 10 1 19 2 20 3 21 4 2 5 3 6 4 7 6 8 7 9 8 10 11 11 12 12
REMARK SMILES IDX 13 13 14 14 18 15 16 16 15 17 17 19 9 21 1 23 5 25
REMARK H PARENT 15 18 17 20 9 22 1 24 5 26
REMARK Flexibility Score: inf
ROOT
ATOM      1  C   UNL     1     132.781 134.077 126.069  1.00  0.00     0.402 A 
ATOM      2  O   UNL     1     133.117 134.813 127.127  1.00  0.00    -0.202 OA
ATOM      3  C   UNL     1     132.666 136.047 127.329  1.00  0.00     0.368 A 
ATOM      4  C   UNL     1     133.063 136.752 128.468  1.00  0.00     0.162 A 
ATOM      5  C   UNL     1     132.592 138.052 128.693  1.00  0.00     0.128 A 
ATOM      6  C   UNL     1     131.721 138.646 127.775  1.00  0.00     0.093 A 
ATOM      7  C   UNL     1     131.315 137.953 126.626  1.00  0.00     0.136 A 
ATOM      8  C   UNL     1     131.788 136.645 126.400  1.00  0.00     0.125 A 
ATOM      9  C   UNL     1     131.423 135.909 125.267  1.00  0.00     0.078 A 
ATOM     10  C   UNL     1     131.926 134.617 125.086  1.00  0.00     0.223 A 
ENDROOT
BRANCH   1  11
ATOM     11  C   UNL     1     133.341 132.710 125.959  1.00  0.00     0.087 A 
ATOM     12  C   UNL     1     133.041 131.762 126.950  1.00  0.00     0.022 A 
ATOM     13  C   UNL     1     133.541 130.460 126.858  1.00  0.00     0.051 A 
ATOM     14  C   UNL     1     134.334 130.083 125.766  1.00  0.00     0.157 A 
ATOM     15  C   UNL     1     134.119 132.323 124.854  1.00  0.00     0.068 A 
ATOM     16  C   UNL     1     134.620 131.019 124.757  1.00  0.00     0.158 A 
BRANCH  14  17
ATOM     17  O   UNL     1     134.833 128.785 125.676  1.00  0.00    -0.504 OA
ATOM     18  H   UNL     1     135.828 128.602 125.611  1.00  0.00     0.293 HD
ENDBRANCH  14  17
BRANCH  16  19
ATOM     19  O   UNL     1     135.393 130.671 123.650  1.00  0.00    -0.504 OA
ATOM     20  H   UNL     1     135.643 131.344 122.936  1.00  0.00     0.293 HD
ENDBRANCH  16  19
ENDBRANCH   1  11
BRANCH  10  21
ATOM     21  O   UNL     1     131.606 133.897 123.936  1.00  0.00    -0.500 OA
ATOM     22  H   UNL     1     130.653 133.828 123.600  1.00  0.00     0.294 HD
ENDBRANCH  10  21
BRANCH   5  23
ATOM     23  O   UNL     1     132.983 138.761 129.827  1.00  0.00    -0.507 OA
ATOM     24  H   UNL     1     132.376 138.849 130.633  1.00  0.00     0.293 HD
ENDBRANCH   5  23
BRANCH   7  25
ATOM     25  O   UNL     1     130.447 138.558 125.716  1.00  0.00    -0.507 OA
ATOM     26  H   UNL     1     129.930 138.015 125.034  1.00  0.00     0.293 HD
ENDBRANCH   7  25
TORSDOF 6
ENDMDL
MODEL 4
REMARK VINA RESULT:    -5.958      9.665     12.472
REMARK INTER + INTRA:          -7.525
REMARK INTER:                  -7.175
REMARK INTRA:                  -0.350
REMARK UNBOUND:                -0.349
REMARK SMILES Oc1cc(O)c2cc(O)c(-c3ccc(O)c(O)c3)[o+]c2c1
REMARK SMILES IDX 10 1 19 2 20 3 21 4 2 5 3 6 4 7 6 8 7 9 8 10 11 11 12 12
REMARK SMILES IDX 13 13 14 14 18 15 16 16 15 17 17 19 9 21 1 23 5 25
REMARK H PARENT 15 18 17 20 9 22 1 24 5 26
REMARK Flexibility Score: inf
ROOT
ATOM      1  C   UNL     1     131.688 134.629 126.671  1.00  0.00     0.402 A 
ATOM      2  O   UNL     1     131.284 134.516 127.935  1.00  0.00    -0.202 OA
ATOM      3  C   UNL     1     130.755 133.404 128.434  1.00  0.00     0.368 A 
ATOM      4  C   UNL     1     130.360 133.365 129.775  1.00  0.00     0.162 A 
ATOM      5  C   UNL     1     129.805 132.198 130.313  1.00  0.00     0.128 A 
ATOM      6  C   UNL     1     129.645 131.066 129.507  1.00  0.00     0.093 A 
ATOM      7  C   UNL     1     130.035 131.089 128.161  1.00  0.00     0.136 A 
ATOM      8  C   UNL     1     130.594 132.263 127.619  1.00  0.00     0.125 A 
ATOM      9  C   UNL     1     130.994 132.346 126.281  1.00  0.00     0.078 A 
ATOM     10  C   UNL     1     131.537 133.537 125.790  1.00  0.00     0.223 A 
ENDROOT
BRANCH   1  11
ATOM     11  C   UNL     1     132.270 135.917 126.232  1.00  0.00     0.087 A 
ATOM     12  C   UNL     1     133.659 136.109 126.314  1.00  0.00     0.022 A 
ATOM     13  C   UNL     1     134.235 137.308 125.888  1.00  0.00     0.051 A 
ATOM     14  C   UNL     1     133.433 138.329 125.359  1.00  0.00     0.157 A 
ATOM     15  C   UNL     1     131.471 136.934 125.682  1.00  0.00     0.068 A 
ATOM     16  C   UNL     1     132.045 138.137 125.252  1.00  0.00     0.158 A 
BRANCH  14  17
ATOM     17  O   UNL     1     134.008 139.525 124.936  1.00  0.00    -0.504 OA
ATOM     18  H   UNL     1     134.593 140.080 125.552  1.00  0.00     0.293 HD
ENDBRANCH  14  17
BRANCH  16  19
ATOM     19  O   UNL     1     131.221 139.127 124.716  1.00  0.00    -0.504 OA
ATOM     20  H   UNL     1     130.211 139.068 124.760  1.00  0.00     0.293 HD
ENDBRANCH  16  19
ENDBRANCH   1  11
BRANCH  10  21
ATOM     21  O   UNL     1     131.891 133.643 124.446  1.00  0.00    -0.500 OA
ATOM     22  H   UNL     1     131.472 134.338 123.839  1.00  0.00     0.294 HD
ENDBRANCH  10  21
BRANCH   5  23
ATOM     23  O   UNL     1     129.408 132.152 131.648  1.00  0.00    -0.507 OA
ATOM     24  H   UNL     1     128.509 132.513 131.947  1.00  0.00     0.293 HD
ENDBRANCH   5  23
BRANCH   7  25
ATOM     25  O   UNL     1     129.869 129.953 127.367  1.00  0.00    -0.507 OA
ATOM     26  H   UNL     1     130.190 129.926 126.406  1.00  0.00     0.293 HD
ENDBRANCH   7  25
TORSDOF 6
ENDMDL
MODEL 5
REMARK VINA RESULT:    -5.951      9.477     11.229
REMARK INTER + INTRA:          -7.517
REMARK INTER:                  -7.394
REMARK INTRA:                  -0.123
REMARK UNBOUND:                -0.349
REMARK SMILES Oc1cc(O)c2cc(O)c(-c3ccc(O)c(O)c3)[o+]c2c1
REMARK SMILES IDX 10 1 19 2 20 3 21 4 2 5 3 6 4 7 6 8 7 9 8 10 11 11 12 12
REMARK SMILES IDX 13 13 14 14 18 15 16 16 15 17 17 19 9 21 1 23 5 25
REMARK H PARENT 15 18 17 20 9 22 1 24 5 26
REMARK Flexibility Score: inf
ROOT
ATOM      1  C   UNL     1     131.709 134.414 126.584  1.00  0.00     0.402 A 
ATOM      2  O   UNL     1     132.741 134.000 125.851  1.00  0.00    -0.202 OA
ATOM      3  C   UNL     1     133.020 132.717 125.645  1.00  0.00     0.368 A 
ATOM      4  C   UNL     1     134.121 132.364 124.859  1.00  0.00     0.162 A 
ATOM      5  C   UNL     1     134.423 131.016 124.632  1.00  0.00     0.128 A 
ATOM      6  C   UNL     1     133.621 130.018 125.194  1.00  0.00     0.093 A 
ATOM      7  C   UNL     1     132.514 130.355 125.986  1.00  0.00     0.136 A 
ATOM      8  C   UNL     1     132.210 131.711 126.214  1.00  0.00     0.125 A 
ATOM      9  C   UNL     1     131.123 132.106 127.002  1.00  0.00     0.078 A 
ATOM     10  C   UNL     1     130.868 133.466 127.203  1.00  0.00     0.223 A 
ENDROOT
BRANCH   1  11
ATOM     11  C   UNL     1     131.495 135.871 126.733  1.00  0.00     0.087 A 
ATOM     12  C   UNL     1     131.539 136.447 128.013  1.00  0.00     0.022 A 
ATOM     13  C   UNL     1     131.360 137.822 128.178  1.00  0.00     0.051 A 
ATOM     14  C   UNL     1     131.149 138.646 127.063  1.00  0.00     0.157 A 
ATOM     15  C   UNL     1     131.304 136.703 125.616  1.00  0.00     0.068 A 
ATOM     16  C   UNL     1     131.126 138.083 125.776  1.00  0.00     0.158 A 
BRANCH  14  17
ATOM     17  O   UNL     1     130.969 140.018 127.229  1.00  0.00    -0.504 OA
ATOM     18  H   UNL     1     131.277 140.682 126.528  1.00  0.00     0.293 HD
ENDBRANCH  14  17
BRANCH  16  19
ATOM     19  O   UNL     1     130.934 138.877 124.646  1.00  0.00    -0.504 OA
ATOM     20  H   UNL     1     130.097 138.813 124.080  1.00  0.00     0.293 HD
ENDBRANCH  16  19
ENDBRANCH   1  11
BRANCH  10  21
ATOM     21  O   UNL     1     129.818 133.867 128.028  1.00  0.00    -0.500 OA
ATOM     22  H   UNL     1     129.576 133.354 128.868  1.00  0.00     0.294 HD
ENDBRANCH  10  21
BRANCH   5  23
ATOM     23  O   UNL     1     135.518 130.656 123.850  1.00  0.00    -0.507 OA
ATOM     24  H   UNL     1     135.502 129.831 123.262  1.00  0.00     0.293 HD
ENDBRANCH   5  23
BRANCH   7  25
ATOM     25  O   UNL     1     131.722 129.349 126.543  1.00  0.00    -0.507 OA
ATOM     26  H   UNL     1     130.731 129.283 126.342  1.00  0.00     0.293 HD
ENDBRANCH   7  25
TORSDOF 6
ENDMDL
MODEL 6
REMARK VINA RESULT:    -5.930      8.680     10.640
REMARK INTER + INTRA:          -7.492
REMARK INTER:                  -7.161
REMARK INTRA:                  -0.331
REMARK UNBOUND:                -0.349
REMARK SMILES Oc1cc(O)c2cc(O)c(-c3ccc(O)c(O)c3)[o+]c2c1
REMARK SMILES IDX 10 1 19 2 20 3 21 4 2 5 3 6 4 7 6 8 7 9 8 10 11 11 12 12
REMARK SMILES IDX 13 13 14 14 18 15 16 16 15 17 17 19 9 21 1 23 5 25
REMARK H PARENT 15 18 17 20 9 22 1 24 5 26
REMARK Flexibility Score: inf
ROOT
ATOM      1  C   UNL     1     131.219 137.101 126.749  1.00  0.00     0.402 A 
ATOM      2  O   UNL     1     130.783 136.015 127.384  1.00  0.00    -0.202 OA
ATOM      3  C   UNL     1     131.110 134.779 127.022  1.00  0.00     0.368 A 
ATOM      4  C   UNL     1     130.614 133.690 127.744  1.00  0.00     0.162 A 
ATOM      5  C   UNL     1     130.954 132.383 127.373  1.00  0.00     0.128 A 
ATOM      6  C   UNL     1     131.794 132.166 126.277  1.00  0.00     0.093 A 
ATOM      7  C   UNL     1     132.299 133.247 125.541  1.00  0.00     0.136 A 
ATOM      8  C   UNL     1     131.958 134.562 125.913  1.00  0.00     0.125 A 
ATOM      9  C   UNL     1     132.425 135.678 125.212  1.00  0.00     0.078 A 
ATOM     10  C   UNL     1     132.051 136.962 125.618  1.00  0.00     0.223 A 
ENDROOT
BRANCH   1  11
ATOM     11  C   UNL     1     130.794 138.427 127.253  1.00  0.00     0.087 A 
ATOM     12  C   UNL     1     129.686 139.063 126.669  1.00  0.00     0.022 A 
ATOM     13  C   UNL     1     129.253 140.304 127.141  1.00  0.00     0.051 A 
ATOM     14  C   UNL     1     129.911 140.922 128.213  1.00  0.00     0.157 A 
ATOM     15  C   UNL     1     131.438 139.039 128.343  1.00  0.00     0.068 A 
ATOM     16  C   UNL     1     131.005 140.282 128.819  1.00  0.00     0.158 A 
BRANCH  14  17
ATOM     17  O   UNL     1     129.478 142.161 128.682  1.00  0.00    -0.504 OA
ATOM     18  H   UNL     1     128.518 142.314 128.969  1.00  0.00     0.293 HD
ENDBRANCH  14  17
BRANCH  16  19
ATOM     19  O   UNL     1     131.672 140.863 129.898  1.00  0.00    -0.504 OA
ATOM     20  H   UNL     1     131.918 141.845 129.914  1.00  0.00     0.293 HD
ENDBRANCH  16  19
ENDBRANCH   1  11
BRANCH  10  21
ATOM     21  O   UNL     1     132.473 138.076 124.894  1.00  0.00    -0.500 OA
ATOM     22  H   UNL     1     131.957 138.948 124.912  1.00  0.00     0.294 HD
ENDBRANCH  10  21
BRANCH   5  23
ATOM     23  O   UNL     1     130.463 131.293 128.088  1.00  0.00    -0.507 OA
ATOM     24  H   UNL     1     130.233 131.364 129.073  1.00  0.00     0.293 HD
ENDBRANCH   5  23
BRANCH   7  25
ATOM     25  O   UNL     1     133.135 133.017 124.447  1.00  0.00    -0.507 OA
ATOM     26  H   UNL     1     133.555 133.781 123.930  1.00  0.00     0.293 HD
ENDBRANCH   7  25
TORSDOF 6
ENDMDL
MODEL 7
REMARK VINA RESULT:    -5.895      8.234      9.704
REMARK INTER + INTRA:          -7.450
REMARK INTER:                  -7.100
REMARK INTRA:                  -0.350
REMARK UNBOUND:                -0.349
REMARK SMILES Oc1cc(O)c2cc(O)c(-c3ccc(O)c(O)c3)[o+]c2c1
REMARK SMILES IDX 10 1 19 2 20 3 21 4 2 5 3 6 4 7 6 8 7 9 8 10 11 11 12 12
REMARK SMILES IDX 13 13 14 14 18 15 16 16 15 17 17 19 9 21 1 23 5 25
REMARK H PARENT 15 18 17 20 9 22 1 24 5 26
REMARK Flexibility Score: inf
ROOT
ATOM      1  C   UNL     1     133.184 135.788 126.270  1.00  0.00     0.402 A 
ATOM      2  O   UNL     1     133.306 134.838 125.344  1.00  0.00    -0.202 OA
ATOM      3  C   UNL     1     133.690 133.596 125.621  1.00  0.00     0.368 A 
ATOM      4  C   UNL     1     133.789 132.656 124.592  1.00  0.00     0.162 A 
ATOM      5  C   UNL     1     134.191 131.344 124.871  1.00  0.00     0.128 A 
ATOM      6  C   UNL     1     134.493 130.972 126.185  1.00  0.00     0.093 A 
ATOM      7  C   UNL     1     134.400 131.904 127.228  1.00  0.00     0.136 A 
ATOM      8  C   UNL     1     133.996 133.224 126.948  1.00  0.00     0.125 A 
ATOM      9  C   UNL     1     133.893 134.198 127.947  1.00  0.00     0.078 A 
ATOM     10  C   UNL     1     133.495 135.496 127.615  1.00  0.00     0.223 A 
ENDROOT
BRANCH   1  11
ATOM     11  C   UNL     1     132.737 137.133 125.841  1.00  0.00     0.087 A 
ATOM     12  C   UNL     1     131.370 137.448 125.877  1.00  0.00     0.022 A 
ATOM     13  C   UNL     1     130.925 138.717 125.496  1.00  0.00     0.051 A 
ATOM     14  C   UNL     1     131.844 139.694 125.089  1.00  0.00     0.157 A 
ATOM     15  C   UNL     1     133.657 138.122 125.453  1.00  0.00     0.068 A 
ATOM     16  C   UNL     1     133.216 139.396 125.072  1.00  0.00     0.158 A 
BRANCH  14  17
ATOM     17  O   UNL     1     131.399 140.959 124.707  1.00  0.00    -0.504 OA
ATOM     18  H   UNL     1     130.616 141.409 125.170  1.00  0.00     0.293 HD
ENDBRANCH  14  17
BRANCH  16  19
ATOM     19  O   UNL     1     134.157 140.351 124.687  1.00  0.00    -0.504 OA
ATOM     20  H   UNL     1     135.095 140.366 125.066  1.00  0.00     0.293 HD
ENDBRANCH  16  19
ENDBRANCH   1  11
BRANCH  10  21
ATOM     21  O   UNL     1     133.438 136.484 128.597  1.00  0.00    -0.500 OA
ATOM     22  H   UNL     1     133.905 137.376 128.481  1.00  0.00     0.294 HD
ENDBRANCH  10  21
BRANCH   5  23
ATOM     23  O   UNL     1     134.292 130.401 123.851  1.00  0.00    -0.507 OA
ATOM     24  H   UNL     1     133.492 129.854 123.553  1.00  0.00     0.293 HD
ENDBRANCH   5  23
BRANCH   7  25
ATOM     25  O   UNL     1     134.706 131.521 128.535  1.00  0.00    -0.507 OA
ATOM     26  H   UNL     1     134.409 130.627 128.909  1.00  0.00     0.293 HD
ENDBRANCH   7  25
TORSDOF 6
ENDMDL
MODEL 8
REMARK VINA RESULT:    -5.814     10.323     11.785
REMARK INTER + INTRA:          -7.352
REMARK INTER:                  -7.006
REMARK INTRA:                  -0.346
REMARK UNBOUND:                -0.349
REMARK SMILES Oc1cc(O)c2cc(O)c(-c3ccc(O)c(O)c3)[o+]c2c1
REMARK SMILES IDX 10 1 19 2 20 3 21 4 2 5 3 6 4 7 6 8 7 9 8 10 11 11 12 12
REMARK SMILES IDX 13 13 14 14 18 15 16 16 15 17 17 19 9 21 1 23 5 25
REMARK H PARENT 15 18 17 20 9 22 1 24 5 26
REMARK Flexibility Score: inf
ROOT
ATOM      1  C   UNL     1     134.135 134.152 128.549  1.00  0.00     0.402 A 
ATOM      2  O   UNL     1     135.325 134.609 128.934  1.00  0.00    -0.202 OA
ATOM      3  C   UNL     1     135.478 135.589 129.819  1.00  0.00     0.368 A 
ATOM      4  C   UNL     1     136.763 136.009 130.173  1.00  0.00     0.162 A 
ATOM      5  C   UNL     1     136.937 137.038 131.107  1.00  0.00     0.128 A 
ATOM      6  C   UNL     1     135.820 137.647 131.689  1.00  0.00     0.093 A 
ATOM      7  C   UNL     1     134.524 137.238 131.342  1.00  0.00     0.136 A 
ATOM      8  C   UNL     1     134.349 136.203 130.404  1.00  0.00     0.125 A 
ATOM      9  C   UNL     1     133.081 135.760 130.014  1.00  0.00     0.078 A 
ATOM     10  C   UNL     1     132.961 134.733 129.073  1.00  0.00     0.223 A 
ENDROOT
BRANCH   1  11
ATOM     11  C   UNL     1     134.093 133.049 127.562  1.00  0.00     0.087 A 
ATOM     12  C   UNL     1     134.103 131.720 128.014  1.00  0.00     0.022 A 
ATOM     13  C   UNL     1     134.044 130.662 127.103  1.00  0.00     0.051 A 
ATOM     14  C   UNL     1     133.957 130.917 125.728  1.00  0.00     0.157 A 
ATOM     15  C   UNL     1     133.984 133.302 126.183  1.00  0.00     0.068 A 
ATOM     16  C   UNL     1     133.923 132.245 125.268  1.00  0.00     0.158 A 
BRANCH  14  17
ATOM     17  O   UNL     1     133.900 129.861 124.820  1.00  0.00    -0.504 OA
ATOM     18  H   UNL     1     134.621 129.722 124.122  1.00  0.00     0.293 HD
ENDBRANCH  14  17
BRANCH  16  19
ATOM     19  O   UNL     1     133.822 132.532 123.907  1.00  0.00    -0.504 OA
ATOM     20  H   UNL     1     134.413 132.086 123.217  1.00  0.00     0.293 HD
ENDBRANCH  16  19
ENDBRANCH   1  11
BRANCH  10  21
ATOM     21  O   UNL     1     131.701 134.320 128.644  1.00  0.00    -0.500 OA
ATOM     22  H   UNL     1     131.588 133.663 127.881  1.00  0.00     0.294 HD
ENDBRANCH  10  21
BRANCH   5  23
ATOM     23  O   UNL     1     138.214 137.462 131.465  1.00  0.00    -0.507 OA
ATOM     24  H   UNL     1     138.869 137.814 130.776  1.00  0.00     0.293 HD
ENDBRANCH   5  23
BRANCH   7  25
ATOM     25  O   UNL     1     133.418 137.856 131.929  1.00  0.00    -0.507 OA
ATOM     26  H   UNL     1     133.403 138.092 132.914  1.00  0.00     0.293 HD
ENDBRANCH   7  25
TORSDOF 6
ENDMDL
MODEL 9
REMARK VINA RESULT:    -5.785      9.939     12.304
REMARK INTER + INTRA:          -7.317
REMARK INTER:                  -6.964
REMARK INTRA:                  -0.353
REMARK UNBOUND:                -0.349
REMARK SMILES Oc1cc(O)c2cc(O)c(-c3ccc(O)c(O)c3)[o+]c2c1
REMARK SMILES IDX 10 1 19 2 20 3 21 4 2 5 3 6 4 7 6 8 7 9 8 10 11 11 12 12
REMARK SMILES IDX 13 13 14 14 18 15 16 16 15 17 17 19 9 21 1 23 5 25
REMARK H PARENT 15 18 17 20 9 22 1 24 5 26
REMARK Flexibility Score: inf
ROOT
ATOM      1  C   UNL     1     132.493 133.413 126.956  1.00  0.00     0.402 A 
ATOM      2  O   UNL     1     132.091 134.327 126.073  1.00  0.00    -0.202 OA
ATOM      3  C   UNL     1     131.930 135.611 126.376  1.00  0.00     0.368 A 
ATOM      4  C   UNL     1     131.510 136.508 125.391  1.00  0.00     0.162 A 
ATOM      5  C   UNL     1     131.339 137.864 125.697  1.00  0.00     0.128 A 
ATOM      6  C   UNL     1     131.591 138.322 126.994  1.00  0.00     0.093 A 
ATOM      7  C   UNL     1     132.012 137.434 127.994  1.00  0.00     0.136 A 
ATOM      8  C   UNL     1     132.184 136.071 127.686  1.00  0.00     0.125 A 
ATOM      9  C   UNL     1     132.594 135.138 128.646  1.00  0.00     0.078 A 
ATOM     10  C   UNL     1     132.743 133.795 128.290  1.00  0.00     0.223 A 
ENDROOT
BRANCH   1  11
ATOM     11  C   UNL     1     132.645 132.014 126.496  1.00  0.00     0.087 A 
ATOM     12  C   UNL     1     131.520 131.175 126.458  1.00  0.00     0.022 A 
ATOM     13  C   UNL     1     131.634 129.857 126.010  1.00  0.00     0.051 A 
ATOM     14  C   UNL     1     132.872 129.362 125.578  1.00  0.00     0.157 A 
ATOM     15  C   UNL     1     133.881 131.521 126.042  1.00  0.00     0.068 A 
ATOM     16  C   UNL     1     133.999 130.201 125.590  1.00  0.00     0.158 A 
BRANCH  14  17
ATOM     17  O   UNL     1     132.985 128.046 125.132  1.00  0.00    -0.504 OA
ATOM     18  H   UNL     1     132.297 127.343 125.375  1.00  0.00     0.293 HD
ENDBRANCH  14  17
BRANCH  16  19
ATOM     19  O   UNL     1     135.243 129.744 125.153  1.00  0.00    -0.504 OA
ATOM     20  H   UNL     1     135.341 129.143 124.344  1.00  0.00     0.293 HD
ENDBRANCH  16  19
ENDBRANCH   1  11
BRANCH  10  21
ATOM     21  O   UNL     1     133.103 132.852 129.252  1.00  0.00    -0.500 OA
ATOM     22  H   UNL     1     133.172 131.866 129.030  1.00  0.00     0.294 HD
ENDBRANCH  10  21
BRANCH   5  23
ATOM     23  O   UNL     1     130.921 138.764 124.720  1.00  0.00    -0.507 OA
ATOM     24  H   UNL     1     131.176 138.648 123.746  1.00  0.00     0.293 HD
ENDBRANCH   5  23
BRANCH   7  25
ATOM     25  O   UNL     1     132.259 137.904 129.285  1.00  0.00    -0.507 OA
ATOM     26  H   UNL     1     132.156 138.884 129.522  1.00  0.00     0.293 HD
ENDBRANCH   7  25
TORSDOF 6
ENDMDL
