MODEL 1
REMARK VINA RESULT:    -4.762      0.000      0.000
REMARK INTER + INTRA:         -16.688
REMARK INTER:                 -12.558
REMARK INTRA:                  -4.131
REMARK UNBOUND:                -4.131
REMARK SMILES CCCCCCCCCCCCCCCCCCCCCCCCCCCCCC(=O)[O-]
REMARK SMILES IDX 16 1 17 2 18 3 19 4 20 5 21 6 22 7 23 8 24 9 25 10 26 11
REMARK SMILES IDX 27 12 28 13 29 14 30 15 31 16 32 17 15 18 14 19 13 20 12 21
REMARK SMILES IDX 11 22 10 23 9 24 8 25 7 26 6 27 5 28 4 29 3 30 2 31 1 32
REMARK H PARENT
REMARK Flexibility Score: inf
ROOT
ATOM      1  C   UNL     1      18.192  -2.956  46.426  1.00  0.00     0.000 C 
ENDROOT
BRANCH   1   2
ATOM      2  C   UNL     1      17.688  -2.124  47.622  1.00  0.00     0.000 C 
BRANCH   2   3
ATOM      3  C   UNL     1      18.043  -0.624  47.568  1.00  0.00     0.000 C 
BRANCH   3   4
ATOM      4  C   UNL     1      16.980   0.269  46.904  1.00  0.00     0.000 C 
BRANCH   4   5
ATOM      5  C   UNL     1      15.915   0.765  47.897  1.00  0.00     0.000 C 
BRANCH   5   6
ATOM      6  C   UNL     1      14.624  -0.065  47.839  1.00  0.00     0.000 C 
BRANCH   6   7
ATOM      7  C   UNL     1      14.436  -0.766  46.481  1.00  0.00     0.000 C 
BRANCH   7   8
ATOM      8  C   UNL     1      14.154  -2.270  46.622  1.00  0.00     0.000 C 
BRANCH   8   9
ATOM      9  C   UNL     1      14.020  -2.976  45.262  1.00  0.00     0.000 C 
BRANCH   9  10
ATOM     10  C   UNL     1      13.802  -1.993  44.096  1.00  0.00     0.000 C 
BRANCH  10  11
ATOM     11  C   UNL     1      12.444  -2.120  43.381  1.00  0.00     0.000 C 
BRANCH  11  12
ATOM     12  C   UNL     1      11.692  -0.782  43.285  1.00  0.00     0.000 C 
BRANCH  12  13
ATOM     13  C   UNL     1      12.636   0.435  43.259  1.00  0.00     0.006 C 
BRANCH  13  14
ATOM     14  C   UNL     1      12.360   1.459  44.374  1.00  0.00     0.053 C 
BRANCH  14  15
ATOM     15  C   UNL     1      11.176   2.328  44.077  1.00  0.00     0.041 C 
ATOM     16  O   UNL     1      11.289   3.306  43.292  1.00  0.00    -0.550 OA
ATOM     17  O   UNL     1       9.942   2.045  44.650  1.00  0.00    -0.550 OA
ENDBRANCH  14  15
ENDBRANCH  13  14
ENDBRANCH  12  13
ENDBRANCH  11  12
ENDBRANCH  10  11
ENDBRANCH   9  10
ENDBRANCH   8   9
ENDBRANCH   7   8
ENDBRANCH   6   7
ENDBRANCH   5   6
ENDBRANCH   4   5
ENDBRANCH   3   4
ENDBRANCH   2   3
ENDBRANCH   1   2
BRANCH   1  18
ATOM     18  C   UNL     1      17.531  -2.617  45.075  1.00  0.00     0.000 C 
BRANCH  18  19
ATOM     19  C   UNL     1      18.341  -3.038  43.834  1.00  0.00     0.000 C 
BRANCH  19  20
ATOM     20  C   UNL     1      18.474  -1.909  42.801  1.00  0.00     0.000 C 
BRANCH  20  21
ATOM     21  C   UNL     1      19.915  -1.377  42.746  1.00  0.00     0.000 C 
BRANCH  21  22
ATOM     22  C   UNL     1      20.054   0.009  43.399  1.00  0.00     0.000 C 
BRANCH  22  23
ATOM     23  C   UNL     1      20.367  -0.078  44.904  1.00  0.00     0.000 C 
BRANCH  23  24
ATOM     24  C   UNL     1      21.531  -1.033  45.214  1.00  0.00    -0.000 C 
BRANCH  24  25
ATOM     25  C   UNL     1      22.020  -0.922  46.668  1.00  0.00    -0.000 C 
BRANCH  25  26
ATOM     26  C   UNL     1      21.318   0.207  47.440  1.00  0.00    -0.000 C 
BRANCH  26  27
ATOM     27  C   UNL     1      22.283   1.012  48.322  1.00  0.00    -0.000 C 
BRANCH  27  28
ATOM     28  C   UNL     1      23.556   0.204  48.624  1.00  0.00    -0.000 C 
BRANCH  28  29
ATOM     29  C   UNL     1      24.828   0.897  48.100  1.00  0.00    -0.000 C 
BRANCH  29  30
ATOM     30  C   UNL     1      24.570   1.929  46.985  1.00  0.00    -0.000 C 
BRANCH  30  31
ATOM     31  C   UNL     1      24.957   3.374  47.357  1.00  0.00    -0.003 C 
ATOM     32  C   UNL     1      24.588   4.381  46.268  1.00  0.00     0.004 C 
ENDBRANCH  30  31
ENDBRANCH  29  30
ENDBRANCH  28  29
ENDBRANCH  27  28
ENDBRANCH  26  27
ENDBRANCH  25  26
ENDBRANCH  24  25
ENDBRANCH  23  24
ENDBRANCH  22  23
ENDBRANCH  21  22
ENDBRANCH  20  21
ENDBRANCH  19  20
ENDBRANCH  18  19
ENDBRANCH   1  18
TORSDOF 28
ENDMDL
MODEL 2
REMARK VINA RESULT:    -4.670      2.330      4.573
REMARK INTER + INTRA:         -16.444
REMARK INTER:                 -12.342
REMARK INTRA:                  -4.102
REMARK UNBOUND:                -4.131
REMARK SMILES CCCCCCCCCCCCCCCCCCCCCCCCCCCCCC(=O)[O-]
REMARK SMILES IDX 16 1 17 2 18 3 19 4 20 5 21 6 22 7 23 8 24 9 25 10 26 11
REMARK SMILES IDX 27 12 28 13 29 14 30 15 31 16 32 17 15 18 14 19 13 20 12 21
REMARK SMILES IDX 11 22 10 23 9 24 8 25 7 26 6 27 5 28 4 29 3 30 2 31 1 32
REMARK H PARENT
REMARK Flexibility Score: inf
ROOT
ATOM      1  C   UNL     1      18.903  -0.925  46.447  1.00  0.00     0.000 C 
ENDROOT
BRANCH   1   2
ATOM      2  C   UNL     1      18.096  -1.251  47.720  1.00  0.00     0.000 C 
BRANCH   2   3
ATOM      3  C   UNL     1      17.089  -2.410  47.575  1.00  0.00     0.000 C 
BRANCH   3   4
ATOM      4  C   UNL     1      15.940  -2.148  46.586  1.00  0.00     0.000 C 
BRANCH   4   5
ATOM      5  C   UNL     1      14.627  -2.832  47.004  1.00  0.00     0.000 C 
BRANCH   5   6
ATOM      6  C   UNL     1      13.451  -2.458  46.090  1.00  0.00     0.000 C 
BRANCH   6   7
ATOM      7  C   UNL     1      13.916  -1.898  44.733  1.00  0.00     0.000 C 
BRANCH   7   8
ATOM      8  C   UNL     1      12.815  -1.943  43.661  1.00  0.00     0.000 C 
BRANCH   8   9
ATOM      9  C   UNL     1      12.383  -0.541  43.199  1.00  0.00     0.000 C 
BRANCH   9  10
ATOM     10  C   UNL     1      11.089  -0.057  43.880  1.00  0.00     0.000 C 
BRANCH  10  11
ATOM     11  C   UNL     1      11.121   1.398  44.381  1.00  0.00     0.000 C 
BRANCH  11  12
ATOM     12  C   UNL     1      12.486   1.798  44.967  1.00  0.00     0.000 C 
BRANCH  12  13
ATOM     13  C   UNL     1      12.745   1.184  46.356  1.00  0.00     0.006 C 
BRANCH  13  14
ATOM     14  C   UNL     1      14.235   1.110  46.733  1.00  0.00     0.053 C 
BRANCH  14  15
ATOM     15  C   UNL     1      14.473   1.368  48.189  1.00  0.00     0.041 C 
ATOM     16  O   UNL     1      13.646   0.965  49.047  1.00  0.00    -0.550 OA
ATOM     17  O   UNL     1      15.620   2.036  48.600  1.00  0.00    -0.550 OA
ENDBRANCH  14  15
ENDBRANCH  13  14
ENDBRANCH  12  13
ENDBRANCH  11  12
ENDBRANCH  10  11
ENDBRANCH   9  10
ENDBRANCH   8   9
ENDBRANCH   7   8
ENDBRANCH   6   7
ENDBRANCH   5   6
ENDBRANCH   4   5
ENDBRANCH   3   4
ENDBRANCH   2   3
ENDBRANCH   1   2
BRANCH   1  18
ATOM     18  C   UNL     1      20.382  -0.565  46.690  1.00  0.00     0.000 C 
BRANCH  18  19
ATOM     19  C   UNL     1      20.622   0.856  47.232  1.00  0.00     0.000 C 
BRANCH  19  20
ATOM     20  C   UNL     1      21.615   0.885  48.404  1.00  0.00     0.000 C 
BRANCH  20  21
ATOM     21  C   UNL     1      22.950   0.232  48.013  1.00  0.00     0.000 C 
BRANCH  21  22
ATOM     22  C   UNL     1      24.114   0.692  48.908  1.00  0.00     0.000 C 
BRANCH  22  23
ATOM     23  C   UNL     1      25.484   0.233  48.375  1.00  0.00     0.000 C 
BRANCH  23  24
ATOM     24  C   UNL     1      26.186   1.314  47.538  1.00  0.00    -0.000 C 
BRANCH  24  25
ATOM     25  C   UNL     1      25.546   2.704  47.703  1.00  0.00    -0.000 C 
BRANCH  25  26
ATOM     26  C   UNL     1      25.531   3.503  46.390  1.00  0.00    -0.000 C 
BRANCH  26  27
ATOM     27  C   UNL     1      24.209   4.251  46.167  1.00  0.00    -0.000 C 
BRANCH  27  28
ATOM     28  C   UNL     1      23.060   3.267  45.891  1.00  0.00    -0.000 C 
BRANCH  28  29
ATOM     29  C   UNL     1      23.126   2.672  44.471  1.00  0.00    -0.000 C 
BRANCH  29  30
ATOM     30  C   UNL     1      23.104   1.132  44.432  1.00  0.00    -0.000 C 
BRANCH  30  31
ATOM     31  C   UNL     1      24.493   0.483  44.265  1.00  0.00    -0.003 C 
ATOM     32  C   UNL     1      24.586  -0.889  44.934  1.00  0.00     0.004 C 
ENDBRANCH  30  31
ENDBRANCH  29  30
ENDBRANCH  28  29
ENDBRANCH  27  28
ENDBRANCH  26  27
ENDBRANCH  25  26
ENDBRANCH  24  25
ENDBRANCH  23  24
ENDBRANCH  22  23
ENDBRANCH  21  22
ENDBRANCH  20  21
ENDBRANCH  19  20
ENDBRANCH  18  19
ENDBRANCH   1  18
TORSDOF 28
ENDMDL
MODEL 3
REMARK VINA RESULT:    -4.648      2.824      6.748
REMARK INTER + INTRA:         -16.387
REMARK INTER:                 -13.163
REMARK INTRA:                  -3.223
REMARK UNBOUND:                -4.131
REMARK SMILES CCCCCCCCCCCCCCCCCCCCCCCCCCCCCC(=O)[O-]
REMARK SMILES IDX 16 1 17 2 18 3 19 4 20 5 21 6 22 7 23 8 24 9 25 10 26 11
REMARK SMILES IDX 27 12 28 13 29 14 30 15 31 16 32 17 15 18 14 19 13 20 12 21
REMARK SMILES IDX 11 22 10 23 9 24 8 25 7 26 6 27 5 28 4 29 3 30 2 31 1 32
REMARK H PARENT
REMARK Flexibility Score: inf
ROOT
ATOM      1  C   UNL     1      25.713  -2.368  49.750  1.00  0.00     0.000 C 
ENDROOT
BRANCH   1   2
ATOM      2  C   UNL     1      25.108  -0.965  49.543  1.00  0.00     0.000 C 
BRANCH   2   3
ATOM      3  C   UNL     1      24.188  -0.827  48.313  1.00  0.00     0.000 C 
BRANCH   3   4
ATOM      4  C   UNL     1      23.194   0.346  48.378  1.00  0.00     0.000 C 
BRANCH   4   5
ATOM      5  C   UNL     1      22.314   0.451  47.121  1.00  0.00     0.000 C 
BRANCH   5   6
ATOM      6  C   UNL     1      20.993   1.188  47.387  1.00  0.00     0.000 C 
BRANCH   6   7
ATOM      7  C   UNL     1      20.028   0.367  48.263  1.00  0.00     0.000 C 
BRANCH   7   8
ATOM      8  C   UNL     1      18.762  -0.068  47.507  1.00  0.00     0.000 C 
BRANCH   8   9
ATOM      9  C   UNL     1      19.032  -1.207  46.509  1.00  0.00     0.000 C 
BRANCH   9  10
ATOM     10  C   UNL     1      17.864  -2.207  46.411  1.00  0.00     0.000 C 
BRANCH  10  11
ATOM     11  C   UNL     1      17.402  -2.802  47.754  1.00  0.00     0.000 C 
BRANCH  11  12
ATOM     12  C   UNL     1      15.887  -2.662  47.979  1.00  0.00     0.000 C 
BRANCH  12  13
ATOM     13  C   UNL     1      15.279  -1.457  47.236  1.00  0.00     0.006 C 
BRANCH  13  14
ATOM     14  C   UNL     1      14.984  -0.252  48.146  1.00  0.00     0.053 C 
BRANCH  14  15
ATOM     15  C   UNL     1      14.097   0.761  47.489  1.00  0.00     0.041 C 
ATOM     16  O   UNL     1      14.432   1.279  46.392  1.00  0.00    -0.550 OA
ATOM     17  O   UNL     1      12.890   1.117  48.078  1.00  0.00    -0.550 OA
ENDBRANCH  14  15
ENDBRANCH  13  14
ENDBRANCH  12  13
ENDBRANCH  11  12
ENDBRANCH  10  11
ENDBRANCH   9  10
ENDBRANCH   8   9
ENDBRANCH   7   8
ENDBRANCH   6   7
ENDBRANCH   5   6
ENDBRANCH   4   5
ENDBRANCH   3   4
ENDBRANCH   2   3
ENDBRANCH   1   2
BRANCH   1  18
ATOM     18  C   UNL     1      27.171  -2.524  49.274  1.00  0.00     0.000 C 
BRANCH  18  19
ATOM     19  C   UNL     1      27.834  -1.224  48.784  1.00  0.00     0.000 C 
BRANCH  19  20
ATOM     20  C   UNL     1      27.841  -1.100  47.253  1.00  0.00     0.000 C 
BRANCH  20  21
ATOM     21  C   UNL     1      27.443   0.318  46.812  1.00  0.00     0.000 C 
BRANCH  21  22
ATOM     22  C   UNL     1      27.893   1.394  47.814  1.00  0.00     0.000 C 
BRANCH  22  23
ATOM     23  C   UNL     1      26.936   2.600  47.853  1.00  0.00     0.000 C 
BRANCH  23  24
ATOM     24  C   UNL     1      25.715   2.417  46.938  1.00  0.00    -0.000 C 
BRANCH  24  25
ATOM     25  C   UNL     1      24.669   3.532  47.113  1.00  0.00    -0.000 C 
BRANCH  25  26
ATOM     26  C   UNL     1      24.135   4.052  45.768  1.00  0.00    -0.000 C 
BRANCH  26  27
ATOM     27  C   UNL     1      23.591   2.929  44.873  1.00  0.00    -0.000 C 
BRANCH  27  28
ATOM     28  C   UNL     1      23.423   3.412  43.423  1.00  0.00    -0.000 C 
BRANCH  28  29
ATOM     29  C   UNL     1      24.343   4.604  43.093  1.00  0.00    -0.000 C 
BRANCH  29  30
ATOM     30  C   UNL     1      23.625   5.782  42.407  1.00  0.00    -0.000 C 
BRANCH  30  31
ATOM     31  C   UNL     1      24.420   7.103  42.421  1.00  0.00    -0.003 C 
ATOM     32  C   UNL     1      24.780   7.588  41.017  1.00  0.00     0.004 C 
ENDBRANCH  30  31
ENDBRANCH  29  30
ENDBRANCH  28  29
ENDBRANCH  27  28
ENDBRANCH  26  27
ENDBRANCH  25  26
ENDBRANCH  24  25
ENDBRANCH  23  24
ENDBRANCH  22  23
ENDBRANCH  21  22
ENDBRANCH  20  21
ENDBRANCH  19  20
ENDBRANCH  18  19
ENDBRANCH   1  18
TORSDOF 28
ENDMDL
MODEL 4
REMARK VINA RESULT:    -4.620      2.151      5.321
REMARK INTER + INTRA:         -16.313
REMARK INTER:                 -12.521
REMARK INTRA:                  -3.792
REMARK UNBOUND:                -4.131
REMARK SMILES CCCCCCCCCCCCCCCCCCCCCCCCCCCCCC(=O)[O-]
REMARK SMILES IDX 16 1 17 2 18 3 19 4 20 5 21 6 22 7 23 8 24 9 25 10 26 11
REMARK SMILES IDX 27 12 28 13 29 14 30 15 31 16 32 17 15 18 14 19 13 20 12 21
REMARK SMILES IDX 11 22 10 23 9 24 8 25 7 26 6 27 5 28 4 29 3 30 2 31 1 32
REMARK H PARENT
REMARK Flexibility Score: inf
ROOT
ATOM      1  C   UNL     1      23.416   0.056  48.260  1.00  0.00     0.000 C 
ENDROOT
BRANCH   1   2
ATOM      2  C   UNL     1      22.216   1.005  48.452  1.00  0.00     0.000 C 
BRANCH   2   3
ATOM      3  C   UNL     1      21.149   0.940  47.340  1.00  0.00     0.000 C 
BRANCH   3   4
ATOM      4  C   UNL     1      19.956   0.017  47.642  1.00  0.00     0.000 C 
BRANCH   4   5
ATOM      5  C   UNL     1      19.750  -1.063  46.566  1.00  0.00     0.000 C 
BRANCH   5   6
ATOM      6  C   UNL     1      18.417  -0.904  45.820  1.00  0.00     0.000 C 
BRANCH   6   7
ATOM      7  C   UNL     1      17.780  -2.259  45.460  1.00  0.00     0.000 C 
BRANCH   7   8
ATOM      8  C   UNL     1      16.401  -2.460  46.108  1.00  0.00     0.000 C 
BRANCH   8   9
ATOM      9  C   UNL     1      16.394  -2.106  47.604  1.00  0.00     0.000 C 
BRANCH   9  10
ATOM     10  C   UNL     1      15.273  -1.120  47.982  1.00  0.00     0.000 C 
BRANCH  10  11
ATOM     11  C   UNL     1      15.673   0.366  47.944  1.00  0.00     0.000 C 
BRANCH  11  12
ATOM     12  C   UNL     1      14.593   1.291  48.533  1.00  0.00     0.000 C 
BRANCH  12  13
ATOM     13  C   UNL     1      13.274   1.255  47.738  1.00  0.00     0.006 C 
BRANCH  13  14
ATOM     14  C   UNL     1      13.455   1.478  46.226  1.00  0.00     0.053 C 
BRANCH  14  15
ATOM     15  C   UNL     1      12.732   0.455  45.403  1.00  0.00     0.041 C 
ATOM     16  O   UNL     1      13.260  -0.666  45.181  1.00  0.00    -0.550 OA
ATOM     17  O   UNL     1      11.467   0.733  44.900  1.00  0.00    -0.550 OA
ENDBRANCH  14  15
ENDBRANCH  13  14
ENDBRANCH  12  13
ENDBRANCH  11  12
ENDBRANCH  10  11
ENDBRANCH   9  10
ENDBRANCH   8   9
ENDBRANCH   7   8
ENDBRANCH   6   7
ENDBRANCH   5   6
ENDBRANCH   4   5
ENDBRANCH   3   4
ENDBRANCH   2   3
ENDBRANCH   1   2
BRANCH   1  18
ATOM     18  C   UNL     1      24.519   0.179  49.331  1.00  0.00     0.000 C 
BRANCH  18  19
ATOM     19  C   UNL     1      25.159  -1.155  49.757  1.00  0.00     0.000 C 
BRANCH  19  20
ATOM     20  C   UNL     1      24.881  -2.292  48.762  1.00  0.00     0.000 C 
BRANCH  20  21
ATOM     21  C   UNL     1      26.127  -2.603  47.917  1.00  0.00     0.000 C 
BRANCH  21  22
ATOM     22  C   UNL     1      26.076  -1.942  46.529  1.00  0.00     0.000 C 
BRANCH  22  23
ATOM     23  C   UNL     1      27.019  -0.730  46.419  1.00  0.00     0.000 C 
BRANCH  23  24
ATOM     24  C   UNL     1      26.272   0.575  46.099  1.00  0.00    -0.000 C 
BRANCH  24  25
ATOM     25  C   UNL     1      27.176   1.816  46.195  1.00  0.00    -0.000 C 
BRANCH  25  26
ATOM     26  C   UNL     1      26.815   2.715  47.389  1.00  0.00    -0.000 C 
BRANCH  26  27
ATOM     27  C   UNL     1      25.319   3.057  47.442  1.00  0.00    -0.000 C 
BRANCH  27  28
ATOM     28  C   UNL     1      25.035   4.393  46.737  1.00  0.00    -0.000 C 
BRANCH  28  29
ATOM     29  C   UNL     1      24.259   4.206  45.419  1.00  0.00    -0.000 C 
BRANCH  29  30
ATOM     30  C   UNL     1      23.062   3.241  45.524  1.00  0.00    -0.000 C 
BRANCH  30  31
ATOM     31  C   UNL     1      22.876   2.326  44.298  1.00  0.00    -0.003 C 
ATOM     32  C   UNL     1      24.178   2.101  43.529  1.00  0.00     0.004 C 
ENDBRANCH  30  31
ENDBRANCH  29  30
ENDBRANCH  28  29
ENDBRANCH  27  28
ENDBRANCH  26  27
ENDBRANCH  25  26
ENDBRANCH  24  25
ENDBRANCH  23  24
ENDBRANCH  22  23
ENDBRANCH  21  22
ENDBRANCH  20  21
ENDBRANCH  19  20
ENDBRANCH  18  19
ENDBRANCH   1  18
TORSDOF 28
ENDMDL
MODEL 5
REMARK VINA RESULT:    -4.615      2.156      6.016
REMARK INTER + INTRA:         -16.300
REMARK INTER:                 -12.305
REMARK INTRA:                  -3.994
REMARK UNBOUND:                -4.131
REMARK SMILES CCCCCCCCCCCCCCCCCCCCCCCCCCCCCC(=O)[O-]
REMARK SMILES IDX 16 1 17 2 18 3 19 4 20 5 21 6 22 7 23 8 24 9 25 10 26 11
REMARK SMILES IDX 27 12 28 13 29 14 30 15 31 16 32 17 15 18 14 19 13 20 12 21
REMARK SMILES IDX 11 22 10 23 9 24 8 25 7 26 6 27 5 28 4 29 3 30 2 31 1 32
REMARK H PARENT
REMARK Flexibility Score: inf
ROOT
ATOM      1  C   UNL     1      25.152  -1.276  49.709  1.00  0.00     0.000 C 
ENDROOT
BRANCH   1   2
ATOM      2  C   UNL     1      24.434   0.050  49.392  1.00  0.00     0.000 C 
BRANCH   2   3
ATOM      3  C   UNL     1      23.344  -0.042  48.304  1.00  0.00     0.000 C 
BRANCH   3   4
ATOM      4  C   UNL     1      22.362   1.142  48.270  1.00  0.00     0.000 C 
BRANCH   4   5
ATOM      5  C   UNL     1      20.919   0.709  47.960  1.00  0.00     0.000 C 
BRANCH   5   6
ATOM      6  C   UNL     1      20.858  -0.506  47.022  1.00  0.00     0.000 C 
BRANCH   6   7
ATOM      7  C   UNL     1      19.443  -0.747  46.464  1.00  0.00     0.000 C 
BRANCH   7   8
ATOM      8  C   UNL     1      18.342  -0.515  47.512  1.00  0.00     0.000 C 
BRANCH   8   9
ATOM      9  C   UNL     1      17.306  -1.652  47.542  1.00  0.00     0.000 C 
BRANCH   9  10
ATOM     10  C   UNL     1      15.872  -1.149  47.793  1.00  0.00     0.000 C 
BRANCH  10  11
ATOM     11  C   UNL     1      15.717   0.382  47.835  1.00  0.00     0.000 C 
BRANCH  11  12
ATOM     12  C   UNL     1      14.252   0.838  47.720  1.00  0.00     0.000 C 
BRANCH  12  13
ATOM     13  C   UNL     1      13.694   0.707  46.291  1.00  0.00     0.006 C 
BRANCH  13  14
ATOM     14  C   UNL     1      12.577   1.714  45.966  1.00  0.00     0.053 C 
BRANCH  14  15
ATOM     15  C   UNL     1      12.029   1.539  44.583  1.00  0.00     0.041 C 
ATOM     16  O   UNL     1      12.805   1.307  43.619  1.00  0.00    -0.550 OA
ATOM     17  O   UNL     1      10.660   1.612  44.361  1.00  0.00    -0.550 OA
ENDBRANCH  14  15
ENDBRANCH  13  14
ENDBRANCH  12  13
ENDBRANCH  11  12
ENDBRANCH  10  11
ENDBRANCH   9  10
ENDBRANCH   8   9
ENDBRANCH   7   8
ENDBRANCH   6   7
ENDBRANCH   5   6
ENDBRANCH   4   5
ENDBRANCH   3   4
ENDBRANCH   2   3
ENDBRANCH   1   2
BRANCH   1  18
ATOM     18  C   UNL     1      25.898  -1.911  48.518  1.00  0.00     0.000 C 
BRANCH  18  19
ATOM     19  C   UNL     1      27.314  -1.358  48.271  1.00  0.00     0.000 C 
BRANCH  19  20
ATOM     20  C   UNL     1      27.307  -0.040  47.481  1.00  0.00     0.000 C 
BRANCH  20  21
ATOM     21  C   UNL     1      27.967   1.090  48.287  1.00  0.00     0.000 C 
BRANCH  21  22
ATOM     22  C   UNL     1      27.333   2.462  48.003  1.00  0.00     0.000 C 
BRANCH  22  23
ATOM     23  C   UNL     1      26.063   2.357  47.138  1.00  0.00     0.000 C 
BRANCH  23  24
ATOM     24  C   UNL     1      25.153   3.588  47.270  1.00  0.00    -0.000 C 
BRANCH  24  25
ATOM     25  C   UNL     1      24.797   4.214  45.910  1.00  0.00    -0.000 C 
BRANCH  25  26
ATOM     26  C   UNL     1      24.157   3.200  44.948  1.00  0.00    -0.000 C 
BRANCH  26  27
ATOM     27  C   UNL     1      22.695   2.889  45.302  1.00  0.00    -0.000 C 
BRANCH  27  28
ATOM     28  C   UNL     1      22.191   1.659  44.530  1.00  0.00    -0.000 C 
BRANCH  28  29
ATOM     29  C   UNL     1      23.216   1.158  43.493  1.00  0.00    -0.000 C 
BRANCH  29  30
ATOM     30  C   UNL     1      23.652  -0.306  43.696  1.00  0.00    -0.000 C 
BRANCH  30  31
ATOM     31  C   UNL     1      24.522  -0.539  44.948  1.00  0.00    -0.003 C 
ATOM     32  C   UNL     1      25.371  -1.806  44.846  1.00  0.00     0.004 C 
ENDBRANCH  30  31
ENDBRANCH  29  30
ENDBRANCH  28  29
ENDBRANCH  27  28
ENDBRANCH  26  27
ENDBRANCH  25  26
ENDBRANCH  24  25
ENDBRANCH  23  24
ENDBRANCH  22  23
ENDBRANCH  21  22
ENDBRANCH  20  21
ENDBRANCH  19  20
ENDBRANCH  18  19
ENDBRANCH   1  18
TORSDOF 28
ENDMDL
MODEL 6
REMARK VINA RESULT:    -4.596      2.345      5.792
REMARK INTER + INTRA:         -16.250
REMARK INTER:                 -12.179
REMARK INTRA:                  -4.071
REMARK UNBOUND:                -4.131
REMARK SMILES CCCCCCCCCCCCCCCCCCCCCCCCCCCCCC(=O)[O-]
REMARK SMILES IDX 16 1 17 2 18 3 19 4 20 5 21 6 22 7 23 8 24 9 25 10 26 11
REMARK SMILES IDX 27 12 28 13 29 14 30 15 31 16 32 17 15 18 14 19 13 20 12 21
REMARK SMILES IDX 11 22 10 23 9 24 8 25 7 26 6 27 5 28 4 29 3 30 2 31 1 32
REMARK H PARENT
REMARK Flexibility Score: inf
ROOT
ATOM      1  C   UNL     1      22.208   2.133  46.308  1.00  0.00     0.000 C 
ENDROOT
BRANCH   1   2
ATOM      2  C   UNL     1      22.084   1.300  45.016  1.00  0.00     0.000 C 
BRANCH   2   3
ATOM      3  C   UNL     1      23.235   0.303  44.771  1.00  0.00     0.000 C 
BRANCH   3   4
ATOM      4  C   UNL     1      22.796  -1.160  44.589  1.00  0.00     0.000 C 
BRANCH   4   5
ATOM      5  C   UNL     1      21.753  -1.602  45.630  1.00  0.00     0.000 C 
BRANCH   5   6
ATOM      6  C   UNL     1      20.477  -2.162  44.982  1.00  0.00     0.000 C 
BRANCH   6   7
ATOM      7  C   UNL     1      19.208  -1.426  45.450  1.00  0.00     0.000 C 
BRANCH   7   8
ATOM      8  C   UNL     1      19.331  -0.878  46.881  1.00  0.00     0.000 C 
BRANCH   8   9
ATOM      9  C   UNL     1      18.283  -1.476  47.835  1.00  0.00     0.000 C 
BRANCH   9  10
ATOM     10  C   UNL     1      16.862  -0.943  47.573  1.00  0.00     0.000 C 
BRANCH  10  11
ATOM     11  C   UNL     1      16.771   0.572  47.318  1.00  0.00     0.000 C 
BRANCH  11  12
ATOM     12  C   UNL     1      15.747   1.271  48.229  1.00  0.00     0.000 C 
BRANCH  12  13
ATOM     13  C   UNL     1      14.433   0.480  48.372  1.00  0.00     0.006 C 
BRANCH  13  14
ATOM     14  C   UNL     1      13.191   1.249  47.889  1.00  0.00     0.053 C 
BRANCH  14  15
ATOM     15  C   UNL     1      12.795   0.883  46.492  1.00  0.00     0.041 C 
ATOM     16  O   UNL     1      12.668  -0.327  46.166  1.00  0.00    -0.550 OA
ATOM     17  O   UNL     1      12.546   1.878  45.554  1.00  0.00    -0.550 OA
ENDBRANCH  14  15
ENDBRANCH  13  14
ENDBRANCH  12  13
ENDBRANCH  11  12
ENDBRANCH  10  11
ENDBRANCH   9  10
ENDBRANCH   8   9
ENDBRANCH   7   8
ENDBRANCH   6   7
ENDBRANCH   5   6
ENDBRANCH   4   5
ENDBRANCH   3   4
ENDBRANCH   2   3
ENDBRANCH   1   2
BRANCH   1  18
ATOM     18  C   UNL     1      22.128   1.321  47.616  1.00  0.00     0.000 C 
BRANCH  18  19
ATOM     19  C   UNL     1      23.463   1.174  48.370  1.00  0.00     0.000 C 
BRANCH  19  20
ATOM     20  C   UNL     1      23.969  -0.275  48.406  1.00  0.00     0.000 C 
BRANCH  20  21
ATOM     21  C   UNL     1      24.733  -0.562  49.709  1.00  0.00     0.000 C 
BRANCH  21  22
ATOM     22  C   UNL     1      25.498  -1.895  49.661  1.00  0.00     0.000 C 
BRANCH  22  23
ATOM     23  C   UNL     1      25.833  -2.331  48.223  1.00  0.00     0.000 C 
BRANCH  23  24
ATOM     24  C   UNL     1      27.309  -2.099  47.862  1.00  0.00    -0.000 C 
BRANCH  24  25
ATOM     25  C   UNL     1      27.554  -0.723  47.218  1.00  0.00    -0.000 C 
BRANCH  25  26
ATOM     26  C   UNL     1      27.982   0.338  48.244  1.00  0.00    -0.000 C 
BRANCH  26  27
ATOM     27  C   UNL     1      27.751   1.772  47.745  1.00  0.00    -0.000 C 
BRANCH  27  28
ATOM     28  C   UNL     1      27.313   1.778  46.272  1.00  0.00    -0.000 C 
BRANCH  28  29
ATOM     29  C   UNL     1      25.911   2.389  46.079  1.00  0.00    -0.000 C 
BRANCH  29  30
ATOM     30  C   UNL     1      25.661   3.665  46.907  1.00  0.00    -0.000 C 
BRANCH  30  31
ATOM     31  C   UNL     1      24.839   4.743  46.174  1.00  0.00    -0.003 C 
ATOM     32  C   UNL     1      25.456   6.137  46.295  1.00  0.00     0.004 C 
ENDBRANCH  30  31
ENDBRANCH  29  30
ENDBRANCH  28  29
ENDBRANCH  27  28
ENDBRANCH  26  27
ENDBRANCH  25  26
ENDBRANCH  24  25
ENDBRANCH  23  24
ENDBRANCH  22  23
ENDBRANCH  21  22
ENDBRANCH  20  21
ENDBRANCH  19  20
ENDBRANCH  18  19
ENDBRANCH   1  18
TORSDOF 28
ENDMDL
MODEL 7
REMARK VINA RESULT:    -4.567      2.105      5.767
REMARK INTER + INTRA:         -16.174
REMARK INTER:                 -12.326
REMARK INTRA:                  -3.847
REMARK UNBOUND:                -4.131
REMARK SMILES CCCCCCCCCCCCCCCCCCCCCCCCCCCCCC(=O)[O-]
REMARK SMILES IDX 16 1 17 2 18 3 19 4 20 5 21 6 22 7 23 8 24 9 25 10 26 11
REMARK SMILES IDX 27 12 28 13 29 14 30 15 31 16 32 17 15 18 14 19 13 20 12 21
REMARK SMILES IDX 11 22 10 23 9 24 8 25 7 26 6 27 5 28 4 29 3 30 2 31 1 32
REMARK H PARENT
REMARK Flexibility Score: inf
ROOT
ATOM      1  C   UNL     1      23.299  -0.128  48.257  1.00  0.00     0.000 C 
ENDROOT
BRANCH   1   2
ATOM      2  C   UNL     1      22.368   1.101  48.280  1.00  0.00     0.000 C 
BRANCH   2   3
ATOM      3  C   UNL     1      21.109   0.981  47.399  1.00  0.00     0.000 C 
BRANCH   3   4
ATOM      4  C   UNL     1      19.873   0.404  48.112  1.00  0.00     0.000 C 
BRANCH   4   5
ATOM      5  C   UNL     1      18.993  -0.448  47.181  1.00  0.00     0.000 C 
BRANCH   5   6
ATOM      6  C   UNL     1      18.392  -1.669  47.894  1.00  0.00     0.000 C 
BRANCH   6   7
ATOM      7  C   UNL     1      17.409  -2.447  47.000  1.00  0.00     0.000 C 
BRANCH   7   8
ATOM      8  C   UNL     1      16.119  -1.663  46.712  1.00  0.00     0.000 C 
BRANCH   8   9
ATOM      9  C   UNL     1      15.445  -1.145  47.994  1.00  0.00     0.000 C 
BRANCH   9  10
ATOM     10  C   UNL     1      15.344   0.392  48.038  1.00  0.00     0.000 C 
BRANCH  10  11
ATOM     11  C   UNL     1      14.093   0.942  48.748  1.00  0.00     0.000 C 
BRANCH  11  12
ATOM     12  C   UNL     1      12.990   1.370  47.765  1.00  0.00     0.000 C 
BRANCH  12  13
ATOM     13  C   UNL     1      13.433   1.289  46.293  1.00  0.00     0.006 C 
BRANCH  13  14
ATOM     14  C   UNL     1      12.429   0.564  45.381  1.00  0.00     0.053 C 
BRANCH  14  15
ATOM     15  C   UNL     1      12.699  -0.906  45.282  1.00  0.00     0.041 C 
ATOM     16  O   UNL     1      13.482  -1.348  44.401  1.00  0.00    -0.550 OA
ATOM     17  O   UNL     1      12.102  -1.786  46.176  1.00  0.00    -0.550 OA
ENDBRANCH  14  15
ENDBRANCH  13  14
ENDBRANCH  12  13
ENDBRANCH  11  12
ENDBRANCH  10  11
ENDBRANCH   9  10
ENDBRANCH   8   9
ENDBRANCH   7   8
ENDBRANCH   6   7
ENDBRANCH   5   6
ENDBRANCH   4   5
ENDBRANCH   3   4
ENDBRANCH   2   3
ENDBRANCH   1   2
BRANCH   1  18
ATOM     18  C   UNL     1      24.570   0.003  49.120  1.00  0.00     0.000 C 
BRANCH  18  19
ATOM     19  C   UNL     1      25.706  -0.968  48.751  1.00  0.00     0.000 C 
BRANCH  19  20
ATOM     20  C   UNL     1      26.924  -0.254  48.145  1.00  0.00     0.000 C 
BRANCH  20  21
ATOM     21  C   UNL     1      26.762   1.273  48.217  1.00  0.00     0.000 C 
BRANCH  21  22
ATOM     22  C   UNL     1      27.365   1.987  46.996  1.00  0.00     0.000 C 
BRANCH  22  23
ATOM     23  C   UNL     1      26.680   3.334  46.703  1.00  0.00     0.000 C 
BRANCH  23  24
ATOM     24  C   UNL     1      25.248   3.403  47.258  1.00  0.00    -0.000 C 
BRANCH  24  25
ATOM     25  C   UNL     1      24.339   4.340  46.443  1.00  0.00    -0.000 C 
BRANCH  25  26
ATOM     26  C   UNL     1      23.204   3.584  45.733  1.00  0.00    -0.000 C 
BRANCH  26  27
ATOM     27  C   UNL     1      23.682   2.846  44.474  1.00  0.00    -0.000 C 
BRANCH  27  28
ATOM     28  C   UNL     1      22.683   1.750  44.066  1.00  0.00    -0.000 C 
BRANCH  28  29
ATOM     29  C   UNL     1      23.204   0.335  44.382  1.00  0.00    -0.000 C 
BRANCH  29  30
ATOM     30  C   UNL     1      22.438  -0.793  43.664  1.00  0.00    -0.000 C 
BRANCH  30  31
ATOM     31  C   UNL     1      21.126  -1.209  44.359  1.00  0.00    -0.003 C 
ATOM     32  C   UNL     1      21.132  -2.672  44.803  1.00  0.00     0.004 C 
ENDBRANCH  30  31
ENDBRANCH  29  30
ENDBRANCH  28  29
ENDBRANCH  27  28
ENDBRANCH  26  27
ENDBRANCH  25  26
ENDBRANCH  24  25
ENDBRANCH  23  24
ENDBRANCH  22  23
ENDBRANCH  21  22
ENDBRANCH  20  21
ENDBRANCH  19  20
ENDBRANCH  18  19
ENDBRANCH   1  18
TORSDOF 28
ENDMDL
MODEL 8
REMARK VINA RESULT:    -4.537      6.554     10.633
REMARK INTER + INTRA:         -16.094
REMARK INTER:                 -11.419
REMARK INTRA:                  -4.675
REMARK UNBOUND:                -4.131
REMARK SMILES CCCCCCCCCCCCCCCCCCCCCCCCCCCCCC(=O)[O-]
REMARK SMILES IDX 16 1 17 2 18 3 19 4 20 5 21 6 22 7 23 8 24 9 25 10 26 11
REMARK SMILES IDX 27 12 28 13 29 14 30 15 31 16 32 17 15 18 14 19 13 20 12 21
REMARK SMILES IDX 11 22 10 23 9 24 8 25 7 26 6 27 5 28 4 29 3 30 2 31 1 32
REMARK H PARENT
REMARK Flexibility Score: inf
ROOT
ATOM      1  C   UNL     1      24.753   4.094  46.747  1.00  0.00     0.000 C 
ENDROOT
BRANCH   1   2
ATOM      2  C   UNL     1      23.633   3.431  45.921  1.00  0.00     0.000 C 
BRANCH   2   3
ATOM      3  C   UNL     1      24.074   2.213  45.083  1.00  0.00     0.000 C 
BRANCH   3   4
ATOM      4  C   UNL     1      23.119   1.836  43.937  1.00  0.00     0.000 C 
BRANCH   4   5
ATOM      5  C   UNL     1      21.771   1.294  44.441  1.00  0.00     0.000 C 
BRANCH   5   6
ATOM      6  C   UNL     1      21.843  -0.189  44.835  1.00  0.00     0.000 C 
BRANCH   6   7
ATOM      7  C   UNL     1      21.279  -0.450  46.244  1.00  0.00     0.000 C 
BRANCH   7   8
ATOM      8  C   UNL     1      21.019   0.845  47.031  1.00  0.00     0.000 C 
BRANCH   8   9
ATOM      9  C   UNL     1      21.881   0.947  48.301  1.00  0.00     0.000 C 
BRANCH   9  10
ATOM     10  C   UNL     1      23.194   0.147  48.200  1.00  0.00     0.000 C 
BRANCH  10  11
ATOM     11  C   UNL     1      24.447   0.888  48.701  1.00  0.00     0.000 C 
BRANCH  11  12
ATOM     12  C   UNL     1      25.604  -0.064  49.051  1.00  0.00     0.000 C 
BRANCH  12  13
ATOM     13  C   UNL     1      25.137  -1.324  49.803  1.00  0.00     0.006 C 
BRANCH  13  14
ATOM     14  C   UNL     1      25.796  -2.623  49.308  1.00  0.00     0.053 C 
BRANCH  14  15
ATOM     15  C   UNL     1      25.692  -2.791  47.823  1.00  0.00     0.041 C 
ATOM     16  O   UNL     1      26.729  -2.771  47.110  1.00  0.00    -0.550 OA
ATOM     17  O   UNL     1      24.452  -2.991  47.229  1.00  0.00    -0.550 OA
ENDBRANCH  14  15
ENDBRANCH  13  14
ENDBRANCH  12  13
ENDBRANCH  11  12
ENDBRANCH  10  11
ENDBRANCH   9  10
ENDBRANCH   8   9
ENDBRANCH   7   8
ENDBRANCH   6   7
ENDBRANCH   5   6
ENDBRANCH   4   5
ENDBRANCH   3   4
ENDBRANCH   2   3
ENDBRANCH   1   2
BRANCH   1  18
ATOM     18  C   UNL     1      25.066   5.554  46.363  1.00  0.00     0.000 C 
BRANCH  18  19
ATOM     19  C   UNL     1      25.089   5.835  44.850  1.00  0.00     0.000 C 
BRANCH  19  20
ATOM     20  C   UNL     1      26.336   5.265  44.158  1.00  0.00     0.000 C 
BRANCH  20  21
ATOM     21  C   UNL     1      25.976   4.631  42.805  1.00  0.00     0.000 C 
BRANCH  21  22
ATOM     22  C   UNL     1      24.600   5.085  42.290  1.00  0.00     0.000 C 
BRANCH  22  23
ATOM     23  C   UNL     1      24.654   5.608  40.843  1.00  0.00     0.000 C 
BRANCH  23  24
ATOM     24  C   UNL     1      24.272   7.093  40.735  1.00  0.00    -0.000 C 
BRANCH  24  25
ATOM     25  C   UNL     1      24.803   7.930  41.911  1.00  0.00    -0.000 C 
BRANCH  25  26
ATOM     26  C   UNL     1      26.265   8.362  41.711  1.00  0.00    -0.000 C 
BRANCH  26  27
ATOM     27  C   UNL     1      26.832   9.116  42.923  1.00  0.00    -0.000 C 
BRANCH  27  28
ATOM     28  C   UNL     1      25.730   9.406  43.955  1.00  0.00    -0.000 C 
BRANCH  28  29
ATOM     29  C   UNL     1      26.294   9.978  45.270  1.00  0.00    -0.000 C 
BRANCH  29  30
ATOM     30  C   UNL     1      26.242   8.996  46.457  1.00  0.00    -0.000 C 
BRANCH  30  31
ATOM     31  C   UNL     1      27.603   8.758  47.141  1.00  0.00    -0.003 C 
ATOM     32  C   UNL     1      27.975   9.873  48.118  1.00  0.00     0.004 C 
ENDBRANCH  30  31
ENDBRANCH  29  30
ENDBRANCH  28  29
ENDBRANCH  27  28
ENDBRANCH  26  27
ENDBRANCH  25  26
ENDBRANCH  24  25
ENDBRANCH  23  24
ENDBRANCH  22  23
ENDBRANCH  21  22
ENDBRANCH  20  21
ENDBRANCH  19  20
ENDBRANCH  18  19
ENDBRANCH   1  18
TORSDOF 28
ENDMDL
MODEL 9
REMARK VINA RESULT:    -4.518      6.355     10.624
REMARK INTER + INTRA:         -16.044
REMARK INTER:                 -10.888
REMARK INTRA:                  -5.156
REMARK UNBOUND:                -4.131
REMARK SMILES CCCCCCCCCCCCCCCCCCCCCCCCCCCCCC(=O)[O-]
REMARK SMILES IDX 16 1 17 2 18 3 19 4 20 5 21 6 22 7 23 8 24 9 25 10 26 11
REMARK SMILES IDX 27 12 28 13 29 14 30 15 31 16 32 17 15 18 14 19 13 20 12 21
REMARK SMILES IDX 11 22 10 23 9 24 8 25 7 26 6 27 5 28 4 29 3 30 2 31 1 32
REMARK H PARENT
REMARK Flexibility Score: inf
ROOT
ATOM      1  C   UNL     1      25.764   7.226  43.001  1.00  0.00     0.000 C 
ENDROOT
BRANCH   1   2
ATOM      2  C   UNL     1      24.485   7.745  42.313  1.00  0.00     0.000 C 
BRANCH   2   3
ATOM      3  C   UNL     1      24.346   7.367  40.825  1.00  0.00     0.000 C 
BRANCH   3   4
ATOM      4  C   UNL     1      25.574   7.696  39.957  1.00  0.00     0.000 C 
BRANCH   4   5
ATOM      5  C   UNL     1      25.972   6.539  39.025  1.00  0.00     0.000 C 
BRANCH   5   6
ATOM      6  C   UNL     1      26.281   5.245  39.793  1.00  0.00     0.000 C 
BRANCH   6   7
ATOM      7  C   UNL     1      25.445   4.052  39.293  1.00  0.00     0.000 C 
BRANCH   7   8
ATOM      8  C   UNL     1      24.366   3.618  40.299  1.00  0.00     0.000 C 
BRANCH   8   9
ATOM      9  C   UNL     1      24.802   3.824  41.759  1.00  0.00     0.000 C 
BRANCH   9  10
ATOM     10  C   UNL     1      23.619   4.106  42.704  1.00  0.00     0.000 C 
BRANCH  10  11
ATOM     11  C   UNL     1      23.373   3.031  43.778  1.00  0.00     0.000 C 
BRANCH  11  12
ATOM     12  C   UNL     1      24.449   1.931  43.780  1.00  0.00     0.000 C 
BRANCH  12  13
ATOM     13  C   UNL     1      24.113   0.766  44.730  1.00  0.00     0.006 C 
BRANCH  13  14
ATOM     14  C   UNL     1      23.601  -0.494  44.010  1.00  0.00     0.053 C 
BRANCH  14  15
ATOM     15  C   UNL     1      22.106  -0.581  43.999  1.00  0.00     0.041 C 
ATOM     16  O   UNL     1      21.504  -1.254  44.876  1.00  0.00    -0.550 OA
ATOM     17  O   UNL     1      21.375   0.098  43.032  1.00  0.00    -0.550 OA
ENDBRANCH  14  15
ENDBRANCH  13  14
ENDBRANCH  12  13
ENDBRANCH  11  12
ENDBRANCH  10  11
ENDBRANCH   9  10
ENDBRANCH   8   9
ENDBRANCH   7   8
ENDBRANCH   6   7
ENDBRANCH   5   6
ENDBRANCH   4   5
ENDBRANCH   3   4
ENDBRANCH   2   3
ENDBRANCH   1   2
BRANCH   1  18
ATOM     18  C   UNL     1      26.152   7.967  44.296  1.00  0.00     0.000 C 
BRANCH  18  19
ATOM     19  C   UNL     1      26.161   7.094  45.564  1.00  0.00     0.000 C 
BRANCH  19  20
ATOM     20  C   UNL     1      25.743   5.642  45.289  1.00  0.00     0.000 C 
BRANCH  20  21
ATOM     21  C   UNL     1      24.764   5.137  46.361  1.00  0.00     0.000 C 
BRANCH  21  22
ATOM     22  C   UNL     1      25.256   3.852  47.047  1.00  0.00     0.000 C 
BRANCH  22  23
ATOM     23  C   UNL     1      26.722   3.526  46.707  1.00  0.00     0.000 C 
BRANCH  23  24
ATOM     24  C   UNL     1      26.992   2.014  46.640  1.00  0.00    -0.000 C 
BRANCH  24  25
ATOM     25  C   UNL     1      27.609   1.462  47.937  1.00  0.00    -0.000 C 
BRANCH  25  26
ATOM     26  C   UNL     1      27.450  -0.062  48.061  1.00  0.00    -0.000 C 
BRANCH  26  27
ATOM     27  C   UNL     1      26.085  -0.558  47.561  1.00  0.00    -0.000 C 
BRANCH  27  28
ATOM     28  C   UNL     1      25.194  -0.993  48.735  1.00  0.00    -0.000 C 
BRANCH  28  29
ATOM     29  C   UNL     1      24.509   0.202  49.426  1.00  0.00    -0.000 C 
BRANCH  29  30
ATOM     30  C   UNL     1      23.694   1.098  48.473  1.00  0.00    -0.000 C 
BRANCH  30  31
ATOM     31  C   UNL     1      22.240   0.634  48.257  1.00  0.00    -0.003 C 
ATOM     32  C   UNL     1      21.519   1.441  47.177  1.00  0.00     0.004 C 
ENDBRANCH  30  31
ENDBRANCH  29  30
ENDBRANCH  28  29
ENDBRANCH  27  28
ENDBRANCH  26  27
ENDBRANCH  25  26
ENDBRANCH  24  25
ENDBRANCH  23  24
ENDBRANCH  22  23
ENDBRANCH  21  22
ENDBRANCH  20  21
ENDBRANCH  19  20
ENDBRANCH  18  19
ENDBRANCH   1  18
TORSDOF 28
ENDMDL
