MODEL 1
REMARK VINA RESULT:    -5.749      0.000      0.000
REMARK INTER + INTRA:          -9.650
REMARK INTER:                  -9.110
REMARK INTRA:                  -0.540
REMARK UNBOUND:                -0.540
REMARK SMILES CCCCCCCCCCCC(=O)[O-]
REMARK SMILES IDX 7 1 8 2 9 3 10 4 11 5 12 6 13 7 14 8 6 9 5 10 4 11 3 12 2 13
REMARK SMILES IDX 1 14
REMARK H PARENT
REMARK Flexibility Score: inf
ROOT
ATOM      1  C   UNL     1      13.537   1.185  14.742  1.00  0.00     0.000 C 
ENDROOT
BRANCH   1   2
ATOM      2  C   UNL     1      14.157   1.595  16.088  1.00  0.00     0.000 C 
BRANCH   2   3
ATOM      3  C   UNL     1      13.200   2.436  16.949  1.00  0.00     0.000 C 
BRANCH   3   4
ATOM      4  C   UNL     1      13.233   2.034  18.433  1.00  0.00     0.006 C 
BRANCH   4   5
ATOM      5  C   UNL     1      13.463   0.530  18.634  1.00  0.00     0.053 C 
BRANCH   5   6
ATOM      6  C   UNL     1      14.563   0.300  19.622  1.00  0.00     0.041 C 
ATOM      7  O   UNL     1      14.386   0.560  20.840  1.00  0.00    -0.550 OA
ATOM      8  O   UNL     1      15.769  -0.249  19.203  1.00  0.00    -0.550 OA
ENDBRANCH   5   6
ENDBRANCH   4   5
ENDBRANCH   3   4
ENDBRANCH   2   3
ENDBRANCH   1   2
BRANCH   1   9
ATOM      9  C   UNL     1      14.534   0.459  13.826  1.00  0.00     0.000 C 
BRANCH   9  10
ATOM     10  C   UNL     1      15.228   1.446  12.880  1.00  0.00    -0.000 C 
BRANCH  10  11
ATOM     11  C   UNL     1      15.516   0.794  11.519  1.00  0.00    -0.000 C 
BRANCH  11  12
ATOM     12  C   UNL     1      17.016   0.565  11.277  1.00  0.00    -0.000 C 
BRANCH  12  13
ATOM     13  C   UNL     1      17.416  -0.912  11.398  1.00  0.00    -0.003 C 
ATOM     14  C   UNL     1      17.820  -1.257  12.829  1.00  0.00     0.004 C 
ENDBRANCH  12  13
ENDBRANCH  11  12
ENDBRANCH  10  11
ENDBRANCH   9  10
ENDBRANCH   1   9
TORSDOF 10
ENDMDL
MODEL 2
REMARK VINA RESULT:    -5.691      1.157      2.334
REMARK INTER + INTRA:          -9.558
REMARK INTER:                  -8.689
REMARK INTRA:                  -0.869
REMARK UNBOUND:                -0.540
REMARK SMILES CCCCCCCCCCCC(=O)[O-]
REMARK SMILES IDX 7 1 8 2 9 3 10 4 11 5 12 6 13 7 14 8 6 9 5 10 4 11 3 12 2 13
REMARK SMILES IDX 1 14
REMARK H PARENT
REMARK Flexibility Score: inf
ROOT
ATOM      1  C   UNL     1      15.124   1.574  12.856  1.00  0.00     0.000 C 
ENDROOT
BRANCH   1   2
ATOM      2  C   UNL     1      14.439   0.812  14.001  1.00  0.00     0.000 C 
BRANCH   2   3
ATOM      3  C   UNL     1      14.570   1.533  15.353  1.00  0.00     0.000 C 
BRANCH   3   4
ATOM      4  C   UNL     1      13.240   1.592  16.122  1.00  0.00     0.006 C 
BRANCH   4   5
ATOM      5  C   UNL     1      13.426   1.967  17.599  1.00  0.00     0.053 C 
BRANCH   5   6
ATOM      6  C   UNL     1      13.573   0.734  18.434  1.00  0.00     0.041 C 
ATOM      7  O   UNL     1      13.149  -0.373  18.011  1.00  0.00    -0.550 OA
ATOM      8  O   UNL     1      14.223   0.799  19.660  1.00  0.00    -0.550 OA
ENDBRANCH   5   6
ENDBRANCH   4   5
ENDBRANCH   3   4
ENDBRANCH   2   3
ENDBRANCH   1   2
BRANCH   1   9
ATOM      9  C   UNL     1      15.482   0.665  11.669  1.00  0.00     0.000 C 
BRANCH   9  10
ATOM     10  C   UNL     1      16.970   0.784  11.316  1.00  0.00    -0.000 C 
BRANCH  10  11
ATOM     11  C   UNL     1      17.645  -0.595  11.309  1.00  0.00    -0.000 C 
BRANCH  11  12
ATOM     12  C   UNL     1      17.183  -1.487  12.472  1.00  0.00    -0.000 C 
BRANCH  12  13
ATOM     13  C   UNL     1      18.166  -1.480  13.651  1.00  0.00    -0.003 C 
ATOM     14  C   UNL     1      17.437  -1.251  14.972  1.00  0.00     0.004 C 
ENDBRANCH  12  13
ENDBRANCH  11  12
ENDBRANCH  10  11
ENDBRANCH   9  10
ENDBRANCH   1   9
TORSDOF 10
ENDMDL
MODEL 3
REMARK VINA RESULT:    -5.601      3.379      6.829
REMARK INTER + INTRA:          -9.416
REMARK INTER:                  -8.517
REMARK INTRA:                  -0.899
REMARK UNBOUND:                -0.540
REMARK SMILES CCCCCCCCCCCC(=O)[O-]
REMARK SMILES IDX 7 1 8 2 9 3 10 4 11 5 12 6 13 7 14 8 6 9 5 10 4 11 3 12 2 13
REMARK SMILES IDX 1 14
REMARK H PARENT
REMARK Flexibility Score: inf
ROOT
ATOM      1  C   UNL     1      15.249  -0.235  14.333  1.00  0.00     0.000 C 
ENDROOT
BRANCH   1   2
ATOM      2  C   UNL     1      14.901   1.261  14.270  1.00  0.00     0.000 C 
BRANCH   2   3
ATOM      3  C   UNL     1      15.128   1.863  12.874  1.00  0.00     0.000 C 
BRANCH   3   4
ATOM      4  C   UNL     1      15.443   0.794  11.814  1.00  0.00     0.006 C 
BRANCH   4   5
ATOM      5  C   UNL     1      16.905   0.833  11.351  1.00  0.00     0.053 C 
BRANCH   5   6
ATOM      6  C   UNL     1      17.438  -0.555  11.190  1.00  0.00     0.041 C 
ATOM      7  O   UNL     1      17.461  -1.099  10.055  1.00  0.00    -0.550 OA
ATOM      8  O   UNL     1      17.956  -1.232  12.288  1.00  0.00    -0.550 OA
ENDBRANCH   5   6
ENDBRANCH   4   5
ENDBRANCH   3   4
ENDBRANCH   2   3
ENDBRANCH   1   2
BRANCH   1   9
ATOM      9  C   UNL     1      15.483  -0.730  15.769  1.00  0.00     0.000 C 
BRANCH   9  10
ATOM     10  C   UNL     1      15.939   0.417  16.678  1.00  0.00    -0.000 C 
BRANCH  10  11
ATOM     11  C   UNL     1      15.188   0.390  18.017  1.00  0.00    -0.000 C 
BRANCH  11  12
ATOM     12  C   UNL     1      13.665   0.284  17.840  1.00  0.00    -0.000 C 
BRANCH  12  13
ATOM     13  C   UNL     1      13.025   1.615  17.418  1.00  0.00    -0.003 C 
ATOM     14  C   UNL     1      13.500   2.760  18.308  1.00  0.00     0.004 C 
ENDBRANCH  12  13
ENDBRANCH  11  12
ENDBRANCH  10  11
ENDBRANCH   9  10
ENDBRANCH   1   9
TORSDOF 10
ENDMDL
MODEL 4
REMARK VINA RESULT:    -5.600     15.483     17.316
REMARK INTER + INTRA:          -9.413
REMARK INTER:                  -8.113
REMARK INTRA:                  -1.301
REMARK UNBOUND:                -0.540
REMARK SMILES CCCCCCCCCCCC(=O)[O-]
REMARK SMILES IDX 7 1 8 2 9 3 10 4 11 5 12 6 13 7 14 8 6 9 5 10 4 11 3 12 2 13
REMARK SMILES IDX 1 14
REMARK H PARENT
REMARK Flexibility Score: inf
ROOT
ATOM      1  C   UNL     1      27.138  -2.234   7.720  1.00  0.00     0.000 C 
ENDROOT
BRANCH   1   2
ATOM      2  C   UNL     1      27.884  -0.975   8.191  1.00  0.00     0.000 C 
BRANCH   2   3
ATOM      3  C   UNL     1      28.571  -1.170   9.553  1.00  0.00     0.000 C 
BRANCH   3   4
ATOM      4  C   UNL     1      30.085  -1.404   9.423  1.00  0.00     0.006 C 
BRANCH   4   5
ATOM      5  C   UNL     1      30.733  -0.509   8.358  1.00  0.00     0.053 C 
BRANCH   5   6
ATOM      6  C   UNL     1      31.601   0.524   9.006  1.00  0.00     0.041 C 
ATOM      7  O   UNL     1      31.110   1.336   9.833  1.00  0.00    -0.550 OA
ATOM      8  O   UNL     1      32.962   0.560   8.731  1.00  0.00    -0.550 OA
ENDBRANCH   5   6
ENDBRANCH   4   5
ENDBRANCH   3   4
ENDBRANCH   2   3
ENDBRANCH   1   2
BRANCH   1   9
ATOM      9  C   UNL     1      27.413  -2.569   6.246  1.00  0.00     0.000 C 
BRANCH   9  10
ATOM     10  C   UNL     1      27.927  -4.006   6.097  1.00  0.00    -0.000 C 
BRANCH  10  11
ATOM     11  C   UNL     1      29.275  -4.185   6.810  1.00  0.00    -0.000 C 
BRANCH  11  12
ATOM     12  C   UNL     1      30.420  -3.434   6.111  1.00  0.00    -0.000 C 
BRANCH  12  13
ATOM     13  C   UNL     1      31.804  -3.966   6.507  1.00  0.00    -0.003 C 
ATOM     14  C   UNL     1      31.863  -4.288   7.999  1.00  0.00     0.004 C 
ENDBRANCH  12  13
ENDBRANCH  11  12
ENDBRANCH  10  11
ENDBRANCH   9  10
ENDBRANCH   1   9
TORSDOF 10
ENDMDL
MODEL 5
REMARK VINA RESULT:    -5.593      3.203      7.054
REMARK INTER + INTRA:          -9.403
REMARK INTER:                  -8.966
REMARK INTRA:                  -0.437
REMARK UNBOUND:                -0.540
REMARK SMILES CCCCCCCCCCCC(=O)[O-]
REMARK SMILES IDX 7 1 8 2 9 3 10 4 11 5 12 6 13 7 14 8 6 9 5 10 4 11 3 12 2 13
REMARK SMILES IDX 1 14
REMARK H PARENT
REMARK Flexibility Score: inf
ROOT
ATOM      1  C   UNL     1      14.542   1.670  15.370  1.00  0.00     0.000 C 
ENDROOT
BRANCH   1   2
ATOM      2  C   UNL     1      14.783   0.834  14.102  1.00  0.00     0.000 C 
BRANCH   2   3
ATOM      3  C   UNL     1      15.104   1.702  12.874  1.00  0.00     0.000 C 
BRANCH   3   4
ATOM      4  C   UNL     1      15.421   0.863  11.625  1.00  0.00     0.006 C 
BRANCH   4   5
ATOM      5  C   UNL     1      16.926   0.771  11.340  1.00  0.00     0.053 C 
BRANCH   5   6
ATOM      6  C   UNL     1      17.368  -0.658  11.330  1.00  0.00     0.041 C 
ATOM      7  O   UNL     1      17.252  -1.350  10.285  1.00  0.00    -0.550 OA
ATOM      8  O   UNL     1      17.953  -1.212  12.461  1.00  0.00    -0.550 OA
ENDBRANCH   5   6
ENDBRANCH   4   5
ENDBRANCH   3   4
ENDBRANCH   2   3
ENDBRANCH   1   2
BRANCH   1   9
ATOM      9  C   UNL     1      13.085   1.610  15.852  1.00  0.00     0.000 C 
BRANCH   9  10
ATOM     10  C   UNL     1      12.875   2.508  17.077  1.00  0.00    -0.000 C 
BRANCH  10  11
ATOM     11  C   UNL     1      13.865   2.152  18.196  1.00  0.00    -0.000 C 
BRANCH  11  12
ATOM     12  C   UNL     1      13.609   0.758  18.793  1.00  0.00    -0.000 C 
BRANCH  12  13
ATOM     13  C   UNL     1      14.837   0.191  19.518  1.00  0.00    -0.003 C 
ATOM     14  C   UNL     1      14.450  -0.413  20.866  1.00  0.00     0.004 C 
ENDBRANCH  12  13
ENDBRANCH  11  12
ENDBRANCH  10  11
ENDBRANCH   9  10
ENDBRANCH   1   9
TORSDOF 10
ENDMDL
MODEL 6
REMARK VINA RESULT:    -5.580      1.992      3.813
REMARK INTER + INTRA:          -9.382
REMARK INTER:                  -8.373
REMARK INTRA:                  -1.009
REMARK UNBOUND:                -0.540
REMARK SMILES CCCCCCCCCCCC(=O)[O-]
REMARK SMILES IDX 7 1 8 2 9 3 10 4 11 5 12 6 13 7 14 8 6 9 5 10 4 11 3 12 2 13
REMARK SMILES IDX 1 14
REMARK H PARENT
REMARK Flexibility Score: inf
ROOT
ATOM      1  C   UNL     1      13.576   1.856  18.573  1.00  0.00     0.000 C 
ENDROOT
BRANCH   1   2
ATOM      2  C   UNL     1      13.685   0.355  18.886  1.00  0.00     0.000 C 
BRANCH   2   3
ATOM      3  C   UNL     1      14.777   0.044  19.922  1.00  0.00     0.000 C 
BRANCH   3   4
ATOM      4  C   UNL     1      15.849  -0.916  19.380  1.00  0.00     0.006 C 
BRANCH   4   5
ATOM      5  C   UNL     1      16.683  -0.296  18.251  1.00  0.00     0.053 C 
BRANCH   5   6
ATOM      6  C   UNL     1      16.570  -1.120  17.007  1.00  0.00     0.041 C 
ATOM      7  O   UNL     1      15.588  -1.891  16.844  1.00  0.00    -0.550 OA
ATOM      8  O   UNL     1      17.524  -1.000  16.005  1.00  0.00    -0.550 OA
ENDBRANCH   5   6
ENDBRANCH   4   5
ENDBRANCH   3   4
ENDBRANCH   2   3
ENDBRANCH   1   2
BRANCH   1   9
ATOM      9  C   UNL     1      12.995   2.131  17.177  1.00  0.00     0.000 C 
BRANCH   9  10
ATOM     10  C   UNL     1      13.479   1.086  16.166  1.00  0.00    -0.000 C 
BRANCH  10  11
ATOM     11  C   UNL     1      14.736   1.573  15.429  1.00  0.00    -0.000 C 
BRANCH  11  12
ATOM     12  C   UNL     1      15.020   0.771  14.149  1.00  0.00    -0.000 C 
BRANCH  12  13
ATOM     13  C   UNL     1      15.166   1.667  12.911  1.00  0.00    -0.003 C 
ATOM     14  C   UNL     1      15.561   0.848  11.684  1.00  0.00     0.004 C 
ENDBRANCH  12  13
ENDBRANCH  11  12
ENDBRANCH  10  11
ENDBRANCH   9  10
ENDBRANCH   1   9
TORSDOF 10
ENDMDL
MODEL 7
REMARK VINA RESULT:    -5.575      1.372      2.433
REMARK INTER + INTRA:          -9.375
REMARK INTER:                  -8.433
REMARK INTRA:                  -0.941
REMARK UNBOUND:                -0.540
REMARK SMILES CCCCCCCCCCCC(=O)[O-]
REMARK SMILES IDX 7 1 8 2 9 3 10 4 11 5 12 6 13 7 14 8 6 9 5 10 4 11 3 12 2 13
REMARK SMILES IDX 1 14
REMARK H PARENT
REMARK Flexibility Score: inf
ROOT
ATOM      1  C   UNL     1      15.167  -0.120  14.925  1.00  0.00     0.000 C 
ENDROOT
BRANCH   1   2
ATOM      2  C   UNL     1      15.041   1.376  15.255  1.00  0.00     0.000 C 
BRANCH   2   3
ATOM      3  C   UNL     1      15.293   1.677  16.741  1.00  0.00     0.000 C 
BRANCH   3   4
ATOM      4  C   UNL     1      14.156   2.493  17.379  1.00  0.00     0.006 C 
BRANCH   4   5
ATOM      5  C   UNL     1      12.967   1.621  17.803  1.00  0.00     0.053 C 
BRANCH   5   6
ATOM      6  C   UNL     1      13.447   0.400  18.522  1.00  0.00     0.041 C 
ATOM      7  O   UNL     1      13.275  -0.741  18.020  1.00  0.00    -0.550 OA
ATOM      8  O   UNL     1      14.129   0.526  19.726  1.00  0.00    -0.550 OA
ENDBRANCH   5   6
ENDBRANCH   4   5
ENDBRANCH   3   4
ENDBRANCH   2   3
ENDBRANCH   1   2
BRANCH   1   9
ATOM      9  C   UNL     1      16.585  -0.663  15.163  1.00  0.00     0.000 C 
BRANCH   9  10
ATOM     10  C   UNL     1      16.942  -1.737  14.129  1.00  0.00    -0.000 C 
BRANCH  10  11
ATOM     11  C   UNL     1      17.964  -1.204  13.113  1.00  0.00    -0.000 C 
BRANCH  11  12
ATOM     12  C   UNL     1      17.345  -0.947  11.730  1.00  0.00    -0.000 C 
BRANCH  12  13
ATOM     13  C   UNL     1      17.010   0.534  11.498  1.00  0.00    -0.003 C 
ATOM     14  C   UNL     1      15.502   0.746  11.389  1.00  0.00     0.004 C 
ENDBRANCH  12  13
ENDBRANCH  11  12
ENDBRANCH  10  11
ENDBRANCH   9  10
ENDBRANCH   1   9
TORSDOF 10
ENDMDL
MODEL 8
REMARK VINA RESULT:    -5.554      3.252      6.037
REMARK INTER + INTRA:          -9.341
REMARK INTER:                  -8.341
REMARK INTRA:                  -1.000
REMARK UNBOUND:                -0.540
REMARK SMILES CCCCCCCCCCCC(=O)[O-]
REMARK SMILES IDX 7 1 8 2 9 3 10 4 11 5 12 6 13 7 14 8 6 9 5 10 4 11 3 12 2 13
REMARK SMILES IDX 1 14
REMARK H PARENT
REMARK Flexibility Score: inf
ROOT
ATOM      1  C   UNL     1      13.596   2.200  18.423  1.00  0.00     0.000 C 
ENDROOT
BRANCH   1   2
ATOM      2  C   UNL     1      12.920   2.406  17.058  1.00  0.00     0.000 C 
BRANCH   2   3
ATOM      3  C   UNL     1      13.307   1.324  16.037  1.00  0.00     0.000 C 
BRANCH   3   4
ATOM      4  C   UNL     1      14.724   1.523  15.474  1.00  0.00     0.006 C 
BRANCH   4   5
ATOM      5  C   UNL     1      15.167   0.369  14.564  1.00  0.00     0.053 C 
BRANCH   5   6
ATOM      6  C   UNL     1      15.505   0.883  13.200  1.00  0.00     0.041 C 
ATOM      7  O   UNL     1      16.202   0.188  12.415  1.00  0.00    -0.550 OA
ATOM      8  O   UNL     1      15.008   2.109  12.777  1.00  0.00    -0.550 OA
ENDBRANCH   5   6
ENDBRANCH   4   5
ENDBRANCH   3   4
ENDBRANCH   2   3
ENDBRANCH   1   2
BRANCH   1   9
ATOM      9  C   UNL     1      13.619   0.726  18.857  1.00  0.00     0.000 C 
BRANCH   9  10
ATOM     10  C   UNL     1      14.406   0.550  20.161  1.00  0.00    -0.000 C 
BRANCH  10  11
ATOM     11  C   UNL     1      15.162  -0.787  20.172  1.00  0.00    -0.000 C 
BRANCH  11  12
ATOM     12  C   UNL     1      15.733  -1.156  18.793  1.00  0.00    -0.000 C 
BRANCH  12  13
ATOM     13  C   UNL     1      17.235  -0.857  18.677  1.00  0.00    -0.003 C 
ATOM     14  C   UNL     1      17.531   0.000  17.449  1.00  0.00     0.004 C 
ENDBRANCH  12  13
ENDBRANCH  11  12
ENDBRANCH  10  11
ENDBRANCH   9  10
ENDBRANCH   1   9
TORSDOF 10
ENDMDL
MODEL 9
REMARK VINA RESULT:    -5.504      2.195      4.233
REMARK INTER + INTRA:          -9.262
REMARK INTER:                  -8.145
REMARK INTRA:                  -1.117
REMARK UNBOUND:                -0.540
REMARK SMILES CCCCCCCCCCCC(=O)[O-]
REMARK SMILES IDX 7 1 8 2 9 3 10 4 11 5 12 6 13 7 14 8 6 9 5 10 4 11 3 12 2 13
REMARK SMILES IDX 1 14
REMARK H PARENT
REMARK Flexibility Score: inf
ROOT
ATOM      1  C   UNL     1      16.838   0.581  11.347  1.00  0.00     0.000 C 
ENDROOT
BRANCH   1   2
ATOM      2  C   UNL     1      15.433   0.474  11.962  1.00  0.00     0.000 C 
BRANCH   2   3
ATOM      3  C   UNL     1      15.141   1.600  12.968  1.00  0.00     0.000 C 
BRANCH   3   4
ATOM      4  C   UNL     1      14.225   1.143  14.116  1.00  0.00     0.006 C 
BRANCH   4   5
ATOM      5  C   UNL     1      14.854   1.363  15.498  1.00  0.00     0.053 C 
BRANCH   5   6
ATOM      6  C   UNL     1      13.812   1.261  16.567  1.00  0.00     0.041 C 
ATOM      7  O   UNL     1      13.806   0.280  17.355  1.00  0.00    -0.550 OA
ATOM      8  O   UNL     1      12.875   2.275  16.723  1.00  0.00    -0.550 OA
ENDBRANCH   5   6
ENDBRANCH   4   5
ENDBRANCH   3   4
ENDBRANCH   2   3
ENDBRANCH   1   2
BRANCH   1   9
ATOM      9  C   UNL     1      17.752  -0.587  11.747  1.00  0.00     0.000 C 
BRANCH   9  10
ATOM     10  C   UNL     1      17.135  -1.399  12.893  1.00  0.00    -0.000 C 
BRANCH  10  11
ATOM     11  C   UNL     1      18.118  -1.529  14.066  1.00  0.00    -0.000 C 
BRANCH  11  12
ATOM     12  C   UNL     1      17.442  -1.325  15.431  1.00  0.00    -0.000 C 
BRANCH  12  13
ATOM     13  C   UNL     1      16.140  -2.125  15.571  1.00  0.00    -0.003 C 
ATOM     14  C   UNL     1      15.862  -2.472  17.032  1.00  0.00     0.004 C 
ENDBRANCH  12  13
ENDBRANCH  11  12
ENDBRANCH  10  11
ENDBRANCH   9  10
ENDBRANCH   1   9
TORSDOF 10
ENDMDL
