MODEL 1
REMARK VINA RESULT:    -4.418      0.000      0.000
REMARK INTER + INTRA:         -10.154
REMARK INTER:                  -8.551
REMARK INTRA:                  -1.603
REMARK UNBOUND:                -1.603
REMARK SMILES CCCCCCCCCCCCCCCCCC(=O)[O-]
REMARK SMILES IDX 10 1 11 2 12 3 13 4 14 5 15 6 16 7 17 8 18 9 19 10 20 11
REMARK SMILES IDX 9 12 8 13 7 14 6 15 5 16 4 17 3 18 2 19 1 20
REMARK H PARENT
REMARK Flexibility Score: inf
ROOT
ATOM      1  C   UNL     1       1.940 -62.365 188.620  1.00  0.00     0.000 C 
ENDROOT
BRANCH   1   2
ATOM      2  C   UNL     1       2.016 -61.264 189.689  1.00  0.00     0.000 C 
BRANCH   2   3
ATOM      3  C   UNL     1       3.429 -60.673 189.832  1.00  0.00     0.000 C 
BRANCH   3   4
ATOM      4  C   UNL     1       3.506 -59.586 190.916  1.00  0.00     0.000 C 
BRANCH   4   5
ATOM      5  C   UNL     1       3.479 -58.165 190.328  1.00  0.00     0.000 C 
BRANCH   5   6
ATOM      6  C   UNL     1       4.878 -57.657 189.945  1.00  0.00     0.000 C 
BRANCH   6   7
ATOM      7  C   UNL     1       5.472 -56.710 191.003  1.00  0.00     0.006 C 
BRANCH   7   8
ATOM      8  C   UNL     1       6.012 -57.470 192.222  1.00  0.00     0.053 C 
BRANCH   8   9
ATOM      9  C   UNL     1       7.018 -56.661 192.981  1.00  0.00     0.041 C 
ATOM     10  O   UNL     1       7.198 -55.446 192.701  1.00  0.00    -0.550 OA
ATOM     11  O   UNL     1       7.739 -57.241 194.017  1.00  0.00    -0.550 OA
ENDBRANCH   8   9
ENDBRANCH   7   8
ENDBRANCH   6   7
ENDBRANCH   5   6
ENDBRANCH   4   5
ENDBRANCH   3   4
ENDBRANCH   2   3
ENDBRANCH   1   2
BRANCH   1  12
ATOM     12  C   UNL     1       2.226 -61.835 187.203  1.00  0.00     0.000 C 
BRANCH  12  13
ATOM     13  C   UNL     1       3.277 -62.688 186.461  1.00  0.00    -0.000 C 
BRANCH  13  14
ATOM     14  C   UNL     1       3.327 -64.155 186.933  1.00  0.00    -0.000 C 
BRANCH  14  15
ATOM     15  C   UNL     1       4.632 -64.562 187.640  1.00  0.00    -0.000 C 
BRANCH  15  16
ATOM     16  C   UNL     1       5.534 -63.386 188.064  1.00  0.00    -0.000 C 
BRANCH  16  17
ATOM     17  C   UNL     1       7.038 -63.737 188.091  1.00  0.00    -0.000 C 
BRANCH  17  18
ATOM     18  C   UNL     1       7.797 -62.965 189.185  1.00  0.00    -0.000 C 
BRANCH  18  19
ATOM     19  C   UNL     1       7.113 -61.639 189.553  1.00  0.00    -0.003 C 
ATOM     20  C   UNL     1       6.800 -61.531 191.045  1.00  0.00     0.004 C 
ENDBRANCH  18  19
ENDBRANCH  17  18
ENDBRANCH  16  17
ENDBRANCH  15  16
ENDBRANCH  14  15
ENDBRANCH  13  14
ENDBRANCH  12  13
ENDBRANCH   1  12
TORSDOF 16
ENDMDL
MODEL 2
REMARK VINA RESULT:    -4.111      1.217      1.636
REMARK INTER + INTRA:          -9.559
REMARK INTER:                  -8.059
REMARK INTRA:                  -1.500
REMARK UNBOUND:                -1.603
REMARK SMILES CCCCCCCCCCCCCCCCCC(=O)[O-]
REMARK SMILES IDX 10 1 11 2 12 3 13 4 14 5 15 6 16 7 17 8 18 9 19 10 20 11
REMARK SMILES IDX 9 12 8 13 7 14 6 15 5 16 4 17 3 18 2 19 1 20
REMARK H PARENT
REMARK Flexibility Score: inf
ROOT
ATOM      1  C   UNL     1       2.056 -61.198 189.370  1.00  0.00     0.000 C 
ENDROOT
BRANCH   1   2
ATOM      2  C   UNL     1       2.856 -60.190 190.209  1.00  0.00     0.000 C 
BRANCH   2   3
ATOM      3  C   UNL     1       4.376 -60.413 190.116  1.00  0.00     0.000 C 
BRANCH   3   4
ATOM      4  C   UNL     1       5.137 -59.135 189.732  1.00  0.00     0.000 C 
BRANCH   4   5
ATOM      5  C   UNL     1       5.155 -58.098 190.869  1.00  0.00     0.000 C 
BRANCH   5   6
ATOM      6  C   UNL     1       5.552 -58.710 192.221  1.00  0.00     0.000 C 
BRANCH   6   7
ATOM      7  C   UNL     1       6.685 -57.932 192.913  1.00  0.00     0.006 C 
BRANCH   7   8
ATOM      8  C   UNL     1       6.198 -56.602 193.502  1.00  0.00     0.053 C 
BRANCH   8   9
ATOM      9  C   UNL     1       6.879 -55.429 192.867  1.00  0.00     0.041 C 
ATOM     10  O   UNL     1       7.091 -55.414 191.626  1.00  0.00    -0.550 OA
ATOM     11  O   UNL     1       7.255 -54.339 193.642  1.00  0.00    -0.550 OA
ENDBRANCH   8   9
ENDBRANCH   7   8
ENDBRANCH   6   7
ENDBRANCH   5   6
ENDBRANCH   4   5
ENDBRANCH   3   4
ENDBRANCH   2   3
ENDBRANCH   1   2
BRANCH   1  12
ATOM     12  C   UNL     1       2.244 -60.989 187.856  1.00  0.00     0.000 C 
BRANCH  12  13
ATOM     13  C   UNL     1       2.685 -62.282 187.138  1.00  0.00    -0.000 C 
BRANCH  13  14
ATOM     14  C   UNL     1       3.130 -63.401 188.100  1.00  0.00    -0.000 C 
BRANCH  14  15
ATOM     15  C   UNL     1       3.974 -64.513 187.450  1.00  0.00    -0.000 C 
BRANCH  15  16
ATOM     16  C   UNL     1       5.487 -64.425 187.728  1.00  0.00    -0.000 C 
BRANCH  16  17
ATOM     17  C   UNL     1       5.969 -63.006 188.099  1.00  0.00    -0.000 C 
BRANCH  17  18
ATOM     18  C   UNL     1       7.394 -63.007 188.679  1.00  0.00    -0.000 C 
BRANCH  18  19
ATOM     19  C   UNL     1       7.481 -62.283 190.031  1.00  0.00    -0.003 C 
ATOM     20  C   UNL     1       8.812 -62.523 190.743  1.00  0.00     0.004 C 
ENDBRANCH  18  19
ENDBRANCH  17  18
ENDBRANCH  16  17
ENDBRANCH  15  16
ENDBRANCH  14  15
ENDBRANCH  13  14
ENDBRANCH  12  13
ENDBRANCH   1  12
TORSDOF 16
ENDMDL
MODEL 3
REMARK VINA RESULT:    -4.042      8.346     10.718
REMARK INTER + INTRA:          -9.425
REMARK INTER:                  -6.707
REMARK INTRA:                  -2.718
REMARK UNBOUND:                -1.603
REMARK SMILES CCCCCCCCCCCCCCCCCC(=O)[O-]
REMARK SMILES IDX 10 1 11 2 12 3 13 4 14 5 15 6 16 7 17 8 18 9 19 10 20 11
REMARK SMILES IDX 9 12 8 13 7 14 6 15 5 16 4 17 3 18 2 19 1 20
REMARK H PARENT
REMARK Flexibility Score: inf
ROOT
ATOM      1  C   UNL     1       3.820 -62.156 197.680  1.00  0.00     0.000 C 
ENDROOT
BRANCH   1   2
ATOM      2  C   UNL     1       3.413 -60.680 197.805  1.00  0.00     0.000 C 
BRANCH   2   3
ATOM      3  C   UNL     1       4.282 -59.749 196.942  1.00  0.00     0.000 C 
BRANCH   3   4
ATOM      4  C   UNL     1       5.762 -59.775 197.353  1.00  0.00     0.000 C 
BRANCH   4   5
ATOM      5  C   UNL     1       6.273 -58.394 197.801  1.00  0.00     0.000 C 
BRANCH   5   6
ATOM      6  C   UNL     1       7.559 -58.483 198.638  1.00  0.00     0.000 C 
BRANCH   6   7
ATOM      7  C   UNL     1       7.541 -57.536 199.851  1.00  0.00     0.006 C 
BRANCH   7   8
ATOM      8  C   UNL     1       8.376 -58.076 201.019  1.00  0.00     0.053 C 
BRANCH   8   9
ATOM      9  C   UNL     1       9.820 -57.698 200.893  1.00  0.00     0.041 C 
ATOM     10  O   UNL     1      10.143 -56.515 200.606  1.00  0.00    -0.550 OA
ATOM     11  O   UNL     1      10.810 -58.647 201.119  1.00  0.00    -0.550 OA
ENDBRANCH   8   9
ENDBRANCH   7   8
ENDBRANCH   6   7
ENDBRANCH   5   6
ENDBRANCH   4   5
ENDBRANCH   3   4
ENDBRANCH   2   3
ENDBRANCH   1   2
BRANCH   1  12
ATOM     12  C   UNL     1       3.502 -62.967 198.950  1.00  0.00     0.000 C 
BRANCH  12  13
ATOM     13  C   UNL     1       4.662 -63.903 199.351  1.00  0.00    -0.000 C 
BRANCH  13  14
ATOM     14  C   UNL     1       5.956 -63.155 199.729  1.00  0.00    -0.000 C 
BRANCH  14  15
ATOM     15  C   UNL     1       5.876 -62.347 201.036  1.00  0.00    -0.000 C 
BRANCH  15  16
ATOM     16  C   UNL     1       5.817 -60.818 200.852  1.00  0.00    -0.000 C 
BRANCH  16  17
ATOM     17  C   UNL     1       4.514 -60.179 201.380  1.00  0.00    -0.000 C 
BRANCH  17  18
ATOM     18  C   UNL     1       4.285 -58.768 200.812  1.00  0.00    -0.000 C 
BRANCH  18  19
ATOM     19  C   UNL     1       3.797 -57.775 201.878  1.00  0.00    -0.003 C 
ATOM     20  C   UNL     1       4.684 -56.533 201.976  1.00  0.00     0.004 C 
ENDBRANCH  18  19
ENDBRANCH  17  18
ENDBRANCH  16  17
ENDBRANCH  15  16
ENDBRANCH  14  15
ENDBRANCH  13  14
ENDBRANCH  12  13
ENDBRANCH   1  12
TORSDOF 16
ENDMDL
MODEL 4
REMARK VINA RESULT:    -4.033      1.467      4.079
REMARK INTER + INTRA:          -9.409
REMARK INTER:                  -8.250
REMARK INTRA:                  -1.158
REMARK UNBOUND:                -1.603
REMARK SMILES CCCCCCCCCCCCCCCCCC(=O)[O-]
REMARK SMILES IDX 10 1 11 2 12 3 13 4 14 5 15 6 16 7 17 8 18 9 19 10 20 11
REMARK SMILES IDX 9 12 8 13 7 14 6 15 5 16 4 17 3 18 2 19 1 20
REMARK H PARENT
REMARK Flexibility Score: inf
ROOT
ATOM      1  C   UNL     1       5.300 -59.367 190.560  1.00  0.00     0.000 C 
ENDROOT
BRANCH   1   2
ATOM      2  C   UNL     1       4.115 -58.581 191.143  1.00  0.00     0.000 C 
BRANCH   2   3
ATOM      3  C   UNL     1       4.462 -57.111 191.435  1.00  0.00     0.000 C 
BRANCH   3   4
ATOM      4  C   UNL     1       5.575 -56.576 190.520  1.00  0.00     0.000 C 
BRANCH   4   5
ATOM      5  C   UNL     1       6.484 -55.559 191.234  1.00  0.00     0.000 C 
BRANCH   5   6
ATOM      6  C   UNL     1       5.746 -54.773 192.329  1.00  0.00     0.000 C 
BRANCH   6   7
ATOM      7  C   UNL     1       6.496 -54.789 193.673  1.00  0.00     0.006 C 
BRANCH   7   8
ATOM      8  C   UNL     1       7.963 -55.210 193.513  1.00  0.00     0.053 C 
BRANCH   8   9
ATOM      9  C   UNL     1       8.290 -56.413 194.342  1.00  0.00     0.041 C 
ATOM     10  O   UNL     1       7.640 -57.482 194.194  1.00  0.00    -0.550 OA
ATOM     11  O   UNL     1       9.332 -56.364 195.260  1.00  0.00    -0.550 OA
ENDBRANCH   8   9
ENDBRANCH   7   8
ENDBRANCH   6   7
ENDBRANCH   5   6
ENDBRANCH   4   5
ENDBRANCH   3   4
ENDBRANCH   2   3
ENDBRANCH   1   2
BRANCH   1  12
ATOM     12  C   UNL     1       6.135 -60.069 191.647  1.00  0.00     0.000 C 
BRANCH  12  13
ATOM     13  C   UNL     1       6.620 -61.464 191.200  1.00  0.00    -0.000 C 
BRANCH  13  14
ATOM     14  C   UNL     1       6.815 -61.591 189.676  1.00  0.00    -0.000 C 
BRANCH  14  15
ATOM     15  C   UNL     1       7.643 -62.810 189.231  1.00  0.00    -0.000 C 
BRANCH  15  16
ATOM     16  C   UNL     1       6.979 -63.685 188.150  1.00  0.00    -0.000 C 
BRANCH  16  17
ATOM     17  C   UNL     1       5.445 -63.520 188.073  1.00  0.00    -0.000 C 
BRANCH  17  18
ATOM     18  C   UNL     1       4.761 -64.728 187.409  1.00  0.00    -0.000 C 
BRANCH  18  19
ATOM     19  C   UNL     1       3.404 -64.368 186.786  1.00  0.00    -0.003 C 
ATOM     20  C   UNL     1       3.110 -62.869 186.837  1.00  0.00     0.004 C 
ENDBRANCH  18  19
ENDBRANCH  17  18
ENDBRANCH  16  17
ENDBRANCH  15  16
ENDBRANCH  14  15
ENDBRANCH  13  14
ENDBRANCH  12  13
ENDBRANCH   1  12
TORSDOF 16
ENDMDL
MODEL 5
REMARK VINA RESULT:    -4.011     10.110     12.511
REMARK INTER + INTRA:          -9.365
REMARK INTER:                  -7.190
REMARK INTRA:                  -2.174
REMARK UNBOUND:                -1.603
REMARK SMILES CCCCCCCCCCCCCCCCCC(=O)[O-]
REMARK SMILES IDX 10 1 11 2 12 3 13 4 14 5 15 6 16 7 17 8 18 9 19 10 20 11
REMARK SMILES IDX 9 12 8 13 7 14 6 15 5 16 4 17 3 18 2 19 1 20
REMARK H PARENT
REMARK Flexibility Score: inf
ROOT
ATOM      1  C   UNL     1       7.523 -57.446 198.375  1.00  0.00     0.000 C 
ENDROOT
BRANCH   1   2
ATOM      2  C   UNL     1       6.511 -58.597 198.267  1.00  0.00     0.000 C 
BRANCH   2   3
ATOM      3  C   UNL     1       6.449 -59.456 199.542  1.00  0.00     0.000 C 
BRANCH   3   4
ATOM      4  C   UNL     1       5.021 -59.590 200.093  1.00  0.00     0.000 C 
BRANCH   4   5
ATOM      5  C   UNL     1       4.934 -60.581 201.268  1.00  0.00     0.000 C 
BRANCH   5   6
ATOM      6  C   UNL     1       5.763 -61.853 201.031  1.00  0.00     0.000 C 
BRANCH   6   7
ATOM      7  C   UNL     1       5.102 -62.810 200.023  1.00  0.00     0.006 C 
BRANCH   7   8
ATOM      8  C   UNL     1       6.118 -63.756 199.371  1.00  0.00     0.053 C 
BRANCH   8   9
ATOM      9  C   UNL     1       5.794 -65.193 199.643  1.00  0.00     0.041 C 
ATOM     10  O   UNL     1       4.674 -65.511 200.125  1.00  0.00    -0.550 OA
ATOM     11  O   UNL     1       6.718 -66.185 199.338  1.00  0.00    -0.550 OA
ENDBRANCH   8   9
ENDBRANCH   7   8
ENDBRANCH   6   7
ENDBRANCH   5   6
ENDBRANCH   4   5
ENDBRANCH   3   4
ENDBRANCH   2   3
ENDBRANCH   1   2
BRANCH   1  12
ATOM     12  C   UNL     1       6.988 -56.265 199.205  1.00  0.00     0.000 C 
BRANCH  12  13
ATOM     13  C   UNL     1       7.962 -55.852 200.329  1.00  0.00    -0.000 C 
BRANCH  13  14
ATOM     14  C   UNL     1       7.722 -56.596 201.658  1.00  0.00    -0.000 C 
BRANCH  14  15
ATOM     15  C   UNL     1       8.962 -57.303 202.235  1.00  0.00    -0.000 C 
BRANCH  15  16
ATOM     16  C   UNL     1       9.413 -58.557 201.461  1.00  0.00    -0.000 C 
BRANCH  16  17
ATOM     17  C   UNL     1      10.853 -58.461 200.911  1.00  0.00    -0.000 C 
BRANCH  17  18
ATOM     18  C   UNL     1      10.882 -58.191 199.397  1.00  0.00    -0.000 C 
BRANCH  18  19
ATOM     19  C   UNL     1      11.411 -56.789 199.057  1.00  0.00    -0.003 C 
ATOM     20  C   UNL     1      11.012 -56.333 197.653  1.00  0.00     0.004 C 
ENDBRANCH  18  19
ENDBRANCH  17  18
ENDBRANCH  16  17
ENDBRANCH  15  16
ENDBRANCH  14  15
ENDBRANCH  13  14
ENDBRANCH  12  13
ENDBRANCH   1  12
TORSDOF 16
ENDMDL
MODEL 6
REMARK VINA RESULT:    -3.965      8.565     10.748
REMARK INTER + INTRA:          -9.276
REMARK INTER:                  -6.925
REMARK INTRA:                  -2.352
REMARK UNBOUND:                -1.603
REMARK SMILES CCCCCCCCCCCCCCCCCC(=O)[O-]
REMARK SMILES IDX 10 1 11 2 12 3 13 4 14 5 15 6 16 7 17 8 18 9 19 10 20 11
REMARK SMILES IDX 9 12 8 13 7 14 6 15 5 16 4 17 3 18 2 19 1 20
REMARK H PARENT
REMARK Flexibility Score: inf
ROOT
ATOM      1  C   UNL     1       2.739 -59.869 197.948  1.00  0.00     0.000 C 
ENDROOT
BRANCH   1   2
ATOM      2  C   UNL     1       4.034 -60.216 197.199  1.00  0.00     0.000 C 
BRANCH   2   3
ATOM      3  C   UNL     1       5.110 -59.124 197.333  1.00  0.00     0.000 C 
BRANCH   3   4
ATOM      4  C   UNL     1       6.472 -59.689 197.766  1.00  0.00     0.000 C 
BRANCH   4   5
ATOM      5  C   UNL     1       7.386 -58.614 198.380  1.00  0.00     0.000 C 
BRANCH   5   6
ATOM      6  C   UNL     1       6.611 -57.594 199.229  1.00  0.00     0.000 C 
BRANCH   6   7
ATOM      7  C   UNL     1       7.313 -57.279 200.562  1.00  0.00     0.006 C 
BRANCH   7   8
ATOM      8  C   UNL     1       8.126 -58.471 201.084  1.00  0.00     0.053 C 
BRANCH   8   9
ATOM      9  C   UNL     1       9.414 -58.034 201.712  1.00  0.00     0.041 C 
ATOM     10  O   UNL     1       9.404 -57.360 202.776  1.00  0.00    -0.550 OA
ATOM     11  O   UNL     1      10.626 -58.396 201.137  1.00  0.00    -0.550 OA
ENDBRANCH   8   9
ENDBRANCH   7   8
ENDBRANCH   6   7
ENDBRANCH   5   6
ENDBRANCH   4   5
ENDBRANCH   3   4
ENDBRANCH   2   3
ENDBRANCH   1   2
BRANCH   1  12
ATOM     12  C   UNL     1       2.634 -60.582 199.309  1.00  0.00     0.000 C 
BRANCH  12  13
ATOM     13  C   UNL     1       2.598 -59.588 200.489  1.00  0.00    -0.000 C 
BRANCH  13  14
ATOM     14  C   UNL     1       3.829 -59.681 201.412  1.00  0.00    -0.000 C 
BRANCH  14  15
ATOM     15  C   UNL     1       5.038 -60.413 200.803  1.00  0.00    -0.000 C 
BRANCH  15  16
ATOM     16  C   UNL     1       5.564 -61.600 201.634  1.00  0.00    -0.000 C 
BRANCH  16  17
ATOM     17  C   UNL     1       6.021 -62.802 200.779  1.00  0.00    -0.000 C 
BRANCH  17  18
ATOM     18  C   UNL     1       5.220 -62.925 199.471  1.00  0.00    -0.000 C 
BRANCH  18  19
ATOM     19  C   UNL     1       5.231 -64.354 198.905  1.00  0.00    -0.003 C 
ATOM     20  C   UNL     1       5.024 -65.417 199.984  1.00  0.00     0.004 C 
ENDBRANCH  18  19
ENDBRANCH  17  18
ENDBRANCH  16  17
ENDBRANCH  15  16
ENDBRANCH  14  15
ENDBRANCH  13  14
ENDBRANCH  12  13
ENDBRANCH   1  12
TORSDOF 16
ENDMDL
MODEL 7
REMARK VINA RESULT:    -3.926      1.180      3.584
REMARK INTER + INTRA:          -9.201
REMARK INTER:                  -7.802
REMARK INTRA:                  -1.399
REMARK UNBOUND:                -1.603
REMARK SMILES CCCCCCCCCCCCCCCCCC(=O)[O-]
REMARK SMILES IDX 10 1 11 2 12 3 13 4 14 5 15 6 16 7 17 8 18 9 19 10 20 11
REMARK SMILES IDX 9 12 8 13 7 14 6 15 5 16 4 17 3 18 2 19 1 20
REMARK H PARENT
REMARK Flexibility Score: inf
ROOT
ATOM      1  C   UNL     1       6.772 -61.338 190.808  1.00  0.00     0.000 C 
ENDROOT
BRANCH   1   2
ATOM      2  C   UNL     1       5.407 -60.637 190.739  1.00  0.00     0.000 C 
BRANCH   2   3
ATOM      3  C   UNL     1       5.410 -59.262 191.429  1.00  0.00     0.000 C 
BRANCH   3   4
ATOM      4  C   UNL     1       4.274 -58.352 190.935  1.00  0.00     0.000 C 
BRANCH   4   5
ATOM      5  C   UNL     1       4.552 -56.863 191.208  1.00  0.00     0.000 C 
BRANCH   5   6
ATOM      6  C   UNL     1       6.039 -56.503 191.061  1.00  0.00     0.000 C 
BRANCH   6   7
ATOM      7  C   UNL     1       6.590 -55.759 192.290  1.00  0.00     0.006 C 
BRANCH   7   8
ATOM      8  C   UNL     1       7.159 -56.721 193.342  1.00  0.00     0.053 C 
BRANCH   8   9
ATOM      9  C   UNL     1       6.196 -56.947 194.467  1.00  0.00     0.041 C 
ATOM     10  O   UNL     1       5.625 -55.970 195.020  1.00  0.00    -0.550 OA
ATOM     11  O   UNL     1       5.907 -58.240 194.886  1.00  0.00    -0.550 OA
ENDBRANCH   8   9
ENDBRANCH   7   8
ENDBRANCH   6   7
ENDBRANCH   5   6
ENDBRANCH   4   5
ENDBRANCH   3   4
ENDBRANCH   2   3
ENDBRANCH   1   2
BRANCH   1  12
ATOM     12  C   UNL     1       7.388 -61.574 189.417  1.00  0.00     0.000 C 
BRANCH  12  13
ATOM     13  C   UNL     1       7.882 -63.024 189.234  1.00  0.00    -0.000 C 
BRANCH  13  14
ATOM     14  C   UNL     1       7.165 -63.783 188.100  1.00  0.00    -0.000 C 
BRANCH  14  15
ATOM     15  C   UNL     1       5.708 -63.353 187.856  1.00  0.00    -0.000 C 
BRANCH  15  16
ATOM     16  C   UNL     1       4.697 -64.512 187.757  1.00  0.00    -0.000 C 
BRANCH  16  17
ATOM     17  C   UNL     1       3.410 -64.148 186.985  1.00  0.00    -0.000 C 
BRANCH  17  18
ATOM     18  C   UNL     1       2.995 -62.682 187.201  1.00  0.00    -0.000 C 
BRANCH  18  19
ATOM     19  C   UNL     1       2.394 -62.439 188.594  1.00  0.00    -0.003 C 
ATOM     20  C   UNL     1       2.176 -60.955 188.891  1.00  0.00     0.004 C 
ENDBRANCH  18  19
ENDBRANCH  17  18
ENDBRANCH  16  17
ENDBRANCH  15  16
ENDBRANCH  14  15
ENDBRANCH  13  14
ENDBRANCH  12  13
ENDBRANCH   1  12
TORSDOF 16
ENDMDL
MODEL 8
REMARK VINA RESULT:    -3.923      3.721      7.434
REMARK INTER + INTRA:          -9.195
REMARK INTER:                  -7.412
REMARK INTRA:                  -1.784
REMARK UNBOUND:                -1.603
REMARK SMILES CCCCCCCCCCCCCCCCCC(=O)[O-]
REMARK SMILES IDX 10 1 11 2 12 3 13 4 14 5 15 6 16 7 17 8 18 9 19 10 20 11
REMARK SMILES IDX 9 12 8 13 7 14 6 15 5 16 4 17 3 18 2 19 1 20
REMARK H PARENT
REMARK Flexibility Score: inf
ROOT
ATOM      1  C   UNL     1       5.035 -60.243 190.233  1.00  0.00     0.000 C 
ENDROOT
BRANCH   1   2
ATOM      2  C   UNL     1       6.226 -60.415 191.188  1.00  0.00     0.000 C 
BRANCH   2   3
ATOM      3  C   UNL     1       6.621 -61.889 191.386  1.00  0.00     0.000 C 
BRANCH   3   4
ATOM      4  C   UNL     1       7.953 -62.239 190.704  1.00  0.00     0.000 C 
BRANCH   4   5
ATOM      5  C   UNL     1       7.866 -62.165 189.169  1.00  0.00     0.000 C 
BRANCH   5   6
ATOM      6  C   UNL     1       7.163 -63.387 188.558  1.00  0.00     0.000 C 
BRANCH   6   7
ATOM      7  C   UNL     1       5.745 -63.062 188.053  1.00  0.00     0.006 C 
BRANCH   7   8
ATOM      8  C   UNL     1       4.949 -64.328 187.710  1.00  0.00     0.053 C 
BRANCH   8   9
ATOM      9  C   UNL     1       3.665 -64.005 187.011  1.00  0.00     0.041 C 
ATOM     10  O   UNL     1       3.109 -64.863 186.274  1.00  0.00    -0.550 OA
ATOM     11  O   UNL     1       3.066 -62.764 187.194  1.00  0.00    -0.550 OA
ENDBRANCH   8   9
ENDBRANCH   7   8
ENDBRANCH   6   7
ENDBRANCH   5   6
ENDBRANCH   4   5
ENDBRANCH   3   4
ENDBRANCH   2   3
ENDBRANCH   1   2
BRANCH   1  12
ATOM     12  C   UNL     1       4.747 -58.766 189.907  1.00  0.00     0.000 C 
BRANCH  12  13
ATOM     13  C   UNL     1       3.243 -58.500 189.683  1.00  0.00    -0.000 C 
BRANCH  13  14
ATOM     14  C   UNL     1       2.623 -57.548 190.725  1.00  0.00    -0.000 C 
BRANCH  14  15
ATOM     15  C   UNL     1       2.828 -57.972 192.190  1.00  0.00    -0.000 C 
BRANCH  15  16
ATOM     16  C   UNL     1       3.164 -56.821 193.158  1.00  0.00    -0.000 C 
BRANCH  16  17
ATOM     17  C   UNL     1       3.719 -55.562 192.456  1.00  0.00    -0.000 C 
BRANCH  17  18
ATOM     18  C   UNL     1       5.186 -55.287 192.828  1.00  0.00    -0.000 C 
BRANCH  18  19
ATOM     19  C   UNL     1       6.167 -56.201 192.076  1.00  0.00    -0.003 C 
ATOM     20  C   UNL     1       6.784 -57.271 192.977  1.00  0.00     0.004 C 
ENDBRANCH  18  19
ENDBRANCH  17  18
ENDBRANCH  16  17
ENDBRANCH  15  16
ENDBRANCH  14  15
ENDBRANCH  13  14
ENDBRANCH  12  13
ENDBRANCH   1  12
TORSDOF 16
ENDMDL
MODEL 9
REMARK VINA RESULT:    -3.897      9.320     11.298
REMARK INTER + INTRA:          -9.145
REMARK INTER:                  -7.486
REMARK INTRA:                  -1.659
REMARK UNBOUND:                -1.603
REMARK SMILES CCCCCCCCCCCCCCCCCC(=O)[O-]
REMARK SMILES IDX 10 1 11 2 12 3 13 4 14 5 15 6 16 7 17 8 18 9 19 10 20 11
REMARK SMILES IDX 9 12 8 13 7 14 6 15 5 16 4 17 3 18 2 19 1 20
REMARK H PARENT
REMARK Flexibility Score: inf
ROOT
ATOM      1  C   UNL     1       7.448 -57.490 201.078  1.00  0.00     0.000 C 
ENDROOT
BRANCH   1   2
ATOM      2  C   UNL     1       8.548 -58.535 201.319  1.00  0.00     0.000 C 
BRANCH   2   3
ATOM      3  C   UNL     1       9.937 -57.902 201.516  1.00  0.00     0.000 C 
BRANCH   3   4
ATOM      4  C   UNL     1      10.996 -58.499 200.577  1.00  0.00     0.000 C 
BRANCH   4   5
ATOM      5  C   UNL     1      10.871 -57.969 199.137  1.00  0.00     0.000 C 
BRANCH   5   6
ATOM      6  C   UNL     1      11.184 -56.468 199.030  1.00  0.00     0.000 C 
BRANCH   6   7
ATOM      7  C   UNL     1      12.415 -56.183 198.152  1.00  0.00     0.006 C 
BRANCH   7   8
ATOM      8  C   UNL     1      12.095 -55.214 197.005  1.00  0.00     0.053 C 
BRANCH   8   9
ATOM      9  C   UNL     1      11.224 -55.852 195.966  1.00  0.00     0.041 C 
ATOM     10  O   UNL     1      11.587 -56.917 195.401  1.00  0.00    -0.550 OA
ATOM     11  O   UNL     1       9.999 -55.283 195.641  1.00  0.00    -0.550 OA
ENDBRANCH   8   9
ENDBRANCH   7   8
ENDBRANCH   6   7
ENDBRANCH   5   6
ENDBRANCH   4   5
ENDBRANCH   3   4
ENDBRANCH   2   3
ENDBRANCH   1   2
BRANCH   1  12
ATOM     12  C   UNL     1       7.091 -57.340 199.588  1.00  0.00     0.000 C 
BRANCH  12  13
ATOM     13  C   UNL     1       7.346 -58.637 198.792  1.00  0.00    -0.000 C 
BRANCH  13  14
ATOM     14  C   UNL     1       6.059 -59.299 198.262  1.00  0.00    -0.000 C 
BRANCH  14  15
ATOM     15  C   UNL     1       5.774 -60.702 198.828  1.00  0.00    -0.000 C 
BRANCH  15  16
ATOM     16  C   UNL     1       5.580 -60.757 200.356  1.00  0.00    -0.000 C 
BRANCH  16  17
ATOM     17  C   UNL     1       5.773 -62.167 200.955  1.00  0.00    -0.000 C 
BRANCH  17  18
ATOM     18  C   UNL     1       6.107 -63.216 199.880  1.00  0.00    -0.000 C 
BRANCH  18  19
ATOM     19  C   UNL     1       5.071 -64.350 199.820  1.00  0.00    -0.003 C 
ATOM     20  C   UNL     1       5.684 -65.686 199.399  1.00  0.00     0.004 C 
ENDBRANCH  18  19
ENDBRANCH  17  18
ENDBRANCH  16  17
ENDBRANCH  15  16
ENDBRANCH  14  15
ENDBRANCH  13  14
ENDBRANCH  12  13
ENDBRANCH   1  12
TORSDOF 16
ENDMDL
