MODEL 1
REMARK VINA RESULT:    -3.955      0.000      0.000
REMARK INTER + INTRA:          -9.057
REMARK INTER:                  -7.192
REMARK INTRA:                  -1.865
REMARK UNBOUND:                -1.865
REMARK SMILES CCCCCCCCCCCCCCCC(=O)[O-]
REMARK SMILES IDX 9 1 10 2 11 3 12 4 13 5 14 6 15 7 16 8 17 9 18 10 8 11 7 12
REMARK SMILES IDX 6 13 5 14 4 15 3 16 2 17 1 18
REMARK H PARENT
REMARK Flexibility Score: inf
ROOT
ATOM      1  C   UNL     1       9.450 -16.534  -3.506  1.00  0.00     0.000 C 
ENDROOT
BRANCH   1   2
ATOM      2  C   UNL     1      10.195 -15.191  -3.499  1.00  0.00     0.000 C 
BRANCH   2   3
ATOM      3  C   UNL     1      10.608 -14.786  -4.922  1.00  0.00     0.000 C 
BRANCH   3   4
ATOM      4  C   UNL     1      12.102 -15.020  -5.193  1.00  0.00     0.000 C 
BRANCH   4   5
ATOM      5  C   UNL     1      12.905 -15.266  -3.904  1.00  0.00     0.000 C 
BRANCH   5   6
ATOM      6  C   UNL     1      13.367 -16.725  -3.764  1.00  0.00     0.006 C 
BRANCH   6   7
ATOM      7  C   UNL     1      14.895 -16.859  -3.732  1.00  0.00     0.053 C 
BRANCH   7   8
ATOM      8  C   UNL     1      15.308 -18.232  -4.158  1.00  0.00     0.041 C 
ATOM      9  O   UNL     1      14.548 -18.926  -4.884  1.00  0.00    -0.550 OA
ATOM     10  O   UNL     1      16.552 -18.730  -3.790  1.00  0.00    -0.550 OA
ENDBRANCH   7   8
ENDBRANCH   6   7
ENDBRANCH   5   6
ENDBRANCH   4   5
ENDBRANCH   3   4
ENDBRANCH   2   3
ENDBRANCH   1   2
BRANCH   1  11
ATOM     11  C   UNL     1       9.905 -17.473  -2.376  1.00  0.00     0.000 C 
BRANCH  11  12
ATOM     12  C   UNL     1      10.052 -18.931  -2.843  1.00  0.00    -0.000 C 
BRANCH  12  13
ATOM     13  C   UNL     1      11.313 -19.162  -3.695  1.00  0.00    -0.000 C 
BRANCH  13  14
ATOM     14  C   UNL     1      11.052 -19.591  -5.154  1.00  0.00    -0.000 C 
BRANCH  14  15
ATOM     15  C   UNL     1      11.244 -18.483  -6.205  1.00  0.00    -0.000 C 
BRANCH  15  16
ATOM     16  C   UNL     1       9.916 -17.959  -6.769  1.00  0.00    -0.000 C 
BRANCH  16  17
ATOM     17  C   UNL     1       9.413 -18.855  -7.907  1.00  0.00    -0.003 C 
ATOM     18  C   UNL     1       8.000 -18.465  -8.333  1.00  0.00     0.004 C 
ENDBRANCH  16  17
ENDBRANCH  15  16
ENDBRANCH  14  15
ENDBRANCH  13  14
ENDBRANCH  12  13
ENDBRANCH  11  12
ENDBRANCH   1  11
TORSDOF 14
ENDMDL
MODEL 2
REMARK VINA RESULT:    -3.912      1.232      2.593
REMARK INTER + INTRA:          -8.979
REMARK INTER:                  -7.241
REMARK INTRA:                  -1.738
REMARK UNBOUND:                -1.865
REMARK SMILES CCCCCCCCCCCCCCCC(=O)[O-]
REMARK SMILES IDX 9 1 10 2 11 3 12 4 13 5 14 6 15 7 16 8 17 9 18 10 8 11 7 12
REMARK SMILES IDX 6 13 5 14 4 15 3 16 2 17 1 18
REMARK H PARENT
REMARK Flexibility Score: inf
ROOT
ATOM      1  C   UNL     1      11.044 -14.939  -4.655  1.00  0.00     0.000 C 
ENDROOT
BRANCH   1   2
ATOM      2  C   UNL     1      12.564 -15.145  -4.743  1.00  0.00     0.000 C 
BRANCH   2   3
ATOM      3  C   UNL     1      13.145 -15.531  -3.375  1.00  0.00     0.000 C 
BRANCH   3   4
ATOM      4  C   UNL     1      14.305 -16.533  -3.487  1.00  0.00     0.000 C 
BRANCH   4   5
ATOM      5  C   UNL     1      14.094 -17.559  -4.614  1.00  0.00     0.000 C 
BRANCH   5   6
ATOM      6  C   UNL     1      15.135 -18.689  -4.586  1.00  0.00     0.006 C 
BRANCH   6   7
ATOM      7  C   UNL     1      16.196 -18.486  -3.497  1.00  0.00     0.053 C 
BRANCH   7   8
ATOM      8  C   UNL     1      17.454 -19.215  -3.851  1.00  0.00     0.041 C 
ATOM      9  O   UNL     1      18.122 -18.873  -4.862  1.00  0.00    -0.550 OA
ATOM     10  O   UNL     1      17.913 -20.244  -3.039  1.00  0.00    -0.550 OA
ENDBRANCH   7   8
ENDBRANCH   6   7
ENDBRANCH   5   6
ENDBRANCH   4   5
ENDBRANCH   3   4
ENDBRANCH   2   3
ENDBRANCH   1   2
BRANCH   1  11
ATOM     11  C   UNL     1      10.446 -15.476  -3.344  1.00  0.00     0.000 C 
BRANCH  11  12
ATOM     12  C   UNL     1       9.617 -16.755  -3.553  1.00  0.00    -0.000 C 
BRANCH  12  13
ATOM     13  C   UNL     1       9.756 -17.755  -2.392  1.00  0.00    -0.000 C 
BRANCH  13  14
ATOM     14  C   UNL     1      10.506 -19.059  -2.732  1.00  0.00    -0.000 C 
BRANCH  14  15
ATOM     15  C   UNL     1      11.490 -18.959  -3.911  1.00  0.00    -0.000 C 
BRANCH  15  16
ATOM     16  C   UNL     1      10.938 -19.579  -5.203  1.00  0.00    -0.000 C 
BRANCH  16  17
ATOM     17  C   UNL     1      11.167 -18.647  -6.398  1.00  0.00    -0.003 C 
ATOM     18  C   UNL     1       9.844 -18.136  -6.961  1.00  0.00     0.004 C 
ENDBRANCH  16  17
ENDBRANCH  15  16
ENDBRANCH  14  15
ENDBRANCH  13  14
ENDBRANCH  12  13
ENDBRANCH  11  12
ENDBRANCH   1  11
TORSDOF 14
ENDMDL
MODEL 3
REMARK VINA RESULT:    -3.854      2.079      4.174
REMARK INTER + INTRA:          -8.874
REMARK INTER:                  -7.569
REMARK INTRA:                  -1.304
REMARK UNBOUND:                -1.865
REMARK SMILES CCCCCCCCCCCCCCCC(=O)[O-]
REMARK SMILES IDX 9 1 10 2 11 3 12 4 13 5 14 6 15 7 16 8 17 9 18 10 8 11 7 12
REMARK SMILES IDX 6 13 5 14 4 15 3 16 2 17 1 18
REMARK H PARENT
REMARK Flexibility Score: inf
ROOT
ATOM      1  C   UNL     1      13.264 -15.500  -3.129  1.00  0.00     0.000 C 
ENDROOT
BRANCH   1   2
ATOM      2  C   UNL     1      14.445 -16.443  -3.405  1.00  0.00     0.000 C 
BRANCH   2   3
ATOM      3  C   UNL     1      14.061 -17.515  -4.436  1.00  0.00     0.000 C 
BRANCH   3   4
ATOM      4  C   UNL     1      15.155 -18.578  -4.619  1.00  0.00     0.000 C 
BRANCH   4   5
ATOM      5  C   UNL     1      16.279 -18.456  -3.575  1.00  0.00     0.000 C 
BRANCH   5   6
ATOM      6  C   UNL     1      17.337 -19.563  -3.714  1.00  0.00     0.006 C 
BRANCH   6   7
ATOM      7  C   UNL     1      17.894 -20.018  -2.359  1.00  0.00     0.053 C 
BRANCH   7   8
ATOM      8  C   UNL     1      17.487 -21.429  -2.074  1.00  0.00     0.041 C 
ATOM      9  O   UNL     1      17.905 -22.013  -1.040  1.00  0.00    -0.550 OA
ATOM     10  O   UNL     1      16.608 -22.085  -2.927  1.00  0.00    -0.550 OA
ENDBRANCH   7   8
ENDBRANCH   6   7
ENDBRANCH   5   6
ENDBRANCH   4   5
ENDBRANCH   3   4
ENDBRANCH   2   3
ENDBRANCH   1   2
BRANCH   1  11
ATOM     11  C   UNL     1      12.366 -15.295  -4.361  1.00  0.00     0.000 C 
BRANCH  11  12
ATOM     12  C   UNL     1      10.912 -14.965  -3.983  1.00  0.00    -0.000 C 
BRANCH  12  13
ATOM     13  C   UNL     1       9.989 -16.197  -4.025  1.00  0.00    -0.000 C 
BRANCH  13  14
ATOM     14  C   UNL     1       9.998 -17.069  -2.753  1.00  0.00    -0.000 C 
BRANCH  14  15
ATOM     15  C   UNL     1      10.191 -18.577  -2.996  1.00  0.00    -0.000 C 
BRANCH  15  16
ATOM     16  C   UNL     1      11.418 -18.889  -3.864  1.00  0.00    -0.000 C 
BRANCH  16  17
ATOM     17  C   UNL     1      11.003 -19.562  -5.177  1.00  0.00    -0.003 C 
ATOM     18  C   UNL     1      11.043 -18.576  -6.340  1.00  0.00     0.004 C 
ENDBRANCH  16  17
ENDBRANCH  15  16
ENDBRANCH  14  15
ENDBRANCH  13  14
ENDBRANCH  12  13
ENDBRANCH  11  12
ENDBRANCH   1  11
TORSDOF 14
ENDMDL
MODEL 4
REMARK VINA RESULT:    -3.729      2.770      5.042
REMARK INTER + INTRA:          -8.646
REMARK INTER:                  -7.346
REMARK INTRA:                  -1.300
REMARK UNBOUND:                -1.865
REMARK SMILES CCCCCCCCCCCCCCCC(=O)[O-]
REMARK SMILES IDX 9 1 10 2 11 3 12 4 13 5 14 6 15 7 16 8 17 9 18 10 8 11 7 12
REMARK SMILES IDX 6 13 5 14 4 15 3 16 2 17 1 18
REMARK H PARENT
REMARK Flexibility Score: inf
ROOT
ATOM      1  C   UNL     1      13.890 -16.618  -4.104  1.00  0.00     0.000 C 
ENDROOT
BRANCH   1   2
ATOM      2  C   UNL     1      15.179 -17.248  -3.553  1.00  0.00     0.000 C 
BRANCH   2   3
ATOM      3  C   UNL     1      15.524 -18.540  -4.310  1.00  0.00     0.000 C 
BRANCH   3   4
ATOM      4  C   UNL     1      17.015 -18.897  -4.219  1.00  0.00     0.000 C 
BRANCH   4   5
ATOM      5  C   UNL     1      17.373 -19.611  -2.904  1.00  0.00     0.000 C 
BRANCH   5   6
ATOM      6  C   UNL     1      17.786 -21.076  -3.120  1.00  0.00     0.006 C 
BRANCH   6   7
ATOM      7  C   UNL     1      17.140 -22.026  -2.103  1.00  0.00     0.053 C 
BRANCH   7   8
ATOM      8  C   UNL     1      16.426 -23.137  -2.807  1.00  0.00     0.041 C 
ATOM      9  O   UNL     1      16.890 -23.612  -3.877  1.00  0.00    -0.550 OA
ATOM     10  O   UNL     1      15.270 -23.678  -2.258  1.00  0.00    -0.550 OA
ENDBRANCH   7   8
ENDBRANCH   6   7
ENDBRANCH   5   6
ENDBRANCH   4   5
ENDBRANCH   3   4
ENDBRANCH   2   3
ENDBRANCH   1   2
BRANCH   1  11
ATOM     11  C   UNL     1      13.279 -15.582  -3.147  1.00  0.00     0.000 C 
BRANCH  11  12
ATOM     12  C   UNL     1      11.845 -15.187  -3.541  1.00  0.00    -0.000 C 
BRANCH  12  13
ATOM     13  C   UNL     1      11.695 -14.906  -5.047  1.00  0.00    -0.000 C 
BRANCH  13  14
ATOM     14  C   UNL     1      10.909 -15.969  -5.841  1.00  0.00    -0.000 C 
BRANCH  14  15
ATOM     15  C   UNL     1      10.270 -17.081  -4.989  1.00  0.00    -0.000 C 
BRANCH  15  16
ATOM     16  C   UNL     1      10.996 -18.427  -5.123  1.00  0.00    -0.000 C 
BRANCH  16  17
ATOM     17  C   UNL     1      11.117 -19.122  -3.762  1.00  0.00    -0.003 C 
ATOM     18  C   UNL     1      10.271 -18.418  -2.706  1.00  0.00     0.004 C 
ENDBRANCH  16  17
ENDBRANCH  15  16
ENDBRANCH  14  15
ENDBRANCH  13  14
ENDBRANCH  12  13
ENDBRANCH  11  12
ENDBRANCH   1  11
TORSDOF 14
ENDMDL
MODEL 5
REMARK VINA RESULT:    -3.675      2.465      4.824
REMARK INTER + INTRA:          -8.548
REMARK INTER:                  -7.137
REMARK INTRA:                  -1.412
REMARK UNBOUND:                -1.865
REMARK SMILES CCCCCCCCCCCCCCCC(=O)[O-]
REMARK SMILES IDX 9 1 10 2 11 3 12 4 13 5 14 6 15 7 16 8 17 9 18 10 8 11 7 12
REMARK SMILES IDX 6 13 5 14 4 15 3 16 2 17 1 18
REMARK H PARENT
REMARK Flexibility Score: inf
ROOT
ATOM      1  C   UNL     1      12.349 -18.857  -5.408  1.00  0.00     0.000 C 
ENDROOT
BRANCH   1   2
ATOM      2  C   UNL     1      13.395 -18.456  -4.356  1.00  0.00     0.000 C 
BRANCH   2   3
ATOM      3  C   UNL     1      14.790 -18.963  -4.750  1.00  0.00     0.000 C 
BRANCH   3   4
ATOM      4  C   UNL     1      15.915 -18.270  -3.964  1.00  0.00     0.000 C 
BRANCH   4   5
ATOM      5  C   UNL     1      17.232 -19.064  -3.994  1.00  0.00     0.000 C 
BRANCH   5   6
ATOM      6  C   UNL     1      17.371 -20.024  -2.801  1.00  0.00     0.006 C 
BRANCH   6   7
ATOM      7  C   UNL     1      18.090 -21.327  -3.175  1.00  0.00     0.053 C 
BRANCH   7   8
ATOM      8  C   UNL     1      17.357 -22.506  -2.618  1.00  0.00     0.041 C 
ATOM      9  O   UNL     1      17.390 -22.747  -1.382  1.00  0.00    -0.550 OA
ATOM     10  O   UNL     1      16.600 -23.315  -3.457  1.00  0.00    -0.550 OA
ENDBRANCH   7   8
ENDBRANCH   6   7
ENDBRANCH   5   6
ENDBRANCH   4   5
ENDBRANCH   3   4
ENDBRANCH   2   3
ENDBRANCH   1   2
BRANCH   1  11
ATOM     11  C   UNL     1      10.964 -19.124  -4.797  1.00  0.00     0.000 C 
BRANCH  11  12
ATOM     12  C   UNL     1      10.985 -19.121  -3.259  1.00  0.00    -0.000 C 
BRANCH  12  13
ATOM     13  C   UNL     1      10.067 -18.046  -2.650  1.00  0.00    -0.000 C 
BRANCH  13  14
ATOM     14  C   UNL     1       9.591 -16.955  -3.630  1.00  0.00    -0.000 C 
BRANCH  14  15
ATOM     15  C   UNL     1      10.269 -15.584  -3.462  1.00  0.00    -0.000 C 
BRANCH  15  16
ATOM     16  C   UNL     1      10.753 -14.990  -4.793  1.00  0.00    -0.000 C 
BRANCH  16  17
ATOM     17  C   UNL     1      12.284 -15.007  -4.877  1.00  0.00    -0.003 C 
ATOM     18  C   UNL     1      12.907 -15.312  -3.518  1.00  0.00     0.004 C 
ENDBRANCH  16  17
ENDBRANCH  15  16
ENDBRANCH  14  15
ENDBRANCH  13  14
ENDBRANCH  12  13
ENDBRANCH  11  12
ENDBRANCH   1  11
TORSDOF 14
ENDMDL
MODEL 6
REMARK VINA RESULT:    -3.654      2.141      5.469
REMARK INTER + INTRA:          -8.510
REMARK INTER:                  -7.150
REMARK INTRA:                  -1.360
REMARK UNBOUND:                -1.865
REMARK SMILES CCCCCCCCCCCCCCCC(=O)[O-]
REMARK SMILES IDX 9 1 10 2 11 3 12 4 13 5 14 6 15 7 16 8 17 9 18 10 8 11 7 12
REMARK SMILES IDX 6 13 5 14 4 15 3 16 2 17 1 18
REMARK H PARENT
REMARK Flexibility Score: inf
ROOT
ATOM      1  C   UNL     1      11.035 -14.791  -4.474  1.00  0.00     0.000 C 
ENDROOT
BRANCH   1   2
ATOM      2  C   UNL     1      10.449 -15.237  -3.126  1.00  0.00     0.000 C 
BRANCH   2   3
ATOM      3  C   UNL     1       9.519 -16.446  -3.307  1.00  0.00     0.000 C 
BRANCH   3   4
ATOM      4  C   UNL     1       9.867 -17.606  -2.360  1.00  0.00     0.000 C 
BRANCH   4   5
ATOM      5  C   UNL     1      10.207 -18.903  -3.114  1.00  0.00     0.000 C 
BRANCH   5   6
ATOM      6  C   UNL     1      11.422 -18.747  -4.042  1.00  0.00     0.006 C 
BRANCH   6   7
ATOM      7  C   UNL     1      11.269 -19.532  -5.351  1.00  0.00     0.053 C 
BRANCH   7   8
ATOM      8  C   UNL     1      10.663 -18.668  -6.411  1.00  0.00     0.041 C 
ATOM      9  O   UNL     1      10.665 -17.415  -6.285  1.00  0.00    -0.550 OA
ATOM     10  O   UNL     1      10.136 -19.243  -7.561  1.00  0.00    -0.550 OA
ENDBRANCH   7   8
ENDBRANCH   6   7
ENDBRANCH   5   6
ENDBRANCH   4   5
ENDBRANCH   3   4
ENDBRANCH   2   3
ENDBRANCH   1   2
BRANCH   1  11
ATOM     11  C   UNL     1      12.531 -15.118  -4.610  1.00  0.00     0.000 C 
BRANCH  11  12
ATOM     12  C   UNL     1      13.199 -15.403  -3.254  1.00  0.00    -0.000 C 
BRANCH  12  13
ATOM     13  C   UNL     1      14.309 -16.465  -3.346  1.00  0.00    -0.000 C 
BRANCH  13  14
ATOM     14  C   UNL     1      14.221 -17.405  -4.566  1.00  0.00    -0.000 C 
BRANCH  14  15
ATOM     15  C   UNL     1      15.223 -18.574  -4.563  1.00  0.00    -0.000 C 
BRANCH  15  16
ATOM     16  C   UNL     1      16.307 -18.429  -3.485  1.00  0.00    -0.000 C 
BRANCH  16  17
ATOM     17  C   UNL     1      17.477 -19.383  -3.754  1.00  0.00    -0.003 C 
ATOM     18  C   UNL     1      17.554 -20.474  -2.690  1.00  0.00     0.004 C 
ENDBRANCH  16  17
ENDBRANCH  15  16
ENDBRANCH  14  15
ENDBRANCH  13  14
ENDBRANCH  12  13
ENDBRANCH  11  12
ENDBRANCH   1  11
TORSDOF 14
ENDMDL
MODEL 7
REMARK VINA RESULT:    -3.623      3.268      6.526
REMARK INTER + INTRA:          -8.454
REMARK INTER:                  -7.324
REMARK INTRA:                  -1.129
REMARK UNBOUND:                -1.865
REMARK SMILES CCCCCCCCCCCCCCCC(=O)[O-]
REMARK SMILES IDX 9 1 10 2 11 3 12 4 13 5 14 6 15 7 16 8 17 9 18 10 8 11 7 12
REMARK SMILES IDX 6 13 5 14 4 15 3 16 2 17 1 18
REMARK H PARENT
REMARK Flexibility Score: inf
ROOT
ATOM      1  C   UNL     1      13.252 -18.241  -4.553  1.00  0.00     0.000 C 
ENDROOT
BRANCH   1   2
ATOM      2  C   UNL     1      12.141 -18.905  -5.382  1.00  0.00     0.000 C 
BRANCH   2   3
ATOM      3  C   UNL     1      10.803 -18.874  -4.628  1.00  0.00     0.000 C 
BRANCH   3   4
ATOM      4  C   UNL     1      10.972 -18.544  -3.137  1.00  0.00     0.000 C 
BRANCH   4   5
ATOM      5  C   UNL     1       9.887 -17.585  -2.617  1.00  0.00     0.000 C 
BRANCH   5   6
ATOM      6  C   UNL     1       9.729 -16.337  -3.499  1.00  0.00     0.006 C 
BRANCH   6   7
ATOM      7  C   UNL     1      10.965 -15.429  -3.462  1.00  0.00     0.053 C 
BRANCH   7   8
ATOM      8  C   UNL     1      11.245 -14.873  -4.823  1.00  0.00     0.041 C 
ATOM      9  O   UNL     1      11.083 -15.589  -5.846  1.00  0.00    -0.550 OA
ATOM     10  O   UNL     1      11.644 -13.550  -4.965  1.00  0.00    -0.550 OA
ENDBRANCH   7   8
ENDBRANCH   6   7
ENDBRANCH   5   6
ENDBRANCH   4   5
ENDBRANCH   3   4
ENDBRANCH   2   3
ENDBRANCH   1   2
BRANCH   1  11
ATOM     11  C   UNL     1      14.607 -18.952  -4.697  1.00  0.00     0.000 C 
BRANCH  11  12
ATOM     12  C   UNL     1      15.701 -18.323  -3.817  1.00  0.00    -0.000 C 
BRANCH  12  13
ATOM     13  C   UNL     1      17.089 -18.944  -4.053  1.00  0.00    -0.000 C 
BRANCH  13  14
ATOM     14  C   UNL     1      17.625 -19.817  -2.900  1.00  0.00    -0.000 C 
BRANCH  14  15
ATOM     15  C   UNL     1      17.021 -21.231  -2.817  1.00  0.00    -0.000 C 
BRANCH  15  16
ATOM     16  C   UNL     1      17.462 -21.995  -1.559  1.00  0.00    -0.000 C 
BRANCH  16  17
ATOM     17  C   UNL     1      16.833 -23.393  -1.520  1.00  0.00    -0.003 C 
ATOM     18  C   UNL     1      16.275 -23.786  -2.884  1.00  0.00     0.004 C 
ENDBRANCH  16  17
ENDBRANCH  15  16
ENDBRANCH  14  15
ENDBRANCH  13  14
ENDBRANCH  12  13
ENDBRANCH  11  12
ENDBRANCH   1  11
TORSDOF 14
ENDMDL
MODEL 8
REMARK VINA RESULT:    -3.566      3.230      6.370
REMARK INTER + INTRA:          -8.350
REMARK INTER:                  -7.334
REMARK INTRA:                  -1.016
REMARK UNBOUND:                -1.865
REMARK SMILES CCCCCCCCCCCCCCCC(=O)[O-]
REMARK SMILES IDX 9 1 10 2 11 3 12 4 13 5 14 6 15 7 16 8 17 9 18 10 8 11 7 12
REMARK SMILES IDX 6 13 5 14 4 15 3 16 2 17 1 18
REMARK H PARENT
REMARK Flexibility Score: inf
ROOT
ATOM      1  C   UNL     1      14.093 -17.741  -4.371  1.00  0.00     0.000 C 
ENDROOT
BRANCH   1   2
ATOM      2  C   UNL     1      14.494 -16.568  -3.464  1.00  0.00     0.000 C 
BRANCH   2   3
ATOM      3  C   UNL     1      13.332 -15.576  -3.307  1.00  0.00     0.000 C 
BRANCH   3   4
ATOM      4  C   UNL     1      12.403 -15.555  -4.530  1.00  0.00     0.000 C 
BRANCH   4   5
ATOM      5  C   UNL     1      11.104 -14.772  -4.274  1.00  0.00     0.000 C 
BRANCH   5   6
ATOM      6  C   UNL     1       9.893 -15.692  -4.051  1.00  0.00     0.006 C 
BRANCH   6   7
ATOM      7  C   UNL     1      10.166 -17.139  -4.480  1.00  0.00     0.053 C 
BRANCH   7   8
ATOM      8  C   UNL     1      10.304 -18.021  -3.279  1.00  0.00     0.041 C 
ATOM      9  O   UNL     1       9.725 -17.722  -2.202  1.00  0.00    -0.550 OA
ATOM     10  O   UNL     1      11.036 -19.200  -3.363  1.00  0.00    -0.550 OA
ENDBRANCH   7   8
ENDBRANCH   6   7
ENDBRANCH   5   6
ENDBRANCH   4   5
ENDBRANCH   3   4
ENDBRANCH   2   3
ENDBRANCH   1   2
BRANCH   1  11
ATOM     11  C   UNL     1      15.231 -18.755  -4.571  1.00  0.00     0.000 C 
BRANCH  11  12
ATOM     12  C   UNL     1      16.480 -18.412  -3.741  1.00  0.00    -0.000 C 
BRANCH  12  13
ATOM     13  C   UNL     1      17.512 -19.554  -3.714  1.00  0.00    -0.000 C 
BRANCH  13  14
ATOM     14  C   UNL     1      17.763 -20.181  -2.327  1.00  0.00    -0.000 C 
BRANCH  14  15
ATOM     15  C   UNL     1      17.264 -21.628  -2.164  1.00  0.00    -0.000 C 
BRANCH  15  16
ATOM     16  C   UNL     1      17.689 -22.540  -3.323  1.00  0.00    -0.000 C 
BRANCH  16  17
ATOM     17  C   UNL     1      16.837 -23.814  -3.358  1.00  0.00    -0.003 C 
ATOM     18  C   UNL     1      15.644 -23.706  -2.413  1.00  0.00     0.004 C 
ENDBRANCH  16  17
ENDBRANCH  15  16
ENDBRANCH  14  15
ENDBRANCH  13  14
ENDBRANCH  12  13
ENDBRANCH  11  12
ENDBRANCH   1  11
TORSDOF 14
ENDMDL
MODEL 9
REMARK VINA RESULT:    -3.381      2.759      5.043
REMARK INTER + INTRA:          -8.012
REMARK INTER:                  -6.764
REMARK INTRA:                  -1.249
REMARK UNBOUND:                -1.865
REMARK SMILES CCCCCCCCCCCCCCCC(=O)[O-]
REMARK SMILES IDX 9 1 10 2 11 3 12 4 13 5 14 6 15 7 16 8 17 9 18 10 8 11 7 12
REMARK SMILES IDX 6 13 5 14 4 15 3 16 2 17 1 18
REMARK H PARENT
REMARK Flexibility Score: inf
ROOT
ATOM      1  C   UNL     1      13.678 -18.960  -4.781  1.00  0.00     0.000 C 
ENDROOT
BRANCH   1   2
ATOM      2  C   UNL     1      14.269 -17.642  -4.258  1.00  0.00     0.000 C 
BRANCH   2   3
ATOM      3  C   UNL     1      15.762 -17.801  -3.936  1.00  0.00     0.000 C 
BRANCH   3   4
ATOM      4  C   UNL     1      16.224 -19.266  -3.987  1.00  0.00     0.000 C 
BRANCH   4   5
ATOM      5  C   UNL     1      17.375 -19.557  -3.007  1.00  0.00     0.000 C 
BRANCH   5   6
ATOM      6  C   UNL     1      17.881 -21.005  -3.105  1.00  0.00     0.006 C 
BRANCH   6   7
ATOM      7  C   UNL     1      17.316 -21.903  -1.997  1.00  0.00     0.053 C 
BRANCH   7   8
ATOM      8  C   UNL     1      16.506 -23.014  -2.588  1.00  0.00     0.041 C 
ATOM      9  O   UNL     1      15.497 -23.456  -1.979  1.00  0.00    -0.550 OA
ATOM     10  O   UNL     1      16.840 -23.531  -3.834  1.00  0.00    -0.550 OA
ENDBRANCH   7   8
ENDBRANCH   6   7
ENDBRANCH   5   6
ENDBRANCH   4   5
ENDBRANCH   3   4
ENDBRANCH   2   3
ENDBRANCH   1   2
BRANCH   1  11
ATOM     11  C   UNL     1      12.146 -19.015  -4.660  1.00  0.00     0.000 C 
BRANCH  11  12
ATOM     12  C   UNL     1      11.439 -18.840  -6.015  1.00  0.00    -0.000 C 
BRANCH  12  13
ATOM     13  C   UNL     1      10.441 -17.669  -6.023  1.00  0.00    -0.000 C 
BRANCH  13  14
ATOM     14  C   UNL     1      11.074 -16.265  -6.116  1.00  0.00    -0.000 C 
BRANCH  14  15
ATOM     15  C   UNL     1      10.684 -15.295  -4.987  1.00  0.00    -0.000 C 
BRANCH  15  16
ATOM     16  C   UNL     1      11.006 -15.845  -3.590  1.00  0.00    -0.000 C 
BRANCH  16  17
ATOM     17  C   UNL     1       9.727 -16.266  -2.858  1.00  0.00    -0.003 C 
ATOM     18  C   UNL     1       9.794 -17.727  -2.425  1.00  0.00     0.004 C 
ENDBRANCH  16  17
ENDBRANCH  15  16
ENDBRANCH  14  15
ENDBRANCH  13  14
ENDBRANCH  12  13
ENDBRANCH  11  12
ENDBRANCH   1  11
TORSDOF 14
ENDMDL
