MODEL 1
REMARK VINA RESULT:    -5.549      0.000      0.000
REMARK INTER + INTRA:          -5.929
REMARK INTER:                  -6.035
REMARK INTRA:                   0.107
REMARK UNBOUND:                 0.107
REMARK SMILES C[C@@H]1[C@H](C)CC[C@]2(C(=O)[O-])CC[C@@]3(C)C(=CC[C@H]4[C@@]5(C)CC[C@H](O)C(C)(C)[C@@H]5CC[C@@]43C)[C@@H]12
REMARK SMILES IDX 7 1 6 2 11 3 33 4 5 5 12 6 15 7 2 8 3 9 13 10 16 11 1 12
REMARK SMILES IDX 4 13 14 14 31 15 17 16 18 17 30 18 32 19 19 20 29 21 28 22
REMARK SMILES IDX 21 23 20 24 25 25 22 26 23 27 26 28 27 29 8 30 9 31 10 32
REMARK SMILES IDX 24 33
REMARK H PARENT 24 34
REMARK Flexibility Score: inf
ROOT
ATOM      1  C   UNL     1      41.165  11.395 -11.963  1.00  0.00     0.017 C 
ATOM      2  C   UNL     1      42.222  11.108 -13.069  1.00  0.00     0.014 C 
ATOM      3  C   UNL     1      41.218  12.927 -11.613  1.00  0.00     0.014 C 
ATOM      4  C   UNL     1      41.484  10.576 -10.655  1.00  0.00     0.030 C 
ATOM      5  C   UNL     1      42.425   9.609 -13.304  1.00  0.00     0.004 C 
ATOM      6  C   UNL     1      41.001  13.278 -10.107  1.00  0.00     0.013 C 
ATOM      7  C   UNL     1      40.365  10.876  -9.636  1.00  0.00    -0.063 C 
ATOM      8  C   UNL     1      41.927   9.084 -10.856  1.00  0.00    -0.003 C 
ATOM      9  C   UNL     1      42.931   8.913 -12.035  1.00  0.00    -0.011 C 
ATOM     10  C   UNL     1      39.996  12.347  -9.361  1.00  0.00    -0.006 C 
ATOM     11  C   UNL     1      39.801   9.885  -8.885  1.00  0.00    -0.027 C 
ATOM     12  C   UNL     1      42.557   8.473  -9.565  1.00  0.00     0.008 C 
ATOM     13  C   UNL     1      44.373   9.363 -11.707  1.00  0.00     0.008 C 
ATOM     14  C   UNL     1      38.579  12.626 -10.007  1.00  0.00     0.017 C 
ATOM     15  C   UNL     1      40.022  12.548  -7.753  1.00  0.00    -0.020 C 
ATOM     16  C   UNL     1      39.332  10.105  -7.453  1.00  0.00     0.032 C 
ATOM     17  C   UNL     1      38.903  11.563  -7.206  1.00  0.00     0.006 C 
ATOM     18  C   UNL     1      39.686  13.977  -7.279  1.00  0.00     0.008 C 
ATOM     19  C   UNL     1      41.492  12.262  -7.242  1.00  0.00     0.012 C 
ATOM     20  C   UNL     1      38.185  11.964  -5.815  1.00  0.00    -0.025 C 
ATOM     21  C   UNL     1      39.606  14.125  -5.734  1.00  0.00     0.005 C 
ATOM     22  C   UNL     1      39.165  12.832  -4.962  1.00  0.00     0.003 C 
ATOM     23  C   UNL     1      37.817  10.676  -5.023  1.00  0.00     0.010 C 
ATOM     24  C   UNL     1      36.875  12.782  -6.139  1.00  0.00     0.012 C 
ATOM     25  C   UNL     1      38.807  13.053  -3.417  1.00  0.00    -0.006 C 
ATOM     26  C   UNL     1      37.301  10.966  -3.615  1.00  0.00     0.033 C 
ATOM     27  C   UNL     1      38.383  11.684  -2.788  1.00  0.00     0.120 C 
ATOM     28  C   UNL     1      40.087  13.523  -2.678  1.00  0.00     0.014 C 
ATOM     29  C   UNL     1      37.713  14.119  -3.151  1.00  0.00     0.014 C 
ENDROOT
BRANCH   1  30
ATOM     30  C   UNL     1      39.797  11.031 -12.549  1.00  0.00     0.048 C 
ATOM     31  O   UNL     1      39.317   9.869 -12.444  1.00  0.00    -0.550 OA
ATOM     32  O   UNL     1      39.073  11.979 -13.286  1.00  0.00    -0.550 OA
ENDBRANCH   1  30
BRANCH  27  33
ATOM     33  O   UNL     1      37.981  11.831  -1.445  1.00  0.00    -0.393 OA
ATOM     34  H   UNL     1      38.528  12.546  -1.018  1.00  0.00     0.210 HD
ENDBRANCH  27  33
TORSDOF 2
ENDMDL
MODEL 2
REMARK VINA RESULT:    -3.360      1.626      8.044
REMARK INTER + INTRA:          -3.548
REMARK INTER:                  -3.864
REMARK INTRA:                   0.317
REMARK UNBOUND:                 0.107
REMARK SMILES C[C@@H]1[C@H](C)CC[C@]2(C(=O)[O-])CC[C@@]3(C)C(=CC[C@H]4[C@@]5(C)CC[C@H](O)C(C)(C)[C@@H]5CC[C@@]43C)[C@@H]12
REMARK SMILES IDX 7 1 6 2 11 3 33 4 5 5 12 6 15 7 2 8 3 9 13 10 16 11 1 12
REMARK SMILES IDX 4 13 14 14 31 15 17 16 18 17 30 18 32 19 19 20 29 21 28 22
REMARK SMILES IDX 21 23 20 24 25 25 22 26 23 27 26 28 27 29 8 30 9 31 10 32
REMARK SMILES IDX 24 33
REMARK H PARENT 24 34
REMARK Flexibility Score: inf
ROOT
ATOM      1  C   UNL     1      39.271  12.027  -3.304  1.00  0.00     0.017 C 
ATOM      2  C   UNL     1      39.733  11.824  -1.832  1.00  0.00     0.014 C 
ATOM      3  C   UNL     1      38.869  10.627  -3.895  1.00  0.00     0.014 C 
ATOM      4  C   UNL     1      40.438  12.619  -4.183  1.00  0.00     0.030 C 
ATOM      5  C   UNL     1      40.379  13.082  -1.247  1.00  0.00     0.004 C 
ATOM      6  C   UNL     1      39.235  10.402  -5.396  1.00  0.00     0.013 C 
ATOM      7  C   UNL     1      39.882  12.838  -5.605  1.00  0.00    -0.063 C 
ATOM      8  C   UNL     1      41.290  13.766  -3.531  1.00  0.00    -0.003 C 
ATOM      9  C   UNL     1      41.630  13.482  -2.038  1.00  0.00    -0.011 C 
ATOM     10  C   UNL     1      39.132  11.678  -6.288  1.00  0.00    -0.006 C 
ATOM     11  C   UNL     1      40.159  13.974  -6.311  1.00  0.00    -0.027 C 
ATOM     12  C   UNL     1      42.617  14.033  -4.309  1.00  0.00     0.008 C 
ATOM     13  C   UNL     1      42.757  12.443  -1.834  1.00  0.00     0.008 C 
ATOM     14  C   UNL     1      37.595  12.052  -6.341  1.00  0.00     0.017 C 
ATOM     15  C   UNL     1      39.798  11.480  -7.752  1.00  0.00    -0.020 C 
ATOM     16  C   UNL     1      40.341  13.978  -7.823  1.00  0.00     0.032 C 
ATOM     17  C   UNL     1      39.535  12.855  -8.503  1.00  0.00     0.006 C 
ATOM     18  C   UNL     1      39.180  10.344  -8.591  1.00  0.00     0.008 C 
ATOM     19  C   UNL     1      41.319  11.091  -7.556  1.00  0.00     0.012 C 
ATOM     20  C   UNL     1      39.428  12.806 -10.114  1.00  0.00    -0.025 C 
ATOM     21  C   UNL     1      39.754  10.241 -10.032  1.00  0.00     0.005 C 
ATOM     22  C   UNL     1      40.257  11.593 -10.647  1.00  0.00     0.003 C 
ATOM     23  C   UNL     1      39.998  14.123 -10.719  1.00  0.00     0.010 C 
ATOM     24  C   UNL     1      37.911  12.648 -10.516  1.00  0.00     0.012 C 
ATOM     25  C   UNL     1      40.580  11.548 -12.215  1.00  0.00    -0.006 C 
ATOM     26  C   UNL     1      40.104  14.085 -12.242  1.00  0.00     0.033 C 
ATOM     27  C   UNL     1      41.061  12.961 -12.681  1.00  0.00     0.120 C 
ATOM     28  C   UNL     1      41.754  10.561 -12.447  1.00  0.00     0.014 C 
ATOM     29  C   UNL     1      39.403  11.070 -13.105  1.00  0.00     0.014 C 
ENDROOT
BRANCH   1  30
ATOM     30  C   UNL     1      38.054  12.957  -3.266  1.00  0.00     0.048 C 
ATOM     31  O   UNL     1      38.094  14.125  -3.742  1.00  0.00    -0.550 OA
ATOM     32  O   UNL     1      36.875  12.546  -2.626  1.00  0.00    -0.550 OA
ENDBRANCH   1  30
BRANCH  27  33
ATOM     33  O   UNL     1      41.287  13.002 -14.072  1.00  0.00    -0.393 OA
ATOM     34  H   UNL     1      42.205  13.351 -14.242  1.00  0.00     0.210 HD
ENDBRANCH  27  33
TORSDOF 2
ENDMDL
