MODEL 1
REMARK VINA RESULT:    -4.031      0.000      0.000
REMARK INTER + INTRA:          -7.594
REMARK INTER:                  -6.388
REMARK INTRA:                  -1.206
REMARK UNBOUND:                -1.206
REMARK SMILES CCCCCCCCCCCC(=O)[O-]
REMARK SMILES IDX 7 1 8 2 9 3 10 4 11 5 12 6 13 7 14 8 6 9 5 10 4 11 3 12 2 13
REMARK SMILES IDX 1 14
REMARK H PARENT
REMARK Flexibility Score: inf
ROOT
ATOM      1  C   UNL     1      23.209   7.274  13.836  1.00  0.00     0.000 C 
ENDROOT
BRANCH   1   2
ATOM      2  C   UNL     1      23.045   5.756  13.689  1.00  0.00     0.000 C 
BRANCH   2   3
ATOM      3  C   UNL     1      23.352   5.038  15.009  1.00  0.00     0.000 C 
BRANCH   3   4
ATOM      4  C   UNL     1      24.358   3.901  14.795  1.00  0.00     0.006 C 
BRANCH   4   5
ATOM      5  C   UNL     1      24.713   3.755  13.311  1.00  0.00     0.053 C 
BRANCH   5   6
ATOM      6  C   UNL     1      26.005   3.018  13.152  1.00  0.00     0.041 C 
ATOM      7  O   UNL     1      26.793   3.317  12.215  1.00  0.00    -0.550 OA
ATOM      8  O   UNL     1      26.364   2.037  14.067  1.00  0.00    -0.550 OA
ENDBRANCH   5   6
ENDBRANCH   4   5
ENDBRANCH   3   4
ENDBRANCH   2   3
ENDBRANCH   1   2
BRANCH   1   9
ATOM      9  C   UNL     1      24.091   7.618  15.045  1.00  0.00     0.000 C 
BRANCH   9  10
ATOM     10  C   UNL     1      25.506   8.065  14.640  1.00  0.00    -0.000 C 
BRANCH  10  11
ATOM     11  C   UNL     1      26.566   6.982  14.907  1.00  0.00    -0.000 C 
BRANCH  11  12
ATOM     12  C   UNL     1      27.286   6.523  13.626  1.00  0.00    -0.000 C 
BRANCH  12  13
ATOM     13  C   UNL     1      28.483   7.394  13.205  1.00  0.00    -0.003 C 
ATOM     14  C   UNL     1      28.211   8.218  11.948  1.00  0.00     0.004 C 
ENDBRANCH  12  13
ENDBRANCH  11  12
ENDBRANCH  10  11
ENDBRANCH   9  10
ENDBRANCH   1   9
TORSDOF 10
ENDMDL
MODEL 2
REMARK VINA RESULT:    -3.944      2.349      3.513
REMARK INTER + INTRA:          -7.455
REMARK INTER:                  -6.518
REMARK INTRA:                  -0.937
REMARK UNBOUND:                -1.206
REMARK SMILES CCCCCCCCCCCC(=O)[O-]
REMARK SMILES IDX 7 1 8 2 9 3 10 4 11 5 12 6 13 7 14 8 6 9 5 10 4 11 3 12 2 13
REMARK SMILES IDX 1 14
REMARK H PARENT
REMARK Flexibility Score: inf
ROOT
ATOM      1  C   UNL     1      23.182   5.604  14.859  1.00  0.00     0.000 C 
ENDROOT
BRANCH   1   2
ATOM      2  C   UNL     1      24.574   4.974  14.722  1.00  0.00     0.000 C 
BRANCH   2   3
ATOM      3  C   UNL     1      24.474   3.476  14.413  1.00  0.00     0.000 C 
BRANCH   3   4
ATOM      4  C   UNL     1      25.246   3.125  13.136  1.00  0.00     0.006 C 
BRANCH   4   5
ATOM      5  C   UNL     1      26.506   2.317  13.461  1.00  0.00     0.053 C 
BRANCH   5   6
ATOM      6  C   UNL     1      27.720   2.989  12.902  1.00  0.00     0.041 C 
ATOM      7  O   UNL     1      27.843   4.240  12.980  1.00  0.00    -0.550 OA
ATOM      8  O   UNL     1      28.738   2.230  12.340  1.00  0.00    -0.550 OA
ENDBRANCH   5   6
ENDBRANCH   4   5
ENDBRANCH   3   4
ENDBRANCH   2   3
ENDBRANCH   1   2
BRANCH   1   9
ATOM      9  C   UNL     1      22.989   6.736  13.839  1.00  0.00     0.000 C 
BRANCH   9  10
ATOM     10  C   UNL     1      24.110   7.786  13.896  1.00  0.00    -0.000 C 
BRANCH  10  11
ATOM     11  C   UNL     1      23.733   9.006  14.754  1.00  0.00    -0.000 C 
BRANCH  11  12
ATOM     12  C   UNL     1      24.569   9.110  16.044  1.00  0.00    -0.000 C 
BRANCH  12  13
ATOM     13  C   UNL     1      24.013   8.325  17.244  1.00  0.00    -0.003 C 
ATOM     14  C   UNL     1      22.491   8.400  17.357  1.00  0.00     0.004 C 
ENDBRANCH  12  13
ENDBRANCH  11  12
ENDBRANCH  10  11
ENDBRANCH   9  10
ENDBRANCH   1   9
TORSDOF 10
ENDMDL
MODEL 3
REMARK VINA RESULT:    -3.890      9.538     10.701
REMARK INTER + INTRA:          -7.371
REMARK INTER:                  -6.913
REMARK INTRA:                  -0.457
REMARK UNBOUND:                -1.206
REMARK SMILES CCCCCCCCCCCC(=O)[O-]
REMARK SMILES IDX 7 1 8 2 9 3 10 4 11 5 12 6 13 7 14 8 6 9 5 10 4 11 3 12 2 13
REMARK SMILES IDX 1 14
REMARK H PARENT
REMARK Flexibility Score: inf
ROOT
ATOM      1  C   UNL     1      21.377   5.403   6.085  1.00  0.00     0.000 C 
ENDROOT
BRANCH   1   2
ATOM      2  C   UNL     1      21.541   5.507   4.563  1.00  0.00     0.000 C 
BRANCH   2   3
ATOM      3  C   UNL     1      20.220   5.209   3.844  1.00  0.00     0.000 C 
BRANCH   3   4
ATOM      4  C   UNL     1      20.122   5.990   2.528  1.00  0.00     0.006 C 
BRANCH   4   5
ATOM      5  C   UNL     1      20.002   7.494   2.790  1.00  0.00     0.053 C 
BRANCH   5   6
ATOM      6  C   UNL     1      18.578   7.868   3.055  1.00  0.00     0.041 C 
ATOM      7  O   UNL     1      17.763   7.971   2.100  1.00  0.00    -0.550 OA
ATOM      8  O   UNL     1      18.139   8.054   4.359  1.00  0.00    -0.550 OA
ENDBRANCH   5   6
ENDBRANCH   4   5
ENDBRANCH   3   4
ENDBRANCH   2   3
ENDBRANCH   1   2
BRANCH   1   9
ATOM      9  C   UNL     1      22.620   5.940   6.810  1.00  0.00     0.000 C 
BRANCH   9  10
ATOM     10  C   UNL     1      23.932   5.553   6.106  1.00  0.00    -0.000 C 
BRANCH  10  11
ATOM     11  C   UNL     1      24.381   4.120   6.440  1.00  0.00    -0.000 C 
BRANCH  11  12
ATOM     12  C   UNL     1      25.889   4.020   6.735  1.00  0.00    -0.000 C 
BRANCH  12  13
ATOM     13  C   UNL     1      26.264   3.080   7.893  1.00  0.00    -0.003 C 
ATOM     14  C   UNL     1      26.644   1.675   7.427  1.00  0.00     0.004 C 
ENDBRANCH  12  13
ENDBRANCH  11  12
ENDBRANCH  10  11
ENDBRANCH   9  10
ENDBRANCH   1   9
TORSDOF 10
ENDMDL
MODEL 4
REMARK VINA RESULT:    -3.822      9.816     11.058
REMARK INTER + INTRA:          -7.262
REMARK INTER:                  -6.656
REMARK INTRA:                  -0.605
REMARK UNBOUND:                -1.206
REMARK SMILES CCCCCCCCCCCC(=O)[O-]
REMARK SMILES IDX 7 1 8 2 9 3 10 4 11 5 12 6 13 7 14 8 6 9 5 10 4 11 3 12 2 13
REMARK SMILES IDX 1 14
REMARK H PARENT
REMARK Flexibility Score: inf
ROOT
ATOM      1  C   UNL     1      20.064   7.179   3.100  1.00  0.00     0.000 C 
ENDROOT
BRANCH   1   2
ATOM      2  C   UNL     1      18.748   7.788   3.601  1.00  0.00     0.000 C 
BRANCH   2   3
ATOM      3  C   UNL     1      18.355   7.209   4.965  1.00  0.00     0.000 C 
BRANCH   3   4
ATOM      4  C   UNL     1      17.254   8.049   5.622  1.00  0.00     0.006 C 
BRANCH   4   5
ATOM      5  C   UNL     1      17.581   8.331   7.091  1.00  0.00     0.053 C 
BRANCH   5   6
ATOM      6  C   UNL     1      16.409   8.009   7.962  1.00  0.00     0.041 C 
ATOM      7  O   UNL     1      15.653   7.043   7.673  1.00  0.00    -0.550 OA
ATOM      8  O   UNL     1      16.178   8.742   9.119  1.00  0.00    -0.550 OA
ENDBRANCH   5   6
ENDBRANCH   4   5
ENDBRANCH   3   4
ENDBRANCH   2   3
ENDBRANCH   1   2
BRANCH   1   9
ATOM      9  C   UNL     1      20.232   5.740   3.609  1.00  0.00     0.000 C 
BRANCH   9  10
ATOM     10  C   UNL     1      21.567   5.519   4.339  1.00  0.00    -0.000 C 
BRANCH  10  11
ATOM     11  C   UNL     1      21.405   5.485   5.869  1.00  0.00    -0.000 C 
BRANCH  11  12
ATOM     12  C   UNL     1      22.740   5.657   6.615  1.00  0.00    -0.000 C 
BRANCH  12  13
ATOM     13  C   UNL     1      23.987   5.702   5.715  1.00  0.00    -0.003 C 
ATOM     14  C   UNL     1      25.063   4.700   6.130  1.00  0.00     0.004 C 
ENDBRANCH  12  13
ENDBRANCH  11  12
ENDBRANCH  10  11
ENDBRANCH   9  10
ENDBRANCH   1   9
TORSDOF 10
ENDMDL
MODEL 5
REMARK VINA RESULT:    -3.805      8.256      9.695
REMARK INTER + INTRA:          -7.235
REMARK INTER:                  -6.736
REMARK INTRA:                  -0.499
REMARK UNBOUND:                -1.206
REMARK SMILES CCCCCCCCCCCC(=O)[O-]
REMARK SMILES IDX 7 1 8 2 9 3 10 4 11 5 12 6 13 7 14 8 6 9 5 10 4 11 3 12 2 13
REMARK SMILES IDX 1 14
REMARK H PARENT
REMARK Flexibility Score: inf
ROOT
ATOM      1  C   UNL     1      22.659   4.852   5.926  1.00  0.00     0.000 C 
ENDROOT
BRANCH   1   2
ATOM      2  C   UNL     1      23.868   5.730   5.579  1.00  0.00     0.000 C 
BRANCH   2   3
ATOM      3  C   UNL     1      25.179   4.950   5.736  1.00  0.00     0.000 C 
BRANCH   3   4
ATOM      4  C   UNL     1      25.136   4.047   6.973  1.00  0.00     0.006 C 
BRANCH   4   5
ATOM      5  C   UNL     1      26.339   3.099   7.003  1.00  0.00     0.053 C 
BRANCH   5   6
ATOM      6  C   UNL     1      26.596   2.621   8.397  1.00  0.00     0.041 C 
ATOM      7  O   UNL     1      26.141   1.511   8.780  1.00  0.00    -0.550 OA
ATOM      8  O   UNL     1      27.381   3.378   9.258  1.00  0.00    -0.550 OA
ENDBRANCH   5   6
ENDBRANCH   4   5
ENDBRANCH   3   4
ENDBRANCH   2   3
ENDBRANCH   1   2
BRANCH   1   9
ATOM      9  C   UNL     1      21.536   5.030   4.894  1.00  0.00     0.000 C 
BRANCH   9  10
ATOM     10  C   UNL     1      20.164   5.272   5.545  1.00  0.00    -0.000 C 
BRANCH  10  11
ATOM     11  C   UNL     1      19.435   6.489   4.949  1.00  0.00    -0.000 C 
BRANCH  11  12
ATOM     12  C   UNL     1      18.503   6.116   3.782  1.00  0.00    -0.000 C 
BRANCH  12  13
ATOM     13  C   UNL     1      18.968   6.600   2.397  1.00  0.00    -0.003 C 
ATOM     14  C   UNL     1      20.232   7.457   2.456  1.00  0.00     0.004 C 
ENDBRANCH  12  13
ENDBRANCH  11  12
ENDBRANCH  10  11
ENDBRANCH   9  10
ENDBRANCH   1   9
TORSDOF 10
ENDMDL
MODEL 6
REMARK VINA RESULT:    -3.803      3.107      5.308
REMARK INTER + INTRA:          -7.232
REMARK INTER:                  -6.241
REMARK INTRA:                  -0.990
REMARK UNBOUND:                -1.206
REMARK SMILES CCCCCCCCCCCC(=O)[O-]
REMARK SMILES IDX 7 1 8 2 9 3 10 4 11 5 12 6 13 7 14 8 6 9 5 10 4 11 3 12 2 13
REMARK SMILES IDX 1 14
REMARK H PARENT
REMARK Flexibility Score: inf
ROOT
ATOM      1  C   UNL     1      25.392   8.262  15.230  1.00  0.00     0.000 C 
ENDROOT
BRANCH   1   2
ATOM      2  C   UNL     1      25.959   7.985  13.831  1.00  0.00     0.000 C 
BRANCH   2   3
ATOM      3  C   UNL     1      27.059   6.918  13.884  1.00  0.00     0.000 C 
BRANCH   3   4
ATOM      4  C   UNL     1      28.384   7.467  13.344  1.00  0.00     0.006 C 
BRANCH   4   5
ATOM      5  C   UNL     1      28.178   8.174  12.000  1.00  0.00     0.053 C 
BRANCH   5   6
ATOM      6  C   UNL     1      28.737   9.561  12.046  1.00  0.00     0.041 C 
ATOM      7  O   UNL     1      27.963  10.553  12.112  1.00  0.00    -0.550 OA
ATOM      8  O   UNL     1      30.112   9.757  12.068  1.00  0.00    -0.550 OA
ENDBRANCH   5   6
ENDBRANCH   4   5
ENDBRANCH   3   4
ENDBRANCH   2   3
ENDBRANCH   1   2
BRANCH   1   9
ATOM      9  C   UNL     1      23.925   7.819  15.326  1.00  0.00     0.000 C 
BRANCH   9  10
ATOM     10  C   UNL     1      23.314   7.484  13.955  1.00  0.00    -0.000 C 
BRANCH  10  11
ATOM     11  C   UNL     1      22.965   5.992  13.813  1.00  0.00    -0.000 C 
BRANCH  11  12
ATOM     12  C   UNL     1      23.260   5.186  15.092  1.00  0.00    -0.000 C 
BRANCH  12  13
ATOM     13  C   UNL     1      24.013   3.863  14.867  1.00  0.00    -0.003 C 
ATOM     14  C   UNL     1      25.065   3.952  13.762  1.00  0.00     0.004 C 
ENDBRANCH  12  13
ENDBRANCH  11  12
ENDBRANCH  10  11
ENDBRANCH   9  10
ENDBRANCH   1   9
TORSDOF 10
ENDMDL
MODEL 7
REMARK VINA RESULT:    -3.757      3.232      5.120
REMARK INTER + INTRA:          -7.159
REMARK INTER:                  -6.641
REMARK INTRA:                  -0.518
REMARK UNBOUND:                -1.206
REMARK SMILES CCCCCCCCCCCC(=O)[O-]
REMARK SMILES IDX 7 1 8 2 9 3 10 4 11 5 12 6 13 7 14 8 6 9 5 10 4 11 3 12 2 13
REMARK SMILES IDX 1 14
REMARK H PARENT
REMARK Flexibility Score: inf
ROOT
ATOM      1  C   UNL     1      23.686   7.340  16.036  1.00  0.00     0.000 C 
ENDROOT
BRANCH   1   2
ATOM      2  C   UNL     1      23.169   7.148  14.604  1.00  0.00     0.000 C 
BRANCH   2   3
ATOM      3  C   UNL     1      23.194   5.668  14.202  1.00  0.00     0.000 C 
BRANCH   3   4
ATOM      4  C   UNL     1      24.330   4.925  14.914  1.00  0.00     0.006 C 
BRANCH   4   5
ATOM      5  C   UNL     1      24.439   3.480  14.415  1.00  0.00     0.053 C 
BRANCH   5   6
ATOM      6  C   UNL     1      25.511   3.363  13.379  1.00  0.00     0.041 C 
ATOM      7  O   UNL     1      25.427   2.488  12.477  1.00  0.00    -0.550 OA
ATOM      8  O   UNL     1      26.579   4.252  13.379  1.00  0.00    -0.550 OA
ENDBRANCH   5   6
ENDBRANCH   4   5
ENDBRANCH   3   4
ENDBRANCH   2   3
ENDBRANCH   1   2
BRANCH   1   9
ATOM      9  C   UNL     1      23.153   8.646  16.643  1.00  0.00     0.000 C 
BRANCH   9  10
ATOM     10  C   UNL     1      22.420   8.426  17.976  1.00  0.00    -0.000 C 
BRANCH  10  11
ATOM     11  C   UNL     1      21.310   9.463  18.217  1.00  0.00    -0.000 C 
BRANCH  11  12
ATOM     12  C   UNL     1      20.990  10.298  16.964  1.00  0.00    -0.000 C 
BRANCH  12  13
ATOM     13  C   UNL     1      21.052  11.822  17.164  1.00  0.00    -0.003 C 
ATOM     14  C   UNL     1      20.217  12.306  18.349  1.00  0.00     0.004 C 
ENDBRANCH  12  13
ENDBRANCH  11  12
ENDBRANCH  10  11
ENDBRANCH   9  10
ENDBRANCH   1   9
TORSDOF 10
ENDMDL
MODEL 8
REMARK VINA RESULT:    -3.749     10.080     12.215
REMARK INTER + INTRA:          -7.146
REMARK INTER:                  -6.312
REMARK INTRA:                  -0.834
REMARK UNBOUND:                -1.206
REMARK SMILES CCCCCCCCCCCC(=O)[O-]
REMARK SMILES IDX 7 1 8 2 9 3 10 4 11 5 12 6 13 7 14 8 6 9 5 10 4 11 3 12 2 13
REMARK SMILES IDX 1 14
REMARK H PARENT
REMARK Flexibility Score: inf
ROOT
ATOM      1  C   UNL     1      18.537  10.450  10.763  1.00  0.00     0.000 C 
ENDROOT
BRANCH   1   2
ATOM      2  C   UNL     1      19.140  11.854  10.627  1.00  0.00     0.000 C 
BRANCH   2   3
ATOM      3  C   UNL     1      19.617  12.384  11.985  1.00  0.00     0.000 C 
BRANCH   3   4
ATOM      4  C   UNL     1      18.828  13.632  12.396  1.00  0.00     0.006 C 
BRANCH   4   5
ATOM      5  C   UNL     1      19.048  13.958  13.877  1.00  0.00     0.053 C 
BRANCH   5   6
ATOM      6  C   UNL     1      17.990  14.893  14.371  1.00  0.00     0.041 C 
ATOM      7  O   UNL     1      17.012  14.450  15.030  1.00  0.00    -0.550 OA
ATOM      8  O   UNL     1      18.109  16.258  14.148  1.00  0.00    -0.550 OA
ENDBRANCH   5   6
ENDBRANCH   4   5
ENDBRANCH   3   4
ENDBRANCH   2   3
ENDBRANCH   1   2
BRANCH   1   9
ATOM      9  C   UNL     1      18.285   9.824   9.384  1.00  0.00     0.000 C 
BRANCH   9  10
ATOM     10  C   UNL     1      16.826   9.379   9.190  1.00  0.00    -0.000 C 
BRANCH  10  11
ATOM     11  C   UNL     1      15.828  10.293   9.922  1.00  0.00    -0.000 C 
BRANCH  11  12
ATOM     12  C   UNL     1      14.994  11.158   8.960  1.00  0.00    -0.000 C 
BRANCH  12  13
ATOM     13  C   UNL     1      14.663  12.570   9.477  1.00  0.00    -0.003 C 
ATOM     14  C   UNL     1      15.746  13.143  10.389  1.00  0.00     0.004 C 
ENDBRANCH  12  13
ENDBRANCH  11  12
ENDBRANCH  10  11
ENDBRANCH   9  10
ENDBRANCH   1   9
TORSDOF 10
ENDMDL
MODEL 9
REMARK VINA RESULT:    -3.722      4.493      6.588
REMARK INTER + INTRA:          -7.104
REMARK INTER:                  -6.010
REMARK INTRA:                  -1.093
REMARK UNBOUND:                -1.206
REMARK SMILES CCCCCCCCCCCC(=O)[O-]
REMARK SMILES IDX 7 1 8 2 9 3 10 4 11 5 12 6 13 7 14 8 6 9 5 10 4 11 3 12 2 13
REMARK SMILES IDX 1 14
REMARK H PARENT
REMARK Flexibility Score: inf
ROOT
ATOM      1  C   UNL     1      22.495   7.991  17.320  1.00  0.00     0.000 C 
ENDROOT
BRANCH   1   2
ATOM      2  C   UNL     1      21.793   9.003  18.235  1.00  0.00     0.000 C 
BRANCH   2   3
ATOM      3  C   UNL     1      21.840  10.414  17.636  1.00  0.00     0.000 C 
BRANCH   3   4
ATOM      4  C   UNL     1      20.671  10.639  16.670  1.00  0.00     0.006 C 
BRANCH   4   5
ATOM      5  C   UNL     1      21.021  11.700  15.622  1.00  0.00     0.053 C 
BRANCH   5   6
ATOM      6  C   UNL     1      21.752  11.081  14.473  1.00  0.00     0.041 C 
ATOM      7  O   UNL     1      21.113  10.510  13.550  1.00  0.00    -0.550 OA
ATOM      8  O   UNL     1      23.136  11.179  14.395  1.00  0.00    -0.550 OA
ENDBRANCH   5   6
ENDBRANCH   4   5
ENDBRANCH   3   4
ENDBRANCH   2   3
ENDBRANCH   1   2
BRANCH   1   9
ATOM      9  C   UNL     1      23.821   8.557  16.791  1.00  0.00     0.000 C 
BRANCH   9  10
ATOM     10  C   UNL     1      24.321   7.824  15.535  1.00  0.00    -0.000 C 
BRANCH  10  11
ATOM     11  C   UNL     1      23.209   7.614  14.492  1.00  0.00    -0.000 C 
BRANCH  11  12
ATOM     12  C   UNL     1      23.115   6.157  14.003  1.00  0.00    -0.000 C 
BRANCH  12  13
ATOM     13  C   UNL     1      23.242   5.092  15.106  1.00  0.00    -0.003 C 
ATOM     14  C   UNL     1      24.193   3.955  14.735  1.00  0.00     0.004 C 
ENDBRANCH  12  13
ENDBRANCH  11  12
ENDBRANCH  10  11
ENDBRANCH   9  10
ENDBRANCH   1   9
TORSDOF 10
ENDMDL
