MODEL 1
REMARK VINA RESULT:    -3.838      0.000      0.000
REMARK INTER + INTRA:          -8.138
REMARK INTER:                  -6.979
REMARK INTRA:                  -1.159
REMARK UNBOUND:                -1.159
REMARK SMILES CCCCCCCCCCCCCCCC(=O)[O-]
REMARK SMILES IDX 9 1 10 2 11 3 12 4 13 5 14 6 15 7 16 8 17 9 18 10 8 11 7 12
REMARK SMILES IDX 6 13 5 14 4 15 3 16 2 17 1 18
REMARK H PARENT
REMARK Flexibility Score: inf
ROOT
ATOM      1  C   UNL     1      12.505   1.753 -18.995  1.00  0.00     0.000 C 
ENDROOT
BRANCH   1   2
ATOM      2  C   UNL     1      13.030   3.203 -19.051  1.00  0.00     0.000 C 
BRANCH   2   3
ATOM      3  C   UNL     1      13.305   3.740 -20.466  1.00  0.00     0.000 C 
BRANCH   3   4
ATOM      4  C   UNL     1      13.476   5.269 -20.500  1.00  0.00     0.000 C 
BRANCH   4   5
ATOM      5  C   UNL     1      14.947   5.699 -20.411  1.00  0.00     0.000 C 
BRANCH   5   6
ATOM      6  C   UNL     1      15.625   5.775 -21.787  1.00  0.00     0.006 C 
BRANCH   6   7
ATOM      7  C   UNL     1      17.148   5.829 -21.647  1.00  0.00     0.053 C 
BRANCH   7   8
ATOM      8  C   UNL     1      17.808   5.262 -22.864  1.00  0.00     0.041 C 
ATOM      9  O   UNL     1      17.120   4.693 -23.752  1.00  0.00    -0.550 OA
ATOM     10  O   UNL     1      19.190   5.315 -22.994  1.00  0.00    -0.550 OA
ENDBRANCH   7   8
ENDBRANCH   6   7
ENDBRANCH   5   6
ENDBRANCH   4   5
ENDBRANCH   3   4
ENDBRANCH   2   3
ENDBRANCH   1   2
BRANCH   1  11
ATOM     11  C   UNL     1      12.437   1.136 -17.586  1.00  0.00     0.000 C 
BRANCH  11  12
ATOM     12  C   UNL     1      11.339   0.071 -17.452  1.00  0.00    -0.000 C 
BRANCH  12  13
ATOM     13  C   UNL     1      10.307   0.202 -18.579  1.00  0.00    -0.000 C 
BRANCH  13  14
ATOM     14  C   UNL     1      10.004  -1.166 -19.209  1.00  0.00    -0.000 C 
BRANCH  14  15
ATOM     15  C   UNL     1      11.207  -1.751 -19.966  1.00  0.00    -0.000 C 
BRANCH  15  16
ATOM     16  C   UNL     1      11.355  -1.167 -21.382  1.00  0.00    -0.000 C 
BRANCH  16  17
ATOM     17  C   UNL     1      12.813  -1.164 -21.868  1.00  0.00    -0.003 C 
ATOM     18  C   UNL     1      13.817  -1.003 -20.727  1.00  0.00     0.004 C 
ENDBRANCH  16  17
ENDBRANCH  15  16
ENDBRANCH  14  15
ENDBRANCH  13  14
ENDBRANCH  12  13
ENDBRANCH  11  12
ENDBRANCH   1  11
TORSDOF 14
ENDMDL
MODEL 2
REMARK VINA RESULT:    -3.750      0.805      2.619
REMARK INTER + INTRA:          -7.978
REMARK INTER:                  -6.904
REMARK INTRA:                  -1.074
REMARK UNBOUND:                -1.159
REMARK SMILES CCCCCCCCCCCCCCCC(=O)[O-]
REMARK SMILES IDX 9 1 10 2 11 3 12 4 13 5 14 6 15 7 16 8 17 9 18 10 8 11 7 12
REMARK SMILES IDX 6 13 5 14 4 15 3 16 2 17 1 18
REMARK H PARENT
REMARK Flexibility Score: inf
ROOT
ATOM      1  C   UNL     1      12.773   1.099 -20.825  1.00  0.00     0.000 C 
ENDROOT
BRANCH   1   2
ATOM      2  C   UNL     1      13.481   2.450 -21.062  1.00  0.00     0.000 C 
BRANCH   2   3
ATOM      3  C   UNL     1      13.171   3.537 -20.018  1.00  0.00     0.000 C 
BRANCH   3   4
ATOM      4  C   UNL     1      13.333   4.961 -20.576  1.00  0.00     0.000 C 
BRANCH   4   5
ATOM      5  C   UNL     1      14.743   5.527 -20.347  1.00  0.00     0.000 C 
BRANCH   5   6
ATOM      6  C   UNL     1      15.440   5.923 -21.657  1.00  0.00     0.006 C 
BRANCH   6   7
ATOM      7  C   UNL     1      16.958   5.764 -21.541  1.00  0.00     0.053 C 
BRANCH   7   8
ATOM      8  C   UNL     1      17.520   5.155 -22.787  1.00  0.00     0.041 C 
ATOM      9  O   UNL     1      18.752   5.236 -23.033  1.00  0.00    -0.550 OA
ATOM     10  O   UNL     1      16.674   4.543 -23.703  1.00  0.00    -0.550 OA
ENDBRANCH   7   8
ENDBRANCH   6   7
ENDBRANCH   5   6
ENDBRANCH   4   5
ENDBRANCH   3   4
ENDBRANCH   2   3
ENDBRANCH   1   2
BRANCH   1  11
ATOM     11  C   UNL     1      13.702  -0.128 -20.786  1.00  0.00     0.000 C 
BRANCH  11  12
ATOM     12  C   UNL     1      12.937  -1.458 -20.842  1.00  0.00    -0.000 C 
BRANCH  12  13
ATOM     13  C   UNL     1      11.431  -1.219 -20.999  1.00  0.00    -0.000 C 
BRANCH  13  14
ATOM     14  C   UNL     1      10.673  -1.641 -19.731  1.00  0.00    -0.000 C 
BRANCH  14  15
ATOM     15  C   UNL     1      10.126  -0.442 -18.939  1.00  0.00    -0.000 C 
BRANCH  15  16
ATOM     16  C   UNL     1      10.905  -0.190 -17.636  1.00  0.00    -0.000 C 
BRANCH  16  17
ATOM     17  C   UNL     1      11.872   0.999 -17.751  1.00  0.00    -0.003 C 
ATOM     18  C   UNL     1      12.913   1.026 -16.632  1.00  0.00     0.004 C 
ENDBRANCH  16  17
ENDBRANCH  15  16
ENDBRANCH  14  15
ENDBRANCH  13  14
ENDBRANCH  12  13
ENDBRANCH  11  12
ENDBRANCH   1  11
TORSDOF 14
ENDMDL
MODEL 3
REMARK VINA RESULT:    -3.733      2.440      7.126
REMARK INTER + INTRA:          -7.947
REMARK INTER:                  -6.988
REMARK INTRA:                  -0.959
REMARK UNBOUND:                -1.159
REMARK SMILES CCCCCCCCCCCCCCCC(=O)[O-]
REMARK SMILES IDX 9 1 10 2 11 3 12 4 13 5 14 6 15 7 16 8 17 9 18 10 8 11 7 12
REMARK SMILES IDX 6 13 5 14 4 15 3 16 2 17 1 18
REMARK H PARENT
REMARK Flexibility Score: inf
ROOT
ATOM      1  C   UNL     1      12.561   1.631 -18.897  1.00  0.00     0.000 C 
ENDROOT
BRANCH   1   2
ATOM      2  C   UNL     1      12.450   1.045 -17.474  1.00  0.00     0.000 C 
BRANCH   2   3
ATOM      3  C   UNL     1      11.186   0.208 -17.213  1.00  0.00     0.000 C 
BRANCH   3   4
ATOM      4  C   UNL     1      10.272   0.109 -18.446  1.00  0.00     0.000 C 
BRANCH   4   5
ATOM      5  C   UNL     1      10.170  -1.323 -18.992  1.00  0.00     0.000 C 
BRANCH   5   6
ATOM      6  C   UNL     1      10.853  -1.484 -20.358  1.00  0.00     0.006 C 
BRANCH   6   7
ATOM      7  C   UNL     1      12.353  -1.745 -20.195  1.00  0.00     0.053 C 
BRANCH   7   8
ATOM      8  C   UNL     1      13.116  -1.149 -21.336  1.00  0.00     0.041 C 
ATOM      9  O   UNL     1      14.056  -0.341 -21.117  1.00  0.00    -0.550 OA
ATOM     10  O   UNL     1      12.755  -1.446 -22.644  1.00  0.00    -0.550 OA
ENDBRANCH   7   8
ENDBRANCH   6   7
ENDBRANCH   5   6
ENDBRANCH   4   5
ENDBRANCH   3   4
ENDBRANCH   2   3
ENDBRANCH   1   2
BRANCH   1  11
ATOM     11  C   UNL     1      12.864   3.138 -18.962  1.00  0.00     0.000 C 
BRANCH  11  12
ATOM     12  C   UNL     1      13.391   3.584 -20.334  1.00  0.00    -0.000 C 
BRANCH  12  13
ATOM     13  C   UNL     1      13.350   5.111 -20.468  1.00  0.00    -0.000 C 
BRANCH  13  14
ATOM     14  C   UNL     1      14.762   5.709 -20.370  1.00  0.00    -0.000 C 
BRANCH  14  15
ATOM     15  C   UNL     1      15.478   5.768 -21.729  1.00  0.00    -0.000 C 
BRANCH  15  16
ATOM     16  C   UNL     1      17.008   5.671 -21.595  1.00  0.00    -0.000 C 
BRANCH  16  17
ATOM     17  C   UNL     1      17.663   4.991 -22.808  1.00  0.00    -0.003 C 
ATOM     18  C   UNL     1      16.677   4.734 -23.946  1.00  0.00     0.004 C 
ENDBRANCH  16  17
ENDBRANCH  15  16
ENDBRANCH  14  15
ENDBRANCH  13  14
ENDBRANCH  12  13
ENDBRANCH  11  12
ENDBRANCH   1  11
TORSDOF 14
ENDMDL
MODEL 4
REMARK VINA RESULT:    -3.599      3.178      7.137
REMARK INTER + INTRA:          -7.703
REMARK INTER:                  -6.569
REMARK INTRA:                  -1.134
REMARK UNBOUND:                -1.159
REMARK SMILES CCCCCCCCCCCCCCCC(=O)[O-]
REMARK SMILES IDX 9 1 10 2 11 3 12 4 13 5 14 6 15 7 16 8 17 9 18 10 8 11 7 12
REMARK SMILES IDX 6 13 5 14 4 15 3 16 2 17 1 18
REMARK H PARENT
REMARK Flexibility Score: inf
ROOT
ATOM      1  C   UNL     1      13.268  -1.416 -21.107  1.00  0.00     0.000 C 
ENDROOT
BRANCH   1   2
ATOM      2  C   UNL     1      12.062  -1.406 -22.070  1.00  0.00     0.000 C 
BRANCH   2   3
ATOM      3  C   UNL     1      10.723  -1.825 -21.439  1.00  0.00     0.000 C 
BRANCH   3   4
ATOM      4  C   UNL     1      10.771  -1.848 -19.901  1.00  0.00     0.000 C 
BRANCH   4   5
ATOM      5  C   UNL     1       9.989  -0.687 -19.269  1.00  0.00     0.000 C 
BRANCH   5   6
ATOM      6  C   UNL     1      10.578  -0.243 -17.922  1.00  0.00     0.006 C 
BRANCH   6   7
ATOM      7  C   UNL     1      11.491   0.974 -18.097  1.00  0.00     0.053 C 
BRANCH   7   8
ATOM      8  C   UNL     1      12.462   1.069 -16.963  1.00  0.00     0.041 C 
ATOM      9  O   UNL     1      12.375   0.281 -15.985  1.00  0.00    -0.550 OA
ATOM     10  O   UNL     1      13.432   2.063 -16.960  1.00  0.00    -0.550 OA
ENDBRANCH   7   8
ENDBRANCH   6   7
ENDBRANCH   5   6
ENDBRANCH   4   5
ENDBRANCH   3   4
ENDBRANCH   2   3
ENDBRANCH   1   2
BRANCH   1  11
ATOM     11  C   UNL     1      13.884  -0.037 -20.816  1.00  0.00     0.000 C 
BRANCH  11  12
ATOM     12  C   UNL     1      12.863   1.106 -20.912  1.00  0.00    -0.000 C 
BRANCH  12  13
ATOM     13  C   UNL     1      13.562   2.446 -21.175  1.00  0.00    -0.000 C 
BRANCH  13  14
ATOM     14  C   UNL     1      13.229   3.464 -20.074  1.00  0.00    -0.000 C 
BRANCH  14  15
ATOM     15  C   UNL     1      13.339   4.919 -20.557  1.00  0.00    -0.000 C 
BRANCH  15  16
ATOM     16  C   UNL     1      14.752   5.499 -20.372  1.00  0.00    -0.000 C 
BRANCH  16  17
ATOM     17  C   UNL     1      15.545   5.546 -21.687  1.00  0.00    -0.003 C 
ATOM     18  C   UNL     1      17.051   5.678 -21.467  1.00  0.00     0.004 C 
ENDBRANCH  16  17
ENDBRANCH  15  16
ENDBRANCH  14  15
ENDBRANCH  13  14
ENDBRANCH  12  13
ENDBRANCH  11  12
ENDBRANCH   1  11
TORSDOF 14
ENDMDL
MODEL 5
REMARK VINA RESULT:    -3.294      1.220      3.385
REMARK INTER + INTRA:          -7.149
REMARK INTER:                  -5.651
REMARK INTRA:                  -1.498
REMARK UNBOUND:                -1.159
REMARK SMILES CCCCCCCCCCCCCCCC(=O)[O-]
REMARK SMILES IDX 9 1 10 2 11 3 12 4 13 5 14 6 15 7 16 8 17 9 18 10 8 11 7 12
REMARK SMILES IDX 6 13 5 14 4 15 3 16 2 17 1 18
REMARK H PARENT
REMARK Flexibility Score: inf
ROOT
ATOM      1  C   UNL     1      13.340  -1.182 -20.952  1.00  0.00     0.000 C 
ENDROOT
BRANCH   1   2
ATOM      2  C   UNL     1      13.933   0.241 -20.899  1.00  0.00     0.000 C 
BRANCH   2   3
ATOM      3  C   UNL     1      12.896   1.377 -20.885  1.00  0.00     0.000 C 
BRANCH   3   4
ATOM      4  C   UNL     1      13.498   2.737 -21.280  1.00  0.00     0.000 C 
BRANCH   4   5
ATOM      5  C   UNL     1      13.365   3.786 -20.166  1.00  0.00     0.000 C 
BRANCH   5   6
ATOM      6  C   UNL     1      13.583   5.219 -20.675  1.00  0.00     0.006 C 
BRANCH   6   7
ATOM      7  C   UNL     1      14.964   5.741 -20.269  1.00  0.00     0.053 C 
BRANCH   7   8
ATOM      8  C   UNL     1      15.888   5.752 -21.446  1.00  0.00     0.041 C 
ATOM      9  O   UNL     1      17.107   5.476 -21.297  1.00  0.00    -0.550 OA
ATOM     10  O   UNL     1      15.413   6.117 -22.699  1.00  0.00    -0.550 OA
ENDBRANCH   7   8
ENDBRANCH   6   7
ENDBRANCH   5   6
ENDBRANCH   4   5
ENDBRANCH   3   4
ENDBRANCH   2   3
ENDBRANCH   1   2
BRANCH   1  11
ATOM     11  C   UNL     1      12.233  -1.390 -22.000  1.00  0.00     0.000 C 
BRANCH  11  12
ATOM     12  C   UNL     1      10.887  -1.792 -21.378  1.00  0.00    -0.000 C 
BRANCH  12  13
ATOM     13  C   UNL     1      10.967  -1.782 -19.847  1.00  0.00    -0.000 C 
BRANCH  13  14
ATOM     14  C   UNL     1       9.768  -1.038 -19.239  1.00  0.00    -0.000 C 
BRANCH  14  15
ATOM     15  C   UNL     1      10.190   0.142 -18.348  1.00  0.00    -0.000 C 
BRANCH  15  16
ATOM     16  C   UNL     1      11.634   0.007 -17.835  1.00  0.00    -0.000 C 
BRANCH  16  17
ATOM     17  C   UNL     1      12.317   1.370 -17.638  1.00  0.00    -0.003 C 
ATOM     18  C   UNL     1      13.294   1.379 -16.464  1.00  0.00     0.004 C 
ENDBRANCH  16  17
ENDBRANCH  15  16
ENDBRANCH  14  15
ENDBRANCH  13  14
ENDBRANCH  12  13
ENDBRANCH  11  12
ENDBRANCH   1  11
TORSDOF 14
ENDMDL
MODEL 6
REMARK VINA RESULT:    -3.174      2.470      6.996
REMARK INTER + INTRA:          -6.932
REMARK INTER:                  -6.159
REMARK INTRA:                  -0.772
REMARK UNBOUND:                -1.159
REMARK SMILES CCCCCCCCCCCCCCCC(=O)[O-]
REMARK SMILES IDX 9 1 10 2 11 3 12 4 13 5 14 6 15 7 16 8 17 9 18 10 8 11 7 12
REMARK SMILES IDX 6 13 5 14 4 15 3 16 2 17 1 18
REMARK H PARENT
REMARK Flexibility Score: inf
ROOT
ATOM      1  C   UNL     1      12.526   1.253 -17.318  1.00  0.00     0.000 C 
ENDROOT
BRANCH   1   2
ATOM      2  C   UNL     1      11.386   0.256 -17.024  1.00  0.00     0.000 C 
BRANCH   2   3
ATOM      3  C   UNL     1      10.373   0.071 -18.168  1.00  0.00     0.000 C 
BRANCH   3   4
ATOM      4  C   UNL     1      10.184  -1.403 -18.563  1.00  0.00     0.000 C 
BRANCH   4   5
ATOM      5  C   UNL     1       9.635  -1.566 -19.988  1.00  0.00     0.000 C 
BRANCH   5   6
ATOM      6  C   UNL     1      10.745  -1.793 -21.026  1.00  0.00     0.006 C 
BRANCH   6   7
ATOM      7  C   UNL     1      12.130  -1.676 -20.383  1.00  0.00     0.053 C 
BRANCH   7   8
ATOM      8  C   UNL     1      13.123  -1.148 -21.369  1.00  0.00     0.041 C 
ATOM      9  O   UNL     1      13.028  -1.448 -22.588  1.00  0.00    -0.550 OA
ATOM     10  O   UNL     1      14.185  -0.365 -20.934  1.00  0.00    -0.550 OA
ENDBRANCH   7   8
ENDBRANCH   6   7
ENDBRANCH   5   6
ENDBRANCH   4   5
ENDBRANCH   3   4
ENDBRANCH   2   3
ENDBRANCH   1   2
BRANCH   1  11
ATOM     11  C   UNL     1      12.567   1.794 -18.758  1.00  0.00     0.000 C 
BRANCH  11  12
ATOM     12  C   UNL     1      13.220   3.180 -18.858  1.00  0.00    -0.000 C 
BRANCH  12  13
ATOM     13  C   UNL     1      13.242   3.673 -20.310  1.00  0.00    -0.000 C 
BRANCH  13  14
ATOM     14  C   UNL     1      13.545   5.177 -20.375  1.00  0.00    -0.000 C 
BRANCH  14  15
ATOM     15  C   UNL     1      15.017   5.473 -20.707  1.00  0.00    -0.000 C 
BRANCH  15  16
ATOM     16  C   UNL     1      15.192   6.123 -22.091  1.00  0.00    -0.000 C 
BRANCH  16  17
ATOM     17  C   UNL     1      16.330   5.483 -22.902  1.00  0.00    -0.003 C 
ATOM     18  C   UNL     1      17.669   5.509 -22.166  1.00  0.00     0.004 C 
ENDBRANCH  16  17
ENDBRANCH  15  16
ENDBRANCH  14  15
ENDBRANCH  13  14
ENDBRANCH  12  13
ENDBRANCH  11  12
ENDBRANCH   1  11
TORSDOF 14
ENDMDL
MODEL 7
REMARK VINA RESULT:    -3.091      3.411      6.966
REMARK INTER + INTRA:          -6.781
REMARK INTER:                  -5.311
REMARK INTRA:                  -1.470
REMARK UNBOUND:                -1.159
REMARK SMILES CCCCCCCCCCCCCCCC(=O)[O-]
REMARK SMILES IDX 9 1 10 2 11 3 12 4 13 5 14 6 15 7 16 8 17 9 18 10 8 11 7 12
REMARK SMILES IDX 6 13 5 14 4 15 3 16 2 17 1 18
REMARK H PARENT
REMARK Flexibility Score: inf
ROOT
ATOM      1  C   UNL     1      11.480  -1.917 -22.705  1.00  0.00     0.000 C 
ENDROOT
BRANCH   1   2
ATOM      2  C   UNL     1      10.366  -1.445 -21.747  1.00  0.00     0.000 C 
BRANCH   2   3
ATOM      3  C   UNL     1       9.844  -2.520 -20.778  1.00  0.00     0.000 C 
BRANCH   3   4
ATOM      4  C   UNL     1       9.796  -2.033 -19.319  1.00  0.00     0.000 C 
BRANCH   4   5
ATOM      5  C   UNL     1      10.045  -0.523 -19.193  1.00  0.00     0.000 C 
BRANCH   5   6
ATOM      6  C   UNL     1      10.689  -0.140 -17.852  1.00  0.00     0.006 C 
BRANCH   6   7
ATOM      7  C   UNL     1      11.566   1.105 -18.000  1.00  0.00     0.053 C 
BRANCH   7   8
ATOM      8  C   UNL     1      12.575   1.171 -16.897  1.00  0.00     0.041 C 
ATOM      9  O   UNL     1      13.483   2.043 -16.919  1.00  0.00    -0.550 OA
ATOM     10  O   UNL     1      12.544   0.236 -15.870  1.00  0.00    -0.550 OA
ENDBRANCH   7   8
ENDBRANCH   6   7
ENDBRANCH   5   6
ENDBRANCH   4   5
ENDBRANCH   3   4
ENDBRANCH   2   3
ENDBRANCH   1   2
BRANCH   1  11
ATOM     11  C   UNL     1      12.858  -1.272 -22.474  1.00  0.00     0.000 C 
BRANCH  11  12
ATOM     12  C   UNL     1      13.381  -1.475 -21.044  1.00  0.00    -0.000 C 
BRANCH  12  13
ATOM     13  C   UNL     1      13.663  -0.128 -20.368  1.00  0.00    -0.000 C 
BRANCH  13  14
ATOM     14  C   UNL     1      12.880   1.004 -21.051  1.00  0.00    -0.000 C 
BRANCH  14  15
ATOM     15  C   UNL     1      13.629   2.347 -21.019  1.00  0.00    -0.000 C 
BRANCH  15  16
ATOM     16  C   UNL     1      12.919   3.398 -20.147  1.00  0.00    -0.000 C 
BRANCH  16  17
ATOM     17  C   UNL     1      13.572   4.785 -20.250  1.00  0.00    -0.003 C 
ATOM     18  C   UNL     1      12.571   5.886 -20.599  1.00  0.00     0.004 C 
ENDBRANCH  16  17
ENDBRANCH  15  16
ENDBRANCH  14  15
ENDBRANCH  13  14
ENDBRANCH  12  13
ENDBRANCH  11  12
ENDBRANCH   1  11
TORSDOF 14
ENDMDL
MODEL 8
REMARK VINA RESULT:    -3.078      1.055      2.605
REMARK INTER + INTRA:          -6.756
REMARK INTER:                  -5.867
REMARK INTRA:                  -0.888
REMARK UNBOUND:                -1.159
REMARK SMILES CCCCCCCCCCCCCCCC(=O)[O-]
REMARK SMILES IDX 9 1 10 2 11 3 12 4 13 5 14 6 15 7 16 8 17 9 18 10 8 11 7 12
REMARK SMILES IDX 6 13 5 14 4 15 3 16 2 17 1 18
REMARK H PARENT
REMARK Flexibility Score: inf
ROOT
ATOM      1  C   UNL     1      13.102   2.319 -20.827  1.00  0.00     0.000 C 
ENDROOT
BRANCH   1   2
ATOM      2  C   UNL     1      12.886   3.464 -19.815  1.00  0.00     0.000 C 
BRANCH   2   3
ATOM      3  C   UNL     1      13.435   4.832 -20.255  1.00  0.00     0.000 C 
BRANCH   3   4
ATOM      4  C   UNL     1      14.750   4.719 -21.047  1.00  0.00     0.000 C 
BRANCH   4   5
ATOM      5  C   UNL     1      15.533   6.040 -21.081  1.00  0.00     0.000 C 
BRANCH   5   6
ATOM      6  C   UNL     1      16.495   6.125 -22.275  1.00  0.00     0.006 C 
BRANCH   6   7
ATOM      7  C   UNL     1      17.948   5.955 -21.822  1.00  0.00     0.053 C 
BRANCH   7   8
ATOM      8  C   UNL     1      18.847   5.763 -23.002  1.00  0.00     0.041 C 
ATOM      9  O   UNL     1      20.090   5.643 -22.840  1.00  0.00    -0.550 OA
ATOM     10  O   UNL     1      18.318   5.768 -24.287  1.00  0.00    -0.550 OA
ENDBRANCH   7   8
ENDBRANCH   6   7
ENDBRANCH   5   6
ENDBRANCH   4   5
ENDBRANCH   3   4
ENDBRANCH   2   3
ENDBRANCH   1   2
BRANCH   1  11
ATOM     11  C   UNL     1      13.083   0.903 -20.225  1.00  0.00     0.000 C 
BRANCH  11  12
ATOM     12  C   UNL     1      13.950  -0.092 -21.011  1.00  0.00    -0.000 C 
BRANCH  12  13
ATOM     13  C   UNL     1      13.229  -1.435 -21.179  1.00  0.00    -0.000 C 
BRANCH  13  14
ATOM     14  C   UNL     1      11.968  -1.277 -22.043  1.00  0.00    -0.000 C 
BRANCH  14  15
ATOM     15  C   UNL     1      10.696  -1.768 -21.333  1.00  0.00    -0.000 C 
BRANCH  15  16
ATOM     16  C   UNL     1      10.833  -1.756 -19.801  1.00  0.00    -0.000 C 
BRANCH  16  17
ATOM     17  C   UNL     1       9.931  -0.703 -19.138  1.00  0.00    -0.003 C 
ATOM     18  C   UNL     1      10.631   0.052 -18.010  1.00  0.00     0.004 C 
ENDBRANCH  16  17
ENDBRANCH  15  16
ENDBRANCH  14  15
ENDBRANCH  13  14
ENDBRANCH  12  13
ENDBRANCH  11  12
ENDBRANCH   1  11
TORSDOF 14
ENDMDL
MODEL 9
REMARK VINA RESULT:    -3.043      3.207      7.644
REMARK INTER + INTRA:          -6.693
REMARK INTER:                  -5.709
REMARK INTRA:                  -0.985
REMARK UNBOUND:                -1.159
REMARK SMILES CCCCCCCCCCCCCCCC(=O)[O-]
REMARK SMILES IDX 9 1 10 2 11 3 12 4 13 5 14 6 15 7 16 8 17 9 18 10 8 11 7 12
REMARK SMILES IDX 6 13 5 14 4 15 3 16 2 17 1 18
REMARK H PARENT
REMARK Flexibility Score: inf
ROOT
ATOM      1  C   UNL     1      12.741   1.729 -21.040  1.00  0.00     0.000 C 
ENDROOT
BRANCH   1   2
ATOM      2  C   UNL     1      13.449   0.357 -21.028  1.00  0.00     0.000 C 
BRANCH   2   3
ATOM      3  C   UNL     1      12.570  -0.831 -21.457  1.00  0.00     0.000 C 
BRANCH   3   4
ATOM      4  C   UNL     1      12.131  -1.706 -20.271  1.00  0.00     0.000 C 
BRANCH   4   5
ATOM      5  C   UNL     1      10.625  -1.608 -19.990  1.00  0.00     0.000 C 
BRANCH   5   6
ATOM      6  C   UNL     1      10.320  -1.065 -18.586  1.00  0.00     0.006 C 
BRANCH   6   7
ATOM      7  C   UNL     1      10.645   0.428 -18.492  1.00  0.00     0.053 C 
BRANCH   7   8
ATOM      8  C   UNL     1      11.691   0.673 -17.451  1.00  0.00     0.041 C 
ATOM      9  O   UNL     1      11.525   0.254 -16.275  1.00  0.00    -0.550 OA
ATOM     10  O   UNL     1      12.825   1.410 -17.765  1.00  0.00    -0.550 OA
ENDBRANCH   7   8
ENDBRANCH   6   7
ENDBRANCH   5   6
ENDBRANCH   4   5
ENDBRANCH   3   4
ENDBRANCH   2   3
ENDBRANCH   1   2
BRANCH   1  11
ATOM     11  C   UNL     1      13.677   2.947 -20.951  1.00  0.00     0.000 C 
BRANCH  11  12
ATOM     12  C   UNL     1      13.137   4.050 -20.029  1.00  0.00    -0.000 C 
BRANCH  12  13
ATOM     13  C   UNL     1      13.498   5.440 -20.566  1.00  0.00    -0.000 C 
BRANCH  13  14
ATOM     14  C   UNL     1      15.013   5.682 -20.489  1.00  0.00    -0.000 C 
BRANCH  14  15
ATOM     15  C   UNL     1      15.654   5.884 -21.871  1.00  0.00    -0.000 C 
BRANCH  15  16
ATOM     16  C   UNL     1      17.191   5.934 -21.808  1.00  0.00    -0.000 C 
BRANCH  16  17
ATOM     17  C   UNL     1      17.852   5.211 -22.993  1.00  0.00    -0.003 C 
ATOM     18  C   UNL     1      16.859   4.858 -24.099  1.00  0.00     0.004 C 
ENDBRANCH  16  17
ENDBRANCH  15  16
ENDBRANCH  14  15
ENDBRANCH  13  14
ENDBRANCH  12  13
ENDBRANCH  11  12
ENDBRANCH   1  11
TORSDOF 14
ENDMDL
