MODEL 1
REMARK VINA RESULT:    -5.013      0.000      0.000
REMARK INTER + INTRA:          -5.013
REMARK INTER:                  -5.013
REMARK INTRA:                   0.000
REMARK UNBOUND:                 0.000
REMARK SMILES C=C1CC[C@H]2C[C@@H]1C2(C)C
REMARK SMILES IDX 9 1 8 2 5 3 4 4 3 5 2 6 1 7 7 8 6 9 10 10
REMARK H PARENT
REMARK Flexibility Score: inf
ROOT
ATOM      1  C   UNL     1       1.713  13.427   1.875  1.00  0.00     0.012 C 
ATOM      2  C   UNL     1       1.465  13.476   3.407  1.00  0.00    -0.026 C 
ATOM      3  C   UNL     1       1.819  12.231   4.259  1.00  0.00    -0.004 C 
ATOM      4  C   UNL     1       3.108  11.531   3.720  1.00  0.00     0.008 C 
ATOM      5  C   UNL     1       4.310  12.533   3.537  1.00  0.00     0.031 C 
ATOM      6  C   UNL     1       3.891  13.994   3.768  1.00  0.00    -0.074 C 
ATOM      7  C   UNL     1       4.732  15.004   3.523  1.00  0.00     0.008 C 
ATOM      8  C   UNL     1       2.480  14.238   4.291  1.00  0.00     0.021 C 
ATOM      9  C   UNL     1       2.272  13.176   5.383  1.00  0.00     0.012 C 
ATOM     10  C   UNL     1       0.011  13.951   3.651  1.00  0.00     0.012 C 
ENDROOT
TORSDOF 0
ENDMDL
MODEL 2
REMARK VINA RESULT:    -4.745      1.130      2.834
REMARK INTER + INTRA:          -4.745
REMARK INTER:                  -4.745
REMARK INTRA:                   0.000
REMARK UNBOUND:                 0.000
REMARK SMILES C=C1CC[C@H]2C[C@@H]1C2(C)C
REMARK SMILES IDX 9 1 8 2 5 3 4 4 3 5 2 6 1 7 7 8 6 9 10 10
REMARK H PARENT
REMARK Flexibility Score: inf
ROOT
ATOM      1  C   UNL     1       1.677  14.807   2.999  1.00  0.00     0.012 C 
ATOM      2  C   UNL     1       2.252  13.376   2.813  1.00  0.00    -0.026 C 
ATOM      3  C   UNL     1       3.712  13.098   3.253  1.00  0.00    -0.004 C 
ATOM      4  C   UNL     1       4.069  13.898   4.546  1.00  0.00     0.008 C 
ATOM      5  C   UNL     1       3.013  13.692   5.697  1.00  0.00     0.031 C 
ATOM      6  C   UNL     1       1.788  12.891   5.228  1.00  0.00    -0.074 C 
ATOM      7  C   UNL     1       0.719  12.731   6.015  1.00  0.00     0.008 C 
ATOM      8  C   UNL     1       1.848  12.284   3.830  1.00  0.00     0.021 C 
ATOM      9  C   UNL     1       3.265  11.700   3.711  1.00  0.00     0.012 C 
ATOM     10  C   UNL     1       1.992  12.933   1.351  1.00  0.00     0.012 C 
ENDROOT
TORSDOF 0
ENDMDL
MODEL 3
REMARK VINA RESULT:    -4.745      1.082      2.547
REMARK INTER + INTRA:          -4.745
REMARK INTER:                  -4.745
REMARK INTRA:                   0.000
REMARK UNBOUND:                 0.000
REMARK SMILES C=C1CC[C@H]2C[C@@H]1C2(C)C
REMARK SMILES IDX 9 1 8 2 5 3 4 4 3 5 2 6 1 7 7 8 6 9 10 10
REMARK H PARENT
REMARK Flexibility Score: inf
ROOT
ATOM      1  C   UNL     1       0.997  12.294   4.760  1.00  0.00     0.012 C 
ATOM      2  C   UNL     1       2.312  13.114   4.857  1.00  0.00    -0.026 C 
ATOM      3  C   UNL     1       3.598  12.536   4.213  1.00  0.00    -0.004 C 
ATOM      4  C   UNL     1       3.269  11.780   2.886  1.00  0.00     0.008 C 
ATOM      5  C   UNL     1       2.401  12.646   1.895  1.00  0.00     0.031 C 
ATOM      6  C   UNL     1       1.935  13.966   2.530  1.00  0.00    -0.074 C 
ATOM      7  C   UNL     1       1.074  14.772   1.901  1.00  0.00     0.008 C 
ATOM      8  C   UNL     1       2.501  14.315   3.902  1.00  0.00     0.021 C 
ATOM      9  C   UNL     1       3.995  13.966   3.816  1.00  0.00     0.012 C 
ATOM     10  C   UNL     1       2.533  13.509   6.338  1.00  0.00     0.012 C 
ENDROOT
TORSDOF 0
ENDMDL
MODEL 4
REMARK VINA RESULT:    -4.736      1.162      2.649
REMARK INTER + INTRA:          -4.736
REMARK INTER:                  -4.736
REMARK INTRA:                   0.000
REMARK UNBOUND:                 0.000
REMARK SMILES C=C1CC[C@H]2C[C@@H]1C2(C)C
REMARK SMILES IDX 9 1 8 2 5 3 4 4 3 5 2 6 1 7 7 8 6 9 10 10
REMARK H PARENT
REMARK Flexibility Score: inf
ROOT
ATOM      1  C   UNL     1       4.438  14.553   3.464  1.00  0.00     0.012 C 
ATOM      2  C   UNL     1       3.035  14.444   2.806  1.00  0.00    -0.026 C 
ATOM      3  C   UNL     1       2.648  13.123   2.093  1.00  0.00    -0.004 C 
ATOM      4  C   UNL     1       3.230  11.887   2.849  1.00  0.00     0.008 C 
ATOM      5  C   UNL     1       2.884  11.899   4.386  1.00  0.00     0.031 C 
ATOM      6  C   UNL     1       2.202  13.206   4.820  1.00  0.00    -0.074 C 
ATOM      7  C   UNL     1       1.956  13.468   6.108  1.00  0.00     0.008 C 
ATOM      8  C   UNL     1       1.813  14.186   3.717  1.00  0.00     0.021 C 
ATOM      9  C   UNL     1       1.211  13.314   2.605  1.00  0.00     0.012 C 
ATOM     10  C   UNL     1       2.828  15.678   1.892  1.00  0.00     0.012 C 
ENDROOT
TORSDOF 0
ENDMDL
MODEL 5
REMARK VINA RESULT:    -4.125      1.353      3.500
REMARK INTER + INTRA:          -4.125
REMARK INTER:                  -4.125
REMARK INTRA:                   0.000
REMARK UNBOUND:                 0.000
REMARK SMILES C=C1CC[C@H]2C[C@@H]1C2(C)C
REMARK SMILES IDX 9 1 8 2 5 3 4 4 3 5 2 6 1 7 7 8 6 9 10 10
REMARK H PARENT
REMARK Flexibility Score: inf
ROOT
ATOM      1  C   UNL     1       2.902  15.687   2.113  1.00  0.00     0.012 C 
ATOM      2  C   UNL     1       2.978  14.329   2.864  1.00  0.00    -0.026 C 
ATOM      3  C   UNL     1       1.849  13.965   3.861  1.00  0.00    -0.004 C 
ATOM      4  C   UNL     1       0.463  14.472   3.348  1.00  0.00     0.008 C 
ATOM      5  C   UNL     1       0.166  14.025   1.866  1.00  0.00     0.031 C 
ATOM      6  C   UNL     1       1.375  13.341   1.209  1.00  0.00    -0.074 C 
ATOM      7  C   UNL     1       1.370  13.016  -0.087  1.00  0.00     0.008 C 
ATOM      8  C   UNL     1       2.576  13.045   2.102  1.00  0.00     0.021 C 
ATOM      9  C   UNL     1       1.975  12.502   3.408  1.00  0.00     0.012 C 
ATOM     10  C   UNL     1       4.382  14.207   3.508  1.00  0.00     0.012 C 
ENDROOT
TORSDOF 0
ENDMDL
MODEL 6
REMARK VINA RESULT:    -3.956      1.150      2.782
REMARK INTER + INTRA:          -3.956
REMARK INTER:                  -3.956
REMARK INTRA:                   0.000
REMARK UNBOUND:                 0.000
REMARK SMILES C=C1CC[C@H]2C[C@@H]1C2(C)C
REMARK SMILES IDX 9 1 8 2 5 3 4 4 3 5 2 6 1 7 7 8 6 9 10 10
REMARK H PARENT
REMARK Flexibility Score: inf
ROOT
ATOM      1  C   UNL     1       1.208  14.111   4.760  1.00  0.00     0.012 C 
ATOM      2  C   UNL     1       1.100  14.057   3.212  1.00  0.00    -0.026 C 
ATOM      3  C   UNL     1       1.971  15.025   2.371  1.00  0.00    -0.004 C 
ATOM      4  C   UNL     1       3.373  15.232   3.028  1.00  0.00     0.008 C 
ATOM      5  C   UNL     1       4.090  13.869   3.366  1.00  0.00     0.031 C 
ATOM      6  C   UNL     1       3.177  12.656   3.130  1.00  0.00    -0.074 C 
ATOM      7  C   UNL     1       3.551  11.424   3.490  1.00  0.00     0.008 C 
ATOM      8  C   UNL     1       1.830  12.918   2.463  1.00  0.00     0.021 C 
ATOM      9  C   UNL     1       2.136  13.908   1.328  1.00  0.00     0.012 C 
ATOM     10  C   UNL     1      -0.397  14.141   2.824  1.00  0.00     0.012 C 
ENDROOT
TORSDOF 0
ENDMDL
MODEL 7
REMARK VINA RESULT:    -3.944      2.303      4.134
REMARK INTER + INTRA:          -3.944
REMARK INTER:                  -3.944
REMARK INTRA:                   0.000
REMARK UNBOUND:                 0.000
REMARK SMILES C=C1CC[C@H]2C[C@@H]1C2(C)C
REMARK SMILES IDX 9 1 8 2 5 3 4 4 3 5 2 6 1 7 7 8 6 9 10 10
REMARK H PARENT
REMARK Flexibility Score: inf
ROOT
ATOM      1  C   UNL     1       1.343  12.990  -0.053  1.00  0.00     0.012 C 
ATOM      2  C   UNL     1       1.632  14.516  -0.072  1.00  0.00    -0.026 C 
ATOM      3  C   UNL     1       0.523  15.489   0.404  1.00  0.00    -0.004 C 
ATOM      4  C   UNL     1      -0.279  14.884   1.599  1.00  0.00     0.008 C 
ATOM      5  C   UNL     1       0.657  14.376   2.761  1.00  0.00     0.031 C 
ATOM      6  C   UNL     1       2.145  14.436   2.380  1.00  0.00    -0.074 C 
ATOM      7  C   UNL     1       3.087  13.919   3.175  1.00  0.00     0.008 C 
ATOM      8  C   UNL     1       2.497  15.115   1.060  1.00  0.00     0.021 C 
ATOM      9  C   UNL     1       1.620  16.376   1.016  1.00  0.00     0.012 C 
ATOM     10  C   UNL     1       2.170  14.892  -1.476  1.00  0.00     0.012 C 
ENDROOT
TORSDOF 0
ENDMDL
MODEL 8
REMARK VINA RESULT:    -3.912      2.739      3.733
REMARK INTER + INTRA:          -3.912
REMARK INTER:                  -3.912
REMARK INTRA:                   0.000
REMARK UNBOUND:                 0.000
REMARK SMILES C=C1CC[C@H]2C[C@@H]1C2(C)C
REMARK SMILES IDX 9 1 8 2 5 3 4 4 3 5 2 6 1 7 7 8 6 9 10 10
REMARK H PARENT
REMARK Flexibility Score: inf
ROOT
ATOM      1  C   UNL     1      -0.425  16.081   0.553  1.00  0.00     0.012 C 
ATOM      2  C   UNL     1       0.114  14.873   1.366  1.00  0.00    -0.026 C 
ATOM      3  C   UNL     1       0.642  13.635   0.598  1.00  0.00    -0.004 C 
ATOM      4  C   UNL     1       1.382  14.060  -0.710  1.00  0.00     0.008 C 
ATOM      5  C   UNL     1       2.481  15.160  -0.453  1.00  0.00     0.031 C 
ATOM      6  C   UNL     1       2.456  15.684   0.992  1.00  0.00    -0.074 C 
ATOM      7  C   UNL     1       3.215  16.717   1.370  1.00  0.00     0.008 C 
ATOM      8  C   UNL     1       1.532  14.970   1.973  1.00  0.00     0.021 C 
ATOM      9  C   UNL     1       1.722  13.473   1.679  1.00  0.00     0.012 C 
ATOM     10  C   UNL     1      -0.947  14.487   2.427  1.00  0.00     0.012 C 
ENDROOT
TORSDOF 0
ENDMDL
MODEL 9
REMARK VINA RESULT:    -3.897     15.472     16.767
REMARK INTER + INTRA:          -3.897
REMARK INTER:                  -3.897
REMARK INTRA:                   0.000
REMARK UNBOUND:                 0.000
REMARK SMILES C=C1CC[C@H]2C[C@@H]1C2(C)C
REMARK SMILES IDX 9 1 8 2 5 3 4 4 3 5 2 6 1 7 7 8 6 9 10 10
REMARK H PARENT
REMARK Flexibility Score: inf
ROOT
ATOM      1  C   UNL     1       7.478   6.643  17.927  1.00  0.00     0.012 C 
ATOM      2  C   UNL     1       6.886   5.281  17.472  1.00  0.00    -0.026 C 
ATOM      3  C   UNL     1       6.862   4.948  15.959  1.00  0.00    -0.004 C 
ATOM      4  C   UNL     1       8.137   5.498  15.243  1.00  0.00     0.008 C 
ATOM      5  C   UNL     1       9.470   5.065  15.964  1.00  0.00     0.031 C 
ATOM      6  C   UNL     1       9.205   4.347  17.297  1.00  0.00    -0.074 C 
ATOM      7  C   UNL     1      10.206   4.027  18.124  1.00  0.00     0.008 C 
ATOM      8  C   UNL     1       7.755   4.012  17.631  1.00  0.00     0.021 C 
ATOM      9  C   UNL     1       7.158   3.482  16.317  1.00  0.00     0.012 C 
ATOM     10  C   UNL     1       5.491   5.115  18.125  1.00  0.00     0.012 C 
ENDROOT
TORSDOF 0
ENDMDL
