MODEL 1
REMARK VINA RESULT:    -6.171      0.000      0.000
REMARK INTER + INTRA:         -11.100
REMARK INTER:                  -9.057
REMARK INTRA:                  -2.043
REMARK UNBOUND:                -2.043
REMARK SMILES O=c1c(O[C@@H]2O[C@@H](CO)[C@@H](O)[C@@H](O)[C@@H]2O)c(-c2ccc(O)c(O)c2)oc2cc(O)cc(O)c12
REMARK SMILES IDX 4 1 3 2 16 3 25 4 2 5 26 6 1 7 33 8 27 9 31 10 28 11 30 12
REMARK SMILES IDX 17 13 18 14 19 15 20 16 24 17 22 18 21 19 23 21 32 23 29 25
REMARK SMILES IDX 5 27 14 28 6 29 12 30 7 31 10 32 15 33 13 35 8 37 9 38 11 40
REMARK H PARENT 21 20 23 22 32 24 29 26 15 34 13 36 9 39 11 41
REMARK Flexibility Score: inf
ROOT
ATOM      1  O   UNL     1       8.420  11.710 -16.153  1.00  0.00    -0.454 OA
ENDROOT
BRANCH   1   2
ATOM      2  C   UNL     1       8.151  10.341 -16.355  1.00  0.00     0.214 A 
ATOM      3  C   UNL     1       7.650   9.952 -17.613  1.00  0.00     0.180 A 
ATOM      4  O   UNL     1       7.352   8.681 -17.852  1.00  0.00    -0.452 OA
ATOM      5  C   UNL     1       8.369   9.340 -15.380  1.00  0.00     0.239 A 
ATOM      6  C   UNL     1       7.517   7.713 -16.959  1.00  0.00     0.146 A 
ATOM      7  O   UNL     1       8.902   9.628 -14.278  1.00  0.00    -0.285 OA
ATOM      8  C   UNL     1       8.025   8.002 -15.674  1.00  0.00     0.111 A 
ATOM      9  C   UNL     1       7.191   6.401 -17.313  1.00  0.00     0.094 A 
ATOM     10  C   UNL     1       8.176   6.945 -14.741  1.00  0.00     0.134 A 
ATOM     11  C   UNL     1       7.363   5.360 -16.395  1.00  0.00     0.123 A 
ATOM     12  C   UNL     1       7.844   5.634 -15.115  1.00  0.00     0.093 A 
BRANCH   3  13
ATOM     13  C   UNL     1       7.418  10.936 -18.691  1.00  0.00     0.025 A 
ATOM     14  C   UNL     1       6.115  11.363 -18.969  1.00  0.00     0.016 A 
ATOM     15  C   UNL     1       5.875  12.282 -19.989  1.00  0.00     0.051 A 
ATOM     16  C   UNL     1       6.929  12.787 -20.762  1.00  0.00     0.157 A 
ATOM     17  C   UNL     1       8.479  11.429 -19.473  1.00  0.00     0.062 A 
ATOM     18  C   UNL     1       8.250  12.348 -20.503  1.00  0.00     0.158 A 
BRANCH  16  19
ATOM     19  O   UNL     1       6.624  13.713 -21.763  1.00  0.00    -0.504 OA
ATOM     20  H   UNL     1       5.709  14.107 -21.906  1.00  0.00     0.293 HD
ENDBRANCH  16  19
BRANCH  18  21
ATOM     21  O   UNL     1       9.351  12.802 -21.237  1.00  0.00    -0.504 OA
ATOM     22  H   UNL     1      10.180  12.247 -21.401  1.00  0.00     0.293 HD
ENDBRANCH  18  21
ENDBRANCH   3  13
BRANCH  10  23
ATOM     23  O   UNL     1       8.643   7.187 -13.444  1.00  0.00    -0.507 OA
ATOM     24  H   UNL     1       9.628   7.313 -13.246  1.00  0.00     0.293 HD
ENDBRANCH  10  23
BRANCH  11  25
ATOM     25  O   UNL     1       7.057   4.048 -16.746  1.00  0.00    -0.508 OA
ATOM     26  H   UNL     1       6.244   3.821 -17.311  1.00  0.00     0.293 HD
ENDBRANCH  11  25
ENDBRANCH   1   2
BRANCH   1  27
ATOM     27  C   UNL     1       7.646  12.681 -15.438  1.00  0.00     0.339 C 
ATOM     28  C   UNL     1       8.512  13.392 -14.379  1.00  0.00     0.214 C 
ATOM     29  O   UNL     1       7.089  13.621 -16.342  1.00  0.00    -0.332 OA
ATOM     30  C   UNL     1       9.623  14.214 -15.072  1.00  0.00     0.180 C 
ATOM     31  C   UNL     1       8.096  14.301 -17.076  1.00  0.00     0.179 C 
ATOM     32  C   UNL     1       9.007  15.133 -16.139  1.00  0.00     0.177 C 
BRANCH  28  33
ATOM     33  O   UNL     1       9.092  12.449 -13.514  1.00  0.00    -0.384 OA
ATOM     34  H   UNL     1       9.533  12.961 -12.786  1.00  0.00     0.211 HD
ENDBRANCH  28  33
BRANCH  30  35
ATOM     35  O   UNL     1      10.330  14.998 -14.142  1.00  0.00    -0.387 OA
ATOM     36  H   UNL     1       9.697  15.674 -13.776  1.00  0.00     0.211 HD
ENDBRANCH  30  35
BRANCH  31  37
ATOM     37  C   UNL     1       7.425  15.163 -18.153  1.00  0.00     0.191 C 
BRANCH  37  38
ATOM     38  O   UNL     1       8.230  16.262 -18.483  1.00  0.00    -0.394 OA
ATOM     39  H   UNL     1       7.622  17.046 -18.527  1.00  0.00     0.210 HD
ENDBRANCH  37  38
ENDBRANCH  31  37
BRANCH  32  40
ATOM     40  O   UNL     1       8.266  16.149 -15.501  1.00  0.00    -0.387 OA
ATOM     41  H   UNL     1       7.930  15.774 -14.644  1.00  0.00     0.211 HD
ENDBRANCH  32  40
ENDBRANCH   1  27
TORSDOF 12
ENDMDL
MODEL 2
REMARK VINA RESULT:    -6.117      2.672      4.139
REMARK INTER + INTRA:         -11.021
REMARK INTER:                  -9.536
REMARK INTRA:                  -1.485
REMARK UNBOUND:                -2.043
REMARK SMILES O=c1c(O[C@@H]2O[C@@H](CO)[C@@H](O)[C@@H](O)[C@@H]2O)c(-c2ccc(O)c(O)c2)oc2cc(O)cc(O)c12
REMARK SMILES IDX 4 1 3 2 16 3 25 4 2 5 26 6 1 7 33 8 27 9 31 10 28 11 30 12
REMARK SMILES IDX 17 13 18 14 19 15 20 16 24 17 22 18 21 19 23 21 32 23 29 25
REMARK SMILES IDX 5 27 14 28 6 29 12 30 7 31 10 32 15 33 13 35 8 37 9 38 11 40
REMARK H PARENT 21 20 23 22 32 24 29 26 15 34 13 36 9 39 11 41
REMARK Flexibility Score: inf
ROOT
ATOM      1  O   UNL     1       8.151  15.312 -17.025  1.00  0.00    -0.454 OA
ENDROOT
BRANCH   1   2
ATOM      2  C   UNL     1       8.609  13.983 -17.124  1.00  0.00     0.214 A 
ATOM      3  C   UNL     1       9.058  13.539 -18.384  1.00  0.00     0.180 A 
ATOM      4  O   UNL     1       9.475  12.288 -18.545  1.00  0.00    -0.452 OA
ATOM      5  C   UNL     1       8.661  13.081 -16.037  1.00  0.00     0.239 A 
ATOM      6  C   UNL     1       9.517  11.401 -17.558  1.00  0.00     0.146 A 
ATOM      7  O   UNL     1       8.360  13.462 -14.877  1.00  0.00    -0.285 OA
ATOM      8  C   UNL     1       9.100  11.756 -16.257  1.00  0.00     0.111 A 
ATOM      9  C   UNL     1       9.990  10.114 -17.824  1.00  0.00     0.094 A 
ATOM     10  C   UNL     1       9.146  10.779 -15.231  1.00  0.00     0.134 A 
ATOM     11  C   UNL     1      10.053   9.162 -16.802  1.00  0.00     0.123 A 
ATOM     12  C   UNL     1       9.625   9.492 -15.516  1.00  0.00     0.093 A 
BRANCH   3  13
ATOM     13  C   UNL     1       9.057  14.429 -19.564  1.00  0.00     0.025 A 
ATOM     14  C   UNL     1       9.772  15.632 -19.523  1.00  0.00     0.016 A 
ATOM     15  C   UNL     1       9.774  16.489 -20.622  1.00  0.00     0.051 A 
ATOM     16  C   UNL     1       9.053  16.172 -21.781  1.00  0.00     0.157 A 
ATOM     17  C   UNL     1       8.321  14.112 -20.720  1.00  0.00     0.062 A 
ATOM     18  C   UNL     1       8.311  14.968 -21.827  1.00  0.00     0.158 A 
BRANCH  16  19
ATOM     19  O   UNL     1       9.105  17.068 -22.852  1.00  0.00    -0.504 OA
ATOM     20  H   UNL     1       9.879  17.686 -23.033  1.00  0.00     0.293 HD
ENDBRANCH  16  19
BRANCH  18  21
ATOM     21  O   UNL     1       7.563  14.586 -22.947  1.00  0.00    -0.504 OA
ATOM     22  H   UNL     1       7.807  13.806 -23.541  1.00  0.00     0.293 HD
ENDBRANCH  18  21
ENDBRANCH   3  13
BRANCH  10  23
ATOM     23  O   UNL     1       8.711  11.073 -13.933  1.00  0.00    -0.507 OA
ATOM     24  H   UNL     1       9.350  11.096 -13.148  1.00  0.00     0.293 HD
ENDBRANCH  10  23
BRANCH  11  25
ATOM     25  O   UNL     1      10.540   7.882 -17.054  1.00  0.00    -0.508 OA
ATOM     26  H   UNL     1      10.094   7.055 -16.669  1.00  0.00     0.293 HD
ENDBRANCH  11  25
ENDBRANCH   1   2
BRANCH   1  27
ATOM     27  C   UNL     1       6.817  15.814 -17.170  1.00  0.00     0.339 C 
ATOM     28  C   UNL     1       6.263  16.283 -15.809  1.00  0.00     0.214 C 
ATOM     29  O   UNL     1       6.795  16.876 -18.110  1.00  0.00    -0.332 OA
ATOM     30  C   UNL     1       7.080  17.490 -15.294  1.00  0.00     0.180 C 
ATOM     31  C   UNL     1       7.638  17.946 -17.710  1.00  0.00     0.179 C 
ATOM     32  C   UNL     1       7.151  18.575 -16.380  1.00  0.00     0.177 C 
BRANCH  28  33
ATOM     33  O   UNL     1       6.326  15.236 -14.874  1.00  0.00    -0.384 OA
ATOM     34  H   UNL     1       6.372  15.656 -13.975  1.00  0.00     0.211 HD
ENDBRANCH  28  33
BRANCH  30  35
ATOM     35  O   UNL     1       6.501  18.037 -14.135  1.00  0.00    -0.387 OA
ATOM     36  H   UNL     1       7.197  18.588 -13.682  1.00  0.00     0.211 HD
ENDBRANCH  30  35
BRANCH  31  37
ATOM     37  C   UNL     1       7.708  18.972 -18.848  1.00  0.00     0.191 C 
BRANCH  37  38
ATOM     38  O   UNL     1       7.896  20.265 -18.343  1.00  0.00    -0.394 OA
ATOM     39  H   UNL     1       7.679  20.887 -19.086  1.00  0.00     0.210 HD
ENDBRANCH  37  38
ENDBRANCH  31  37
BRANCH  32  40
ATOM     40  O   UNL     1       5.875  19.151 -16.542  1.00  0.00    -0.387 OA
ATOM     41  H   UNL     1       5.299  18.800 -15.812  1.00  0.00     0.211 HD
ENDBRANCH  32  40
ENDBRANCH   1  27
TORSDOF 12
ENDMDL
MODEL 3
REMARK VINA RESULT:    -5.724      2.929      7.825
REMARK INTER + INTRA:         -10.444
REMARK INTER:                  -9.657
REMARK INTRA:                  -0.787
REMARK UNBOUND:                -2.043
REMARK SMILES O=c1c(O[C@@H]2O[C@@H](CO)[C@@H](O)[C@@H](O)[C@@H]2O)c(-c2ccc(O)c(O)c2)oc2cc(O)cc(O)c12
REMARK SMILES IDX 4 1 3 2 16 3 25 4 2 5 26 6 1 7 33 8 27 9 31 10 28 11 30 12
REMARK SMILES IDX 17 13 18 14 19 15 20 16 24 17 22 18 21 19 23 21 32 23 29 25
REMARK SMILES IDX 5 27 14 28 6 29 12 30 7 31 10 32 15 33 13 35 8 37 9 38 11 40
REMARK H PARENT 21 20 23 22 32 24 29 26 15 34 13 36 9 39 11 41
REMARK Flexibility Score: inf
ROOT
ATOM      1  O   UNL     1       7.443  14.074 -16.310  1.00  0.00    -0.454 OA
ENDROOT
BRANCH   1   2
ATOM      2  C   UNL     1       7.697  15.397 -16.724  1.00  0.00     0.214 A 
ATOM      3  C   UNL     1       8.311  15.583 -17.978  1.00  0.00     0.180 A 
ATOM      4  O   UNL     1       8.600  16.805 -18.409  1.00  0.00    -0.452 OA
ATOM      5  C   UNL     1       7.358  16.542 -15.967  1.00  0.00     0.239 A 
ATOM      6  C   UNL     1       8.322  17.905 -17.721  1.00  0.00     0.146 A 
ATOM      7  O   UNL     1       6.725  16.428 -14.886  1.00  0.00    -0.285 OA
ATOM      8  C   UNL     1       7.696  17.822 -16.458  1.00  0.00     0.111 A 
ATOM      9  C   UNL     1       8.650  19.149 -18.269  1.00  0.00     0.094 A 
ATOM     10  C   UNL     1       7.427  19.018 -15.745  1.00  0.00     0.134 A 
ATOM     11  C   UNL     1       8.361  20.324 -17.570  1.00  0.00     0.123 A 
ATOM     12  C   UNL     1       7.762  20.257 -16.312  1.00  0.00     0.093 A 
BRANCH   3  13
ATOM     13  C   UNL     1       8.674  14.437 -18.839  1.00  0.00     0.025 A 
ATOM     14  C   UNL     1       8.415  14.495 -20.213  1.00  0.00     0.016 A 
ATOM     15  C   UNL     1       8.740  13.420 -21.039  1.00  0.00     0.051 A 
ATOM     16  C   UNL     1       9.320  12.259 -20.510  1.00  0.00     0.157 A 
ATOM     17  C   UNL     1       9.244  13.269 -18.301  1.00  0.00     0.062 A 
ATOM     18  C   UNL     1       9.570  12.182 -19.119  1.00  0.00     0.158 A 
BRANCH  16  19
ATOM     19  O   UNL     1       9.633  11.222 -21.392  1.00  0.00    -0.504 OA
ATOM     20  H   UNL     1       8.958  10.567 -21.754  1.00  0.00     0.293 HD
ENDBRANCH  16  19
BRANCH  18  21
ATOM     21  O   UNL     1      10.141  11.054 -18.518  1.00  0.00    -0.504 OA
ATOM     22  H   UNL     1      10.877  11.102 -17.828  1.00  0.00     0.293 HD
ENDBRANCH  18  21
ENDBRANCH   3  13
BRANCH  10  23
ATOM     23  O   UNL     1       6.839  18.985 -14.476  1.00  0.00    -0.507 OA
ATOM     24  H   UNL     1       7.386  18.824 -13.638  1.00  0.00     0.293 HD
ENDBRANCH  10  23
BRANCH  11  25
ATOM     25  O   UNL     1       8.668  21.568 -18.117  1.00  0.00    -0.508 OA
ATOM     26  H   UNL     1       8.143  21.952 -18.897  1.00  0.00     0.293 HD
ENDBRANCH  11  25
ENDBRANCH   1   2
BRANCH   1  27
ATOM     27  C   UNL     1       6.200  13.480 -15.915  1.00  0.00     0.339 C 
ATOM     28  C   UNL     1       5.881  12.255 -16.796  1.00  0.00     0.214 C 
ATOM     29  O   UNL     1       6.249  13.112 -14.546  1.00  0.00    -0.332 OA
ATOM     30  C   UNL     1       6.933  11.148 -16.561  1.00  0.00     0.180 C 
ATOM     31  C   UNL     1       7.292  12.183 -14.291  1.00  0.00     0.179 C 
ATOM     32  C   UNL     1       7.061  10.857 -15.058  1.00  0.00     0.177 C 
BRANCH  28  33
ATOM     33  O   UNL     1       5.875  12.622 -18.152  1.00  0.00    -0.384 OA
ATOM     34  H   UNL     1       6.486  11.996 -18.622  1.00  0.00     0.211 HD
ENDBRANCH  28  33
BRANCH  30  35
ATOM     35  O   UNL     1       6.581   9.962 -17.231  1.00  0.00    -0.387 OA
ATOM     36  H   UNL     1       6.336  10.205 -18.165  1.00  0.00     0.211 HD
ENDBRANCH  30  35
BRANCH  31  37
ATOM     37  C   UNL     1       7.403  11.970 -12.776  1.00  0.00     0.191 C 
BRANCH  37  38
ATOM     38  O   UNL     1       8.439  12.745 -12.239  1.00  0.00    -0.394 OA
ATOM     39  H   UNL     1       9.163  12.110 -11.998  1.00  0.00     0.210 HD
ENDBRANCH  37  38
ENDBRANCH  31  37
BRANCH  32  40
ATOM     40  O   UNL     1       5.885  10.223 -14.608  1.00  0.00    -0.387 OA
ATOM     41  H   UNL     1       5.733  10.516 -13.671  1.00  0.00     0.211 HD
ENDBRANCH  32  40
ENDBRANCH   1  27
TORSDOF 12
ENDMDL
MODEL 4
REMARK VINA RESULT:    -5.679      1.882      8.168
REMARK INTER + INTRA:         -10.378
REMARK INTER:                  -8.437
REMARK INTRA:                  -1.940
REMARK UNBOUND:                -2.043
REMARK SMILES O=c1c(O[C@@H]2O[C@@H](CO)[C@@H](O)[C@@H](O)[C@@H]2O)c(-c2ccc(O)c(O)c2)oc2cc(O)cc(O)c12
REMARK SMILES IDX 4 1 3 2 16 3 25 4 2 5 26 6 1 7 33 8 27 9 31 10 28 11 30 12
REMARK SMILES IDX 17 13 18 14 19 15 20 16 24 17 22 18 21 19 23 21 32 23 29 25
REMARK SMILES IDX 5 27 14 28 6 29 12 30 7 31 10 32 15 33 13 35 8 37 9 38 11 40
REMARK H PARENT 21 20 23 22 32 24 29 26 15 34 13 36 9 39 11 41
REMARK Flexibility Score: inf
ROOT
ATOM      1  O   UNL     1       7.051   9.012 -17.886  1.00  0.00    -0.454 OA
ENDROOT
BRANCH   1   2
ATOM      2  C   UNL     1       7.082  10.415 -17.759  1.00  0.00     0.214 A 
ATOM      3  C   UNL     1       7.283  10.950 -16.472  1.00  0.00     0.180 A 
ATOM      4  O   UNL     1       7.294  12.265 -16.286  1.00  0.00    -0.452 OA
ATOM      5  C   UNL     1       6.943  11.311 -18.844  1.00  0.00     0.239 A 
ATOM      6  C   UNL     1       7.142  13.142 -17.271  1.00  0.00     0.146 A 
ATOM      7  O   UNL     1       6.856  10.879 -20.022  1.00  0.00    -0.285 OA
ATOM      8  C   UNL     1       6.948  12.702 -18.598  1.00  0.00     0.111 A 
ATOM      9  C   UNL     1       7.187  14.507 -16.976  1.00  0.00     0.094 A 
ATOM     10  C   UNL     1       6.775  13.666 -19.623  1.00  0.00     0.134 A 
ATOM     11  C   UNL     1       7.038  15.453 -17.995  1.00  0.00     0.123 A 
ATOM     12  C   UNL     1       6.825  15.033 -19.308  1.00  0.00     0.093 A 
BRANCH   3  13
ATOM     13  C   UNL     1       7.461  10.079 -15.291  1.00  0.00     0.025 A 
ATOM     14  C   UNL     1       6.429   9.964 -14.353  1.00  0.00     0.016 A 
ATOM     15  C   UNL     1       6.583   9.156 -13.229  1.00  0.00     0.051 A 
ATOM     16  C   UNL     1       7.775   8.454 -13.007  1.00  0.00     0.157 A 
ATOM     17  C   UNL     1       8.666   9.387 -15.067  1.00  0.00     0.062 A 
ATOM     18  C   UNL     1       8.834   8.578 -13.938  1.00  0.00     0.158 A 
BRANCH  16  19
ATOM     19  O   UNL     1       7.863   7.653 -11.866  1.00  0.00    -0.504 OA
ATOM     20  H   UNL     1       7.612   6.678 -11.841  1.00  0.00     0.293 HD
ENDBRANCH  16  19
BRANCH  18  21
ATOM     21  O   UNL     1      10.055   7.912 -13.782  1.00  0.00    -0.504 OA
ATOM     22  H   UNL     1      10.560   7.484 -14.546  1.00  0.00     0.293 HD
ENDBRANCH  18  21
ENDBRANCH   3  13
BRANCH  10  23
ATOM     23  O   UNL     1       6.545  13.280 -20.948  1.00  0.00    -0.507 OA
ATOM     24  H   UNL     1       6.763  13.889 -21.727  1.00  0.00     0.293 HD
ENDBRANCH  10  23
BRANCH  11  25
ATOM     25  O   UNL     1       7.100  16.815 -17.713  1.00  0.00    -0.508 OA
ATOM     26  H   UNL     1       7.766  17.193 -17.045  1.00  0.00     0.293 HD
ENDBRANCH  11  25
ENDBRANCH   1   2
BRANCH   1  27
ATOM     27  C   UNL     1       5.917   8.136 -17.884  1.00  0.00     0.339 C 
ATOM     28  C   UNL     1       5.886   7.286 -19.171  1.00  0.00     0.214 C 
ATOM     29  O   UNL     1       5.947   7.303 -16.736  1.00  0.00    -0.332 OA
ATOM     30  C   UNL     1       7.109   6.341 -19.209  1.00  0.00     0.180 C 
ATOM     31  C   UNL     1       7.126   6.513 -16.694  1.00  0.00     0.179 C 
ATOM     32  C   UNL     1       7.193   5.542 -17.899  1.00  0.00     0.177 C 
BRANCH  28  33
ATOM     33  O   UNL     1       5.898   8.120 -20.302  1.00  0.00    -0.384 OA
ATOM     34  H   UNL     1       5.082   7.904 -20.825  1.00  0.00     0.211 HD
ENDBRANCH  28  33
BRANCH  30  35
ATOM     35  O   UNL     1       7.024   5.445 -20.290  1.00  0.00    -0.387 OA
ATOM     36  H   UNL     1       7.940   5.343 -20.669  1.00  0.00     0.211 HD
ENDBRANCH  30  35
BRANCH  31  37
ATOM     37  C   UNL     1       7.180   5.778 -15.348  1.00  0.00     0.191 C 
BRANCH  37  38
ATOM     38  O   UNL     1       5.888   5.531 -14.864  1.00  0.00    -0.394 OA
ATOM     39  H   UNL     1       5.605   6.362 -14.399  1.00  0.00     0.210 HD
ENDBRANCH  37  38
ENDBRANCH  31  37
BRANCH  32  40
ATOM     40  O   UNL     1       6.129   4.619 -17.852  1.00  0.00    -0.387 OA
ATOM     41  H   UNL     1       5.285   5.143 -17.848  1.00  0.00     0.211 HD
ENDBRANCH  32  40
ENDBRANCH   1  27
TORSDOF 12
ENDMDL
MODEL 5
REMARK VINA RESULT:    -5.613      2.976      8.545
REMARK INTER + INTRA:         -10.281
REMARK INTER:                  -8.920
REMARK INTRA:                  -1.361
REMARK UNBOUND:                -2.043
REMARK SMILES O=c1c(O[C@@H]2O[C@@H](CO)[C@@H](O)[C@@H](O)[C@@H]2O)c(-c2ccc(O)c(O)c2)oc2cc(O)cc(O)c12
REMARK SMILES IDX 4 1 3 2 16 3 25 4 2 5 26 6 1 7 33 8 27 9 31 10 28 11 30 12
REMARK SMILES IDX 17 13 18 14 19 15 20 16 24 17 22 18 21 19 23 21 32 23 29 25
REMARK SMILES IDX 5 27 14 28 6 29 12 30 7 31 10 32 15 33 13 35 8 37 9 38 11 40
REMARK H PARENT 21 20 23 22 32 24 29 26 15 34 13 36 9 39 11 41
REMARK Flexibility Score: inf
ROOT
ATOM      1  O   UNL     1       8.191  14.851 -18.762  1.00  0.00    -0.454 OA
ENDROOT
BRANCH   1   2
ATOM      2  C   UNL     1       7.924  15.905 -17.867  1.00  0.00     0.214 A 
ATOM      3  C   UNL     1       7.934  15.611 -16.489  1.00  0.00     0.180 A 
ATOM      4  O   UNL     1       7.662  16.559 -15.599  1.00  0.00    -0.452 OA
ATOM      5  C   UNL     1       7.667  17.237 -18.267  1.00  0.00     0.239 A 
ATOM      6  C   UNL     1       7.391  17.815 -15.931  1.00  0.00     0.146 A 
ATOM      7  O   UNL     1       7.742  17.565 -19.479  1.00  0.00    -0.285 OA
ATOM      8  C   UNL     1       7.371  18.210 -17.287  1.00  0.00     0.111 A 
ATOM      9  C   UNL     1       7.136  18.744 -14.919  1.00  0.00     0.094 A 
ATOM     10  C   UNL     1       7.064  19.556 -17.605  1.00  0.00     0.134 A 
ATOM     11  C   UNL     1       6.856  20.076 -15.239  1.00  0.00     0.123 A 
ATOM     12  C   UNL     1       6.812  20.476 -16.575  1.00  0.00     0.093 A 
BRANCH   3  13
ATOM     13  C   UNL     1       8.218  14.249 -15.991  1.00  0.00     0.025 A 
ATOM     14  C   UNL     1       7.253  13.574 -15.234  1.00  0.00     0.016 A 
ATOM     15  C   UNL     1       7.507  12.293 -14.746  1.00  0.00     0.051 A 
ATOM     16  C   UNL     1       8.733  11.662 -14.993  1.00  0.00     0.157 A 
ATOM     17  C   UNL     1       9.456  13.625 -16.230  1.00  0.00     0.062 A 
ATOM     18  C   UNL     1       9.724  12.342 -15.740  1.00  0.00     0.158 A 
BRANCH  16  19
ATOM     19  O   UNL     1       8.922  10.374 -14.485  1.00  0.00    -0.504 OA
ATOM     20  H   UNL     1       9.360  10.175 -13.600  1.00  0.00     0.293 HD
ENDBRANCH  16  19
BRANCH  18  21
ATOM     21  O   UNL     1      10.974  11.779 -16.022  1.00  0.00    -0.504 OA
ATOM     22  H   UNL     1      11.154  10.784 -16.005  1.00  0.00     0.293 HD
ENDBRANCH  18  21
ENDBRANCH   3  13
BRANCH  10  23
ATOM     23  O   UNL     1       6.998  19.987 -18.935  1.00  0.00    -0.507 OA
ATOM     24  H   UNL     1       6.223  19.739 -19.538  1.00  0.00     0.293 HD
ENDBRANCH  10  23
BRANCH  11  25
ATOM     25  O   UNL     1       6.619  21.012 -14.236  1.00  0.00    -0.508 OA
ATOM     26  H   UNL     1       6.434  20.732 -13.277  1.00  0.00     0.293 HD
ENDBRANCH  11  25
ENDBRANCH   1   2
BRANCH   1  27
ATOM     27  C   UNL     1       7.372  14.348 -19.825  1.00  0.00     0.339 C 
ATOM     28  C   UNL     1       8.238  13.640 -20.888  1.00  0.00     0.214 C 
ATOM     29  O   UNL     1       6.392  13.462 -19.309  1.00  0.00    -0.332 OA
ATOM     30  C   UNL     1       8.899  12.383 -20.278  1.00  0.00     0.180 C 
ATOM     31  C   UNL     1       6.985  12.360 -18.639  1.00  0.00     0.179 C 
ATOM     32  C   UNL     1       7.832  11.502 -19.611  1.00  0.00     0.177 C 
BRANCH  28  33
ATOM     33  O   UNL     1       9.231  14.513 -21.363  1.00  0.00    -0.384 OA
ATOM     34  H   UNL     1       9.161  14.515 -22.354  1.00  0.00     0.211 HD
ENDBRANCH  28  33
BRANCH  30  35
ATOM     35  O   UNL     1       9.567  11.632 -21.263  1.00  0.00    -0.387 OA
ATOM     36  H   UNL     1       9.230  11.933 -22.150  1.00  0.00     0.211 HD
ENDBRANCH  30  35
BRANCH  31  37
ATOM     37  C   UNL     1       5.879  11.545 -17.954  1.00  0.00     0.191 C 
BRANCH  37  38
ATOM     38  O   UNL     1       6.306  10.234 -17.710  1.00  0.00    -0.394 OA
ATOM     39  H   UNL     1       6.186   9.741 -18.563  1.00  0.00     0.210 HD
ENDBRANCH  37  38
ENDBRANCH  31  37
BRANCH  32  40
ATOM     40  O   UNL     1       7.016  10.931 -20.608  1.00  0.00    -0.387 OA
ATOM     41  H   UNL     1       6.979  11.576 -21.363  1.00  0.00     0.211 HD
ENDBRANCH  32  40
ENDBRANCH   1  27
TORSDOF 12
ENDMDL
MODEL 6
REMARK VINA RESULT:    -5.592      2.240      4.186
REMARK INTER + INTRA:         -10.251
REMARK INTER:                  -8.314
REMARK INTRA:                  -1.937
REMARK UNBOUND:                -2.043
REMARK SMILES O=c1c(O[C@@H]2O[C@@H](CO)[C@@H](O)[C@@H](O)[C@@H]2O)c(-c2ccc(O)c(O)c2)oc2cc(O)cc(O)c12
REMARK SMILES IDX 4 1 3 2 16 3 25 4 2 5 26 6 1 7 33 8 27 9 31 10 28 11 30 12
REMARK SMILES IDX 17 13 18 14 19 15 20 16 24 17 22 18 21 19 23 21 32 23 29 25
REMARK SMILES IDX 5 27 14 28 6 29 12 30 7 31 10 32 15 33 13 35 8 37 9 38 11 40
REMARK H PARENT 21 20 23 22 32 24 29 26 15 34 13 36 9 39 11 41
REMARK Flexibility Score: inf
ROOT
ATOM      1  O   UNL     1       7.480   8.085 -15.240  1.00  0.00    -0.454 OA
ENDROOT
BRANCH   1   2
ATOM      2  C   UNL     1       7.463   7.116 -16.263  1.00  0.00     0.214 A 
ATOM      3  C   UNL     1       7.563   7.567 -17.593  1.00  0.00     0.180 A 
ATOM      4  O   UNL     1       7.524   6.703 -18.600  1.00  0.00    -0.452 OA
ATOM      5  C   UNL     1       7.368   5.724 -16.032  1.00  0.00     0.239 A 
ATOM      6  C   UNL     1       7.411   5.391 -18.431  1.00  0.00     0.146 A 
ATOM      7  O   UNL     1       7.372   5.270 -14.859  1.00  0.00    -0.285 OA
ATOM      8  C   UNL     1       7.317   4.841 -17.133  1.00  0.00     0.111 A 
ATOM      9  C   UNL     1       7.397   4.561 -19.555  1.00  0.00     0.094 A 
ATOM     10  C   UNL     1       7.184   3.437 -16.991  1.00  0.00     0.134 A 
ATOM     11  C   UNL     1       7.288   3.175 -19.405  1.00  0.00     0.123 A 
ATOM     12  C   UNL     1       7.173   2.619 -18.131  1.00  0.00     0.093 A 
BRANCH   3  13
ATOM     13  C   UNL     1       7.689   9.005 -17.915  1.00  0.00     0.025 A 
ATOM     14  C   UNL     1       6.574   9.710 -18.382  1.00  0.00     0.016 A 
ATOM     15  C   UNL     1       6.676  11.063 -18.700  1.00  0.00     0.051 A 
ATOM     16  C   UNL     1       7.896  11.739 -18.572  1.00  0.00     0.157 A 
ATOM     17  C   UNL     1       8.920   9.676 -17.797  1.00  0.00     0.062 A 
ATOM     18  C   UNL     1       9.036  11.033 -18.119  1.00  0.00     0.158 A 
BRANCH  16  19
ATOM     19  O   UNL     1       7.930  13.098 -18.898  1.00  0.00    -0.504 OA
ATOM     20  H   UNL     1       7.595  13.831 -18.294  1.00  0.00     0.293 HD
ENDBRANCH  16  19
BRANCH  18  21
ATOM     21  O   UNL     1      10.288  11.640 -17.972  1.00  0.00    -0.504 OA
ATOM     22  H   UNL     1      11.066  11.473 -18.595  1.00  0.00     0.293 HD
ENDBRANCH  18  21
ENDBRANCH   3  13
BRANCH  10  23
ATOM     23  O   UNL     1       7.052   2.849 -15.728  1.00  0.00    -0.507 OA
ATOM     24  H   UNL     1       7.653   2.091 -15.427  1.00  0.00     0.293 HD
ENDBRANCH  10  23
BRANCH  11  25
ATOM     25  O   UNL     1       7.292   2.339 -20.519  1.00  0.00    -0.508 OA
ATOM     26  H   UNL     1       6.672   1.537 -20.587  1.00  0.00     0.293 HD
ENDBRANCH  11  25
ENDBRANCH   1   2
BRANCH   1  27
ATOM     27  C   UNL     1       6.383   8.813 -14.675  1.00  0.00     0.339 C 
ATOM     28  C   UNL     1       6.295   8.566 -13.155  1.00  0.00     0.214 C 
ATOM     29  O   UNL     1       6.524  10.198 -14.948  1.00  0.00    -0.332 OA
ATOM     30  C   UNL     1       7.546   9.140 -12.453  1.00  0.00     0.180 C 
ATOM     31  C   UNL     1       7.732  10.716 -14.412  1.00  0.00     0.179 C 
ATOM     32  C   UNL     1       7.752  10.606 -12.866  1.00  0.00     0.177 C 
BRANCH  28  33
ATOM     33  O   UNL     1       6.196   7.189 -12.893  1.00  0.00    -0.384 OA
ATOM     34  H   UNL     1       5.480   6.835 -13.483  1.00  0.00     0.211 HD
ENDBRANCH  28  33
BRANCH  30  35
ATOM     35  O   UNL     1       7.421   9.071 -11.054  1.00  0.00    -0.387 OA
ATOM     36  H   UNL     1       6.598   9.572 -10.800  1.00  0.00     0.211 HD
ENDBRANCH  30  35
BRANCH  31  37
ATOM     37  C   UNL     1       7.907  12.162 -14.896  1.00  0.00     0.191 C 
BRANCH  37  38
ATOM     38  O   UNL     1       8.550  12.938 -13.923  1.00  0.00    -0.394 OA
ATOM     39  H   UNL     1       9.378  13.284 -14.348  1.00  0.00     0.210 HD
ENDBRANCH  37  38
ENDBRANCH  31  37
BRANCH  32  40
ATOM     40  O   UNL     1       6.729  11.393 -12.300  1.00  0.00    -0.387 OA
ATOM     41  H   UNL     1       7.024  12.341 -12.353  1.00  0.00     0.211 HD
ENDBRANCH  32  40
ENDBRANCH   1  27
TORSDOF 12
ENDMDL
MODEL 7
REMARK VINA RESULT:    -5.590      1.648      4.746
REMARK INTER + INTRA:         -10.247
REMARK INTER:                  -8.387
REMARK INTRA:                  -1.860
REMARK UNBOUND:                -2.043
REMARK SMILES O=c1c(O[C@@H]2O[C@@H](CO)[C@@H](O)[C@@H](O)[C@@H]2O)c(-c2ccc(O)c(O)c2)oc2cc(O)cc(O)c12
REMARK SMILES IDX 4 1 3 2 16 3 25 4 2 5 26 6 1 7 33 8 27 9 31 10 28 11 30 12
REMARK SMILES IDX 17 13 18 14 19 15 20 16 24 17 22 18 21 19 23 21 32 23 29 25
REMARK SMILES IDX 5 27 14 28 6 29 12 30 7 31 10 32 15 33 13 35 8 37 9 38 11 40
REMARK H PARENT 21 20 23 22 32 24 29 26 15 34 13 36 9 39 11 41
REMARK Flexibility Score: inf
ROOT
ATOM      1  O   UNL     1       7.960  11.736 -18.296  1.00  0.00    -0.454 OA
ENDROOT
BRANCH   1   2
ATOM      2  C   UNL     1       8.164  10.599 -17.490  1.00  0.00     0.214 A 
ATOM      3  C   UNL     1       9.078  10.708 -16.424  1.00  0.00     0.180 A 
ATOM      4  O   UNL     1       9.332   9.662 -15.647  1.00  0.00    -0.452 OA
ATOM      5  C   UNL     1       7.495   9.367 -17.676  1.00  0.00     0.239 A 
ATOM      6  C   UNL     1       8.746   8.481 -15.801  1.00  0.00     0.146 A 
ATOM      7  O   UNL     1       6.602   9.253 -18.555  1.00  0.00    -0.285 OA
ATOM      8  C   UNL     1       7.805   8.276 -16.834  1.00  0.00     0.111 A 
ATOM      9  C   UNL     1       9.066   7.444 -14.920  1.00  0.00     0.094 A 
ATOM     10  C   UNL     1       7.209   6.998 -16.977  1.00  0.00     0.134 A 
ATOM     11  C   UNL     1       8.458   6.193 -15.054  1.00  0.00     0.123 A 
ATOM     12  C   UNL     1       7.542   5.970 -16.082  1.00  0.00     0.093 A 
BRANCH   3  13
ATOM     13  C   UNL     1       9.799  11.969 -16.149  1.00  0.00     0.025 A 
ATOM     14  C   UNL     1      11.177  12.043 -16.379  1.00  0.00     0.016 A 
ATOM     15  C   UNL     1      11.876  13.219 -16.116  1.00  0.00     0.051 A 
ATOM     16  C   UNL     1      11.217  14.346 -15.606  1.00  0.00     0.157 A 
ATOM     17  C   UNL     1       9.135  13.093 -15.624  1.00  0.00     0.062 A 
ATOM     18  C   UNL     1       9.826  14.278 -15.351  1.00  0.00     0.158 A 
BRANCH  16  19
ATOM     19  O   UNL     1      11.972  15.498 -15.373  1.00  0.00    -0.504 OA
ATOM     20  H   UNL     1      12.870  15.678 -15.793  1.00  0.00     0.293 HD
ENDBRANCH  16  19
BRANCH  18  21
ATOM     21  O   UNL     1       9.102  15.360 -14.837  1.00  0.00    -0.504 OA
ATOM     22  H   UNL     1       9.444  16.311 -14.837  1.00  0.00     0.293 HD
ENDBRANCH  18  21
ENDBRANCH   3  13
BRANCH  10  23
ATOM     23  O   UNL     1       6.297   6.737 -18.007  1.00  0.00    -0.507 OA
ATOM     24  H   UNL     1       5.626   7.431 -18.313  1.00  0.00     0.293 HD
ENDBRANCH  10  23
BRANCH  11  25
ATOM     25  O   UNL     1       8.758   5.160 -14.168  1.00  0.00    -0.508 OA
ATOM     26  H   UNL     1       8.385   5.141 -13.224  1.00  0.00     0.293 HD
ENDBRANCH  11  25
ENDBRANCH   1   2
BRANCH   1  27
ATOM     27  C   UNL     1       8.667  12.138 -19.476  1.00  0.00     0.339 C 
ATOM     28  C   UNL     1       7.709  12.212 -20.683  1.00  0.00     0.214 C 
ATOM     29  O   UNL     1       9.300  13.389 -19.263  1.00  0.00    -0.332 OA
ATOM     30  C   UNL     1       6.662  13.326 -20.458  1.00  0.00     0.180 C 
ATOM     31  C   UNL     1       8.360  14.402 -18.936  1.00  0.00     0.179 C 
ATOM     32  C   UNL     1       7.369  14.644 -20.102  1.00  0.00     0.177 C 
BRANCH  28  33
ATOM     33  O   UNL     1       7.058  10.980 -20.860  1.00  0.00    -0.384 OA
ATOM     34  H   UNL     1       6.132  11.093 -20.518  1.00  0.00     0.211 HD
ENDBRANCH  28  33
BRANCH  30  35
ATOM     35  O   UNL     1       5.875  13.523 -21.607  1.00  0.00    -0.387 OA
ATOM     36  H   UNL     1       5.085  12.921 -21.537  1.00  0.00     0.211 HD
ENDBRANCH  30  35
BRANCH  31  37
ATOM     37  C   UNL     1       9.121  15.675 -18.544  1.00  0.00     0.191 C 
BRANCH  37  38
ATOM     38  O   UNL     1      10.253  15.847 -19.352  1.00  0.00    -0.394 OA
ATOM     39  H   UNL     1      10.058  16.624 -19.938  1.00  0.00     0.210 HD
ENDBRANCH  37  38
ENDBRANCH  31  37
BRANCH  32  40
ATOM     40  O   UNL     1       8.048  15.126 -21.239  1.00  0.00    -0.387 OA
ATOM     41  H   UNL     1       8.306  14.336 -21.784  1.00  0.00     0.211 HD
ENDBRANCH  32  40
ENDBRANCH   1  27
TORSDOF 12
ENDMDL
MODEL 8
REMARK VINA RESULT:    -5.433      3.473      8.821
REMARK INTER + INTRA:         -10.018
REMARK INTER:                  -8.834
REMARK INTRA:                  -1.184
REMARK UNBOUND:                -2.043
REMARK SMILES O=c1c(O[C@@H]2O[C@@H](CO)[C@@H](O)[C@@H](O)[C@@H]2O)c(-c2ccc(O)c(O)c2)oc2cc(O)cc(O)c12
REMARK SMILES IDX 4 1 3 2 16 3 25 4 2 5 26 6 1 7 33 8 27 9 31 10 28 11 30 12
REMARK SMILES IDX 17 13 18 14 19 15 20 16 24 17 22 18 21 19 23 21 32 23 29 25
REMARK SMILES IDX 5 27 14 28 6 29 12 30 7 31 10 32 15 33 13 35 8 37 9 38 11 40
REMARK H PARENT 21 20 23 22 32 24 29 26 15 34 13 36 9 39 11 41
REMARK Flexibility Score: inf
ROOT
ATOM      1  O   UNL     1       8.190  15.684 -18.412  1.00  0.00    -0.454 OA
ENDROOT
BRANCH   1   2
ATOM      2  C   UNL     1       7.952  16.687 -17.451  1.00  0.00     0.214 A 
ATOM      3  C   UNL     1       7.523  16.279 -16.173  1.00  0.00     0.180 A 
ATOM      4  O   UNL     1       7.257  17.181 -15.235  1.00  0.00    -0.452 OA
ATOM      5  C   UNL     1       8.135  18.069 -17.689  1.00  0.00     0.239 A 
ATOM      6  C   UNL     1       7.390  18.488 -15.422  1.00  0.00     0.146 A 
ATOM      7  O   UNL     1       8.606  18.472 -18.783  1.00  0.00    -0.285 OA
ATOM      8  C   UNL     1       7.827  18.994 -16.666  1.00  0.00     0.111 A 
ATOM      9  C   UNL     1       7.102  19.357 -14.366  1.00  0.00     0.094 A 
ATOM     10  C   UNL     1       7.945  20.396 -16.834  1.00  0.00     0.134 A 
ATOM     11  C   UNL     1       7.242  20.738 -14.532  1.00  0.00     0.123 A 
ATOM     12  C   UNL     1       7.652  21.253 -15.762  1.00  0.00     0.093 A 
BRANCH   3  13
ATOM     13  C   UNL     1       7.332  14.852 -15.840  1.00  0.00     0.025 A 
ATOM     14  C   UNL     1       6.083  14.255 -16.042  1.00  0.00     0.016 A 
ATOM     15  C   UNL     1       5.881  12.913 -15.724  1.00  0.00     0.051 A 
ATOM     16  C   UNL     1       6.918  12.140 -15.186  1.00  0.00     0.157 A 
ATOM     17  C   UNL     1       8.374  14.083 -15.288  1.00  0.00     0.062 A 
ATOM     18  C   UNL     1       8.181  12.737 -14.959  1.00  0.00     0.158 A 
BRANCH  16  19
ATOM     19  O   UNL     1       6.654  10.798 -14.898  1.00  0.00    -0.504 OA
ATOM     20  H   UNL     1       6.005  10.228 -15.415  1.00  0.00     0.293 HD
ENDBRANCH  16  19
BRANCH  18  21
ATOM     21  O   UNL     1       9.262  12.030 -14.420  1.00  0.00    -0.504 OA
ATOM     22  H   UNL     1       9.705  12.272 -13.544  1.00  0.00     0.293 HD
ENDBRANCH  18  21
ENDBRANCH   3  13
BRANCH  10  23
ATOM     23  O   UNL     1       8.340  20.947 -18.059  1.00  0.00    -0.507 OA
ATOM     24  H   UNL     1       9.306  21.179 -18.253  1.00  0.00     0.293 HD
ENDBRANCH  10  23
BRANCH  11  25
ATOM     25  O   UNL     1       6.975  21.609 -13.479  1.00  0.00    -0.508 OA
ATOM     26  H   UNL     1       7.155  21.352 -12.514  1.00  0.00     0.293 HD
ENDBRANCH  11  25
ENDBRANCH   1   2
BRANCH   1  27
ATOM     27  C   UNL     1       9.404  15.379 -19.110  1.00  0.00     0.339 C 
ATOM     28  C   UNL     1       9.483  13.872 -19.426  1.00  0.00     0.214 C 
ATOM     29  O   UNL     1       9.487  16.145 -20.301  1.00  0.00    -0.332 OA
ATOM     30  C   UNL     1       8.359  13.480 -20.412  1.00  0.00     0.180 C 
ATOM     31  C   UNL     1       8.393  15.884 -21.167  1.00  0.00     0.179 C 
ATOM     32  C   UNL     1       8.389  14.408 -21.636  1.00  0.00     0.177 C 
BRANCH  28  33
ATOM     33  O   UNL     1       9.360  13.122 -18.245  1.00  0.00    -0.384 OA
ATOM     34  H   UNL     1       9.089  13.755 -17.530  1.00  0.00     0.211 HD
ENDBRANCH  28  33
BRANCH  30  35
ATOM     35  O   UNL     1       8.502  12.148 -20.841  1.00  0.00    -0.387 OA
ATOM     36  H   UNL     1       8.324  11.559 -20.058  1.00  0.00     0.211 HD
ENDBRANCH  30  35
BRANCH  31  37
ATOM     37  C   UNL     1       8.448  16.869 -22.342  1.00  0.00     0.191 C 
BRANCH  37  38
ATOM     38  O   UNL     1       8.044  16.248 -23.532  1.00  0.00    -0.394 OA
ATOM     39  H   UNL     1       8.820  15.711 -23.840  1.00  0.00     0.210 HD
ENDBRANCH  37  38
ENDBRANCH  31  37
BRANCH  32  40
ATOM     40  O   UNL     1       9.539  14.127 -22.400  1.00  0.00    -0.387 OA
ATOM     41  H   UNL     1      10.069  14.966 -22.453  1.00  0.00     0.211 HD
ENDBRANCH  32  40
ENDBRANCH   1  27
TORSDOF 12
ENDMDL
MODEL 9
REMARK VINA RESULT:    -5.379      2.166      4.985
REMARK INTER + INTRA:          -9.938
REMARK INTER:                  -8.964
REMARK INTRA:                  -0.974
REMARK UNBOUND:                -2.043
REMARK SMILES O=c1c(O[C@@H]2O[C@@H](CO)[C@@H](O)[C@@H](O)[C@@H]2O)c(-c2ccc(O)c(O)c2)oc2cc(O)cc(O)c12
REMARK SMILES IDX 4 1 3 2 16 3 25 4 2 5 26 6 1 7 33 8 27 9 31 10 28 11 30 12
REMARK SMILES IDX 17 13 18 14 19 15 20 16 24 17 22 18 21 19 23 21 32 23 29 25
REMARK SMILES IDX 5 27 14 28 6 29 12 30 7 31 10 32 15 33 13 35 8 37 9 38 11 40
REMARK H PARENT 21 20 23 22 32 24 29 26 15 34 13 36 9 39 11 41
REMARK Flexibility Score: inf
ROOT
ATOM      1  O   UNL     1       6.515  11.208 -17.240  1.00  0.00    -0.454 OA
ENDROOT
BRANCH   1   2
ATOM      2  C   UNL     1       6.683  10.754 -15.917  1.00  0.00     0.214 A 
ATOM      3  C   UNL     1       7.057  11.702 -14.944  1.00  0.00     0.180 A 
ATOM      4  O   UNL     1       7.257  11.329 -13.685  1.00  0.00    -0.452 OA
ATOM      5  C   UNL     1       6.482   9.416 -15.507  1.00  0.00     0.239 A 
ATOM      6  C   UNL     1       7.105  10.080 -13.262  1.00  0.00     0.146 A 
ATOM      7  O   UNL     1       6.057   8.556 -16.321  1.00  0.00    -0.285 OA
ATOM      8  C   UNL     1       6.720   9.060 -14.161  1.00  0.00     0.111 A 
ATOM      9  C   UNL     1       7.321   9.789 -11.913  1.00  0.00     0.094 A 
ATOM     10  C   UNL     1       6.580   7.736 -13.677  1.00  0.00     0.134 A 
ATOM     11  C   UNL     1       7.160   8.484 -11.438  1.00  0.00     0.123 A 
ATOM     12  C   UNL     1       6.800   7.463 -12.318  1.00  0.00     0.093 A 
BRANCH   3  13
ATOM     13  C   UNL     1       7.262  13.125 -15.288  1.00  0.00     0.025 A 
ATOM     14  C   UNL     1       6.176  14.007 -15.259  1.00  0.00     0.016 A 
ATOM     15  C   UNL     1       6.348  15.350 -15.591  1.00  0.00     0.051 A 
ATOM     16  C   UNL     1       7.605  15.839 -15.971  1.00  0.00     0.157 A 
ATOM     17  C   UNL     1       8.523  13.608 -15.683  1.00  0.00     0.062 A 
ATOM     18  C   UNL     1       8.707  14.952 -16.024  1.00  0.00     0.158 A 
BRANCH  16  19
ATOM     19  O   UNL     1       7.713  17.197 -16.282  1.00  0.00    -0.504 OA
ATOM     20  H   UNL     1       8.443  17.798 -15.936  1.00  0.00     0.293 HD
ENDBRANCH  16  19
BRANCH  18  21
ATOM     21  O   UNL     1       9.989  15.367 -16.400  1.00  0.00    -0.504 OA
ATOM     22  H   UNL     1      10.818  14.803 -16.270  1.00  0.00     0.293 HD
ENDBRANCH  18  21
ENDBRANCH   3  13
BRANCH  10  23
ATOM     23  O   UNL     1       6.234   6.686 -14.536  1.00  0.00    -0.507 OA
ATOM     24  H   UNL     1       6.935   6.138 -15.018  1.00  0.00     0.293 HD
ENDBRANCH  10  23
BRANCH  11  25
ATOM     25  O   UNL     1       7.356   8.190 -10.091  1.00  0.00    -0.508 OA
ATOM     26  H   UNL     1       7.097   8.844  -9.358  1.00  0.00     0.293 HD
ENDBRANCH  11  25
ENDBRANCH   1   2
BRANCH   1  27
ATOM     27  C   UNL     1       6.942  10.591 -18.461  1.00  0.00     0.339 C 
ATOM     28  C   UNL     1       7.083  11.643 -19.579  1.00  0.00     0.214 C 
ATOM     29  O   UNL     1       8.169   9.909 -18.259  1.00  0.00    -0.332 OA
ATOM     30  C   UNL     1       8.214  12.637 -19.229  1.00  0.00     0.180 C 
ATOM     31  C   UNL     1       9.191  10.790 -17.819  1.00  0.00     0.179 C 
ATOM     32  C   UNL     1       9.500  11.868 -18.888  1.00  0.00     0.177 C 
BRANCH  28  33
ATOM     33  O   UNL     1       5.875  12.341 -19.744  1.00  0.00    -0.384 OA
ATOM     34  H   UNL     1       5.718  12.417 -20.722  1.00  0.00     0.211 HD
ENDBRANCH  28  33
BRANCH  30  35
ATOM     35  O   UNL     1       8.472  13.512 -20.300  1.00  0.00    -0.387 OA
ATOM     36  H   UNL     1       8.291  14.438 -19.983  1.00  0.00     0.211 HD
ENDBRANCH  30  35
BRANCH  31  37
ATOM     37  C   UNL     1      10.430   9.965 -17.449  1.00  0.00     0.191 C 
BRANCH  37  38
ATOM     38  O   UNL     1      10.518   8.814 -18.243  1.00  0.00    -0.394 OA
ATOM     39  H   UNL     1      10.192   8.064 -17.680  1.00  0.00     0.210 HD
ENDBRANCH  37  38
ENDBRANCH  31  37
BRANCH  32  40
ATOM     40  O   UNL     1      10.007  11.273 -20.061  1.00  0.00    -0.387 OA
ATOM     41  H   UNL     1      10.706  11.880 -20.421  1.00  0.00     0.211 HD
ENDBRANCH  32  40
ENDBRANCH   1  27
TORSDOF 12
ENDMDL
