MODEL 1
REMARK VINA RESULT:    -5.818      0.000      0.000
REMARK INTER + INTRA:         -10.830
REMARK INTER:                  -9.899
REMARK INTRA:                  -0.931
REMARK UNBOUND:                -0.931
REMARK SMILES CCCCCCCCCCCCCC(=O)[O-]
REMARK SMILES IDX 8 1 9 2 10 3 11 4 12 5 13 6 14 7 15 8 16 9 7 10 6 11 5 12
REMARK SMILES IDX 4 13 3 14 2 15 1 16
REMARK H PARENT
REMARK Flexibility Score: inf
ROOT
ATOM      1  C   UNL     1      29.864   0.103  41.518  1.00  0.00     0.000 C 
ENDROOT
BRANCH   1   2
ATOM      2  C   UNL     1      31.142  -0.747  41.436  1.00  0.00     0.000 C 
BRANCH   2   3
ATOM      3  C   UNL     1      32.120  -0.240  40.365  1.00  0.00     0.000 C 
BRANCH   3   4
ATOM      4  C   UNL     1      32.110   1.293  40.232  1.00  0.00     0.000 C 
BRANCH   4   5
ATOM      5  C   UNL     1      32.002   1.758  38.771  1.00  0.00     0.006 C 
BRANCH   5   6
ATOM      6  C   UNL     1      31.360   0.703  37.862  1.00  0.00     0.053 C 
BRANCH   6   7
ATOM      7  C   UNL     1      29.868   0.795  37.929  1.00  0.00     0.041 C 
ATOM      8  O   UNL     1      29.320   1.677  38.642  1.00  0.00    -0.550 OA
ATOM      9  O   UNL     1      29.083  -0.122  37.243  1.00  0.00    -0.550 OA
ENDBRANCH   6   7
ENDBRANCH   5   6
ENDBRANCH   4   5
ENDBRANCH   3   4
ENDBRANCH   2   3
ENDBRANCH   1   2
BRANCH   1  10
ATOM     10  C   UNL     1      28.628  -0.730  41.148  1.00  0.00     0.000 C 
BRANCH  10  11
ATOM     11  C   UNL     1      28.258  -1.759  42.228  1.00  0.00    -0.000 C 
BRANCH  11  12
ATOM     12  C   UNL     1      28.020  -1.113  43.604  1.00  0.00    -0.000 C 
BRANCH  12  13
ATOM     13  C   UNL     1      28.774  -1.836  44.732  1.00  0.00    -0.000 C 
BRANCH  13  14
ATOM     14  C   UNL     1      30.256  -1.430  44.811  1.00  0.00    -0.000 C 
BRANCH  14  15
ATOM     15  C   UNL     1      30.704  -1.115  46.248  1.00  0.00    -0.003 C 
ATOM     16  C   UNL     1      30.173  -2.124  47.265  1.00  0.00     0.004 C 
ENDBRANCH  14  15
ENDBRANCH  13  14
ENDBRANCH  12  13
ENDBRANCH  11  12
ENDBRANCH  10  11
ENDBRANCH   1  10
TORSDOF 12
ENDMDL
MODEL 2
REMARK VINA RESULT:    -5.143      0.787      1.666
REMARK INTER + INTRA:          -9.682
REMARK INTER:                  -9.642
REMARK INTRA:                  -0.040
REMARK UNBOUND:                -0.931
REMARK SMILES CCCCCCCCCCCCCC(=O)[O-]
REMARK SMILES IDX 8 1 9 2 10 3 11 4 12 5 13 6 14 7 15 8 16 9 7 10 6 11 5 12
REMARK SMILES IDX 4 13 3 14 2 15 1 16
REMARK H PARENT
REMARK Flexibility Score: inf
ROOT
ATOM      1  C   UNL     1      31.616  -0.473  40.688  1.00  0.00     0.000 C 
ENDROOT
BRANCH   1   2
ATOM      2  C   UNL     1      32.125   0.946  40.984  1.00  0.00     0.000 C 
BRANCH   2   3
ATOM      3  C   UNL     1      31.505   2.003  40.057  1.00  0.00     0.000 C 
BRANCH   3   4
ATOM      4  C   UNL     1      32.057   1.926  38.621  1.00  0.00     0.000 C 
BRANCH   4   5
ATOM      5  C   UNL     1      31.623   0.646  37.890  1.00  0.00     0.006 C 
BRANCH   5   6
ATOM      6  C   UNL     1      30.264   0.795  37.195  1.00  0.00     0.053 C 
BRANCH   6   7
ATOM      7  C   UNL     1      29.153   0.543  38.165  1.00  0.00     0.041 C 
ATOM      8  O   UNL     1      28.812  -0.637  38.445  1.00  0.00    -0.550 OA
ATOM      9  O   UNL     1      28.460   1.610  38.722  1.00  0.00    -0.550 OA
ENDBRANCH   6   7
ENDBRANCH   5   6
ENDBRANCH   4   5
ENDBRANCH   3   4
ENDBRANCH   2   3
ENDBRANCH   1   2
BRANCH   1  10
ATOM     10  C   UNL     1      30.716  -0.980  41.824  1.00  0.00     0.000 C 
BRANCH  10  11
ATOM     11  C   UNL     1      29.250  -1.147  41.393  1.00  0.00    -0.000 C 
BRANCH  11  12
ATOM     12  C   UNL     1      28.321  -1.487  42.572  1.00  0.00    -0.000 C 
BRANCH  12  13
ATOM     13  C   UNL     1      28.727  -0.767  43.868  1.00  0.00    -0.000 C 
BRANCH  13  14
ATOM     14  C   UNL     1      29.142  -1.741  44.985  1.00  0.00    -0.000 C 
BRANCH  14  15
ATOM     15  C   UNL     1      30.423  -1.295  45.708  1.00  0.00    -0.003 C 
ATOM     16  C   UNL     1      30.530  -1.866  47.122  1.00  0.00     0.004 C 
ENDBRANCH  14  15
ENDBRANCH  13  14
ENDBRANCH  12  13
ENDBRANCH  11  12
ENDBRANCH  10  11
ENDBRANCH   1  10
TORSDOF 12
ENDMDL
MODEL 3
REMARK VINA RESULT:    -5.043      0.818      1.665
REMARK INTER + INTRA:          -9.512
REMARK INTER:                  -9.097
REMARK INTRA:                  -0.415
REMARK UNBOUND:                -0.931
REMARK SMILES CCCCCCCCCCCCCC(=O)[O-]
REMARK SMILES IDX 8 1 9 2 10 3 11 4 12 5 13 6 14 7 15 8 16 9 7 10 6 11 5 12
REMARK SMILES IDX 4 13 3 14 2 15 1 16
REMARK H PARENT
REMARK Flexibility Score: inf
ROOT
ATOM      1  C   UNL     1      28.112  -0.595  41.377  1.00  0.00     0.000 C 
ENDROOT
BRANCH   1   2
ATOM      2  C   UNL     1      29.273  -0.687  40.375  1.00  0.00     0.000 C 
BRANCH   2   3
ATOM      3  C   UNL     1      30.617  -0.999  41.052  1.00  0.00     0.000 C 
BRANCH   3   4
ATOM      4  C   UNL     1      31.824  -0.602  40.183  1.00  0.00     0.000 C 
BRANCH   4   5
ATOM      5  C   UNL     1      31.799   0.881  39.779  1.00  0.00     0.006 C 
BRANCH   5   6
ATOM      6  C   UNL     1      31.680   1.077  38.263  1.00  0.00     0.053 C 
BRANCH   6   7
ATOM      7  C   UNL     1      30.255   0.933  37.829  1.00  0.00     0.041 C 
ATOM      8  O   UNL     1      29.965   0.221  36.831  1.00  0.00    -0.550 OA
ATOM      9  O   UNL     1      29.253   1.625  38.495  1.00  0.00    -0.550 OA
ENDBRANCH   6   7
ENDBRANCH   5   6
ENDBRANCH   4   5
ENDBRANCH   3   4
ENDBRANCH   2   3
ENDBRANCH   1   2
BRANCH   1  10
ATOM     10  C   UNL     1      28.247  -1.664  42.471  1.00  0.00     0.000 C 
BRANCH  10  11
ATOM     11  C   UNL     1      27.980  -1.111  43.880  1.00  0.00    -0.000 C 
BRANCH  11  12
ATOM     12  C   UNL     1      29.153  -0.274  44.420  1.00  0.00    -0.000 C 
BRANCH  12  13
ATOM     13  C   UNL     1      30.376  -1.135  44.775  1.00  0.00    -0.000 C 
BRANCH  13  14
ATOM     14  C   UNL     1      30.111  -2.084  45.958  1.00  0.00    -0.000 C 
BRANCH  14  15
ATOM     15  C   UNL     1      30.797  -1.617  47.252  1.00  0.00    -0.003 C 
ATOM     16  C   UNL     1      30.093  -2.125  48.509  1.00  0.00     0.004 C 
ENDBRANCH  14  15
ENDBRANCH  13  14
ENDBRANCH  12  13
ENDBRANCH  11  12
ENDBRANCH  10  11
ENDBRANCH   1  10
TORSDOF 12
ENDMDL
MODEL 4
REMARK VINA RESULT:    -4.906      1.788      2.870
REMARK INTER + INTRA:          -9.278
REMARK INTER:                  -8.620
REMARK INTRA:                  -0.658
REMARK UNBOUND:                -0.931
REMARK SMILES CCCCCCCCCCCCCC(=O)[O-]
REMARK SMILES IDX 8 1 9 2 10 3 11 4 12 5 13 6 14 7 15 8 16 9 7 10 6 11 5 12
REMARK SMILES IDX 4 13 3 14 2 15 1 16
REMARK H PARENT
REMARK Flexibility Score: inf
ROOT
ATOM      1  C   UNL     1      27.759  -1.312  41.844  1.00  0.00     0.000 C 
ENDROOT
BRANCH   1   2
ATOM      2  C   UNL     1      28.798  -1.184  40.719  1.00  0.00     0.000 C 
BRANCH   2   3
ATOM      3  C   UNL     1      28.183  -1.360  39.322  1.00  0.00     0.000 C 
BRANCH   3   4
ATOM      4  C   UNL     1      28.904  -0.524  38.249  1.00  0.00     0.000 C 
BRANCH   4   5
ATOM      5  C   UNL     1      29.302   0.871  38.755  1.00  0.00     0.006 C 
BRANCH   5   6
ATOM      6  C   UNL     1      30.779   1.193  38.499  1.00  0.00     0.053 C 
BRANCH   6   7
ATOM      7  C   UNL     1      31.499   1.402  39.793  1.00  0.00     0.041 C 
ATOM      8  O   UNL     1      32.083   0.438  40.357  1.00  0.00    -0.550 OA
ATOM      9  O   UNL     1      31.485   2.649  40.403  1.00  0.00    -0.550 OA
ENDBRANCH   6   7
ENDBRANCH   5   6
ENDBRANCH   4   5
ENDBRANCH   3   4
ENDBRANCH   2   3
ENDBRANCH   1   2
BRANCH   1  10
ATOM     10  C   UNL     1      28.421  -1.767  43.153  1.00  0.00     0.000 C 
BRANCH  10  11
ATOM     11  C   UNL     1      28.902  -0.591  44.016  1.00  0.00    -0.000 C 
BRANCH  11  12
ATOM     12  C   UNL     1      30.336  -0.788  44.539  1.00  0.00    -0.000 C 
BRANCH  12  13
ATOM     13  C   UNL     1      30.470  -2.030  45.436  1.00  0.00    -0.000 C 
BRANCH  13  14
ATOM     14  C   UNL     1      29.811  -1.841  46.814  1.00  0.00    -0.000 C 
BRANCH  14  15
ATOM     15  C   UNL     1      30.779  -2.124  47.973  1.00  0.00    -0.003 C 
ATOM     16  C   UNL     1      30.086  -2.124  49.335  1.00  0.00     0.004 C 
ENDBRANCH  14  15
ENDBRANCH  13  14
ENDBRANCH  12  13
ENDBRANCH  11  12
ENDBRANCH  10  11
ENDBRANCH   1  10
TORSDOF 12
ENDMDL
MODEL 5
REMARK VINA RESULT:    -4.581      2.950      5.752
REMARK INTER + INTRA:          -8.726
REMARK INTER:                  -7.913
REMARK INTRA:                  -0.813
REMARK UNBOUND:                -0.931
REMARK SMILES CCCCCCCCCCCCCC(=O)[O-]
REMARK SMILES IDX 8 1 9 2 10 3 11 4 12 5 13 6 14 7 15 8 16 9 7 10 6 11 5 12
REMARK SMILES IDX 4 13 3 14 2 15 1 16
REMARK H PARENT
REMARK Flexibility Score: inf
ROOT
ATOM      1  C   UNL     1      31.521   2.079  39.756  1.00  0.00     0.000 C 
ENDROOT
BRANCH   1   2
ATOM      2  C   UNL     1      32.125   1.276  40.919  1.00  0.00     0.000 C 
BRANCH   2   3
ATOM      3  C   UNL     1      32.060  -0.241  40.688  1.00  0.00     0.000 C 
BRANCH   3   4
ATOM      4  C   UNL     1      30.955  -0.919  41.519  1.00  0.00     0.000 C 
BRANCH   4   5
ATOM      5  C   UNL     1      31.198  -0.801  43.032  1.00  0.00     0.006 C 
BRANCH   5   6
ATOM      6  C   UNL     1      29.929  -0.417  43.804  1.00  0.00     0.053 C 
BRANCH   6   7
ATOM      7  C   UNL     1      29.728  -1.338  44.966  1.00  0.00     0.041 C 
ATOM      8  O   UNL     1      28.739  -2.117  44.994  1.00  0.00    -0.550 OA
ATOM      9  O   UNL     1      30.605  -1.301  46.042  1.00  0.00    -0.550 OA
ENDBRANCH   6   7
ENDBRANCH   5   6
ENDBRANCH   4   5
ENDBRANCH   3   4
ENDBRANCH   2   3
ENDBRANCH   1   2
BRANCH   1  10
ATOM     10  C   UNL     1      31.960   1.498  38.404  1.00  0.00     0.000 C 
BRANCH  10  11
ATOM     11  C   UNL     1      30.835   0.731  37.692  1.00  0.00    -0.000 C 
BRANCH  11  12
ATOM     12  C   UNL     1      29.477   0.878  38.402  1.00  0.00    -0.000 C 
BRANCH  12  13
ATOM     13  C   UNL     1      28.517  -0.279  38.081  1.00  0.00    -0.000 C 
BRANCH  13  14
ATOM     14  C   UNL     1      28.533  -1.379  39.157  1.00  0.00    -0.000 C 
BRANCH  14  15
ATOM     15  C   UNL     1      28.115  -0.855  40.541  1.00  0.00    -0.003 C 
ATOM     16  C   UNL     1      27.553  -1.954  41.442  1.00  0.00     0.004 C 
ENDBRANCH  14  15
ENDBRANCH  13  14
ENDBRANCH  12  13
ENDBRANCH  11  12
ENDBRANCH  10  11
ENDBRANCH   1  10
TORSDOF 12
ENDMDL
MODEL 6
REMARK VINA RESULT:    -4.463      1.679      3.218
REMARK INTER + INTRA:          -8.525
REMARK INTER:                  -7.724
REMARK INTRA:                  -0.801
REMARK UNBOUND:                -0.931
REMARK SMILES CCCCCCCCCCCCCC(=O)[O-]
REMARK SMILES IDX 8 1 9 2 10 3 11 4 12 5 13 6 14 7 15 8 16 9 7 10 6 11 5 12
REMARK SMILES IDX 4 13 3 14 2 15 1 16
REMARK H PARENT
REMARK Flexibility Score: inf
ROOT
ATOM      1  C   UNL     1      31.767   1.554  40.399  1.00  0.00     0.000 C 
ENDROOT
BRANCH   1   2
ATOM      2  C   UNL     1      30.890   2.084  39.254  1.00  0.00     0.000 C 
BRANCH   2   3
ATOM      3  C   UNL     1      31.129   1.339  37.932  1.00  0.00     0.000 C 
BRANCH   3   4
ATOM      4  C   UNL     1      29.838   0.729  37.355  1.00  0.00     0.000 C 
BRANCH   4   5
ATOM      5  C   UNL     1      28.763   0.497  38.428  1.00  0.00     0.006 C 
BRANCH   5   6
ATOM      6  C   UNL     1      28.749  -0.946  38.946  1.00  0.00     0.053 C 
BRANCH   6   7
ATOM      7  C   UNL     1      28.281  -0.986  40.367  1.00  0.00     0.041 C 
ATOM      8  O   UNL     1      27.706  -2.013  40.816  1.00  0.00    -0.550 OA
ATOM      9  O   UNL     1      28.435   0.128  41.181  1.00  0.00    -0.550 OA
ENDBRANCH   6   7
ENDBRANCH   5   6
ENDBRANCH   4   5
ENDBRANCH   3   4
ENDBRANCH   2   3
ENDBRANCH   1   2
BRANCH   1  10
ATOM     10  C   UNL     1      32.027   0.049  40.238  1.00  0.00     0.000 C 
BRANCH  10  11
ATOM     11  C   UNL     1      32.125  -0.685  41.585  1.00  0.00    -0.000 C 
BRANCH  11  12
ATOM     12  C   UNL     1      30.978  -0.318  42.543  1.00  0.00    -0.000 C 
BRANCH  12  13
ATOM     13  C   UNL     1      30.366  -1.551  43.228  1.00  0.00    -0.000 C 
BRANCH  13  14
ATOM     14  C   UNL     1      29.221  -1.188  44.191  1.00  0.00    -0.000 C 
BRANCH  14  15
ATOM     15  C   UNL     1      29.176  -2.105  45.424  1.00  0.00    -0.003 C 
ATOM     16  C   UNL     1      30.278  -1.789  46.435  1.00  0.00     0.004 C 
ENDBRANCH  14  15
ENDBRANCH  13  14
ENDBRANCH  12  13
ENDBRANCH  11  12
ENDBRANCH  10  11
ENDBRANCH   1  10
TORSDOF 12
ENDMDL
MODEL 7
REMARK VINA RESULT:    -4.230      3.122      6.899
REMARK INTER + INTRA:          -8.128
REMARK INTER:                  -7.340
REMARK INTRA:                  -0.788
REMARK UNBOUND:                -0.931
REMARK SMILES CCCCCCCCCCCCCC(=O)[O-]
REMARK SMILES IDX 8 1 9 2 10 3 11 4 12 5 13 6 14 7 15 8 16 9 7 10 6 11 5 12
REMARK SMILES IDX 4 13 3 14 2 15 1 16
REMARK H PARENT
REMARK Flexibility Score: inf
ROOT
ATOM      1  C   UNL     1      31.961  -0.723  41.358  1.00  0.00     0.000 C 
ENDROOT
BRANCH   1   2
ATOM      2  C   UNL     1      30.583  -0.436  41.975  1.00  0.00     0.000 C 
BRANCH   2   3
ATOM      3  C   UNL     1      29.566  -1.553  41.698  1.00  0.00     0.000 C 
BRANCH   3   4
ATOM      4  C   UNL     1      28.308  -1.440  42.577  1.00  0.00     0.000 C 
BRANCH   4   5
ATOM      5  C   UNL     1      28.619  -0.920  43.989  1.00  0.00     0.006 C 
BRANCH   5   6
ATOM      6  C   UNL     1      29.074  -2.034  44.941  1.00  0.00     0.053 C 
BRANCH   6   7
ATOM      7  C   UNL     1      30.190  -1.551  45.813  1.00  0.00     0.041 C 
ATOM      8  O   UNL     1      31.140  -0.888  45.318  1.00  0.00    -0.550 OA
ATOM      9  O   UNL     1      30.207  -1.876  47.163  1.00  0.00    -0.550 OA
ENDBRANCH   6   7
ENDBRANCH   5   6
ENDBRANCH   4   5
ENDBRANCH   3   4
ENDBRANCH   2   3
ENDBRANCH   1   2
BRANCH   1  10
ATOM     10  C   UNL     1      32.125   0.012  40.019  1.00  0.00     0.000 C 
BRANCH  10  11
ATOM     11  C   UNL     1      32.000   1.538  40.159  1.00  0.00    -0.000 C 
BRANCH  11  12
ATOM     12  C   UNL     1      30.884   2.124  39.277  1.00  0.00    -0.000 C 
BRANCH  12  13
ATOM     13  C   UNL     1      29.525   1.447  39.520  1.00  0.00    -0.000 C 
BRANCH  13  14
ATOM     14  C   UNL     1      29.179   0.405  38.441  1.00  0.00    -0.000 C 
BRANCH  14  15
ATOM     15  C   UNL     1      30.172   0.422  37.268  1.00  0.00    -0.003 C 
ATOM     16  C   UNL     1      29.498   0.722  35.930  1.00  0.00     0.004 C 
ENDBRANCH  14  15
ENDBRANCH  13  14
ENDBRANCH  12  13
ENDBRANCH  11  12
ENDBRANCH  10  11
ENDBRANCH   1  10
TORSDOF 12
ENDMDL
MODEL 8
REMARK VINA RESULT:    -3.893      2.726      6.114
REMARK INTER + INTRA:          -7.556
REMARK INTER:                  -7.699
REMARK INTRA:                   0.143
REMARK UNBOUND:                -0.931
REMARK SMILES CCCCCCCCCCCCCC(=O)[O-]
REMARK SMILES IDX 8 1 9 2 10 3 11 4 12 5 13 6 14 7 15 8 16 9 7 10 6 11 5 12
REMARK SMILES IDX 4 13 3 14 2 15 1 16
REMARK H PARENT
REMARK Flexibility Score: inf
ROOT
ATOM      1  C   UNL     1      28.820   0.435  38.491  1.00  0.00     0.000 C 
ENDROOT
BRANCH   1   2
ATOM      2  C   UNL     1      28.659  -0.763  39.440  1.00  0.00     0.000 C 
BRANCH   2   3
ATOM      3  C   UNL     1      28.194  -0.348  40.844  1.00  0.00     0.000 C 
BRANCH   3   4
ATOM      4  C   UNL     1      28.531  -1.402  41.915  1.00  0.00     0.000 C 
BRANCH   4   5
ATOM      5  C   UNL     1      28.131  -0.955  43.330  1.00  0.00     0.006 C 
BRANCH   5   6
ATOM      6  C   UNL     1      28.791  -1.803  44.424  1.00  0.00     0.053 C 
BRANCH   6   7
ATOM      7  C   UNL     1      30.074  -1.174  44.868  1.00  0.00     0.041 C 
ATOM      8  O   UNL     1      30.698  -0.395  44.100  1.00  0.00    -0.550 OA
ATOM      9  O   UNL     1      30.607  -1.485  46.112  1.00  0.00    -0.550 OA
ENDBRANCH   6   7
ENDBRANCH   5   6
ENDBRANCH   4   5
ENDBRANCH   3   4
ENDBRANCH   2   3
ENDBRANCH   1   2
BRANCH   1  10
ATOM     10  C   UNL     1      29.985   0.209  37.516  1.00  0.00     0.000 C 
BRANCH  10  11
ATOM     11  C   UNL     1      31.355   0.504  38.146  1.00  0.00    -0.000 C 
BRANCH  11  12
ATOM     12  C   UNL     1      31.870  -0.657  39.014  1.00  0.00    -0.000 C 
BRANCH  12  13
ATOM     13  C   UNL     1      32.125  -0.237  40.471  1.00  0.00    -0.000 C 
BRANCH  13  14
ATOM     14  C   UNL     1      31.254   0.956  40.905  1.00  0.00    -0.000 C 
BRANCH  14  15
ATOM     15  C   UNL     1      31.783   2.296  40.368  1.00  0.00    -0.003 C 
ATOM     16  C   UNL     1      30.678   3.174  39.782  1.00  0.00     0.004 C 
ENDBRANCH  14  15
ENDBRANCH  13  14
ENDBRANCH  12  13
ENDBRANCH  11  12
ENDBRANCH  10  11
ENDBRANCH   1  10
TORSDOF 12
ENDMDL
MODEL 9
REMARK VINA RESULT:    -3.775      1.771      5.488
REMARK INTER + INTRA:          -7.355
REMARK INTER:                  -6.972
REMARK INTRA:                  -0.383
REMARK UNBOUND:                -0.931
REMARK SMILES CCCCCCCCCCCCCC(=O)[O-]
REMARK SMILES IDX 8 1 9 2 10 3 11 4 12 5 13 6 14 7 15 8 16 9 7 10 6 11 5 12
REMARK SMILES IDX 4 13 3 14 2 15 1 16
REMARK H PARENT
REMARK Flexibility Score: inf
ROOT
ATOM      1  C   UNL     1      27.542  -0.523  42.737  1.00  0.00     0.000 C 
ENDROOT
BRANCH   1   2
ATOM      2  C   UNL     1      28.293  -1.803  43.135  1.00  0.00     0.000 C 
BRANCH   2   3
ATOM      3  C   UNL     1      28.768  -1.781  44.596  1.00  0.00     0.000 C 
BRANCH   3   4
ATOM      4  C   UNL     1      30.149  -1.120  44.759  1.00  0.00     0.000 C 
BRANCH   4   5
ATOM      5  C   UNL     1      30.554  -0.288  43.533  1.00  0.00     0.006 C 
BRANCH   5   6
ATOM      6  C   UNL     1      31.483  -1.053  42.581  1.00  0.00     0.053 C 
BRANCH   6   7
ATOM      7  C   UNL     1      31.568  -0.354  41.262  1.00  0.00     0.041 C 
ATOM      8  O   UNL     1      31.183   0.841  41.151  1.00  0.00    -0.550 OA
ATOM      9  O   UNL     1      32.026  -1.035  40.142  1.00  0.00    -0.550 OA
ENDBRANCH   6   7
ENDBRANCH   5   6
ENDBRANCH   4   5
ENDBRANCH   3   4
ENDBRANCH   2   3
ENDBRANCH   1   2
BRANCH   1  10
ATOM     10  C   UNL     1      27.847  -0.139  41.281  1.00  0.00     0.000 C 
BRANCH  10  11
ATOM     11  C   UNL     1      28.219  -1.351  40.413  1.00  0.00    -0.000 C 
BRANCH  11  12
ATOM     12  C   UNL     1      28.737  -0.945  39.021  1.00  0.00    -0.000 C 
BRANCH  12  13
ATOM     13  C   UNL     1      29.041   0.558  38.922  1.00  0.00    -0.000 C 
BRANCH  13  14
ATOM     14  C   UNL     1      29.758   0.934  37.612  1.00  0.00    -0.000 C 
BRANCH  14  15
ATOM     15  C   UNL     1      31.273   0.683  37.678  1.00  0.00    -0.003 C 
ATOM     16  C   UNL     1      32.052   1.904  38.164  1.00  0.00     0.004 C 
ENDBRANCH  14  15
ENDBRANCH  13  14
ENDBRANCH  12  13
ENDBRANCH  11  12
ENDBRANCH  10  11
ENDBRANCH   1  10
TORSDOF 12
ENDMDL
