MODEL 1
REMARK VINA RESULT:    -6.236      0.000      0.000
REMARK INTER + INTRA:          -7.622
REMARK INTER:                  -7.330
REMARK INTRA:                  -0.291
REMARK UNBOUND:                -0.291
REMARK SMILES O=c1cc(-c2ccc(O)c(O)c2)oc2cc(O)cc(O)c12
REMARK SMILES IDX 4 1 3 2 2 3 1 4 21 5 19 6 18 7 16 8 15 9 14 10 13 11 5 12
REMARK SMILES IDX 6 13 7 14 8 15 12 16 10 17 9 18 11 20 20 22 17 24
REMARK H PARENT 9 19 11 21 20 23 17 25
REMARK Flexibility Score: inf
ROOT
ATOM      1  C   UNL     1       2.838  -3.793  17.200  1.00  0.00     0.138 A 
ATOM      2  C   UNL     1       1.505  -3.917  17.614  1.00  0.00     0.100 A 
ATOM      3  C   UNL     1       0.699  -2.782  17.698  1.00  0.00     0.197 A 
ATOM      4  O   UNL     1      -0.476  -2.919  18.125  1.00  0.00    -0.289 OA
ATOM      5  C   UNL     1       1.222  -1.518  17.330  1.00  0.00     0.107 A 
ATOM      6  C   UNL     1       0.484  -0.296  17.343  1.00  0.00     0.134 A 
ATOM      7  C   UNL     1       1.138   0.908  17.052  1.00  0.00     0.093 A 
ATOM      8  C   UNL     1       2.488   0.927  16.694  1.00  0.00     0.123 A 
ATOM      9  C   UNL     1       3.204  -0.266  16.629  1.00  0.00     0.094 A 
ATOM     10  C   UNL     1       2.590  -1.479  16.947  1.00  0.00     0.146 A 
ATOM     11  O   UNL     1       3.315  -2.591  16.891  1.00  0.00    -0.456 OA
ENDROOT
BRANCH   1  12
ATOM     12  C   UNL     1       3.739  -4.967  17.090  1.00  0.00     0.021 A 
ATOM     13  C   UNL     1       3.766  -5.917  18.125  1.00  0.00     0.016 A 
ATOM     14  C   UNL     1       4.599  -7.035  18.043  1.00  0.00     0.051 A 
ATOM     15  C   UNL     1       5.413  -7.230  16.925  1.00  0.00     0.157 A 
ATOM     16  C   UNL     1       4.552  -5.175  15.957  1.00  0.00     0.062 A 
ATOM     17  C   UNL     1       5.389  -6.299  15.874  1.00  0.00     0.158 A 
BRANCH  15  18
ATOM     18  O   UNL     1       6.237  -8.355  16.872  1.00  0.00    -0.504 OA
ATOM     19  H   UNL     1       6.120  -9.075  16.170  1.00  0.00     0.293 HD
ENDBRANCH  15  18
BRANCH  17  20
ATOM     20  O   UNL     1       6.189  -6.493  14.750  1.00  0.00    -0.504 OA
ATOM     21  H   UNL     1       6.277  -7.402  14.310  1.00  0.00     0.293 HD
ENDBRANCH  17  20
ENDBRANCH   1  12
BRANCH   6  22
ATOM     22  O   UNL     1      -0.886  -0.210  17.609  1.00  0.00    -0.507 OA
ATOM     23  H   UNL     1      -1.294   0.257  18.404  1.00  0.00     0.293 HD
ENDBRANCH   6  22
BRANCH   8  24
ATOM     24  O   UNL     1       3.126   2.128  16.391  1.00  0.00    -0.508 OA
ATOM     25  H   UNL     1       3.800   2.544  17.023  1.00  0.00     0.293 HD
ENDBRANCH   8  24
TORSDOF 5
ENDMDL
MODEL 2
REMARK VINA RESULT:    -6.075      1.156      2.750
REMARK INTER + INTRA:          -7.432
REMARK INTER:                  -7.156
REMARK INTRA:                  -0.277
REMARK UNBOUND:                -0.291
REMARK SMILES O=c1cc(-c2ccc(O)c(O)c2)oc2cc(O)cc(O)c12
REMARK SMILES IDX 4 1 3 2 2 3 1 4 21 5 19 6 18 7 16 8 15 9 14 10 13 11 5 12
REMARK SMILES IDX 6 13 7 14 8 15 12 16 10 17 9 18 11 20 20 22 17 24
REMARK H PARENT 9 19 11 21 20 23 17 25
REMARK Flexibility Score: inf
ROOT
ATOM      1  C   UNL     1       4.206  -3.406  16.952  1.00  0.00     0.138 A 
ATOM      2  C   UNL     1       5.077  -2.353  16.642  1.00  0.00     0.100 A 
ATOM      3  C   UNL     1       4.599  -1.042  16.622  1.00  0.00     0.197 A 
ATOM      4  O   UNL     1       5.392  -0.126  16.287  1.00  0.00    -0.289 OA
ATOM      5  C   UNL     1       3.245  -0.782  16.949  1.00  0.00     0.107 A 
ATOM      6  C   UNL     1       2.653   0.516  16.995  1.00  0.00     0.134 A 
ATOM      7  C   UNL     1       1.279   0.640  17.235  1.00  0.00     0.093 A 
ATOM      8  C   UNL     1       0.487  -0.483  17.488  1.00  0.00     0.123 A 
ATOM      9  C   UNL     1       1.065  -1.750  17.496  1.00  0.00     0.094 A 
ATOM     10  C   UNL     1       2.426  -1.910  17.225  1.00  0.00     0.146 A 
ATOM     11  O   UNL     1       2.933  -3.138  17.223  1.00  0.00    -0.456 OA
ENDROOT
BRANCH   1  12
ATOM     12  C   UNL     1       4.662  -4.818  16.990  1.00  0.00     0.021 A 
ATOM     13  C   UNL     1       4.282  -5.637  18.067  1.00  0.00     0.016 A 
ATOM     14  C   UNL     1       4.692  -6.971  18.125  1.00  0.00     0.051 A 
ATOM     15  C   UNL     1       5.479  -7.514  17.106  1.00  0.00     0.157 A 
ATOM     16  C   UNL     1       5.445  -5.373  15.959  1.00  0.00     0.062 A 
ATOM     17  C   UNL     1       5.856  -6.713  16.015  1.00  0.00     0.158 A 
BRANCH  15  18
ATOM     18  O   UNL     1       5.875  -8.848  17.192  1.00  0.00    -0.504 OA
ATOM     19  H   UNL     1       5.332  -9.598  16.782  1.00  0.00     0.293 HD
ENDBRANCH  15  18
BRANCH  17  20
ATOM     20  O   UNL     1       6.631  -7.252  14.989  1.00  0.00    -0.504 OA
ATOM     21  H   UNL     1       7.188  -6.664  14.380  1.00  0.00     0.293 HD
ENDBRANCH  17  20
ENDBRANCH   1  12
BRANCH   6  22
ATOM     22  O   UNL     1       3.366   1.709  16.836  1.00  0.00    -0.507 OA
ATOM     23  H   UNL     1       3.200   2.557  17.354  1.00  0.00     0.293 HD
ENDBRANCH   6  22
BRANCH   8  24
ATOM     24  O   UNL     1      -0.876  -0.348  17.741  1.00  0.00    -0.508 OA
ATOM     25  H   UNL     1      -1.411  -1.093  18.172  1.00  0.00     0.293 HD
ENDBRANCH   8  24
TORSDOF 5
ENDMDL
MODEL 3
REMARK VINA RESULT:    -5.971      2.345      6.761
REMARK INTER + INTRA:          -7.309
REMARK INTER:                  -7.001
REMARK INTRA:                  -0.308
REMARK UNBOUND:                -0.291
REMARK SMILES O=c1cc(-c2ccc(O)c(O)c2)oc2cc(O)cc(O)c12
REMARK SMILES IDX 4 1 3 2 2 3 1 4 21 5 19 6 18 7 16 8 15 9 14 10 13 11 5 12
REMARK SMILES IDX 6 13 7 14 8 15 12 16 10 17 9 18 11 20 20 22 17 24
REMARK H PARENT 9 19 11 21 20 23 17 25
REMARK Flexibility Score: inf
ROOT
ATOM      1  C   UNL     1       3.609  -3.353  17.566  1.00  0.00     0.138 A 
ATOM      2  C   UNL     1       3.419  -4.733  17.722  1.00  0.00     0.100 A 
ATOM      3  C   UNL     1       4.526  -5.580  17.796  1.00  0.00     0.197 A 
ATOM      4  O   UNL     1       4.321  -6.818  17.880  1.00  0.00    -0.289 OA
ATOM      5  C   UNL     1       5.833  -5.036  17.750  1.00  0.00     0.107 A 
ATOM      6  C   UNL     1       7.036  -5.797  17.850  1.00  0.00     0.134 A 
ATOM      7  C   UNL     1       8.272  -5.158  17.692  1.00  0.00     0.093 A 
ATOM      8  C   UNL     1       8.350  -3.777  17.494  1.00  0.00     0.123 A 
ATOM      9  C   UNL     1       7.183  -3.018  17.445  1.00  0.00     0.094 A 
ATOM     10  C   UNL     1       5.934  -3.630  17.564  1.00  0.00     0.146 A 
ATOM     11  O   UNL     1       4.846  -2.871  17.493  1.00  0.00    -0.456 OA
ENDROOT
BRANCH   1  12
ATOM     12  C   UNL     1       2.469  -2.407  17.484  1.00  0.00     0.021 A 
ATOM     13  C   UNL     1       1.253  -2.737  18.106  1.00  0.00     0.016 A 
ATOM     14  C   UNL     1       0.165  -1.861  18.051  1.00  0.00     0.051 A 
ATOM     15  C   UNL     1       0.275  -0.639  17.383  1.00  0.00     0.157 A 
ATOM     16  C   UNL     1       2.579  -1.168  16.823  1.00  0.00     0.062 A 
ATOM     17  C   UNL     1       1.487  -0.287  16.768  1.00  0.00     0.158 A 
BRANCH  15  18
ATOM     18  O   UNL     1      -0.829   0.213  17.342  1.00  0.00    -0.504 OA
ATOM     19  H   UNL     1      -1.768  -0.113  17.535  1.00  0.00     0.293 HD
ENDBRANCH  15  18
BRANCH  17  20
ATOM     20  O   UNL     1       1.607   0.936  16.110  1.00  0.00    -0.504 OA
ATOM     21  H   UNL     1       2.324   1.095  15.412  1.00  0.00     0.293 HD
ENDBRANCH  17  20
ENDBRANCH   1  12
BRANCH   6  22
ATOM     22  O   UNL     1       7.076  -7.167  18.125  1.00  0.00    -0.507 OA
ATOM     23  H   UNL     1       7.868  -7.769  17.958  1.00  0.00     0.293 HD
ENDBRANCH   6  22
BRANCH   8  24
ATOM     24  O   UNL     1       9.585  -3.148  17.353  1.00  0.00    -0.508 OA
ATOM     25  H   UNL     1      10.246  -3.432  16.639  1.00  0.00     0.293 HD
ENDBRANCH   8  24
TORSDOF 5
ENDMDL
MODEL 4
REMARK VINA RESULT:    -5.819      1.835      7.249
REMARK INTER + INTRA:          -7.131
REMARK INTER:                  -6.861
REMARK INTRA:                  -0.270
REMARK UNBOUND:                -0.291
REMARK SMILES O=c1cc(-c2ccc(O)c(O)c2)oc2cc(O)cc(O)c12
REMARK SMILES IDX 4 1 3 2 2 3 1 4 21 5 19 6 18 7 16 8 15 9 14 10 13 11 5 12
REMARK SMILES IDX 6 13 7 14 8 15 12 16 10 17 9 18 11 20 20 22 17 24
REMARK H PARENT 9 19 11 21 20 23 17 25
REMARK Flexibility Score: inf
ROOT
ATOM      1  C   UNL     1       3.721  -3.082  17.311  1.00  0.00     0.138 A 
ATOM      2  C   UNL     1       4.977  -2.618  17.725  1.00  0.00     0.100 A 
ATOM      3  C   UNL     1       6.082  -3.468  17.668  1.00  0.00     0.197 A 
ATOM      4  O   UNL     1       7.183  -3.040  18.098  1.00  0.00    -0.289 OA
ATOM      5  C   UNL     1       5.933  -4.782  17.160  1.00  0.00     0.107 A 
ATOM      6  C   UNL     1       6.994  -5.728  17.024  1.00  0.00     0.134 A 
ATOM      7  C   UNL     1       6.707  -7.031  16.601  1.00  0.00     0.093 A 
ATOM      8  C   UNL     1       5.406  -7.407  16.255  1.00  0.00     0.123 A 
ATOM      9  C   UNL     1       4.373  -6.477  16.336  1.00  0.00     0.094 A 
ATOM     10  C   UNL     1       4.620  -5.179  16.788  1.00  0.00     0.146 A 
ATOM     11  O   UNL     1       3.602  -4.330  16.869  1.00  0.00    -0.456 OA
ENDROOT
BRANCH   1  12
ATOM     12  C   UNL     1       2.514  -2.220  17.347  1.00  0.00     0.021 A 
ATOM     13  C   UNL     1       1.383  -2.644  18.066  1.00  0.00     0.016 A 
ATOM     14  C   UNL     1       0.236  -1.848  18.122  1.00  0.00     0.051 A 
ATOM     15  C   UNL     1       0.201  -0.613  17.470  1.00  0.00     0.157 A 
ATOM     16  C   UNL     1       2.478  -0.967  16.702  1.00  0.00     0.062 A 
ATOM     17  C   UNL     1       1.326  -0.167  16.759  1.00  0.00     0.158 A 
BRANCH  15  18
ATOM     18  O   UNL     1      -0.960   0.159  17.542  1.00  0.00    -0.504 OA
ATOM     19  H   UNL     1      -1.130   0.933  16.911  1.00  0.00     0.293 HD
ENDBRANCH  15  18
BRANCH  17  20
ATOM     20  O   UNL     1       1.302   1.070  16.117  1.00  0.00    -0.504 OA
ATOM     21  H   UNL     1       1.352   1.146  15.108  1.00  0.00     0.293 HD
ENDBRANCH  17  20
ENDBRANCH   1  12
BRANCH   6  22
ATOM     22  O   UNL     1       8.340  -5.435  17.266  1.00  0.00    -0.507 OA
ATOM     23  H   UNL     1       8.901  -4.796  16.723  1.00  0.00     0.293 HD
ENDBRANCH   6  22
BRANCH   8  24
ATOM     24  O   UNL     1       5.133  -8.702  15.820  1.00  0.00    -0.508 OA
ATOM     25  H   UNL     1       4.249  -8.940  15.385  1.00  0.00     0.293 HD
ENDBRANCH   8  24
TORSDOF 5
ENDMDL
MODEL 5
REMARK VINA RESULT:    -5.717      4.620      7.304
REMARK INTER + INTRA:          -7.011
REMARK INTER:                  -6.695
REMARK INTRA:                  -0.316
REMARK UNBOUND:                -0.291
REMARK SMILES O=c1cc(-c2ccc(O)c(O)c2)oc2cc(O)cc(O)c12
REMARK SMILES IDX 4 1 3 2 2 3 1 4 21 5 19 6 18 7 16 8 15 9 14 10 13 11 5 12
REMARK SMILES IDX 6 13 7 14 8 15 12 16 10 17 9 18 11 20 20 22 17 24
REMARK H PARENT 9 19 11 21 20 23 17 25
REMARK Flexibility Score: inf
ROOT
ATOM      1  C   UNL     1       7.323  -2.583  16.800  1.00  0.00     0.138 A 
ATOM      2  C   UNL     1       6.093  -2.196  16.251  1.00  0.00     0.100 A 
ATOM      3  C   UNL     1       5.101  -3.153  16.034  1.00  0.00     0.197 A 
ATOM      4  O   UNL     1       4.029  -2.783  15.489  1.00  0.00    -0.289 OA
ATOM      5  C   UNL     1       5.329  -4.500  16.404  1.00  0.00     0.107 A 
ATOM      6  C   UNL     1       4.380  -5.557  16.263  1.00  0.00     0.134 A 
ATOM      7  C   UNL     1       4.756  -6.869  16.573  1.00  0.00     0.093 A 
ATOM      8  C   UNL     1       6.029  -7.155  17.074  1.00  0.00     0.123 A 
ATOM      9  C   UNL     1       6.946  -6.124  17.264  1.00  0.00     0.094 A 
ATOM     10  C   UNL     1       6.613  -4.810  16.931  1.00  0.00     0.146 A 
ATOM     11  O   UNL     1       7.524  -3.859  17.109  1.00  0.00    -0.456 OA
ENDROOT
BRANCH   1  12
ATOM     12  C   UNL     1       8.412  -1.607  17.055  1.00  0.00     0.021 A 
ATOM     13  C   UNL     1       8.135  -0.231  16.987  1.00  0.00     0.016 A 
ATOM     14  C   UNL     1       9.140   0.709  17.229  1.00  0.00     0.051 A 
ATOM     15  C   UNL     1      10.434   0.294  17.551  1.00  0.00     0.157 A 
ATOM     16  C   UNL     1       9.715  -2.021  17.393  1.00  0.00     0.062 A 
ATOM     17  C   UNL     1      10.725  -1.077  17.637  1.00  0.00     0.158 A 
BRANCH  15  18
ATOM     18  O   UNL     1      11.417   1.256  17.785  1.00  0.00    -0.504 OA
ATOM     19  H   UNL     1      11.627   1.595  18.716  1.00  0.00     0.293 HD
ENDBRANCH  15  18
BRANCH  17  20
ATOM     20  O   UNL     1      12.011  -1.499  17.970  1.00  0.00    -0.504 OA
ATOM     21  H   UNL     1      12.433  -1.266  18.861  1.00  0.00     0.293 HD
ENDBRANCH  17  20
ENDBRANCH   1  12
BRANCH   6  22
ATOM     22  O   UNL     1       3.058  -5.371  15.847  1.00  0.00    -0.507 OA
ATOM     23  H   UNL     1       2.624  -5.841  15.067  1.00  0.00     0.293 HD
ENDBRANCH   6  22
BRANCH   8  24
ATOM     24  O   UNL     1       6.389  -8.462  17.394  1.00  0.00    -0.508 OA
ATOM     25  H   UNL     1       6.270  -9.222  16.734  1.00  0.00     0.293 HD
ENDBRANCH   8  24
TORSDOF 5
ENDMDL
MODEL 6
REMARK VINA RESULT:    -5.698      5.122      7.172
REMARK INTER + INTRA:          -6.988
REMARK INTER:                  -6.704
REMARK INTRA:                  -0.284
REMARK UNBOUND:                -0.291
REMARK SMILES O=c1cc(-c2ccc(O)c(O)c2)oc2cc(O)cc(O)c12
REMARK SMILES IDX 4 1 3 2 2 3 1 4 21 5 19 6 18 7 16 8 15 9 14 10 13 11 5 12
REMARK SMILES IDX 6 13 7 14 8 15 12 16 10 17 9 18 11 20 20 22 17 24
REMARK H PARENT 9 19 11 21 20 23 17 25
REMARK Flexibility Score: inf
ROOT
ATOM      1  C   UNL     1       7.043  -2.650  16.959  1.00  0.00     0.138 A 
ATOM      2  C   UNL     1       7.898  -3.610  17.518  1.00  0.00     0.100 A 
ATOM      3  C   UNL     1       9.254  -3.321  17.672  1.00  0.00     0.197 A 
ATOM      4  O   UNL     1      10.006  -4.222  18.125  1.00  0.00    -0.289 OA
ATOM      5  C   UNL     1       9.750  -2.048  17.297  1.00  0.00     0.107 A 
ATOM      6  C   UNL     1      11.107  -1.628  17.439  1.00  0.00     0.134 A 
ATOM      7  C   UNL     1      11.499  -0.379  16.941  1.00  0.00     0.093 A 
ATOM      8  C   UNL     1      10.571   0.488  16.357  1.00  0.00     0.123 A 
ATOM      9  C   UNL     1       9.235   0.108  16.260  1.00  0.00     0.094 A 
ATOM     10  C   UNL     1       8.819  -1.145  16.715  1.00  0.00     0.146 A 
ATOM     11  O   UNL     1       7.539  -1.475  16.586  1.00  0.00    -0.456 OA
ENDROOT
BRANCH   1  12
ATOM     12  C   UNL     1       5.592  -2.904  16.775  1.00  0.00     0.021 A 
ATOM     13  C   UNL     1       4.680  -1.847  16.938  1.00  0.00     0.016 A 
ATOM     14  C   UNL     1       3.310  -2.056  16.763  1.00  0.00     0.051 A 
ATOM     15  C   UNL     1       2.827  -3.320  16.415  1.00  0.00     0.157 A 
ATOM     16  C   UNL     1       5.101  -4.173  16.411  1.00  0.00     0.062 A 
ATOM     17  C   UNL     1       3.725  -4.384  16.234  1.00  0.00     0.158 A 
BRANCH  15  18
ATOM     18  O   UNL     1       1.453  -3.500  16.250  1.00  0.00    -0.504 OA
ATOM     19  H   UNL     1       1.018  -4.411  16.321  1.00  0.00     0.293 HD
ENDBRANCH  15  18
BRANCH  17  20
ATOM     20  O   UNL     1       3.251  -5.645  15.875  1.00  0.00    -0.504 OA
ATOM     21  H   UNL     1       3.637  -6.154  15.089  1.00  0.00     0.293 HD
ENDBRANCH  17  20
ENDBRANCH   1  12
BRANCH   6  22
ATOM     22  O   UNL     1      12.098  -2.381  18.076  1.00  0.00    -0.507 OA
ATOM     23  H   UNL     1      12.421  -2.234  19.021  1.00  0.00     0.293 HD
ENDBRANCH   6  22
BRANCH   8  24
ATOM     24  O   UNL     1      10.967   1.734  15.879  1.00  0.00    -0.508 OA
ATOM     25  H   UNL     1      11.459   1.833  14.998  1.00  0.00     0.293 HD
ENDBRANCH   8  24
TORSDOF 5
ENDMDL
MODEL 7
REMARK VINA RESULT:    -5.538      4.879      7.084
REMARK INTER + INTRA:          -6.800
REMARK INTER:                  -6.482
REMARK INTRA:                  -0.318
REMARK UNBOUND:                -0.291
REMARK SMILES O=c1cc(-c2ccc(O)c(O)c2)oc2cc(O)cc(O)c12
REMARK SMILES IDX 4 1 3 2 2 3 1 4 21 5 19 6 18 7 16 8 15 9 14 10 13 11 5 12
REMARK SMILES IDX 6 13 7 14 8 15 12 16 10 17 9 18 11 20 20 22 17 24
REMARK H PARENT 9 19 11 21 20 23 17 25
REMARK Flexibility Score: inf
ROOT
ATOM      1  C   UNL     1       8.170  -3.691  17.381  1.00  0.00     0.138 A 
ATOM      2  C   UNL     1       8.309  -5.027  17.779  1.00  0.00     0.100 A 
ATOM      3  C   UNL     1       7.212  -5.887  17.709  1.00  0.00     0.197 A 
ATOM      4  O   UNL     1       7.355  -7.066  18.125  1.00  0.00    -0.289 OA
ATOM      5  C   UNL     1       5.977  -5.414  17.204  1.00  0.00     0.107 A 
ATOM      6  C   UNL     1       4.799  -6.207  17.055  1.00  0.00     0.134 A 
ATOM      7  C   UNL     1       3.608  -5.602  16.636  1.00  0.00     0.093 A 
ATOM      8  C   UNL     1       3.566  -4.245  16.306  1.00  0.00     0.123 A 
ATOM      9  C   UNL     1       4.722  -3.473  16.399  1.00  0.00     0.094 A 
ATOM     10  C   UNL     1       5.917  -4.039  16.848  1.00  0.00     0.146 A 
ATOM     11  O   UNL     1       6.991  -3.263  16.940  1.00  0.00    -0.456 OA
ENDROOT
BRANCH   1  12
ATOM     12  C   UNL     1       9.303  -2.734  17.431  1.00  0.00     0.021 A 
ATOM     13  C   UNL     1      10.553  -3.169  17.902  1.00  0.00     0.016 A 
ATOM     14  C   UNL     1      11.639  -2.291  17.952  1.00  0.00     0.051 A 
ATOM     15  C   UNL     1      11.499  -0.968  17.526  1.00  0.00     0.157 A 
ATOM     16  C   UNL     1       9.170  -1.402  16.989  1.00  0.00     0.062 A 
ATOM     17  C   UNL     1      10.260  -0.520  17.039  1.00  0.00     0.158 A 
BRANCH  15  18
ATOM     18  O   UNL     1      12.600  -0.114  17.591  1.00  0.00    -0.504 OA
ATOM     19  H   UNL     1      12.720   0.659  16.948  1.00  0.00     0.293 HD
ENDBRANCH  15  18
BRANCH  17  20
ATOM     20  O   UNL     1      10.116   0.795  16.601  1.00  0.00    -0.504 OA
ATOM     21  H   UNL     1       9.283   1.105  16.114  1.00  0.00     0.293 HD
ENDBRANCH  17  20
ENDBRANCH   1  12
BRANCH   6  22
ATOM     22  O   UNL     1       4.750  -7.586  17.280  1.00  0.00    -0.507 OA
ATOM     23  H   UNL     1       5.511  -8.143  17.639  1.00  0.00     0.293 HD
ENDBRANCH   6  22
BRANCH   8  24
ATOM     24  O   UNL     1       2.380  -3.655  15.875  1.00  0.00    -0.508 OA
ATOM     25  H   UNL     1       2.015  -2.816  16.311  1.00  0.00     0.293 HD
ENDBRANCH   8  24
TORSDOF 5
ENDMDL
MODEL 8
REMARK VINA RESULT:    -5.526      7.412      9.614
REMARK INTER + INTRA:          -6.787
REMARK INTER:                  -6.471
REMARK INTRA:                  -0.316
REMARK UNBOUND:                -0.291
REMARK SMILES O=c1cc(-c2ccc(O)c(O)c2)oc2cc(O)cc(O)c12
REMARK SMILES IDX 4 1 3 2 2 3 1 4 21 5 19 6 18 7 16 8 15 9 14 10 13 11 5 12
REMARK SMILES IDX 6 13 7 14 8 15 12 16 10 17 9 18 11 20 20 22 17 24
REMARK H PARENT 9 19 11 21 20 23 17 25
REMARK Flexibility Score: inf
ROOT
ATOM      1  C   UNL     1      10.822  -0.597  17.122  1.00  0.00     0.138 A 
ATOM      2  C   UNL     1      11.253  -1.860  17.550  1.00  0.00     0.100 A 
ATOM      3  C   UNL     1      10.329  -2.896  17.686  1.00  0.00     0.197 A 
ATOM      4  O   UNL     1      10.738  -4.002  18.125  1.00  0.00    -0.289 OA
ATOM      5  C   UNL     1       8.969  -2.675  17.357  1.00  0.00     0.107 A 
ATOM      6  C   UNL     1       7.943  -3.665  17.424  1.00  0.00     0.134 A 
ATOM      7  C   UNL     1       6.615  -3.302  17.167  1.00  0.00     0.093 A 
ATOM      8  C   UNL     1       6.285  -1.997  16.790  1.00  0.00     0.123 A 
ATOM      9  C   UNL     1       7.286  -1.036  16.673  1.00  0.00     0.094 A 
ATOM     10  C   UNL     1       8.615  -1.359  16.956  1.00  0.00     0.146 A 
ATOM     11  O   UNL     1       9.535  -0.406  16.850  1.00  0.00    -0.456 OA
ENDROOT
BRANCH   1  12
ATOM     12  C   UNL     1      11.762   0.540  16.957  1.00  0.00     0.021 A 
ATOM     13  C   UNL     1      13.080   0.420  17.428  1.00  0.00     0.016 A 
ATOM     14  C   UNL     1      13.988   1.471  17.279  1.00  0.00     0.051 A 
ATOM     15  C   UNL     1      13.599   2.657  16.650  1.00  0.00     0.157 A 
ATOM     16  C   UNL     1      11.378   1.732  16.312  1.00  0.00     0.062 A 
ATOM     17  C   UNL     1      12.289   2.789  16.160  1.00  0.00     0.158 A 
BRANCH  15  18
ATOM     18  O   UNL     1      14.526   3.691  16.518  1.00  0.00    -0.504 OA
ATOM     19  H   UNL     1      15.500   3.516  16.304  1.00  0.00     0.293 HD
ENDBRANCH  15  18
BRANCH  17  20
ATOM     20  O   UNL     1      11.898   3.964  15.521  1.00  0.00    -0.504 OA
ATOM     21  H   UNL     1      12.426   4.350  14.748  1.00  0.00     0.293 HD
ENDBRANCH  17  20
ENDBRANCH   1  12
BRANCH   6  22
ATOM     22  O   UNL     1       8.173  -5.014  17.712  1.00  0.00    -0.507 OA
ATOM     23  H   UNL     1       8.052  -5.442  18.617  1.00  0.00     0.293 HD
ENDBRANCH   6  22
BRANCH   8  24
ATOM     24  O   UNL     1       4.963  -1.649  16.522  1.00  0.00    -0.508 OA
ATOM     25  H   UNL     1       4.190  -2.228  16.827  1.00  0.00     0.293 HD
ENDBRANCH   8  24
TORSDOF 5
ENDMDL
