MODEL 1
REMARK VINA RESULT:    -4.037      0.000      0.000
REMARK INTER + INTRA:          -5.337
REMARK INTER:                  -5.571
REMARK INTRA:                   0.234
REMARK UNBOUND:                 0.234
REMARK SMILES CC[C@H](CC[C@H](C)[C@@H]1CC[C@@H]2[C@H]3CC=C4C[C@H](O)CC[C@]4(C)[C@@H]3CC[C@]21C)C(C)C
REMARK SMILES IDX 5 1 4 2 3 3 2 4 1 5 28 6 29 7 30 8 6 9 7 10 8 11 9 12 26 13
REMARK SMILES IDX 10 14 11 15 25 16 27 17 12 18 24 19 23 20 13 21 21 22 14 23
REMARK SMILES IDX 15 24 20 25 22 26 16 27 19 28 17 29 18 30
REMARK H PARENT 18 31
REMARK Flexibility Score: inf
ROOT
ATOM      1  C   UNL     1      27.623  31.515  24.617  1.00  0.00     0.004 C 
ENDROOT
BRANCH   1   2
ATOM      2  C   UNL     1      28.169  30.099  24.285  1.00  0.00     0.004 C 
BRANCH   2   3
ATOM      3  C   UNL     1      28.448  29.213  25.550  1.00  0.00    -0.009 C 
BRANCH   3   4
ATOM      4  C   UNL     1      27.911  29.884  26.847  1.00  0.00     0.000 C 
ATOM      5  C   UNL     1      28.998  30.323  27.836  1.00  0.00     0.004 C 
ENDBRANCH   3   4
BRANCH   3   6
ATOM      6  C   UNL     1      27.834  27.773  25.358  1.00  0.00    -0.014 C 
ATOM      7  C   UNL     1      28.933  26.692  25.330  1.00  0.00     0.007 C 
ATOM      8  C   UNL     1      26.811  27.379  26.437  1.00  0.00     0.007 C 
ENDBRANCH   3   6
ENDBRANCH   2   3
ENDBRANCH   1   2
BRANCH   1   9
ATOM      9  C   UNL     1      28.547  32.648  24.088  1.00  0.00    -0.011 C 
ATOM     10  C   UNL     1      28.686  33.747  25.169  1.00  0.00     0.008 C 
BRANCH   9  11
ATOM     11  C   UNL     1      28.021  33.250  22.738  1.00  0.00    -0.002 C 
ATOM     12  C   UNL     1      28.931  32.917  21.521  1.00  0.00     0.005 C 
ATOM     13  C   UNL     1      27.860  34.801  22.642  1.00  0.00    -0.026 C 
ATOM     14  C   UNL     1      28.807  34.082  20.531  1.00  0.00     0.005 C 
ATOM     15  C   UNL     1      27.710  34.955  21.119  1.00  0.00    -0.001 C 
ATOM     16  C   UNL     1      26.579  35.398  23.279  1.00  0.00     0.007 C 
ATOM     17  C   UNL     1      29.124  35.511  23.220  1.00  0.00     0.012 C 
ATOM     18  C   UNL     1      27.607  36.422  20.638  1.00  0.00     0.000 C 
ATOM     19  C   UNL     1      26.368  36.870  22.862  1.00  0.00     0.005 C 
ATOM     20  C   UNL     1      26.373  37.085  21.315  1.00  0.00     0.003 C 
ATOM     21  C   UNL     1      27.404  36.464  19.119  1.00  0.00     0.031 C 
ATOM     22  C   UNL     1      26.183  38.592  20.868  1.00  0.00    -0.008 C 
ATOM     23  C   UNL     1      27.155  37.858  18.635  1.00  0.00    -0.027 C 
ATOM     24  C   UNL     1      26.573  38.810  19.394  1.00  0.00    -0.065 C 
ATOM     25  C   UNL     1      27.060  39.562  21.726  1.00  0.00     0.014 C 
ATOM     26  C   UNL     1      24.684  38.955  21.043  1.00  0.00     0.016 C 
ATOM     27  C   UNL     1      26.546  40.226  18.854  1.00  0.00     0.063 C 
ATOM     28  C   UNL     1      27.076  41.022  21.222  1.00  0.00     0.033 C 
ATOM     29  C   UNL     1      27.431  41.141  19.725  1.00  0.00     0.118 C 
BRANCH  29  30
ATOM     30  O   UNL     1      28.802  40.903  19.515  1.00  0.00    -0.393 OA
ATOM     31  H   UNL     1      28.892  40.141  18.884  1.00  0.00     0.210 HD
ENDBRANCH  29  30
ENDBRANCH   9  11
ENDBRANCH   1   9
TORSDOF 7
ENDMDL
MODEL 2
REMARK VINA RESULT:    -2.324      3.552     10.727
REMARK INTER + INTRA:          -2.973
REMARK INTER:                  -2.031
REMARK INTRA:                  -0.942
REMARK UNBOUND:                 0.234
REMARK SMILES CC[C@H](CC[C@H](C)[C@@H]1CC[C@@H]2[C@H]3CC=C4C[C@H](O)CC[C@]4(C)[C@@H]3CC[C@]21C)C(C)C
REMARK SMILES IDX 5 1 4 2 3 3 2 4 1 5 28 6 29 7 30 8 6 9 7 10 8 11 9 12 26 13
REMARK SMILES IDX 10 14 11 15 25 16 27 17 12 18 24 19 23 20 13 21 21 22 14 23
REMARK SMILES IDX 15 24 20 25 22 26 16 27 19 28 17 29 18 30
REMARK H PARENT 18 31
REMARK Flexibility Score: inf
ROOT
ATOM      1  C   UNL     1      28.447  34.194  22.551  1.00  0.00     0.004 C 
ENDROOT
BRANCH   1   2
ATOM      2  C   UNL     1      27.298  35.207  22.290  1.00  0.00     0.004 C 
BRANCH   2   3
ATOM      3  C   UNL     1      27.616  36.250  21.162  1.00  0.00    -0.009 C 
BRANCH   3   4
ATOM      4  C   UNL     1      28.168  35.559  19.882  1.00  0.00     0.000 C 
ATOM      5  C   UNL     1      27.124  34.768  19.083  1.00  0.00     0.004 C 
ENDBRANCH   3   4
BRANCH   3   6
ATOM      6  C   UNL     1      26.336  37.112  20.836  1.00  0.00    -0.014 C 
ATOM      7  C   UNL     1      25.283  37.003  21.957  1.00  0.00     0.007 C 
ATOM      8  C   UNL     1      26.626  38.605  20.607  1.00  0.00     0.007 C 
ENDBRANCH   3   6
ENDBRANCH   2   3
ENDBRANCH   1   2
BRANCH   1   9
ATOM      9  C   UNL     1      28.237  33.380  23.860  1.00  0.00    -0.011 C 
ATOM     10  C   UNL     1      28.825  34.166  25.055  1.00  0.00     0.008 C 
BRANCH   9  11
ATOM     11  C   UNL     1      28.866  31.946  23.764  1.00  0.00    -0.002 C 
ATOM     12  C   UNL     1      28.838  31.357  22.325  1.00  0.00     0.005 C 
ATOM     13  C   UNL     1      28.225  30.808  24.622  1.00  0.00    -0.026 C 
ATOM     14  C   UNL     1      28.727  29.833  22.461  1.00  0.00     0.005 C 
ATOM     15  C   UNL     1      28.870  29.581  23.954  1.00  0.00    -0.001 C 
ATOM     16  C   UNL     1      28.631  30.766  26.117  1.00  0.00     0.007 C 
ATOM     17  C   UNL     1      26.670  30.844  24.491  1.00  0.00     0.012 C 
ATOM     18  C   UNL     1      28.384  28.225  24.517  1.00  0.00     0.000 C 
ATOM     19  C   UNL     1      28.198  29.444  26.789  1.00  0.00     0.005 C 
ATOM     20  C   UNL     1      28.703  28.170  26.038  1.00  0.00     0.003 C 
ATOM     21  C   UNL     1      29.125  27.074  23.826  1.00  0.00     0.031 C 
ATOM     22  C   UNL     1      28.248  26.804  26.696  1.00  0.00    -0.008 C 
ATOM     23  C   UNL     1      28.788  25.753  24.444  1.00  0.00    -0.027 C 
ATOM     24  C   UNL     1      28.432  25.612  25.738  1.00  0.00    -0.065 C 
ATOM     25  C   UNL     1      26.740  26.837  27.108  1.00  0.00     0.014 C 
ATOM     26  C   UNL     1      29.125  26.567  27.955  1.00  0.00     0.016 C 
ATOM     27  C   UNL     1      27.938  24.253  26.191  1.00  0.00     0.063 C 
ATOM     28  C   UNL     1      26.176  25.478  27.576  1.00  0.00     0.033 C 
ATOM     29  C   UNL     1      26.447  24.334  26.577  1.00  0.00     0.118 C 
BRANCH  29  30
ATOM     30  O   UNL     1      25.617  24.451  25.446  1.00  0.00    -0.393 OA
ATOM     31  H   UNL     1      25.711  23.624  24.904  1.00  0.00     0.210 HD
ENDBRANCH  29  30
ENDBRANCH   9  11
ENDBRANCH   1   9
TORSDOF 7
ENDMDL
MODEL 3
REMARK VINA RESULT:    -2.278      1.040      1.495
REMARK INTER + INTRA:          -2.909
REMARK INTER:                  -2.150
REMARK INTRA:                  -0.759
REMARK UNBOUND:                 0.234
REMARK SMILES CC[C@H](CC[C@H](C)[C@@H]1CC[C@@H]2[C@H]3CC=C4C[C@H](O)CC[C@]4(C)[C@@H]3CC[C@]21C)C(C)C
REMARK SMILES IDX 5 1 4 2 3 3 2 4 1 5 28 6 29 7 30 8 6 9 7 10 8 11 9 12 26 13
REMARK SMILES IDX 10 14 11 15 25 16 27 17 12 18 24 19 23 20 13 21 21 22 14 23
REMARK SMILES IDX 15 24 20 25 22 26 16 27 19 28 17 29 18 30
REMARK H PARENT 18 31
REMARK Flexibility Score: inf
ROOT
ATOM      1  C   UNL     1      28.806  31.037  23.679  1.00  0.00     0.004 C 
ENDROOT
BRANCH   1   2
ATOM      2  C   UNL     1      28.498  30.312  25.018  1.00  0.00     0.004 C 
BRANCH   2   3
ATOM      3  C   UNL     1      27.498  29.111  24.875  1.00  0.00    -0.009 C 
BRANCH   3   4
ATOM      4  C   UNL     1      27.483  28.224  26.154  1.00  0.00     0.000 C 
ATOM      5  C   UNL     1      27.315  26.722  25.887  1.00  0.00     0.004 C 
ENDBRANCH   3   4
BRANCH   3   6
ATOM      6  C   UNL     1      26.052  29.638  24.531  1.00  0.00    -0.014 C 
ATOM      7  C   UNL     1      25.335  28.706  23.534  1.00  0.00     0.007 C 
ATOM      8  C   UNL     1      25.139  29.809  25.757  1.00  0.00     0.007 C 
ENDBRANCH   3   6
ENDBRANCH   2   3
ENDBRANCH   1   2
BRANCH   1   9
ATOM      9  C   UNL     1      28.691  32.583  23.800  1.00  0.00    -0.011 C 
ATOM     10  C   UNL     1      27.776  32.939  24.995  1.00  0.00     0.008 C 
BRANCH   9  11
ATOM     11  C   UNL     1      28.165  33.236  22.473  1.00  0.00    -0.002 C 
ATOM     12  C   UNL     1      29.125  33.034  21.267  1.00  0.00     0.005 C 
ATOM     13  C   UNL     1      27.912  34.778  22.468  1.00  0.00    -0.026 C 
ATOM     14  C   UNL     1      28.957  34.250  20.346  1.00  0.00     0.005 C 
ATOM     15  C   UNL     1      27.793  35.018  20.953  1.00  0.00    -0.001 C 
ATOM     16  C   UNL     1      26.581  35.256  23.101  1.00  0.00     0.007 C 
ATOM     17  C   UNL     1      29.115  35.524  23.125  1.00  0.00     0.012 C 
ATOM     18  C   UNL     1      27.613  36.503  20.559  1.00  0.00     0.000 C 
ATOM     19  C   UNL     1      26.291  36.736  22.768  1.00  0.00     0.005 C 
ATOM     20  C   UNL     1      26.325  37.048  21.237  1.00  0.00     0.003 C 
ATOM     21  C   UNL     1      27.449  36.628  19.040  1.00  0.00     0.031 C 
ATOM     22  C   UNL     1      26.055  38.566  20.877  1.00  0.00    -0.008 C 
ATOM     23  C   UNL     1      27.128  38.032  18.635  1.00  0.00    -0.027 C 
ATOM     24  C   UNL     1      26.470  38.899  19.432  1.00  0.00    -0.065 C 
ATOM     25  C   UNL     1      26.848  39.531  21.818  1.00  0.00     0.014 C 
ATOM     26  C   UNL     1      24.532  38.829  21.029  1.00  0.00     0.016 C 
ATOM     27  C   UNL     1      26.371  40.341  18.978  1.00  0.00     0.063 C 
ATOM     28  C   UNL     1      26.789  41.018  21.405  1.00  0.00     0.033 C 
ATOM     29  C   UNL     1      27.174  41.251  19.929  1.00  0.00     0.118 C 
BRANCH  29  30
ATOM     30  O   UNL     1      28.563  41.108  19.747  1.00  0.00    -0.393 OA
ATOM     31  H   UNL     1      28.995  41.979  19.948  1.00  0.00     0.210 HD
ENDBRANCH  29  30
ENDBRANCH   9  11
ENDBRANCH   1   9
TORSDOF 7
ENDMDL
MODEL 4
REMARK VINA RESULT:    -2.159      2.786      9.167
REMARK INTER + INTRA:          -2.745
REMARK INTER:                  -2.754
REMARK INTRA:                   0.009
REMARK UNBOUND:                 0.234
REMARK SMILES CC[C@H](CC[C@H](C)[C@@H]1CC[C@@H]2[C@H]3CC=C4C[C@H](O)CC[C@]4(C)[C@@H]3CC[C@]21C)C(C)C
REMARK SMILES IDX 5 1 4 2 3 3 2 4 1 5 28 6 29 7 30 8 6 9 7 10 8 11 9 12 26 13
REMARK SMILES IDX 10 14 11 15 25 16 27 17 12 18 24 19 23 20 13 21 21 22 14 23
REMARK SMILES IDX 15 24 20 25 22 26 16 27 19 28 17 29 18 30
REMARK H PARENT 18 31
REMARK Flexibility Score: inf
ROOT
ATOM      1  C   UNL     1      26.855  37.158  20.739  1.00  0.00     0.004 C 
ENDROOT
BRANCH   1   2
ATOM      2  C   UNL     1      26.235  38.275  21.622  1.00  0.00     0.004 C 
BRANCH   2   3
ATOM      3  C   UNL     1      25.368  39.310  20.822  1.00  0.00    -0.009 C 
BRANCH   3   4
ATOM      4  C   UNL     1      23.950  39.469  21.443  1.00  0.00     0.000 C 
ATOM      5  C   UNL     1      23.154  38.163  21.561  1.00  0.00     0.004 C 
ENDBRANCH   3   4
BRANCH   3   6
ATOM      6  C   UNL     1      26.111  40.699  20.737  1.00  0.00    -0.014 C 
ATOM      7  C   UNL     1      26.836  41.031  22.056  1.00  0.00     0.007 C 
ATOM      8  C   UNL     1      27.141  40.790  19.598  1.00  0.00     0.007 C 
ENDBRANCH   3   6
ENDBRANCH   2   3
ENDBRANCH   1   2
BRANCH   1   9
ATOM      9  C   UNL     1      28.410  37.165  20.775  1.00  0.00    -0.011 C 
ATOM     10  C   UNL     1      28.951  37.894  19.522  1.00  0.00     0.008 C 
BRANCH   9  11
ATOM     11  C   UNL     1      28.999  35.715  20.881  1.00  0.00    -0.002 C 
ATOM     12  C   UNL     1      28.953  34.933  19.538  1.00  0.00     0.005 C 
ATOM     13  C   UNL     1      28.328  34.725  21.888  1.00  0.00    -0.026 C 
ATOM     14  C   UNL     1      28.800  33.446  19.885  1.00  0.00     0.005 C 
ATOM     15  C   UNL     1      28.938  33.401  21.398  1.00  0.00    -0.001 C 
ATOM     16  C   UNL     1      28.735  34.880  23.375  1.00  0.00     0.007 C 
ATOM     17  C   UNL     1      26.775  34.786  21.749  1.00  0.00     0.012 C 
ATOM     18  C   UNL     1      28.416  32.150  22.143  1.00  0.00     0.000 C 
ATOM     19  C   UNL     1      28.267  33.677  24.223  1.00  0.00     0.005 C 
ATOM     20  C   UNL     1      28.735  32.298  23.658  1.00  0.00     0.003 C 
ATOM     21  C   UNL     1      29.124  30.894  21.621  1.00  0.00     0.031 C 
ATOM     22  C   UNL     1      28.244  31.049  24.499  1.00  0.00    -0.008 C 
ATOM     23  C   UNL     1      28.751  29.682  22.416  1.00  0.00    -0.027 C 
ATOM     24  C   UNL     1      28.393  29.732  23.716  1.00  0.00    -0.065 C 
ATOM     25  C   UNL     1      26.738  31.181  24.898  1.00  0.00     0.014 C 
ATOM     26  C   UNL     1      29.115  30.966  25.781  1.00  0.00     0.016 C 
ATOM     27  C   UNL     1      27.863  28.463  24.352  1.00  0.00     0.063 C 
ATOM     28  C   UNL     1      26.137  29.916  25.549  1.00  0.00     0.033 C 
ATOM     29  C   UNL     1      26.375  28.638  24.719  1.00  0.00     0.118 C 
BRANCH  29  30
ATOM     30  O   UNL     1      25.547  28.619  23.581  1.00  0.00    -0.393 OA
ATOM     31  H   UNL     1      24.767  29.209  23.754  1.00  0.00     0.210 HD
ENDBRANCH  29  30
ENDBRANCH   9  11
ENDBRANCH   1   9
TORSDOF 7
ENDMDL
MODEL 5
REMARK VINA RESULT:    -1.597      2.827      8.858
REMARK INTER + INTRA:          -1.970
REMARK INTER:                  -0.520
REMARK INTRA:                  -1.450
REMARK UNBOUND:                 0.234
REMARK SMILES CC[C@H](CC[C@H](C)[C@@H]1CC[C@@H]2[C@H]3CC=C4C[C@H](O)CC[C@]4(C)[C@@H]3CC[C@]21C)C(C)C
REMARK SMILES IDX 5 1 4 2 3 3 2 4 1 5 28 6 29 7 30 8 6 9 7 10 8 11 9 12 26 13
REMARK SMILES IDX 10 14 11 15 25 16 27 17 12 18 24 19 23 20 13 21 21 22 14 23
REMARK SMILES IDX 15 24 20 25 22 26 16 27 19 28 17 29 18 30
REMARK H PARENT 18 31
REMARK Flexibility Score: inf
ROOT
ATOM      1  C   UNL     1      26.944  36.922  19.288  1.00  0.00     0.004 C 
ENDROOT
BRANCH   1   2
ATOM      2  C   UNL     1      25.730  37.863  19.521  1.00  0.00     0.004 C 
BRANCH   2   3
ATOM      3  C   UNL     1      25.471  38.205  21.030  1.00  0.00    -0.009 C 
BRANCH   3   4
ATOM      4  C   UNL     1      25.365  39.740  21.258  1.00  0.00     0.000 C 
ATOM      5  C   UNL     1      26.544  40.551  20.705  1.00  0.00     0.004 C 
ENDBRANCH   3   4
BRANCH   3   6
ATOM      6  C   UNL     1      24.178  37.462  21.546  1.00  0.00    -0.014 C 
ATOM      7  C   UNL     1      23.339  38.369  22.468  1.00  0.00     0.007 C 
ATOM      8  C   UNL     1      23.259  36.950  20.424  1.00  0.00     0.007 C 
ENDBRANCH   3   6
ENDBRANCH   2   3
ENDBRANCH   1   2
BRANCH   1   9
ATOM      9  C   UNL     1      27.957  36.954  20.469  1.00  0.00    -0.011 C 
ATOM     10  C   UNL     1      29.004  38.065  20.219  1.00  0.00     0.008 C 
BRANCH   9  11
ATOM     11  C   UNL     1      28.651  35.563  20.682  1.00  0.00    -0.002 C 
ATOM     12  C   UNL     1      28.686  34.690  19.396  1.00  0.00     0.005 C 
ATOM     13  C   UNL     1      28.040  34.597  21.747  1.00  0.00    -0.026 C 
ATOM     14  C   UNL     1      28.639  33.223  19.843  1.00  0.00     0.005 C 
ATOM     15  C   UNL     1      28.755  33.292  21.357  1.00  0.00    -0.001 C 
ATOM     16  C   UNL     1      28.409  34.883  23.225  1.00  0.00     0.007 C 
ATOM     17  C   UNL     1      26.489  34.529  21.587  1.00  0.00     0.012 C 
ATOM     18  C   UNL     1      28.316  32.059  22.181  1.00  0.00     0.000 C 
ATOM     19  C   UNL     1      28.019  33.709  24.149  1.00  0.00     0.005 C 
ATOM     20  C   UNL     1      28.599  32.334  23.685  1.00  0.00     0.003 C 
ATOM     21  C   UNL     1      29.125  30.827  21.756  1.00  0.00     0.031 C 
ATOM     22  C   UNL     1      28.189  31.112  24.606  1.00  0.00    -0.008 C 
ATOM     23  C   UNL     1      28.831  29.648  22.628  1.00  0.00    -0.027 C 
ATOM     24  C   UNL     1      28.449  29.759  23.918  1.00  0.00    -0.065 C 
ATOM     25  C   UNL     1      26.671  31.156  24.978  1.00  0.00     0.014 C 
ATOM     26  C   UNL     1      29.043  31.183  25.900  1.00  0.00     0.016 C 
ATOM     27  C   UNL     1      28.005  28.500  24.635  1.00  0.00     0.063 C 
ATOM     28  C   UNL     1      26.156  29.897  25.708  1.00  0.00     0.033 C 
ATOM     29  C   UNL     1      26.502  28.586  24.972  1.00  0.00     0.118 C 
BRANCH  29  30
ATOM     30  O   UNL     1      25.697  28.427  23.829  1.00  0.00    -0.393 OA
ATOM     31  H   UNL     1      24.765  28.673  24.068  1.00  0.00     0.210 HD
ENDBRANCH  29  30
ENDBRANCH   9  11
ENDBRANCH   1   9
TORSDOF 7
ENDMDL
