MODEL 1
REMARK VINA RESULT:    -4.167      0.000      0.000
REMARK INTER + INTRA:         -12.167
REMARK INTER:                 -10.500
REMARK INTRA:                  -1.667
REMARK UNBOUND:                -1.667
REMARK SMILES CCCCCCCCCCCCCCCCCCCCCCCCCCCC(=O)[O-]
REMARK SMILES IDX 15 1 16 2 17 3 18 4 19 5 20 6 21 7 22 8 23 9 24 10 25 11
REMARK SMILES IDX 26 12 27 13 28 14 29 15 30 16 14 17 13 18 12 19 11 20 10 21
REMARK SMILES IDX 9 22 8 23 7 24 6 25 5 26 4 27 3 28 2 29 1 30
REMARK H PARENT
REMARK Flexibility Score: inf
ROOT
ATOM      1  C   UNL     1       0.487  15.800  21.827  1.00  0.00     0.000 C 
ENDROOT
BRANCH   1   2
ATOM      2  C   UNL     1      -0.953  16.037  22.319  1.00  0.00     0.000 C 
BRANCH   2   3
ATOM      3  C   UNL     1      -1.666  17.256  21.705  1.00  0.00     0.000 C 
BRANCH   3   4
ATOM      4  C   UNL     1      -2.271  18.196  22.762  1.00  0.00     0.000 C 
BRANCH   4   5
ATOM      5  C   UNL     1      -3.782  17.975  22.960  1.00  0.00     0.000 C 
BRANCH   5   6
ATOM      6  C   UNL     1      -4.510  17.331  21.761  1.00  0.00     0.000 C 
BRANCH   6   7
ATOM      7  C   UNL     1      -4.909  15.853  21.950  1.00  0.00     0.000 C 
BRANCH   7   8
ATOM      8  C   UNL     1      -6.027  15.357  21.015  1.00  0.00     0.000 C 
BRANCH   8   9
ATOM      9  C   UNL     1      -7.018  14.419  21.717  1.00  0.00     0.000 C 
BRANCH   9  10
ATOM     10  C   UNL     1      -8.389  15.091  21.887  1.00  0.00     0.000 C 
BRANCH  10  11
ATOM     11  C   UNL     1      -8.348  16.249  22.907  1.00  0.00     0.000 C 
BRANCH  11  12
ATOM     12  C   UNL     1      -9.112  17.505  22.445  1.00  0.00     0.006 C 
BRANCH  12  13
ATOM     13  C   UNL     1      -8.217  18.614  21.872  1.00  0.00     0.053 C 
BRANCH  13  14
ATOM     14  C   UNL     1      -8.436  18.815  20.402  1.00  0.00     0.041 C 
ATOM     15  O   UNL     1      -8.225  17.872  19.595  1.00  0.00    -0.550 OA
ATOM     16  O   UNL     1      -8.862  20.047  19.920  1.00  0.00    -0.550 OA
ENDBRANCH  13  14
ENDBRANCH  12  13
ENDBRANCH  11  12
ENDBRANCH  10  11
ENDBRANCH   9  10
ENDBRANCH   8   9
ENDBRANCH   7   8
ENDBRANCH   6   7
ENDBRANCH   5   6
ENDBRANCH   4   5
ENDBRANCH   3   4
ENDBRANCH   2   3
ENDBRANCH   1   2
BRANCH   1  17
ATOM     17  C   UNL     1       1.552  16.147  22.882  1.00  0.00     0.000 C 
BRANCH  17  18
ATOM     18  C   UNL     1       2.950  16.318  22.265  1.00  0.00     0.000 C 
BRANCH  18  19
ATOM     19  C   UNL     1       3.945  15.257  22.770  1.00  0.00     0.000 C 
BRANCH  19  20
ATOM     20  C   UNL     1       5.416  15.667  22.547  1.00  0.00     0.000 C 
BRANCH  20  21
ATOM     21  C   UNL     1       6.426  14.522  22.765  1.00  0.00     0.000 C 
BRANCH  21  22
ATOM     22  C   UNL     1       7.906  14.946  22.823  1.00  0.00    -0.000 C 
BRANCH  22  23
ATOM     23  C   UNL     1       8.575  15.187  21.456  1.00  0.00    -0.000 C 
BRANCH  23  24
ATOM     24  C   UNL     1       8.826  16.676  21.168  1.00  0.00    -0.000 C 
BRANCH  24  25
ATOM     25  C   UNL     1       9.903  16.897  20.094  1.00  0.00    -0.000 C 
BRANCH  25  26
ATOM     26  C   UNL     1      11.046  15.873  20.173  1.00  0.00    -0.000 C 
BRANCH  26  27
ATOM     27  C   UNL     1      10.959  14.870  19.013  1.00  0.00    -0.000 C 
BRANCH  27  28
ATOM     28  C   UNL     1      11.047  13.405  19.477  1.00  0.00    -0.000 C 
BRANCH  28  29
ATOM     29  C   UNL     1      10.327  12.395  18.567  1.00  0.00    -0.003 C 
ATOM     30  C   UNL     1      10.715  10.945  18.859  1.00  0.00     0.004 C 
ENDBRANCH  28  29
ENDBRANCH  27  28
ENDBRANCH  26  27
ENDBRANCH  25  26
ENDBRANCH  24  25
ENDBRANCH  23  24
ENDBRANCH  22  23
ENDBRANCH  21  22
ENDBRANCH  20  21
ENDBRANCH  19  20
ENDBRANCH  18  19
ENDBRANCH  17  18
ENDBRANCH   1  17
TORSDOF 26
ENDMDL
MODEL 2
REMARK VINA RESULT:    -3.898      5.452     15.358
REMARK INTER + INTRA:         -11.490
REMARK INTER:                 -10.138
REMARK INTRA:                  -1.352
REMARK UNBOUND:                -1.667
REMARK SMILES CCCCCCCCCCCCCCCCCCCCCCCCCCCC(=O)[O-]
REMARK SMILES IDX 15 1 16 2 17 3 18 4 19 5 20 6 21 7 22 8 23 9 24 10 25 11
REMARK SMILES IDX 26 12 27 13 28 14 29 15 30 16 14 17 13 18 12 19 11 20 10 21
REMARK SMILES IDX 9 22 8 23 7 24 6 25 5 26 4 27 3 28 2 29 1 30
REMARK H PARENT
REMARK Flexibility Score: inf
ROOT
ATOM      1  C   UNL     1       3.928  15.867  22.219  1.00  0.00     0.000 C 
ENDROOT
BRANCH   1   2
ATOM      2  C   UNL     1       4.755  14.743  22.872  1.00  0.00     0.000 C 
BRANCH   2   3
ATOM      3  C   UNL     1       6.280  14.952  22.854  1.00  0.00     0.000 C 
BRANCH   3   4
ATOM      4  C   UNL     1       6.710  16.187  22.043  1.00  0.00     0.000 C 
BRANCH   4   5
ATOM      5  C   UNL     1       8.206  16.170  21.681  1.00  0.00     0.000 C 
BRANCH   5   6
ATOM      6  C   UNL     1       8.725  17.449  20.990  1.00  0.00     0.000 C 
BRANCH   6   7
ATOM      7  C   UNL     1       9.988  17.264  20.125  1.00  0.00     0.000 C 
BRANCH   7   8
ATOM      8  C   UNL     1      10.913  16.114  20.562  1.00  0.00     0.000 C 
BRANCH   8   9
ATOM      9  C   UNL     1      10.622  14.802  19.821  1.00  0.00     0.000 C 
BRANCH   9  10
ATOM     10  C   UNL     1      11.125  13.592  20.622  1.00  0.00     0.000 C 
BRANCH  10  11
ATOM     11  C   UNL     1       9.991  12.598  20.951  1.00  0.00     0.000 C 
BRANCH  11  12
ATOM     12  C   UNL     1      10.338  11.619  22.089  1.00  0.00     0.006 C 
BRANCH  12  13
ATOM     13  C   UNL     1       9.266  10.551  22.354  1.00  0.00     0.053 C 
BRANCH  13  14
ATOM     14  C   UNL     1       9.618   9.231  21.735  1.00  0.00     0.041 C 
ATOM     15  O   UNL     1       8.954   8.200  22.020  1.00  0.00    -0.550 OA
ATOM     16  O   UNL     1      10.688   9.135  20.852  1.00  0.00    -0.550 OA
ENDBRANCH  13  14
ENDBRANCH  12  13
ENDBRANCH  11  12
ENDBRANCH  10  11
ENDBRANCH   9  10
ENDBRANCH   8   9
ENDBRANCH   7   8
ENDBRANCH   6   7
ENDBRANCH   5   6
ENDBRANCH   4   5
ENDBRANCH   3   4
ENDBRANCH   2   3
ENDBRANCH   1   2
BRANCH   1  17
ATOM     17  C   UNL     1       2.614  16.162  22.962  1.00  0.00     0.000 C 
BRANCH  17  18
ATOM     18  C   UNL     1       1.435  16.374  21.998  1.00  0.00     0.000 C 
BRANCH  18  19
ATOM     19  C   UNL     1       0.102  15.877  22.586  1.00  0.00     0.000 C 
BRANCH  19  20
ATOM     20  C   UNL     1      -1.124  16.396  21.806  1.00  0.00     0.000 C 
BRANCH  20  21
ATOM     21  C   UNL     1      -2.222  17.010  22.699  1.00  0.00     0.000 C 
BRANCH  21  22
ATOM     22  C   UNL     1      -3.588  17.218  22.021  1.00  0.00    -0.000 C 
BRANCH  22  23
ATOM     23  C   UNL     1      -4.274  15.933  21.515  1.00  0.00    -0.000 C 
BRANCH  23  24
ATOM     24  C   UNL     1      -5.486  15.526  22.370  1.00  0.00    -0.000 C 
BRANCH  24  25
ATOM     25  C   UNL     1      -6.375  14.483  21.675  1.00  0.00    -0.000 C 
BRANCH  25  26
ATOM     26  C   UNL     1      -7.827  14.953  21.502  1.00  0.00    -0.000 C 
BRANCH  26  27
ATOM     27  C   UNL     1      -8.162  16.064  22.508  1.00  0.00    -0.000 C 
BRANCH  27  28
ATOM     28  C   UNL     1      -8.880  17.263  21.863  1.00  0.00    -0.000 C 
BRANCH  28  29
ATOM     29  C   UNL     1      -7.956  18.251  21.129  1.00  0.00    -0.003 C 
ATOM     30  C   UNL     1      -8.384  18.509  19.684  1.00  0.00     0.004 C 
ENDBRANCH  28  29
ENDBRANCH  27  28
ENDBRANCH  26  27
ENDBRANCH  25  26
ENDBRANCH  24  25
ENDBRANCH  23  24
ENDBRANCH  22  23
ENDBRANCH  21  22
ENDBRANCH  20  21
ENDBRANCH  19  20
ENDBRANCH  18  19
ENDBRANCH  17  18
ENDBRANCH   1  17
TORSDOF 26
ENDMDL
MODEL 3
REMARK VINA RESULT:    -3.634      1.657      3.427
REMARK INTER + INTRA:         -10.825
REMARK INTER:                  -9.161
REMARK INTRA:                  -1.664
REMARK UNBOUND:                -1.667
REMARK SMILES CCCCCCCCCCCCCCCCCCCCCCCCCCCC(=O)[O-]
REMARK SMILES IDX 15 1 16 2 17 3 18 4 19 5 20 6 21 7 22 8 23 9 24 10 25 11
REMARK SMILES IDX 26 12 27 13 28 14 29 15 30 16 14 17 13 18 12 19 11 20 10 21
REMARK SMILES IDX 9 22 8 23 7 24 6 25 5 26 4 27 3 28 2 29 1 30
REMARK H PARENT
REMARK Flexibility Score: inf
ROOT
ATOM      1  C   UNL     1       3.982  15.926  21.994  1.00  0.00     0.000 C 
ENDROOT
BRANCH   1   2
ATOM      2  C   UNL     1       2.639  16.407  22.574  1.00  0.00     0.000 C 
BRANCH   2   3
ATOM      3  C   UNL     1       1.408  16.149  21.686  1.00  0.00     0.000 C 
BRANCH   3   4
ATOM      4  C   UNL     1       0.108  15.979  22.492  1.00  0.00     0.000 C 
BRANCH   4   5
ATOM      5  C   UNL     1      -1.141  16.424  21.709  1.00  0.00     0.000 C 
BRANCH   5   6
ATOM      6  C   UNL     1      -2.210  17.155  22.547  1.00  0.00     0.000 C 
BRANCH   6   7
ATOM      7  C   UNL     1      -3.442  16.308  22.928  1.00  0.00     0.000 C 
BRANCH   7   8
ATOM      8  C   UNL     1      -4.632  16.418  21.956  1.00  0.00     0.000 C 
BRANCH   8   9
ATOM      9  C   UNL     1      -5.527  15.172  21.970  1.00  0.00     0.000 C 
BRANCH   9  10
ATOM     10  C   UNL     1      -6.748  15.360  21.057  1.00  0.00     0.000 C 
BRANCH  10  11
ATOM     11  C   UNL     1      -8.077  15.127  21.807  1.00  0.00     0.000 C 
BRANCH  11  12
ATOM     12  C   UNL     1      -8.970  16.381  21.883  1.00  0.00     0.006 C 
BRANCH  12  13
ATOM     13  C   UNL     1      -9.019  17.202  20.585  1.00  0.00     0.053 C 
BRANCH  13  14
ATOM     14  C   UNL     1      -8.580  18.621  20.796  1.00  0.00     0.041 C 
ATOM     15  O   UNL     1      -8.060  18.968  21.889  1.00  0.00    -0.550 OA
ATOM     16  O   UNL     1      -8.758  19.564  19.791  1.00  0.00    -0.550 OA
ENDBRANCH  13  14
ENDBRANCH  12  13
ENDBRANCH  11  12
ENDBRANCH  10  11
ENDBRANCH   9  10
ENDBRANCH   8   9
ENDBRANCH   7   8
ENDBRANCH   6   7
ENDBRANCH   5   6
ENDBRANCH   4   5
ENDBRANCH   3   4
ENDBRANCH   2   3
ENDBRANCH   1   2
BRANCH   1  17
ATOM     17  C   UNL     1       4.788  15.057  22.974  1.00  0.00     0.000 C 
BRANCH  17  18
ATOM     18  C   UNL     1       6.162  14.661  22.407  1.00  0.00     0.000 C 
BRANCH  18  19
ATOM     19  C   UNL     1       7.128  15.858  22.328  1.00  0.00     0.000 C 
BRANCH  19  20
ATOM     20  C   UNL     1       8.491  15.568  22.992  1.00  0.00     0.000 C 
BRANCH  20  21
ATOM     21  C   UNL     1       9.514  14.894  22.054  1.00  0.00     0.000 C 
BRANCH  21  22
ATOM     22  C   UNL     1      10.248  13.675  22.643  1.00  0.00    -0.000 C 
BRANCH  22  23
ATOM     23  C   UNL     1       9.414  12.381  22.725  1.00  0.00    -0.000 C 
BRANCH  23  24
ATOM     24  C   UNL     1      10.251  11.114  22.483  1.00  0.00    -0.000 C 
BRANCH  24  25
ATOM     25  C   UNL     1       9.417   9.957  21.911  1.00  0.00    -0.000 C 
BRANCH  25  26
ATOM     26  C   UNL     1      10.281   8.843  21.297  1.00  0.00    -0.000 C 
BRANCH  26  27
ATOM     27  C   UNL     1      11.119   9.386  20.130  1.00  0.00    -0.000 C 
BRANCH  27  28
ATOM     28  C   UNL     1      10.269   9.762  18.903  1.00  0.00    -0.000 C 
BRANCH  28  29
ATOM     29  C   UNL     1      10.671  11.081  18.219  1.00  0.00    -0.003 C 
ATOM     30  C   UNL     1      10.373  12.312  19.074  1.00  0.00     0.004 C 
ENDBRANCH  28  29
ENDBRANCH  27  28
ENDBRANCH  26  27
ENDBRANCH  25  26
ENDBRANCH  24  25
ENDBRANCH  23  24
ENDBRANCH  22  23
ENDBRANCH  21  22
ENDBRANCH  20  21
ENDBRANCH  19  20
ENDBRANCH  18  19
ENDBRANCH  17  18
ENDBRANCH   1  17
TORSDOF 26
ENDMDL
MODEL 4
REMARK VINA RESULT:    -3.632      1.151      1.893
REMARK INTER + INTRA:         -10.821
REMARK INTER:                  -8.942
REMARK INTRA:                  -1.878
REMARK UNBOUND:                -1.667
REMARK SMILES CCCCCCCCCCCCCCCCCCCCCCCCCCCC(=O)[O-]
REMARK SMILES IDX 15 1 16 2 17 3 18 4 19 5 20 6 21 7 22 8 23 9 24 10 25 11
REMARK SMILES IDX 26 12 27 13 28 14 29 15 30 16 14 17 13 18 12 19 11 20 10 21
REMARK SMILES IDX 9 22 8 23 7 24 6 25 5 26 4 27 3 28 2 29 1 30
REMARK H PARENT
REMARK Flexibility Score: inf
ROOT
ATOM      1  C   UNL     1       1.658  15.822  23.049  1.00  0.00     0.000 C 
ENDROOT
BRANCH   1   2
ATOM      2  C   UNL     1       1.017  15.942  21.654  1.00  0.00     0.000 C 
BRANCH   2   3
ATOM      3  C   UNL     1      -0.518  15.820  21.623  1.00  0.00     0.000 C 
BRANCH   3   4
ATOM      4  C   UNL     1      -1.206  16.575  22.773  1.00  0.00     0.000 C 
BRANCH   4   5
ATOM      5  C   UNL     1      -2.188  17.651  22.276  1.00  0.00     0.000 C 
BRANCH   5   6
ATOM      6  C   UNL     1      -3.494  17.770  23.090  1.00  0.00     0.000 C 
BRANCH   6   7
ATOM      7  C   UNL     1      -4.571  16.713  22.765  1.00  0.00     0.000 C 
BRANCH   7   8
ATOM      8  C   UNL     1      -4.287  15.859  21.515  1.00  0.00     0.000 C 
BRANCH   8   9
ATOM      9  C   UNL     1      -5.530  15.116  21.008  1.00  0.00     0.000 C 
BRANCH   9  10
ATOM     10  C   UNL     1      -6.582  14.979  22.119  1.00  0.00     0.000 C 
BRANCH  10  11
ATOM     11  C   UNL     1      -8.021  14.974  21.560  1.00  0.00     0.000 C 
BRANCH  11  12
ATOM     12  C   UNL     1      -8.913  16.087  22.144  1.00  0.00     0.006 C 
BRANCH  12  13
ATOM     13  C   UNL     1      -8.145  17.174  22.912  1.00  0.00     0.053 C 
BRANCH  13  14
ATOM     14  C   UNL     1      -7.975  18.425  22.103  1.00  0.00     0.041 C 
ATOM     15  O   UNL     1      -8.537  19.493  22.460  1.00  0.00    -0.550 OA
ATOM     16  O   UNL     1      -7.205  18.409  20.945  1.00  0.00    -0.550 OA
ENDBRANCH  13  14
ENDBRANCH  12  13
ENDBRANCH  11  12
ENDBRANCH  10  11
ENDBRANCH   9  10
ENDBRANCH   8   9
ENDBRANCH   7   8
ENDBRANCH   6   7
ENDBRANCH   5   6
ENDBRANCH   4   5
ENDBRANCH   3   4
ENDBRANCH   2   3
ENDBRANCH   1   2
BRANCH   1  17
ATOM     17  C   UNL     1       3.091  16.379  23.105  1.00  0.00     0.000 C 
BRANCH  17  18
ATOM     18  C   UNL     1       4.149  15.263  23.122  1.00  0.00     0.000 C 
BRANCH  18  19
ATOM     19  C   UNL     1       4.810  15.062  21.746  1.00  0.00     0.000 C 
BRANCH  19  20
ATOM     20  C   UNL     1       5.480  16.346  21.215  1.00  0.00     0.000 C 
BRANCH  20  21
ATOM     21  C   UNL     1       6.981  16.456  21.554  1.00  0.00     0.000 C 
BRANCH  21  22
ATOM     22  C   UNL     1       7.843  17.194  20.513  1.00  0.00    -0.000 C 
BRANCH  22  23
ATOM     23  C   UNL     1       9.297  17.473  20.942  1.00  0.00    -0.000 C 
BRANCH  23  24
ATOM     24  C   UNL     1      10.301  16.479  20.334  1.00  0.00    -0.000 C 
BRANCH  24  25
ATOM     25  C   UNL     1      10.485  15.222  21.199  1.00  0.00    -0.000 C 
BRANCH  25  26
ATOM     26  C   UNL     1      10.827  13.972  20.373  1.00  0.00    -0.000 C 
BRANCH  26  27
ATOM     27  C   UNL     1      11.021  14.334  18.893  1.00  0.00    -0.000 C 
BRANCH  27  28
ATOM     28  C   UNL     1      11.032  13.103  17.969  1.00  0.00    -0.000 C 
BRANCH  28  29
ATOM     29  C   UNL     1      10.123  11.947  18.422  1.00  0.00    -0.003 C 
ATOM     30  C   UNL     1      10.862  10.614  18.533  1.00  0.00     0.004 C 
ENDBRANCH  28  29
ENDBRANCH  27  28
ENDBRANCH  26  27
ENDBRANCH  25  26
ENDBRANCH  24  25
ENDBRANCH  23  24
ENDBRANCH  22  23
ENDBRANCH  21  22
ENDBRANCH  20  21
ENDBRANCH  19  20
ENDBRANCH  18  19
ENDBRANCH  17  18
ENDBRANCH   1  17
TORSDOF 26
ENDMDL
MODEL 5
REMARK VINA RESULT:    -3.506      5.437     15.499
REMARK INTER + INTRA:         -10.501
REMARK INTER:                  -8.849
REMARK INTRA:                  -1.652
REMARK UNBOUND:                -1.667
REMARK SMILES CCCCCCCCCCCCCCCCCCCCCCCCCCCC(=O)[O-]
REMARK SMILES IDX 15 1 16 2 17 3 18 4 19 5 20 6 21 7 22 8 23 9 24 10 25 11
REMARK SMILES IDX 26 12 27 13 28 14 29 15 30 16 14 17 13 18 12 19 11 20 10 21
REMARK SMILES IDX 9 22 8 23 7 24 6 25 5 26 4 27 3 28 2 29 1 30
REMARK H PARENT
REMARK Flexibility Score: inf
ROOT
ATOM      1  C   UNL     1       1.434  16.622  22.751  1.00  0.00     0.000 C 
ENDROOT
BRANCH   1   2
ATOM      2  C   UNL     1       2.670  15.931  22.143  1.00  0.00     0.000 C 
BRANCH   2   3
ATOM      3  C   UNL     1       3.827  15.670  23.125  1.00  0.00     0.000 C 
BRANCH   3   4
ATOM      4  C   UNL     1       4.611  14.386  22.805  1.00  0.00     0.000 C 
BRANCH   4   5
ATOM      5  C   UNL     1       5.800  14.633  21.858  1.00  0.00     0.000 C 
BRANCH   5   6
ATOM      6  C   UNL     1       7.054  15.232  22.528  1.00  0.00     0.000 C 
BRANCH   6   7
ATOM      7  C   UNL     1       7.832  16.254  21.675  1.00  0.00     0.000 C 
BRANCH   7   8
ATOM      8  C   UNL     1       9.338  15.967  21.528  1.00  0.00     0.000 C 
BRANCH   8   9
ATOM      9  C   UNL     1       9.704  14.519  21.885  1.00  0.00     0.000 C 
BRANCH   9  10
ATOM     10  C   UNL     1       9.624  13.610  20.650  1.00  0.00     0.000 C 
BRANCH  10  11
ATOM     11  C   UNL     1      10.505  12.350  20.796  1.00  0.00     0.000 C 
BRANCH  11  12
ATOM     12  C   UNL     1      10.114  11.460  21.993  1.00  0.00     0.006 C 
BRANCH  12  13
ATOM     13  C   UNL     1      10.712  10.046  21.949  1.00  0.00     0.053 C 
BRANCH  13  14
ATOM     14  C   UNL     1      10.002   9.161  20.968  1.00  0.00     0.041 C 
ATOM     15  O   UNL     1       9.004   8.485  21.330  1.00  0.00    -0.550 OA
ATOM     16  O   UNL     1      10.451   9.072  19.655  1.00  0.00    -0.550 OA
ENDBRANCH  13  14
ENDBRANCH  12  13
ENDBRANCH  11  12
ENDBRANCH  10  11
ENDBRANCH   9  10
ENDBRANCH   8   9
ENDBRANCH   7   8
ENDBRANCH   6   7
ENDBRANCH   5   6
ENDBRANCH   4   5
ENDBRANCH   3   4
ENDBRANCH   2   3
ENDBRANCH   1   2
BRANCH   1  17
ATOM     17  C   UNL     1       0.105  16.013  22.273  1.00  0.00     0.000 C 
BRANCH  17  18
ATOM     18  C   UNL     1      -1.113  16.688  22.927  1.00  0.00     0.000 C 
BRANCH  18  19
ATOM     19  C   UNL     1      -2.251  16.941  21.922  1.00  0.00     0.000 C 
BRANCH  19  20
ATOM     20  C   UNL     1      -3.602  17.226  22.611  1.00  0.00     0.000 C 
BRANCH  20  21
ATOM     21  C   UNL     1      -4.572  16.026  22.609  1.00  0.00     0.000 C 
BRANCH  21  22
ATOM     22  C   UNL     1      -4.902  15.443  21.222  1.00  0.00    -0.000 C 
BRANCH  22  23
ATOM     23  C   UNL     1      -6.397  15.438  20.850  1.00  0.00    -0.000 C 
BRANCH  23  24
ATOM     24  C   UNL     1      -7.242  14.549  21.778  1.00  0.00    -0.000 C 
BRANCH  24  25
ATOM     25  C   UNL     1      -8.312  15.343  22.543  1.00  0.00    -0.000 C 
BRANCH  25  26
ATOM     26  C   UNL     1      -9.000  16.410  21.678  1.00  0.00    -0.000 C 
BRANCH  26  27
ATOM     27  C   UNL     1      -8.766  17.813  22.257  1.00  0.00    -0.000 C 
BRANCH  27  28
ATOM     28  C   UNL     1      -8.010  18.744  21.292  1.00  0.00    -0.000 C 
BRANCH  28  29
ATOM     29  C   UNL     1      -8.323  18.522  19.802  1.00  0.00    -0.003 C 
ATOM     30  C   UNL     1      -8.780  19.796  19.091  1.00  0.00     0.004 C 
ENDBRANCH  28  29
ENDBRANCH  27  28
ENDBRANCH  26  27
ENDBRANCH  25  26
ENDBRANCH  24  25
ENDBRANCH  23  24
ENDBRANCH  22  23
ENDBRANCH  21  22
ENDBRANCH  20  21
ENDBRANCH  19  20
ENDBRANCH  18  19
ENDBRANCH  17  18
ENDBRANCH   1  17
TORSDOF 26
ENDMDL
MODEL 6
REMARK VINA RESULT:    -3.468      1.493      3.525
REMARK INTER + INTRA:         -10.407
REMARK INTER:                  -8.810
REMARK INTRA:                  -1.597
REMARK UNBOUND:                -1.667
REMARK SMILES CCCCCCCCCCCCCCCCCCCCCCCCCCCC(=O)[O-]
REMARK SMILES IDX 15 1 16 2 17 3 18 4 19 5 20 6 21 7 22 8 23 9 24 10 25 11
REMARK SMILES IDX 26 12 27 13 28 14 29 15 30 16 14 17 13 18 12 19 11 20 10 21
REMARK SMILES IDX 9 22 8 23 7 24 6 25 5 26 4 27 3 28 2 29 1 30
REMARK H PARENT
REMARK Flexibility Score: inf
ROOT
ATOM      1  C   UNL     1       3.785  15.660  22.377  1.00  0.00     0.000 C 
ENDROOT
BRANCH   1   2
ATOM      2  C   UNL     1       2.625  16.593  22.771  1.00  0.00     0.000 C 
BRANCH   2   3
ATOM      3  C   UNL     1       1.238  15.928  22.835  1.00  0.00     0.000 C 
BRANCH   3   4
ATOM      4  C   UNL     1       0.419  16.117  21.546  1.00  0.00     0.000 C 
BRANCH   4   5
ATOM      5  C   UNL     1      -1.020  15.585  21.671  1.00  0.00     0.000 C 
BRANCH   5   6
ATOM      6  C   UNL     1      -2.118  16.669  21.685  1.00  0.00     0.000 C 
BRANCH   6   7
ATOM      7  C   UNL     1      -2.983  16.714  22.962  1.00  0.00     0.000 C 
BRANCH   7   8
ATOM      8  C   UNL     1      -4.224  15.802  22.939  1.00  0.00     0.000 C 
BRANCH   8   9
ATOM      9  C   UNL     1      -5.135  16.069  21.733  1.00  0.00     0.000 C 
BRANCH   9  10
ATOM     10  C   UNL     1      -6.092  14.891  21.493  1.00  0.00     0.000 C 
BRANCH  10  11
ATOM     11  C   UNL     1      -7.573  15.320  21.563  1.00  0.00     0.000 C 
BRANCH  11  12
ATOM     12  C   UNL     1      -7.931  16.092  22.848  1.00  0.00     0.006 C 
BRANCH  12  13
ATOM     13  C   UNL     1      -8.578  17.463  22.601  1.00  0.00     0.053 C 
BRANCH  13  14
ATOM     14  C   UNL     1      -7.696  18.368  21.793  1.00  0.00     0.041 C 
ATOM     15  O   UNL     1      -7.772  18.371  20.537  1.00  0.00    -0.550 OA
ATOM     16  O   UNL     1      -6.779  19.199  22.427  1.00  0.00    -0.550 OA
ENDBRANCH  13  14
ENDBRANCH  12  13
ENDBRANCH  11  12
ENDBRANCH  10  11
ENDBRANCH   9  10
ENDBRANCH   8   9
ENDBRANCH   7   8
ENDBRANCH   6   7
ENDBRANCH   5   6
ENDBRANCH   4   5
ENDBRANCH   3   4
ENDBRANCH   2   3
ENDBRANCH   1   2
BRANCH   1  17
ATOM     17  C   UNL     1       5.171  16.252  22.687  1.00  0.00     0.000 C 
BRANCH  17  18
ATOM     18  C   UNL     1       6.285  15.595  21.856  1.00  0.00     0.000 C 
BRANCH  18  19
ATOM     19  C   UNL     1       7.682  16.123  22.229  1.00  0.00     0.000 C 
BRANCH  19  20
ATOM     20  C   UNL     1       8.802  15.507  21.364  1.00  0.00     0.000 C 
BRANCH  20  21
ATOM     21  C   UNL     1       8.606  14.008  21.059  1.00  0.00     0.000 C 
BRANCH  21  22
ATOM     22  C   UNL     1       9.881  13.147  21.128  1.00  0.00    -0.000 C 
BRANCH  22  23
ATOM     23  C   UNL     1      10.780  13.201  19.877  1.00  0.00    -0.000 C 
BRANCH  23  24
ATOM     24  C   UNL     1      10.012  12.920  18.576  1.00  0.00    -0.000 C 
BRANCH  24  25
ATOM     25  C   UNL     1      10.418  11.588  17.926  1.00  0.00    -0.000 C 
BRANCH  25  26
ATOM     26  C   UNL     1      11.123  10.636  18.903  1.00  0.00    -0.000 C 
BRANCH  26  27
ATOM     27  C   UNL     1      10.532   9.221  18.806  1.00  0.00    -0.000 C 
BRANCH  27  28
ATOM     28  C   UNL     1       9.955   8.717  20.141  1.00  0.00    -0.000 C 
BRANCH  28  29
ATOM     29  C   UNL     1      10.267   9.607  21.357  1.00  0.00    -0.003 C 
ATOM     30  C   UNL     1       9.096   9.717  22.333  1.00  0.00     0.004 C 
ENDBRANCH  28  29
ENDBRANCH  27  28
ENDBRANCH  26  27
ENDBRANCH  25  26
ENDBRANCH  24  25
ENDBRANCH  23  24
ENDBRANCH  22  23
ENDBRANCH  21  22
ENDBRANCH  20  21
ENDBRANCH  19  20
ENDBRANCH  18  19
ENDBRANCH  17  18
ENDBRANCH   1  17
TORSDOF 26
ENDMDL
MODEL 7
REMARK VINA RESULT:    -3.456      1.442      2.421
REMARK INTER + INTRA:         -10.375
REMARK INTER:                  -8.801
REMARK INTRA:                  -1.575
REMARK UNBOUND:                -1.667
REMARK SMILES CCCCCCCCCCCCCCCCCCCCCCCCCCCC(=O)[O-]
REMARK SMILES IDX 15 1 16 2 17 3 18 4 19 5 20 6 21 7 22 8 23 9 24 10 25 11
REMARK SMILES IDX 26 12 27 13 28 14 29 15 30 16 14 17 13 18 12 19 11 20 10 21
REMARK SMILES IDX 9 22 8 23 7 24 6 25 5 26 4 27 3 28 2 29 1 30
REMARK H PARENT
REMARK Flexibility Score: inf
ROOT
ATOM      1  C   UNL     1      -1.076  16.535  21.299  1.00  0.00     0.000 C 
ENDROOT
BRANCH   1   2
ATOM      2  C   UNL     1      -1.744  17.556  22.238  1.00  0.00     0.000 C 
BRANCH   2   3
ATOM      3  C   UNL     1      -3.252  17.773  22.009  1.00  0.00     0.000 C 
BRANCH   3   4
ATOM      4  C   UNL     1      -4.127  17.086  23.072  1.00  0.00     0.000 C 
BRANCH   4   5
ATOM      5  C   UNL     1      -4.431  15.615  22.733  1.00  0.00     0.000 C 
BRANCH   5   6
ATOM      6  C   UNL     1      -5.139  15.389  21.381  1.00  0.00     0.000 C 
BRANCH   6   7
ATOM      7  C   UNL     1      -6.627  14.993  21.475  1.00  0.00     0.000 C 
BRANCH   7   8
ATOM      8  C   UNL     1      -7.600  16.167  21.692  1.00  0.00     0.000 C 
BRANCH   8   9
ATOM      9  C   UNL     1      -7.072  17.490  21.121  1.00  0.00     0.000 C 
BRANCH   9  10
ATOM     10  C   UNL     1      -8.127  18.170  20.236  1.00  0.00     0.000 C 
BRANCH  10  11
ATOM     11  C   UNL     1      -9.114  19.025  21.058  1.00  0.00     0.000 C 
BRANCH  11  12
ATOM     12  C   UNL     1      -8.442  19.826  22.190  1.00  0.00     0.006 C 
BRANCH  12  13
ATOM     13  C   UNL     1      -8.968  21.260  22.348  1.00  0.00     0.053 C 
BRANCH  13  14
ATOM     14  C   UNL     1      -8.476  22.167  21.259  1.00  0.00     0.041 C 
ATOM     15  O   UNL     1      -8.977  22.104  20.106  1.00  0.00    -0.550 OA
ATOM     16  O   UNL     1      -7.452  23.073  21.514  1.00  0.00    -0.550 OA
ENDBRANCH  13  14
ENDBRANCH  12  13
ENDBRANCH  11  12
ENDBRANCH  10  11
ENDBRANCH   9  10
ENDBRANCH   8   9
ENDBRANCH   7   8
ENDBRANCH   6   7
ENDBRANCH   5   6
ENDBRANCH   4   5
ENDBRANCH   3   4
ENDBRANCH   2   3
ENDBRANCH   1   2
BRANCH   1  17
ATOM     17  C   UNL     1      -0.092  15.600  22.024  1.00  0.00     0.000 C 
BRANCH  17  18
ATOM     18  C   UNL     1       1.094  16.364  22.636  1.00  0.00     0.000 C 
BRANCH  18  19
ATOM     19  C   UNL     1       2.451  15.789  22.191  1.00  0.00     0.000 C 
BRANCH  19  20
ATOM     20  C   UNL     1       3.396  16.868  21.621  1.00  0.00     0.000 C 
BRANCH  20  21
ATOM     21  C   UNL     1       4.852  16.392  21.438  1.00  0.00     0.000 C 
BRANCH  21  22
ATOM     22  C   UNL     1       5.328  15.319  22.435  1.00  0.00    -0.000 C 
BRANCH  22  23
ATOM     23  C   UNL     1       6.753  15.520  22.987  1.00  0.00    -0.000 C 
BRANCH  23  24
ATOM     24  C   UNL     1       7.844  15.044  22.014  1.00  0.00    -0.000 C 
BRANCH  24  25
ATOM     25  C   UNL     1       8.431  16.192  21.177  1.00  0.00    -0.000 C 
BRANCH  25  26
ATOM     26  C   UNL     1       9.962  16.135  21.073  1.00  0.00    -0.000 C 
BRANCH  26  27
ATOM     27  C   UNL     1      10.395  15.647  19.682  1.00  0.00    -0.000 C 
BRANCH  27  28
ATOM     28  C   UNL     1      11.031  14.245  19.706  1.00  0.00    -0.000 C 
BRANCH  28  29
ATOM     29  C   UNL     1      10.092  13.103  19.280  1.00  0.00    -0.003 C 
ATOM     30  C   UNL     1      10.728  12.156  18.263  1.00  0.00     0.004 C 
ENDBRANCH  28  29
ENDBRANCH  27  28
ENDBRANCH  26  27
ENDBRANCH  25  26
ENDBRANCH  24  25
ENDBRANCH  23  24
ENDBRANCH  22  23
ENDBRANCH  21  22
ENDBRANCH  20  21
ENDBRANCH  19  20
ENDBRANCH  18  19
ENDBRANCH  17  18
ENDBRANCH   1  17
TORSDOF 26
ENDMDL
MODEL 8
REMARK VINA RESULT:    -3.437      5.084     15.452
REMARK INTER + INTRA:         -10.329
REMARK INTER:                  -8.866
REMARK INTRA:                  -1.462
REMARK UNBOUND:                -1.667
REMARK SMILES CCCCCCCCCCCCCCCCCCCCCCCCCCCC(=O)[O-]
REMARK SMILES IDX 15 1 16 2 17 3 18 4 19 5 20 6 21 7 22 8 23 9 24 10 25 11
REMARK SMILES IDX 26 12 27 13 28 14 29 15 30 16 14 17 13 18 12 19 11 20 10 21
REMARK SMILES IDX 9 22 8 23 7 24 6 25 5 26 4 27 3 28 2 29 1 30
REMARK H PARENT
REMARK Flexibility Score: inf
ROOT
ATOM      1  C   UNL     1      -0.580  15.571  21.488  1.00  0.00     0.000 C 
ENDROOT
BRANCH   1   2
ATOM      2  C   UNL     1       0.481  15.932  22.545  1.00  0.00     0.000 C 
BRANCH   2   3
ATOM      3  C   UNL     1       1.929  16.005  22.026  1.00  0.00     0.000 C 
BRANCH   3   4
ATOM      4  C   UNL     1       2.944  16.367  23.123  1.00  0.00     0.000 C 
BRANCH   4   5
ATOM      5  C   UNL     1       4.228  15.520  23.050  1.00  0.00     0.000 C 
BRANCH   5   6
ATOM      6  C   UNL     1       5.231  15.948  21.958  1.00  0.00     0.000 C 
BRANCH   6   7
ATOM      7  C   UNL     1       6.571  15.184  21.960  1.00  0.00     0.000 C 
BRANCH   7   8
ATOM      8  C   UNL     1       7.827  16.075  21.970  1.00  0.00     0.000 C 
BRANCH   8   9
ATOM      9  C   UNL     1       8.087  16.752  20.617  1.00  0.00     0.000 C 
BRANCH   9  10
ATOM     10  C   UNL     1       9.285  17.710  20.701  1.00  0.00     0.000 C 
BRANCH  10  11
ATOM     11  C   UNL     1      10.634  16.963  20.622  1.00  0.00     0.000 C 
BRANCH  11  12
ATOM     12  C   UNL     1      10.596  15.715  19.719  1.00  0.00     0.006 C 
BRANCH  12  13
ATOM     13  C   UNL     1      11.111  14.433  20.391  1.00  0.00     0.053 C 
BRANCH  13  14
ATOM     14  C   UNL     1      10.059  13.365  20.453  1.00  0.00     0.041 C 
ATOM     15  O   UNL     1       9.691  12.777  19.403  1.00  0.00    -0.550 OA
ATOM     16  O   UNL     1       9.476  13.028  21.670  1.00  0.00    -0.550 OA
ENDBRANCH  13  14
ENDBRANCH  12  13
ENDBRANCH  11  12
ENDBRANCH  10  11
ENDBRANCH   9  10
ENDBRANCH   8   9
ENDBRANCH   7   8
ENDBRANCH   6   7
ENDBRANCH   5   6
ENDBRANCH   4   5
ENDBRANCH   3   4
ENDBRANCH   2   3
ENDBRANCH   1   2
BRANCH   1  17
ATOM     17  C   UNL     1      -1.556  16.723  21.193  1.00  0.00     0.000 C 
BRANCH  17  18
ATOM     18  C   UNL     1      -2.278  17.214  22.459  1.00  0.00     0.000 C 
BRANCH  18  19
ATOM     19  C   UNL     1      -3.256  16.164  23.018  1.00  0.00     0.000 C 
BRANCH  19  20
ATOM     20  C   UNL     1      -4.129  15.520  21.921  1.00  0.00     0.000 C 
BRANCH  20  21
ATOM     21  C   UNL     1      -5.646  15.651  22.169  1.00  0.00     0.000 C 
BRANCH  21  22
ATOM     22  C   UNL     1      -6.513  15.802  20.905  1.00  0.00    -0.000 C 
BRANCH  22  23
ATOM     23  C   UNL     1      -7.854  16.532  21.111  1.00  0.00    -0.000 C 
BRANCH  23  24
ATOM     24  C   UNL     1      -8.265  16.622  22.589  1.00  0.00    -0.000 C 
BRANCH  24  25
ATOM     25  C   UNL     1      -8.964  17.949  22.928  1.00  0.00    -0.000 C 
BRANCH  25  26
ATOM     26  C   UNL     1      -8.639  19.069  21.929  1.00  0.00    -0.000 C 
BRANCH  26  27
ATOM     27  C   UNL     1      -9.033  20.439  22.500  1.00  0.00    -0.000 C 
BRANCH  27  28
ATOM     28  C   UNL     1      -8.106  21.576  22.033  1.00  0.00    -0.000 C 
BRANCH  28  29
ATOM     29  C   UNL     1      -8.749  22.974  22.028  1.00  0.00    -0.003 C 
ATOM     30  C   UNL     1      -9.125  23.454  20.627  1.00  0.00     0.004 C 
ENDBRANCH  28  29
ENDBRANCH  27  28
ENDBRANCH  26  27
ENDBRANCH  25  26
ENDBRANCH  24  25
ENDBRANCH  23  24
ENDBRANCH  22  23
ENDBRANCH  21  22
ENDBRANCH  20  21
ENDBRANCH  19  20
ENDBRANCH  18  19
ENDBRANCH  17  18
ENDBRANCH   1  17
TORSDOF 26
ENDMDL
MODEL 9
REMARK VINA RESULT:    -3.090      5.358     15.508
REMARK INTER + INTRA:          -9.453
REMARK INTER:                  -7.897
REMARK INTRA:                  -1.557
REMARK UNBOUND:                -1.667
REMARK SMILES CCCCCCCCCCCCCCCCCCCCCCCCCCCC(=O)[O-]
REMARK SMILES IDX 15 1 16 2 17 3 18 4 19 5 20 6 21 7 22 8 23 9 24 10 25 11
REMARK SMILES IDX 26 12 27 13 28 14 29 15 30 16 14 17 13 18 12 19 11 20 10 21
REMARK SMILES IDX 9 22 8 23 7 24 6 25 5 26 4 27 3 28 2 29 1 30
REMARK H PARENT
REMARK Flexibility Score: inf
ROOT
ATOM      1  C   UNL     1       4.619  16.345  22.185  1.00  0.00     0.000 C 
ENDROOT
BRANCH   1   2
ATOM      2  C   UNL     1       5.797  15.369  22.362  1.00  0.00     0.000 C 
BRANCH   2   3
ATOM      3  C   UNL     1       7.011  15.934  23.122  1.00  0.00     0.000 C 
BRANCH   3   4
ATOM      4  C   UNL     1       8.302  15.133  22.876  1.00  0.00     0.000 C 
BRANCH   4   5
ATOM      5  C   UNL     1       8.683  15.060  21.386  1.00  0.00     0.000 C 
BRANCH   5   6
ATOM      6  C   UNL     1      10.123  14.585  21.103  1.00  0.00     0.000 C 
BRANCH   6   7
ATOM      7  C   UNL     1      10.284  13.067  20.878  1.00  0.00     0.000 C 
BRANCH   7   8
ATOM      8  C   UNL     1      10.551  12.246  22.154  1.00  0.00     0.000 C 
BRANCH   8   9
ATOM      9  C   UNL     1       9.306  11.499  22.651  1.00  0.00     0.000 C 
BRANCH   9  10
ATOM     10  C   UNL     1       9.432   9.989  22.400  1.00  0.00     0.000 C 
BRANCH  10  11
ATOM     11  C   UNL     1      10.834   9.599  21.885  1.00  0.00     0.000 C 
BRANCH  11  12
ATOM     12  C   UNL     1      10.814   8.911  20.506  1.00  0.00     0.006 C 
BRANCH  12  13
ATOM     13  C   UNL     1      11.115   9.850  19.327  1.00  0.00     0.053 C 
BRANCH  13  14
ATOM     14  C   UNL     1      10.007   9.861  18.316  1.00  0.00     0.041 C 
ATOM     15  O   UNL     1       9.296   8.837  18.143  1.00  0.00    -0.550 OA
ATOM     16  O   UNL     1       9.767  10.999  17.554  1.00  0.00    -0.550 OA
ENDBRANCH  13  14
ENDBRANCH  12  13
ENDBRANCH  11  12
ENDBRANCH  10  11
ENDBRANCH   9  10
ENDBRANCH   8   9
ENDBRANCH   7   8
ENDBRANCH   6   7
ENDBRANCH   5   6
ENDBRANCH   4   5
ENDBRANCH   3   4
ENDBRANCH   2   3
ENDBRANCH   1   2
BRANCH   1  17
ATOM     17  C   UNL     1       3.266  15.741  22.602  1.00  0.00     0.000 C 
BRANCH  17  18
ATOM     18  C   UNL     1       2.141  16.096  21.615  1.00  0.00     0.000 C 
BRANCH  18  19
ATOM     19  C   UNL     1       0.796  16.337  22.324  1.00  0.00     0.000 C 
BRANCH  19  20
ATOM     20  C   UNL     1      -0.415  15.949  21.450  1.00  0.00     0.000 C 
BRANCH  20  21
ATOM     21  C   UNL     1      -1.763  15.974  22.200  1.00  0.00     0.000 C 
BRANCH  21  22
ATOM     22  C   UNL     1      -2.410  17.364  22.351  1.00  0.00    -0.000 C 
BRANCH  22  23
ATOM     23  C   UNL     1      -3.951  17.370  22.402  1.00  0.00    -0.000 C 
BRANCH  23  24
ATOM     24  C   UNL     1      -4.566  16.008  22.040  1.00  0.00    -0.000 C 
BRANCH  24  25
ATOM     25  C   UNL     1      -6.103  16.030  22.062  1.00  0.00    -0.000 C 
BRANCH  25  26
ATOM     26  C   UNL     1      -6.681  17.453  22.071  1.00  0.00    -0.000 C 
BRANCH  26  27
ATOM     27  C   UNL     1      -8.204  17.421  22.272  1.00  0.00    -0.000 C 
BRANCH  27  28
ATOM     28  C   UNL     1      -8.987  17.791  20.999  1.00  0.00    -0.000 C 
BRANCH  28  29
ATOM     29  C   UNL     1      -8.817  19.248  20.537  1.00  0.00    -0.003 C 
ATOM     30  C   UNL     1      -8.517  19.371  19.044  1.00  0.00     0.004 C 
ENDBRANCH  28  29
ENDBRANCH  27  28
ENDBRANCH  26  27
ENDBRANCH  25  26
ENDBRANCH  24  25
ENDBRANCH  23  24
ENDBRANCH  22  23
ENDBRANCH  21  22
ENDBRANCH  20  21
ENDBRANCH  19  20
ENDBRANCH  18  19
ENDBRANCH  17  18
ENDBRANCH   1  17
TORSDOF 26
ENDMDL
