MODEL 1
REMARK VINA RESULT:    -2.216      0.000      0.000
REMARK INTER + INTRA:          -8.451
REMARK INTER:                  -4.806
REMARK INTRA:                  -3.644
REMARK UNBOUND:                -3.644
REMARK SMILES CCCCCCCCCCCCCCCCCCCCCC(=O)[O-]
REMARK SMILES IDX 12 1 11 2 10 3 9 4 8 5 7 6 6 7 5 8 4 9 3 10 2 11 1 12 13 13
REMARK SMILES IDX 14 14 15 15 16 16 17 17 18 18 19 19 20 20 21 21 22 22 23 23
REMARK SMILES IDX 24 24
REMARK H PARENT
REMARK Flexibility Score: inf
ROOT
ATOM      1  C   UNL     1      -4.303   8.492 -11.673  1.00  0.00     0.000 C 
ENDROOT
BRANCH   1   2
ATOM      2  C   UNL     1      -2.896   7.951 -11.359  1.00  0.00     0.000 C 
BRANCH   2   3
ATOM      3  C   UNL     1      -1.939   8.969 -10.711  1.00  0.00     0.000 C 
BRANCH   3   4
ATOM      4  C   UNL     1      -1.563   8.601  -9.265  1.00  0.00    -0.000 C 
BRANCH   4   5
ATOM      5  C   UNL     1      -1.728   9.781  -8.293  1.00  0.00    -0.000 C 
BRANCH   5   6
ATOM      6  C   UNL     1      -0.595  10.814  -8.420  1.00  0.00    -0.000 C 
BRANCH   6   7
ATOM      7  C   UNL     1      -1.108  12.231  -8.763  1.00  0.00    -0.000 C 
BRANCH   7   8
ATOM      8  C   UNL     1      -1.084  12.552 -10.269  1.00  0.00    -0.000 C 
BRANCH   8   9
ATOM      9  C   UNL     1      -2.354  13.241 -10.799  1.00  0.00    -0.000 C 
BRANCH   9  10
ATOM     10  C   UNL     1      -3.004  12.506 -11.993  1.00  0.00    -0.000 C 
BRANCH  10  11
ATOM     11  C   UNL     1      -1.967  11.941 -12.974  1.00  0.00    -0.003 C 
ATOM     12  C   UNL     1      -2.592  10.900 -13.899  1.00  0.00     0.004 C 
ENDBRANCH  10  11
ENDBRANCH   9  10
ENDBRANCH   8   9
ENDBRANCH   7   8
ENDBRANCH   6   7
ENDBRANCH   5   6
ENDBRANCH   4   5
ENDBRANCH   3   4
ENDBRANCH   2   3
ENDBRANCH   1   2
BRANCH   1  13
ATOM     13  C   UNL     1      -4.748   9.602 -10.709  1.00  0.00     0.000 C 
BRANCH  13  14
ATOM     14  C   UNL     1      -5.834   9.096  -9.752  1.00  0.00     0.000 C 
BRANCH  14  15
ATOM     15  C   UNL     1      -5.221   8.614  -8.427  1.00  0.00     0.000 C 
BRANCH  15  16
ATOM     16  C   UNL     1      -5.641   7.181  -8.059  1.00  0.00     0.000 C 
BRANCH  16  17
ATOM     17  C   UNL     1      -4.799   6.112  -8.776  1.00  0.00     0.000 C 
BRANCH  17  18
ATOM     18  C   UNL     1      -3.481   5.799  -8.043  1.00  0.00     0.000 C 
BRANCH  18  19
ATOM     19  C   UNL     1      -2.594   4.739  -8.720  1.00  0.00     0.000 C 
BRANCH  19  20
ATOM     20  C   UNL     1      -1.091   4.996  -8.516  1.00  0.00     0.006 C 
BRANCH  20  21
ATOM     21  C   UNL     1      -0.639   4.690  -7.081  1.00  0.00     0.053 C 
BRANCH  21  22
ATOM     22  C   UNL     1      -0.039   5.892  -6.416  1.00  0.00     0.041 C 
ATOM     23  O   UNL     1      -0.767   6.866  -6.091  1.00  0.00    -0.550 OA
ATOM     24  O   UNL     1       1.330   5.950  -6.187  1.00  0.00    -0.550 OA
ENDBRANCH  21  22
ENDBRANCH  20  21
ENDBRANCH  19  20
ENDBRANCH  18  19
ENDBRANCH  17  18
ENDBRANCH  16  17
ENDBRANCH  15  16
ENDBRANCH  14  15
ENDBRANCH  13  14
ENDBRANCH   1  13
TORSDOF 20
ENDMDL
MODEL 2
REMARK VINA RESULT:    -2.166      1.607      5.219
REMARK INTER + INTRA:          -8.344
REMARK INTER:                  -4.317
REMARK INTRA:                  -4.027
REMARK UNBOUND:                -3.644
REMARK SMILES CCCCCCCCCCCCCCCCCCCCCC(=O)[O-]
REMARK SMILES IDX 12 1 11 2 10 3 9 4 8 5 7 6 6 7 5 8 4 9 3 10 2 11 1 12 13 13
REMARK SMILES IDX 14 14 15 15 16 16 17 17 18 18 19 19 20 20 21 21 22 22 23 23
REMARK SMILES IDX 24 24
REMARK H PARENT
REMARK Flexibility Score: inf
ROOT
ATOM      1  C   UNL     1      -2.696  13.191 -10.973  1.00  0.00     0.000 C 
ENDROOT
BRANCH   1   2
ATOM      2  C   UNL     1      -2.805  13.151 -12.509  1.00  0.00     0.000 C 
BRANCH   2   3
ATOM      3  C   UNL     1      -2.561  11.769 -13.142  1.00  0.00     0.000 C 
BRANCH   3   4
ATOM      4  C   UNL     1      -2.993  10.608 -12.229  1.00  0.00    -0.000 C 
BRANCH   4   5
ATOM      5  C   UNL     1      -4.438  10.153 -12.493  1.00  0.00    -0.000 C 
BRANCH   5   6
ATOM      6  C   UNL     1      -4.576   8.621 -12.533  1.00  0.00    -0.000 C 
BRANCH   6   7
ATOM      7  C   UNL     1      -3.250   7.890 -12.225  1.00  0.00    -0.000 C 
BRANCH   7   8
ATOM      8  C   UNL     1      -3.398   6.736 -11.217  1.00  0.00    -0.000 C 
BRANCH   8   9
ATOM      9  C   UNL     1      -3.181   7.135  -9.746  1.00  0.00    -0.000 C 
BRANCH   9  10
ATOM     10  C   UNL     1      -4.481   7.545  -9.018  1.00  0.00    -0.000 C 
BRANCH  10  11
ATOM     11  C   UNL     1      -4.575   9.059  -8.785  1.00  0.00    -0.003 C 
ATOM     12  C   UNL     1      -3.189   9.697  -8.729  1.00  0.00     0.004 C 
ENDBRANCH  10  11
ENDBRANCH   9  10
ENDBRANCH   8   9
ENDBRANCH   7   8
ENDBRANCH   6   7
ENDBRANCH   5   6
ENDBRANCH   4   5
ENDBRANCH   3   4
ENDBRANCH   2   3
ENDBRANCH   1   2
BRANCH   1  13
ATOM     13  C   UNL     1      -1.263  13.437 -10.480  1.00  0.00     0.000 C 
BRANCH  13  14
ATOM     14  C   UNL     1      -0.982  12.649  -9.195  1.00  0.00     0.000 C 
BRANCH  14  15
ATOM     15  C   UNL     1       0.191  11.674  -9.391  1.00  0.00     0.000 C 
BRANCH  15  16
ATOM     16  C   UNL     1       0.622  11.545 -10.861  1.00  0.00     0.000 C 
BRANCH  16  17
ATOM     17  C   UNL     1       0.829  10.084 -11.295  1.00  0.00     0.000 C 
BRANCH  17  18
ATOM     18  C   UNL     1      -0.112   9.106 -10.567  1.00  0.00     0.000 C 
BRANCH  18  19
ATOM     19  C   UNL     1       0.422   7.668 -10.427  1.00  0.00     0.000 C 
BRANCH  19  20
ATOM     20  C   UNL     1       0.942   7.358  -9.013  1.00  0.00     0.006 C 
BRANCH  20  21
ATOM     21  C   UNL     1       0.060   7.980  -7.921  1.00  0.00     0.053 C 
BRANCH  21  22
ATOM     22  C   UNL     1      -0.031   7.103  -6.710  1.00  0.00     0.041 C 
ATOM     23  O   UNL     1      -1.123   6.557  -6.403  1.00  0.00    -0.550 OA
ATOM     24  O   UNL     1       1.083   6.915  -5.900  1.00  0.00    -0.550 OA
ENDBRANCH  21  22
ENDBRANCH  20  21
ENDBRANCH  19  20
ENDBRANCH  18  19
ENDBRANCH  17  18
ENDBRANCH  16  17
ENDBRANCH  15  16
ENDBRANCH  14  15
ENDBRANCH  13  14
ENDBRANCH   1  13
TORSDOF 20
ENDMDL
MODEL 3
REMARK VINA RESULT:    -2.164      9.221     10.527
REMARK INTER + INTRA:          -8.339
REMARK INTER:                  -4.479
REMARK INTRA:                  -3.861
REMARK UNBOUND:                -3.644
REMARK SMILES CCCCCCCCCCCCCCCCCCCCCC(=O)[O-]
REMARK SMILES IDX 12 1 11 2 10 3 9 4 8 5 7 6 6 7 5 8 4 9 3 10 2 11 1 12 13 13
REMARK SMILES IDX 14 14 15 15 16 16 17 17 18 18 19 19 20 20 21 21 22 22 23 23
REMARK SMILES IDX 24 24
REMARK H PARENT
REMARK Flexibility Score: inf
ROOT
ATOM      1  C   UNL     1      -1.601  13.594   0.314  1.00  0.00     0.000 C 
ENDROOT
BRANCH   1   2
ATOM      2  C   UNL     1      -1.974  12.904  -1.011  1.00  0.00     0.000 C 
BRANCH   2   3
ATOM      3  C   UNL     1      -1.454  13.607  -2.278  1.00  0.00     0.000 C 
BRANCH   3   4
ATOM      4  C   UNL     1       0.081  13.603  -2.378  1.00  0.00    -0.000 C 
BRANCH   4   5
ATOM      5  C   UNL     1       0.627  14.818  -3.146  1.00  0.00    -0.000 C 
BRANCH   5   6
ATOM      6  C   UNL     1      -0.079  16.129  -2.756  1.00  0.00    -0.000 C 
BRANCH   6   7
ATOM      7  C   UNL     1       0.149  16.517  -1.278  1.00  0.00    -0.000 C 
BRANCH   7   8
ATOM      8  C   UNL     1      -1.046  17.246  -0.637  1.00  0.00    -0.000 C 
BRANCH   8   9
ATOM      9  C   UNL     1      -1.899  18.069  -1.620  1.00  0.00    -0.000 C 
BRANCH   9  10
ATOM     10  C   UNL     1      -3.373  17.613  -1.692  1.00  0.00    -0.000 C 
BRANCH  10  11
ATOM     11  C   UNL     1      -3.676  16.442  -0.747  1.00  0.00    -0.003 C 
ATOM     12  C   UNL     1      -4.710  15.497  -1.352  1.00  0.00     0.004 C 
ENDBRANCH  10  11
ENDBRANCH   9  10
ENDBRANCH   8   9
ENDBRANCH   7   8
ENDBRANCH   6   7
ENDBRANCH   5   6
ENDBRANCH   4   5
ENDBRANCH   3   4
ENDBRANCH   2   3
ENDBRANCH   1   2
BRANCH   1  13
ATOM     13  C   UNL     1      -2.617  13.332   1.435  1.00  0.00     0.000 C 
BRANCH  13  14
ATOM     14  C   UNL     1      -3.925  12.764   0.869  1.00  0.00     0.000 C 
BRANCH  14  15
ATOM     15  C   UNL     1      -4.340  11.487   1.617  1.00  0.00     0.000 C 
BRANCH  15  16
ATOM     16  C   UNL     1      -3.149  10.573   1.949  1.00  0.00     0.000 C 
BRANCH  16  17
ATOM     17  C   UNL     1      -2.707   9.714   0.751  1.00  0.00     0.000 C 
BRANCH  17  18
ATOM     18  C   UNL     1      -1.196   9.418   0.754  1.00  0.00     0.000 C 
BRANCH  18  19
ATOM     19  C   UNL     1      -0.394  10.129   1.860  1.00  0.00     0.000 C 
BRANCH  19  20
ATOM     20  C   UNL     1       0.798  10.933   1.313  1.00  0.00     0.006 C 
BRANCH  20  21
ATOM     21  C   UNL     1       0.950  10.784  -0.207  1.00  0.00     0.053 C 
BRANCH  21  22
ATOM     22  C   UNL     1       2.388  10.788  -0.627  1.00  0.00     0.041 C 
ATOM     23  O   UNL     1       2.905   9.756  -1.131  1.00  0.00    -0.550 OA
ATOM     24  O   UNL     1       3.168  11.921  -0.431  1.00  0.00    -0.550 OA
ENDBRANCH  21  22
ENDBRANCH  20  21
ENDBRANCH  19  20
ENDBRANCH  18  19
ENDBRANCH  17  18
ENDBRANCH  16  17
ENDBRANCH  15  16
ENDBRANCH  14  15
ENDBRANCH  13  14
ENDBRANCH   1  13
TORSDOF 20
ENDMDL
MODEL 4
REMARK VINA RESULT:    -2.162      1.811      4.110
REMARK INTER + INTRA:          -8.334
REMARK INTER:                  -4.085
REMARK INTRA:                  -4.249
REMARK UNBOUND:                -3.644
REMARK SMILES CCCCCCCCCCCCCCCCCCCCCC(=O)[O-]
REMARK SMILES IDX 12 1 11 2 10 3 9 4 8 5 7 6 6 7 5 8 4 9 3 10 2 11 1 12 13 13
REMARK SMILES IDX 14 14 15 15 16 16 17 17 18 18 19 19 20 20 21 21 22 22 23 23
REMARK SMILES IDX 24 24
REMARK H PARENT
REMARK Flexibility Score: inf
ROOT
ATOM      1  C   UNL     1       0.927  11.011  -9.973  1.00  0.00     0.000 C 
ENDROOT
BRANCH   1   2
ATOM      2  C   UNL     1       0.485  12.237  -9.153  1.00  0.00     0.000 C 
BRANCH   2   3
ATOM      3  C   UNL     1      -1.018  12.287  -8.819  1.00  0.00     0.000 C 
BRANCH   3   4
ATOM      4  C   UNL     1      -1.812  11.136  -9.460  1.00  0.00    -0.000 C 
BRANCH   4   5
ATOM      5  C   UNL     1      -2.238  10.071  -8.437  1.00  0.00    -0.000 C 
BRANCH   5   6
ATOM      6  C   UNL     1      -3.519   9.328  -8.857  1.00  0.00    -0.000 C 
BRANCH   6   7
ATOM      7  C   UNL     1      -4.067   9.801 -10.223  1.00  0.00    -0.000 C 
BRANCH   7   8
ATOM      8  C   UNL     1      -4.200   8.673 -11.262  1.00  0.00    -0.000 C 
BRANCH   8   9
ATOM      9  C   UNL     1      -3.674   9.027 -12.665  1.00  0.00    -0.000 C 
BRANCH   9  10
ATOM     10  C   UNL     1      -3.173  10.483 -12.789  1.00  0.00    -0.000 C 
BRANCH  10  11
ATOM     11  C   UNL     1      -1.662  10.569 -13.044  1.00  0.00    -0.003 C 
ATOM     12  C   UNL     1      -1.202  12.021 -13.154  1.00  0.00     0.004 C 
ENDBRANCH  10  11
ENDBRANCH   9  10
ENDBRANCH   8   9
ENDBRANCH   7   8
ENDBRANCH   6   7
ENDBRANCH   5   6
ENDBRANCH   4   5
ENDBRANCH   3   4
ENDBRANCH   2   3
ENDBRANCH   1   2
BRANCH   1  13
ATOM     13  C   UNL     1       1.626   9.940  -9.122  1.00  0.00     0.000 C 
BRANCH  13  14
ATOM     14  C   UNL     1       1.500   8.556  -9.770  1.00  0.00     0.000 C 
BRANCH  14  15
ATOM     15  C   UNL     1       0.575   8.604 -10.998  1.00  0.00     0.000 C 
BRANCH  15  16
ATOM     16  C   UNL     1      -0.652   7.689 -10.858  1.00  0.00     0.000 C 
BRANCH  16  17
ATOM     17  C   UNL     1      -0.464   6.600  -9.788  1.00  0.00     0.000 C 
BRANCH  17  18
ATOM     18  C   UNL     1      -1.793   6.149  -9.155  1.00  0.00     0.000 C 
BRANCH  18  19
ATOM     19  C   UNL     1      -1.783   6.049  -7.618  1.00  0.00     0.000 C 
BRANCH  19  20
ATOM     20  C   UNL     1      -0.826   7.057  -6.959  1.00  0.00     0.006 C 
BRANCH  20  21
ATOM     21  C   UNL     1       0.196   6.372  -6.040  1.00  0.00     0.053 C 
BRANCH  21  22
ATOM     22  C   UNL     1       1.604   6.729  -6.407  1.00  0.00     0.041 C 
ATOM     23  O   UNL     1       2.185   7.688  -5.834  1.00  0.00    -0.550 OA
ATOM     24  O   UNL     1       2.263   6.025  -7.407  1.00  0.00    -0.550 OA
ENDBRANCH  21  22
ENDBRANCH  20  21
ENDBRANCH  19  20
ENDBRANCH  18  19
ENDBRANCH  17  18
ENDBRANCH  16  17
ENDBRANCH  15  16
ENDBRANCH  14  15
ENDBRANCH  13  14
ENDBRANCH   1  13
TORSDOF 20
ENDMDL
MODEL 5
REMARK VINA RESULT:    -2.159      2.987      6.574
REMARK INTER + INTRA:          -8.327
REMARK INTER:                  -4.667
REMARK INTRA:                  -3.660
REMARK UNBOUND:                -3.644
REMARK SMILES CCCCCCCCCCCCCCCCCCCCCC(=O)[O-]
REMARK SMILES IDX 12 1 11 2 10 3 9 4 8 5 7 6 6 7 5 8 4 9 3 10 2 11 1 12 13 13
REMARK SMILES IDX 14 14 15 15 16 16 17 17 18 18 19 19 20 20 21 21 22 22 23 23
REMARK SMILES IDX 24 24
REMARK H PARENT
REMARK Flexibility Score: inf
ROOT
ATOM      1  C   UNL     1      -3.614   5.637  -9.367  1.00  0.00     0.000 C 
ENDROOT
BRANCH   1   2
ATOM      2  C   UNL     1      -2.120   5.574  -9.737  1.00  0.00     0.000 C 
BRANCH   2   3
ATOM      3  C   UNL     1      -1.202   6.467  -8.881  1.00  0.00     0.000 C 
BRANCH   3   4
ATOM      4  C   UNL     1      -1.607   6.494  -7.397  1.00  0.00    -0.000 C 
BRANCH   4   5
ATOM      5  C   UNL     1      -0.394   6.480  -6.453  1.00  0.00    -0.000 C 
BRANCH   5   6
ATOM      6  C   UNL     1       0.915   6.859  -7.168  1.00  0.00    -0.000 C 
BRANCH   6   7
ATOM      7  C   UNL     1       1.899   5.674  -7.289  1.00  0.00    -0.000 C 
BRANCH   7   8
ATOM      8  C   UNL     1       1.261   4.305  -6.988  1.00  0.00    -0.000 C 
BRANCH   8   9
ATOM      9  C   UNL     1       1.169   3.360  -8.200  1.00  0.00    -0.000 C 
BRANCH   9  10
ATOM     10  C   UNL     1      -0.222   2.709  -8.372  1.00  0.00    -0.000 C 
BRANCH  10  11
ATOM     11  C   UNL     1      -1.116   2.889  -7.137  1.00  0.00    -0.003 C 
ATOM     12  C   UNL     1      -2.567   2.534  -7.449  1.00  0.00     0.004 C 
ENDBRANCH  10  11
ENDBRANCH   9  10
ENDBRANCH   8   9
ENDBRANCH   7   8
ENDBRANCH   6   7
ENDBRANCH   5   6
ENDBRANCH   4   5
ENDBRANCH   3   4
ENDBRANCH   2   3
ENDBRANCH   1   2
BRANCH   1  13
ATOM     13  C   UNL     1      -4.418   6.576 -10.279  1.00  0.00     0.000 C 
BRANCH  13  14
ATOM     14  C   UNL     1      -5.343   7.481  -9.456  1.00  0.00     0.000 C 
BRANCH  14  15
ATOM     15  C   UNL     1      -4.531   8.468  -8.602  1.00  0.00     0.000 C 
BRANCH  15  16
ATOM     16  C   UNL     1      -3.802   9.528  -9.443  1.00  0.00     0.000 C 
BRANCH  16  17
ATOM     17  C   UNL     1      -2.485   9.995  -8.799  1.00  0.00     0.000 C 
BRANCH  17  18
ATOM     18  C   UNL     1      -1.293   9.943  -9.773  1.00  0.00     0.000 C 
BRANCH  18  19
ATOM     19  C   UNL     1       0.094   9.923  -9.105  1.00  0.00     0.000 C 
BRANCH  19  20
ATOM     20  C   UNL     1       0.800  11.290  -9.150  1.00  0.00     0.006 C 
BRANCH  20  21
ATOM     21  C   UNL     1       0.962  11.907  -7.754  1.00  0.00     0.053 C 
BRANCH  21  22
ATOM     22  C   UNL     1      -0.102  12.922  -7.466  1.00  0.00     0.041 C 
ATOM     23  O   UNL     1      -0.090  13.563  -6.382  1.00  0.00    -0.550 OA
ATOM     24  O   UNL     1      -1.126  13.136  -8.380  1.00  0.00    -0.550 OA
ENDBRANCH  21  22
ENDBRANCH  20  21
ENDBRANCH  19  20
ENDBRANCH  18  19
ENDBRANCH  17  18
ENDBRANCH  16  17
ENDBRANCH  15  16
ENDBRANCH  14  15
ENDBRANCH  13  14
ENDBRANCH   1  13
TORSDOF 20
ENDMDL
MODEL 6
REMARK VINA RESULT:    -2.141      7.926     10.988
REMARK INTER + INTRA:          -8.287
REMARK INTER:                  -4.714
REMARK INTRA:                  -3.573
REMARK UNBOUND:                -3.644
REMARK SMILES CCCCCCCCCCCCCCCCCCCCCC(=O)[O-]
REMARK SMILES IDX 12 1 11 2 10 3 9 4 8 5 7 6 6 7 5 8 4 9 3 10 2 11 1 12 13 13
REMARK SMILES IDX 14 14 15 15 16 16 17 17 18 18 19 19 20 20 21 21 22 22 23 23
REMARK SMILES IDX 24 24
REMARK H PARENT
REMARK Flexibility Score: inf
ROOT
ATOM      1  C   UNL     1      -1.053  13.001  -1.185  1.00  0.00     0.000 C 
ENDROOT
BRANCH   1   2
ATOM      2  C   UNL     1      -1.274  14.095  -2.245  1.00  0.00     0.000 C 
BRANCH   2   3
ATOM      3  C   UNL     1      -0.586  15.440  -1.945  1.00  0.00     0.000 C 
BRANCH   3   4
ATOM      4  C   UNL     1      -1.578  16.612  -1.848  1.00  0.00    -0.000 C 
BRANCH   4   5
ATOM      5  C   UNL     1      -2.492  16.513  -0.616  1.00  0.00    -0.000 C 
BRANCH   5   6
ATOM      6  C   UNL     1      -3.976  16.361  -0.993  1.00  0.00    -0.000 C 
BRANCH   6   7
ATOM      7  C   UNL     1      -4.499  14.919  -0.805  1.00  0.00    -0.000 C 
BRANCH   7   8
ATOM      8  C   UNL     1      -4.831  14.566   0.656  1.00  0.00    -0.000 C 
BRANCH   8   9
ATOM      9  C   UNL     1      -3.825  13.615   1.331  1.00  0.00    -0.000 C 
BRANCH   9  10
ATOM     10  C   UNL     1      -4.002  12.136   0.922  1.00  0.00    -0.000 C 
BRANCH  10  11
ATOM     11  C   UNL     1      -2.945  11.218   1.553  1.00  0.00    -0.003 C 
ATOM     12  C   UNL     1      -2.544  10.099   0.595  1.00  0.00     0.004 C 
ENDBRANCH  10  11
ENDBRANCH   9  10
ENDBRANCH   8   9
ENDBRANCH   7   8
ENDBRANCH   6   7
ENDBRANCH   5   6
ENDBRANCH   4   5
ENDBRANCH   3   4
ENDBRANCH   2   3
ENDBRANCH   1   2
BRANCH   1  13
ATOM     13  C   UNL     1      -0.383  13.530   0.092  1.00  0.00     0.000 C 
BRANCH  13  14
ATOM     14  C   UNL     1       0.875  12.721   0.429  1.00  0.00     0.000 C 
BRANCH  14  15
ATOM     15  C   UNL     1       0.992  11.483  -0.476  1.00  0.00     0.000 C 
BRANCH  15  16
ATOM     16  C   UNL     1       2.214  11.538  -1.408  1.00  0.00     0.000 C 
BRANCH  16  17
ATOM     17  C   UNL     1       2.814  12.950  -1.520  1.00  0.00     0.000 C 
BRANCH  17  18
ATOM     18  C   UNL     1       2.521  13.618  -2.876  1.00  0.00     0.000 C 
BRANCH  18  19
ATOM     19  C   UNL     1       1.769  12.735  -3.889  1.00  0.00     0.000 C 
BRANCH  19  20
ATOM     20  C   UNL     1       1.138  13.543  -5.036  1.00  0.00     0.006 C 
BRANCH  20  21
ATOM     21  C   UNL     1       1.615  13.065  -6.414  1.00  0.00     0.053 C 
BRANCH  21  22
ATOM     22  C   UNL     1       0.484  12.537  -7.244  1.00  0.00     0.041 C 
ATOM     23  O   UNL     1       0.648  11.518  -7.964  1.00  0.00    -0.550 OA
ATOM     24  O   UNL     1      -0.742  13.192  -7.247  1.00  0.00    -0.550 OA
ENDBRANCH  21  22
ENDBRANCH  20  21
ENDBRANCH  19  20
ENDBRANCH  18  19
ENDBRANCH  17  18
ENDBRANCH  16  17
ENDBRANCH  15  16
ENDBRANCH  14  15
ENDBRANCH  13  14
ENDBRANCH   1  13
TORSDOF 20
ENDMDL
MODEL 7
REMARK VINA RESULT:    -2.127      1.556      4.545
REMARK INTER + INTRA:          -8.259
REMARK INTER:                  -4.527
REMARK INTRA:                  -3.731
REMARK UNBOUND:                -3.644
REMARK SMILES CCCCCCCCCCCCCCCCCCCCCC(=O)[O-]
REMARK SMILES IDX 12 1 11 2 10 3 9 4 8 5 7 6 6 7 5 8 4 9 3 10 2 11 1 12 13 13
REMARK SMILES IDX 14 14 15 15 16 16 17 17 18 18 19 19 20 20 21 21 22 22 23 23
REMARK SMILES IDX 24 24
REMARK H PARENT
REMARK Flexibility Score: inf
ROOT
ATOM      1  C   UNL     1      -2.791  12.607 -11.995  1.00  0.00     0.000 C 
ENDROOT
BRANCH   1   2
ATOM      2  C   UNL     1      -2.326  13.305 -10.704  1.00  0.00     0.000 C 
BRANCH   2   3
ATOM      3  C   UNL     1      -0.824  13.646 -10.655  1.00  0.00     0.000 C 
BRANCH   3   4
ATOM      4  C   UNL     1      -0.135  13.130  -9.380  1.00  0.00    -0.000 C 
BRANCH   4   5
ATOM      5  C   UNL     1      -1.057  12.246  -8.525  1.00  0.00    -0.000 C 
BRANCH   5   6
ATOM      6  C   UNL     1      -0.837  10.744  -8.779  1.00  0.00    -0.000 C 
BRANCH   6   7
ATOM      7  C   UNL     1      -2.022   9.874  -8.303  1.00  0.00    -0.000 C 
BRANCH   7   8
ATOM      8  C   UNL     1      -3.075   9.610  -9.395  1.00  0.00    -0.000 C 
BRANCH   8   9
ATOM      9  C   UNL     1      -3.778   8.244  -9.294  1.00  0.00    -0.000 C 
BRANCH   9  10
ATOM     10  C   UNL     1      -2.867   7.119  -8.753  1.00  0.00    -0.000 C 
BRANCH  10  11
ATOM     11  C   UNL     1      -3.337   5.722  -9.181  1.00  0.00    -0.003 C 
ATOM     12  C   UNL     1      -2.319   5.056 -10.104  1.00  0.00     0.004 C 
ENDBRANCH  10  11
ENDBRANCH   9  10
ENDBRANCH   8   9
ENDBRANCH   7   8
ENDBRANCH   6   7
ENDBRANCH   5   6
ENDBRANCH   4   5
ENDBRANCH   3   4
ENDBRANCH   2   3
ENDBRANCH   1   2
BRANCH   1  13
ATOM     13  C   UNL     1      -1.903  11.416 -12.386  1.00  0.00     0.000 C 
BRANCH  13  14
ATOM     14  C   UNL     1      -2.741  10.281 -12.986  1.00  0.00     0.000 C 
BRANCH  14  15
ATOM     15  C   UNL     1      -1.845   9.123 -13.457  1.00  0.00     0.000 C 
BRANCH  15  16
ATOM     16  C   UNL     1      -1.811   7.951 -12.463  1.00  0.00     0.000 C 
BRANCH  16  17
ATOM     17  C   UNL     1      -0.390   7.407 -12.233  1.00  0.00     0.000 C 
BRANCH  17  18
ATOM     18  C   UNL     1       0.276   7.991 -10.974  1.00  0.00     0.000 C 
BRANCH  18  19
ATOM     19  C   UNL     1       0.885   6.951 -10.016  1.00  0.00     0.000 C 
BRANCH  19  20
ATOM     20  C   UNL     1       0.781   7.364  -8.538  1.00  0.00     0.006 C 
BRANCH  20  21
ATOM     21  C   UNL     1       0.858   6.158  -7.591  1.00  0.00     0.053 C 
BRANCH  21  22
ATOM     22  C   UNL     1       0.385   6.501  -6.211  1.00  0.00     0.041 C 
ATOM     23  O   UNL     1      -0.826   6.778  -6.007  1.00  0.00    -0.550 OA
ATOM     24  O   UNL     1       1.288   6.546  -5.156  1.00  0.00    -0.550 OA
ENDBRANCH  21  22
ENDBRANCH  20  21
ENDBRANCH  19  20
ENDBRANCH  18  19
ENDBRANCH  17  18
ENDBRANCH  16  17
ENDBRANCH  15  16
ENDBRANCH  14  15
ENDBRANCH  13  14
ENDBRANCH   1  13
TORSDOF 20
ENDMDL
MODEL 8
REMARK VINA RESULT:    -2.113      2.578      6.219
REMARK INTER + INTRA:          -8.227
REMARK INTER:                  -4.176
REMARK INTRA:                  -4.051
REMARK UNBOUND:                -3.644
REMARK SMILES CCCCCCCCCCCCCCCCCCCCCC(=O)[O-]
REMARK SMILES IDX 12 1 11 2 10 3 9 4 8 5 7 6 6 7 5 8 4 9 3 10 2 11 1 12 13 13
REMARK SMILES IDX 14 14 15 15 16 16 17 17 18 18 19 19 20 20 21 21 22 22 23 23
REMARK SMILES IDX 24 24
REMARK H PARENT
REMARK Flexibility Score: inf
ROOT
ATOM      1  C   UNL     1      -0.601   7.601  -7.531  1.00  0.00     0.000 C 
ENDROOT
BRANCH   1   2
ATOM      2  C   UNL     1      -0.431   6.416  -6.562  1.00  0.00     0.000 C 
BRANCH   2   3
ATOM      3  C   UNL     1      -0.207   5.051  -7.240  1.00  0.00     0.000 C 
BRANCH   3   4
ATOM      4  C   UNL     1      -1.521   4.314  -7.552  1.00  0.00    -0.000 C 
BRANCH   4   5
ATOM      5  C   UNL     1      -1.903   4.391  -9.039  1.00  0.00    -0.000 C 
BRANCH   5   6
ATOM      6  C   UNL     1      -3.295   5.010  -9.259  1.00  0.00    -0.000 C 
BRANCH   6   7
ATOM      7  C   UNL     1      -3.796   5.812  -8.037  1.00  0.00    -0.000 C 
BRANCH   7   8
ATOM      8  C   UNL     1      -5.330   5.848  -7.906  1.00  0.00    -0.000 C 
BRANCH   8   9
ATOM      9  C   UNL     1      -5.877   7.034  -7.092  1.00  0.00    -0.000 C 
BRANCH   9  10
ATOM     10  C   UNL     1      -6.641   8.070  -7.947  1.00  0.00    -0.000 C 
BRANCH  10  11
ATOM     11  C   UNL     1      -6.611   7.737  -9.445  1.00  0.00    -0.003 C 
ATOM     12  C   UNL     1      -6.854   8.983 -10.293  1.00  0.00     0.004 C 
ENDBRANCH  10  11
ENDBRANCH   9  10
ENDBRANCH   8   9
ENDBRANCH   7   8
ENDBRANCH   6   7
ENDBRANCH   5   6
ENDBRANCH   4   5
ENDBRANCH   3   4
ENDBRANCH   2   3
ENDBRANCH   1   2
BRANCH   1  13
ATOM     13  C   UNL     1       0.715   8.015  -8.208  1.00  0.00     0.000 C 
BRANCH  13  14
ATOM     14  C   UNL     1       0.497   8.305  -9.698  1.00  0.00     0.000 C 
BRANCH  14  15
ATOM     15  C   UNL     1       0.277   7.004 -10.487  1.00  0.00     0.000 C 
BRANCH  15  16
ATOM     16  C   UNL     1      -0.981   7.045 -11.370  1.00  0.00     0.000 C 
BRANCH  16  17
ATOM     17  C   UNL     1      -1.679   8.416 -11.347  1.00  0.00     0.000 C 
BRANCH  17  18
ATOM     18  C   UNL     1      -3.067   8.368 -10.683  1.00  0.00     0.000 C 
BRANCH  18  19
ATOM     19  C   UNL     1      -3.249   9.319  -9.485  1.00  0.00     0.000 C 
BRANCH  19  20
ATOM     20  C   UNL     1      -2.438  10.619  -9.624  1.00  0.00     0.006 C 
BRANCH  20  21
ATOM     21  C   UNL     1      -1.671  10.964  -8.339  1.00  0.00     0.053 C 
BRANCH  21  22
ATOM     22  C   UNL     1      -0.702  12.087  -8.553  1.00  0.00     0.041 C 
ATOM     23  O   UNL     1       0.122  12.041  -9.505  1.00  0.00    -0.550 OA
ATOM     24  O   UNL     1      -0.685  13.169  -7.681  1.00  0.00    -0.550 OA
ENDBRANCH  21  22
ENDBRANCH  20  21
ENDBRANCH  19  20
ENDBRANCH  18  19
ENDBRANCH  17  18
ENDBRANCH  16  17
ENDBRANCH  15  16
ENDBRANCH  14  15
ENDBRANCH  13  14
ENDBRANCH   1  13
TORSDOF 20
ENDMDL
MODEL 9
REMARK VINA RESULT:    -2.097      2.071      5.153
REMARK INTER + INTRA:          -8.193
REMARK INTER:                  -4.702
REMARK INTRA:                  -3.491
REMARK UNBOUND:                -3.644
REMARK SMILES CCCCCCCCCCCCCCCCCCCCCC(=O)[O-]
REMARK SMILES IDX 12 1 11 2 10 3 9 4 8 5 7 6 6 7 5 8 4 9 3 10 2 11 1 12 13 13
REMARK SMILES IDX 14 14 15 15 16 16 17 17 18 18 19 19 20 20 21 21 22 22 23 23
REMARK SMILES IDX 24 24
REMARK H PARENT
REMARK Flexibility Score: inf
ROOT
ATOM      1  C   UNL     1      -0.277  13.132  -9.588  1.00  0.00     0.000 C 
ENDROOT
BRANCH   1   2
ATOM      2  C   UNL     1      -1.619  13.283 -10.328  1.00  0.00     0.000 C 
BRANCH   2   3
ATOM      3  C   UNL     1      -1.862  12.252 -11.447  1.00  0.00     0.000 C 
BRANCH   3   4
ATOM      4  C   UNL     1      -0.835  11.107 -11.440  1.00  0.00    -0.000 C 
BRANCH   4   5
ATOM      5  C   UNL     1      -1.476   9.739 -11.155  1.00  0.00    -0.000 C 
BRANCH   5   6
ATOM      6  C   UNL     1      -0.860   9.044  -9.928  1.00  0.00    -0.000 C 
BRANCH   6   7
ATOM      7  C   UNL     1      -1.655   9.304  -8.628  1.00  0.00    -0.000 C 
BRANCH   7   8
ATOM      8  C   UNL     1      -3.060   9.887  -8.867  1.00  0.00    -0.000 C 
BRANCH   8   9
ATOM      9  C   UNL     1      -4.210   8.876  -8.713  1.00  0.00    -0.000 C 
BRANCH   9  10
ATOM     10  C   UNL     1      -5.426   9.180  -9.617  1.00  0.00    -0.000 C 
BRANCH  10  11
ATOM     11  C   UNL     1      -5.025   9.841 -10.943  1.00  0.00    -0.003 C 
ATOM     12  C   UNL     1      -5.021   8.829 -12.086  1.00  0.00     0.004 C 
ENDBRANCH  10  11
ENDBRANCH   9  10
ENDBRANCH   8   9
ENDBRANCH   7   8
ENDBRANCH   6   7
ENDBRANCH   5   6
ENDBRANCH   4   5
ENDBRANCH   3   4
ENDBRANCH   2   3
ENDBRANCH   1   2
BRANCH   1  13
ATOM     13  C   UNL     1      -0.447  12.766  -8.106  1.00  0.00     0.000 C 
BRANCH  13  14
ATOM     14  C   UNL     1       0.881  12.293  -7.502  1.00  0.00     0.000 C 
BRANCH  14  15
ATOM     15  C   UNL     1       1.583  11.290  -8.431  1.00  0.00     0.000 C 
BRANCH  15  16
ATOM     16  C   UNL     1       1.952   9.976  -7.724  1.00  0.00     0.000 C 
BRANCH  16  17
ATOM     17  C   UNL     1       2.669   8.980  -8.652  1.00  0.00     0.000 C 
BRANCH  17  18
ATOM     18  C   UNL     1       3.849   8.267  -7.966  1.00  0.00     0.000 C 
BRANCH  18  19
ATOM     19  C   UNL     1       3.552   7.724  -6.556  1.00  0.00     0.000 C 
BRANCH  19  20
ATOM     20  C   UNL     1       2.751   6.410  -6.577  1.00  0.00     0.006 C 
BRANCH  20  21
ATOM     21  C   UNL     1       1.457   6.505  -5.756  1.00  0.00     0.053 C 
BRANCH  21  22
ATOM     22  C   UNL     1       0.245   6.574  -6.633  1.00  0.00     0.041 C 
ATOM     23  O   UNL     1      -0.885   6.822  -6.135  1.00  0.00    -0.550 OA
ATOM     24  O   UNL     1       0.356   6.332  -7.997  1.00  0.00    -0.550 OA
ENDBRANCH  21  22
ENDBRANCH  20  21
ENDBRANCH  19  20
ENDBRANCH  18  19
ENDBRANCH  17  18
ENDBRANCH  16  17
ENDBRANCH  15  16
ENDBRANCH  14  15
ENDBRANCH  13  14
ENDBRANCH   1  13
TORSDOF 20
ENDMDL
