MODEL 1
REMARK VINA RESULT:    -3.918      0.000      0.000
REMARK INTER + INTRA:          -7.856
REMARK INTER:                  -6.667
REMARK INTRA:                  -1.189
REMARK UNBOUND:                -1.189
REMARK SMILES CCCCCCCCCCCCCC(=O)[O-]
REMARK SMILES IDX 8 1 9 2 10 3 11 4 12 5 13 6 14 7 15 8 16 9 7 10 6 11 5 12
REMARK SMILES IDX 4 13 3 14 2 15 1 16
REMARK H PARENT
REMARK Flexibility Score: inf
ROOT
ATOM      1  C   UNL     1      33.495  52.430  26.559  1.00  0.00     0.000 C 
ENDROOT
BRANCH   1   2
ATOM      2  C   UNL     1      33.389  50.978  27.047  1.00  0.00     0.000 C 
BRANCH   2   3
ATOM      3  C   UNL     1      34.539  50.088  26.540  1.00  0.00     0.000 C 
BRANCH   3   4
ATOM      4  C   UNL     1      34.425  48.600  26.918  1.00  0.00     0.000 C 
BRANCH   4   5
ATOM      5  C   UNL     1      34.444  47.667  25.699  1.00  0.00     0.006 C 
BRANCH   5   6
ATOM      6  C   UNL     1      34.360  46.200  26.130  1.00  0.00     0.053 C 
BRANCH   6   7
ATOM      7  C   UNL     1      32.963  45.687  25.972  1.00  0.00     0.041 C 
ATOM      8  O   UNL     1      32.662  44.963  24.986  1.00  0.00    -0.550 OA
ATOM      9  O   UNL     1      31.982  46.048  26.886  1.00  0.00    -0.550 OA
ENDBRANCH   6   7
ENDBRANCH   5   6
ENDBRANCH   4   5
ENDBRANCH   3   4
ENDBRANCH   2   3
ENDBRANCH   1   2
BRANCH   1  10
ATOM     10  C   UNL     1      32.170  53.175  26.762  1.00  0.00     0.000 C 
BRANCH  10  11
ATOM     11  C   UNL     1      31.599  53.659  25.424  1.00  0.00    -0.000 C 
BRANCH  11  12
ATOM     12  C   UNL     1      30.098  53.352  25.323  1.00  0.00    -0.000 C 
BRANCH  12  13
ATOM     13  C   UNL     1      29.728  51.996  25.944  1.00  0.00    -0.000 C 
BRANCH  13  14
ATOM     14  C   UNL     1      29.363  50.941  24.885  1.00  0.00    -0.000 C 
BRANCH  14  15
ATOM     15  C   UNL     1      30.437  50.802  23.796  1.00  0.00    -0.003 C 
ATOM     16  C   UNL     1      31.581  49.877  24.209  1.00  0.00     0.004 C 
ENDBRANCH  14  15
ENDBRANCH  13  14
ENDBRANCH  12  13
ENDBRANCH  11  12
ENDBRANCH  10  11
ENDBRANCH   1  10
TORSDOF 12
ENDMDL
MODEL 2
REMARK VINA RESULT:    -3.885      2.350      3.951
REMARK INTER + INTRA:          -7.799
REMARK INTER:                  -6.824
REMARK INTRA:                  -0.974
REMARK UNBOUND:                -1.189
REMARK SMILES CCCCCCCCCCCCCC(=O)[O-]
REMARK SMILES IDX 8 1 9 2 10 3 11 4 12 5 13 6 14 7 15 8 16 9 7 10 6 11 5 12
REMARK SMILES IDX 4 13 3 14 2 15 1 16
REMARK H PARENT
REMARK Flexibility Score: inf
ROOT
ATOM      1  C   UNL     1      34.951  48.051  25.583  1.00  0.00     0.000 C 
ENDROOT
BRANCH   1   2
ATOM      2  C   UNL     1      33.565  47.723  25.009  1.00  0.00     0.000 C 
BRANCH   2   3
ATOM      3  C   UNL     1      33.109  46.286  25.322  1.00  0.00     0.000 C 
BRANCH   3   4
ATOM      4  C   UNL     1      33.863  45.602  26.477  1.00  0.00     0.000 C 
BRANCH   4   5
ATOM      5  C   UNL     1      34.532  44.285  26.060  1.00  0.00     0.006 C 
BRANCH   5   6
ATOM      6  C   UNL     1      36.046  44.343  26.282  1.00  0.00     0.053 C 
BRANCH   6   7
ATOM      7  C   UNL     1      36.718  43.181  25.623  1.00  0.00     0.041 C 
ATOM      8  O   UNL     1      36.058  42.403  24.884  1.00  0.00    -0.550 OA
ATOM      9  O   UNL     1      38.063  42.927  25.862  1.00  0.00    -0.550 OA
ENDBRANCH   6   7
ENDBRANCH   5   6
ENDBRANCH   4   5
ENDBRANCH   3   4
ENDBRANCH   2   3
ENDBRANCH   1   2
BRANCH   1  10
ATOM     10  C   UNL     1      34.865  49.185  26.611  1.00  0.00     0.000 C 
BRANCH  10  11
ATOM     11  C   UNL     1      33.636  50.066  26.360  1.00  0.00    -0.000 C 
BRANCH  11  12
ATOM     12  C   UNL     1      33.944  51.539  26.661  1.00  0.00    -0.000 C 
BRANCH  12  13
ATOM     13  C   UNL     1      32.865  52.491  26.121  1.00  0.00    -0.000 C 
BRANCH  13  14
ATOM     14  C   UNL     1      31.484  51.822  26.015  1.00  0.00    -0.000 C 
BRANCH  14  15
ATOM     15  C   UNL     1      30.879  51.938  24.608  1.00  0.00    -0.003 C 
ATOM     16  C   UNL     1      30.810  50.595  23.881  1.00  0.00     0.004 C 
ENDBRANCH  14  15
ENDBRANCH  13  14
ENDBRANCH  12  13
ENDBRANCH  11  12
ENDBRANCH  10  11
ENDBRANCH   1  10
TORSDOF 12
ENDMDL
MODEL 3
REMARK VINA RESULT:    -3.777      3.171      6.772
REMARK INTER + INTRA:          -7.615
REMARK INTER:                  -6.367
REMARK INTRA:                  -1.249
REMARK UNBOUND:                -1.189
REMARK SMILES CCCCCCCCCCCCCC(=O)[O-]
REMARK SMILES IDX 8 1 9 2 10 3 11 4 12 5 13 6 14 7 15 8 16 9 7 10 6 11 5 12
REMARK SMILES IDX 4 13 3 14 2 15 1 16
REMARK H PARENT
REMARK Flexibility Score: inf
ROOT
ATOM      1  C   UNL     1      33.446  48.289  24.894  1.00  0.00     0.000 C 
ENDROOT
BRANCH   1   2
ATOM      2  C   UNL     1      32.516  48.572  26.083  1.00  0.00     0.000 C 
BRANCH   2   3
ATOM      3  C   UNL     1      31.369  49.538  25.732  1.00  0.00     0.000 C 
BRANCH   3   4
ATOM      4  C   UNL     1      31.391  50.077  24.290  1.00  0.00     0.000 C 
BRANCH   4   5
ATOM      5  C   UNL     1      30.662  51.420  24.140  1.00  0.00     0.006 C 
BRANCH   5   6
ATOM      6  C   UNL     1      31.228  52.463  25.109  1.00  0.00     0.053 C 
BRANCH   6   7
ATOM      7  C   UNL     1      30.135  53.045  25.949  1.00  0.00     0.041 C 
ATOM      8  O   UNL     1      30.381  53.996  26.738  1.00  0.00    -0.550 OA
ATOM      9  O   UNL     1      28.856  52.506  25.898  1.00  0.00    -0.550 OA
ENDBRANCH   6   7
ENDBRANCH   5   6
ENDBRANCH   4   5
ENDBRANCH   3   4
ENDBRANCH   2   3
ENDBRANCH   1   2
BRANCH   1  10
ATOM     10  C   UNL     1      34.916  48.450  25.297  1.00  0.00     0.000 C 
BRANCH  10  11
ATOM     11  C   UNL     1      35.198  47.766  26.640  1.00  0.00    -0.000 C 
BRANCH  11  12
ATOM     12  C   UNL     1      36.056  46.507  26.447  1.00  0.00    -0.000 C 
BRANCH  12  13
ATOM     13  C   UNL     1      35.450  45.269  27.124  1.00  0.00    -0.000 C 
BRANCH  13  14
ATOM     14  C   UNL     1      34.607  44.418  26.159  1.00  0.00    -0.000 C 
BRANCH  14  15
ATOM     15  C   UNL     1      33.107  44.737  26.248  1.00  0.00    -0.003 C 
ATOM     16  C   UNL     1      32.454  44.893  24.874  1.00  0.00     0.004 C 
ENDBRANCH  14  15
ENDBRANCH  13  14
ENDBRANCH  12  13
ENDBRANCH  11  12
ENDBRANCH  10  11
ENDBRANCH   1  10
TORSDOF 12
ENDMDL
MODEL 4
REMARK VINA RESULT:    -3.776      1.151      2.552
REMARK INTER + INTRA:          -7.615
REMARK INTER:                  -6.265
REMARK INTRA:                  -1.350
REMARK UNBOUND:                -1.189
REMARK SMILES CCCCCCCCCCCCCC(=O)[O-]
REMARK SMILES IDX 8 1 9 2 10 3 11 4 12 5 13 6 14 7 15 8 16 9 7 10 6 11 5 12
REMARK SMILES IDX 4 13 3 14 2 15 1 16
REMARK H PARENT
REMARK Flexibility Score: inf
ROOT
ATOM      1  C   UNL     1      33.157  48.717  25.335  1.00  0.00     0.000 C 
ENDROOT
BRANCH   1   2
ATOM      2  C   UNL     1      34.663  48.422  25.271  1.00  0.00     0.000 C 
BRANCH   2   3
ATOM      3  C   UNL     1      35.204  47.776  26.559  1.00  0.00     0.000 C 
BRANCH   3   4
ATOM      4  C   UNL     1      35.766  46.353  26.386  1.00  0.00     0.000 C 
BRANCH   4   5
ATOM      5  C   UNL     1      34.919  45.284  27.091  1.00  0.00     0.006 C 
BRANCH   5   6
ATOM      6  C   UNL     1      34.173  44.416  26.072  1.00  0.00     0.053 C 
BRANCH   6   7
ATOM      7  C   UNL     1      32.838  45.012  25.755  1.00  0.00     0.041 C 
ATOM      8  O   UNL     1      32.396  44.984  24.576  1.00  0.00    -0.550 OA
ATOM      9  O   UNL     1      32.103  45.643  26.751  1.00  0.00    -0.550 OA
ENDBRANCH   6   7
ENDBRANCH   5   6
ENDBRANCH   4   5
ENDBRANCH   3   4
ENDBRANCH   2   3
ENDBRANCH   1   2
BRANCH   1  10
ATOM     10  C   UNL     1      32.832  49.663  26.496  1.00  0.00     0.000 C 
BRANCH  10  11
ATOM     11  C   UNL     1      33.642  50.961  26.393  1.00  0.00    -0.000 C 
BRANCH  11  12
ATOM     12  C   UNL     1      32.841  52.154  26.933  1.00  0.00    -0.000 C 
BRANCH  12  13
ATOM     13  C   UNL     1      31.406  52.200  26.386  1.00  0.00    -0.000 C 
BRANCH  13  14
ATOM     14  C   UNL     1      31.343  52.684  24.927  1.00  0.00    -0.000 C 
BRANCH  14  15
ATOM     15  C   UNL     1      30.567  51.720  24.018  1.00  0.00    -0.003 C 
ATOM     16  C   UNL     1      29.653  50.777  24.802  1.00  0.00     0.004 C 
ENDBRANCH  14  15
ENDBRANCH  13  14
ENDBRANCH  12  13
ENDBRANCH  11  12
ENDBRANCH  10  11
ENDBRANCH   1  10
TORSDOF 12
ENDMDL
MODEL 5
REMARK VINA RESULT:    -3.719      2.806      6.504
REMARK INTER + INTRA:          -7.517
REMARK INTER:                  -6.308
REMARK INTRA:                  -1.209
REMARK UNBOUND:                -1.189
REMARK SMILES CCCCCCCCCCCCCC(=O)[O-]
REMARK SMILES IDX 8 1 9 2 10 3 11 4 12 5 13 6 14 7 15 8 16 9 7 10 6 11 5 12
REMARK SMILES IDX 4 13 3 14 2 15 1 16
REMARK H PARENT
REMARK Flexibility Score: inf
ROOT
ATOM      1  C   UNL     1      34.710  48.055  25.240  1.00  0.00     0.000 C 
ENDROOT
BRANCH   1   2
ATOM      2  C   UNL     1      34.813  48.775  26.592  1.00  0.00     0.000 C 
BRANCH   2   3
ATOM      3  C   UNL     1      34.528  50.285  26.492  1.00  0.00     0.000 C 
BRANCH   3   4
ATOM      4  C   UNL     1      33.121  50.713  26.949  1.00  0.00     0.000 C 
BRANCH   4   5
ATOM      5  C   UNL     1      32.253  51.245  25.800  1.00  0.00     0.006 C 
BRANCH   5   6
ATOM      6  C   UNL     1      30.982  50.405  25.638  1.00  0.00     0.053 C 
BRANCH   6   7
ATOM      7  C   UNL     1      30.118  50.965  24.553  1.00  0.00     0.041 C 
ATOM      8  O   UNL     1      30.639  51.562  23.574  1.00  0.00    -0.550 OA
ATOM      9  O   UNL     1      28.736  50.871  24.646  1.00  0.00    -0.550 OA
ENDBRANCH   6   7
ENDBRANCH   5   6
ENDBRANCH   4   5
ENDBRANCH   3   4
ENDBRANCH   2   3
ENDBRANCH   1   2
BRANCH   1  10
ATOM     10  C   UNL     1      33.327  47.421  25.059  1.00  0.00     0.000 C 
BRANCH  10  11
ATOM     11  C   UNL     1      32.758  46.946  26.402  1.00  0.00    -0.000 C 
BRANCH  11  12
ATOM     12  C   UNL     1      32.390  45.457  26.348  1.00  0.00    -0.000 C 
BRANCH  12  13
ATOM     13  C   UNL     1      33.482  44.601  25.690  1.00  0.00    -0.000 C 
BRANCH  13  14
ATOM     14  C   UNL     1      34.623  44.248  26.660  1.00  0.00    -0.000 C 
BRANCH  14  15
ATOM     15  C   UNL     1      35.811  43.578  25.955  1.00  0.00    -0.003 C 
ATOM     16  C   UNL     1      36.631  42.692  26.893  1.00  0.00     0.004 C 
ENDBRANCH  14  15
ENDBRANCH  13  14
ENDBRANCH  12  13
ENDBRANCH  11  12
ENDBRANCH  10  11
ENDBRANCH   1  10
TORSDOF 12
ENDMDL
MODEL 6
REMARK VINA RESULT:    -3.695      3.366      5.297
REMARK INTER + INTRA:          -7.475
REMARK INTER:                  -6.858
REMARK INTRA:                  -0.617
REMARK UNBOUND:                -1.189
REMARK SMILES CCCCCCCCCCCCCC(=O)[O-]
REMARK SMILES IDX 8 1 9 2 10 3 11 4 12 5 13 6 14 7 15 8 16 9 7 10 6 11 5 12
REMARK SMILES IDX 4 13 3 14 2 15 1 16
REMARK H PARENT
REMARK Flexibility Score: inf
ROOT
ATOM      1  C   UNL     1      32.933  45.782  25.571  1.00  0.00     0.000 C 
ENDROOT
BRANCH   1   2
ATOM      2  C   UNL     1      33.839  44.630  26.031  1.00  0.00     0.000 C 
BRANCH   2   3
ATOM      3  C   UNL     1      35.097  45.115  26.775  1.00  0.00     0.000 C 
BRANCH   3   4
ATOM      4  C   UNL     1      36.417  44.479  26.302  1.00  0.00     0.000 C 
BRANCH   4   5
ATOM      5  C   UNL     1      36.214  43.137  25.585  1.00  0.00     0.006 C 
BRANCH   5   6
ATOM      6  C   UNL     1      37.549  42.414  25.385  1.00  0.00     0.053 C 
BRANCH   6   7
ATOM      7  C   UNL     1      37.364  41.197  24.535  1.00  0.00     0.041 C 
ATOM      8  O   UNL     1      37.292  41.304  23.282  1.00  0.00    -0.550 OA
ATOM      9  O   UNL     1      37.222  39.949  25.129  1.00  0.00    -0.550 OA
ENDBRANCH   6   7
ENDBRANCH   5   6
ENDBRANCH   4   5
ENDBRANCH   3   4
ENDBRANCH   2   3
ENDBRANCH   1   2
BRANCH   1  10
ATOM     10  C   UNL     1      33.382  47.113  26.185  1.00  0.00     0.000 C 
BRANCH  10  11
ATOM     11  C   UNL     1      33.633  48.165  25.098  1.00  0.00    -0.000 C 
BRANCH  11  12
ATOM     12  C   UNL     1      32.400  49.058  24.902  1.00  0.00    -0.000 C 
BRANCH  12  13
ATOM     13  C   UNL     1      32.474  50.357  25.720  1.00  0.00    -0.000 C 
BRANCH  13  14
ATOM     14  C   UNL     1      31.599  51.478  25.132  1.00  0.00    -0.000 C 
BRANCH  14  15
ATOM     15  C   UNL     1      30.606  50.960  24.080  1.00  0.00    -0.003 C 
ATOM     16  C   UNL     1      29.163  50.952  24.585  1.00  0.00     0.004 C 
ENDBRANCH  14  15
ENDBRANCH  13  14
ENDBRANCH  12  13
ENDBRANCH  11  12
ENDBRANCH  10  11
ENDBRANCH   1  10
TORSDOF 12
ENDMDL
MODEL 7
REMARK VINA RESULT:    -3.638      1.521      2.339
REMARK INTER + INTRA:          -7.379
REMARK INTER:                  -6.008
REMARK INTRA:                  -1.371
REMARK UNBOUND:                -1.189
REMARK SMILES CCCCCCCCCCCCCC(=O)[O-]
REMARK SMILES IDX 8 1 9 2 10 3 11 4 12 5 13 6 14 7 15 8 16 9 7 10 6 11 5 12
REMARK SMILES IDX 4 13 3 14 2 15 1 16
REMARK H PARENT
REMARK Flexibility Score: inf
ROOT
ATOM      1  C   UNL     1      32.714  50.076  27.125  1.00  0.00     0.000 C 
ENDROOT
BRANCH   1   2
ATOM      2  C   UNL     1      32.830  48.689  26.476  1.00  0.00     0.000 C 
BRANCH   2   3
ATOM      3  C   UNL     1      33.679  48.695  25.192  1.00  0.00     0.000 C 
BRANCH   3   4
ATOM      4  C   UNL     1      35.048  48.002  25.315  1.00  0.00     0.000 C 
BRANCH   4   5
ATOM      5  C   UNL     1      35.230  47.264  26.648  1.00  0.00     0.006 C 
BRANCH   5   6
ATOM      6  C   UNL     1      36.204  46.091  26.498  1.00  0.00     0.053 C 
BRANCH   6   7
ATOM      7  C   UNL     1      35.462  44.792  26.485  1.00  0.00     0.041 C 
ATOM      8  O   UNL     1      36.091  43.704  26.413  1.00  0.00    -0.550 OA
ATOM      9  O   UNL     1      34.073  44.785  26.503  1.00  0.00    -0.550 OA
ENDBRANCH   6   7
ENDBRANCH   5   6
ENDBRANCH   4   5
ENDBRANCH   3   4
ENDBRANCH   2   3
ENDBRANCH   1   2
BRANCH   1  10
ATOM     10  C   UNL     1      33.763  51.038  26.555  1.00  0.00     0.000 C 
BRANCH  10  11
ATOM     11  C   UNL     1      33.439  52.490  26.927  1.00  0.00    -0.000 C 
BRANCH  11  12
ATOM     12  C   UNL     1      31.937  52.773  26.782  1.00  0.00    -0.000 C 
BRANCH  12  13
ATOM     13  C   UNL     1      31.584  53.413  25.430  1.00  0.00    -0.000 C 
BRANCH  13  14
ATOM     14  C   UNL     1      30.254  52.893  24.859  1.00  0.00    -0.000 C 
BRANCH  14  15
ATOM     15  C   UNL     1      30.141  51.363  24.927  1.00  0.00    -0.003 C 
ATOM     16  C   UNL     1      30.866  50.666  23.775  1.00  0.00     0.004 C 
ENDBRANCH  14  15
ENDBRANCH  13  14
ENDBRANCH  12  13
ENDBRANCH  11  12
ENDBRANCH  10  11
ENDBRANCH   1  10
TORSDOF 12
ENDMDL
MODEL 8
REMARK VINA RESULT:    -3.631      2.405      6.425
REMARK INTER + INTRA:          -7.367
REMARK INTER:                  -6.140
REMARK INTRA:                  -1.227
REMARK UNBOUND:                -1.189
REMARK SMILES CCCCCCCCCCCCCC(=O)[O-]
REMARK SMILES IDX 8 1 9 2 10 3 11 4 12 5 13 6 14 7 15 8 16 9 7 10 6 11 5 12
REMARK SMILES IDX 4 13 3 14 2 15 1 16
REMARK H PARENT
REMARK Flexibility Score: inf
ROOT
ATOM      1  C   UNL     1      35.042  47.991  25.662  1.00  0.00     0.000 C 
ENDROOT
BRANCH   1   2
ATOM      2  C   UNL     1      33.927  48.939  26.127  1.00  0.00     0.000 C 
BRANCH   2   3
ATOM      3  C   UNL     1      34.463  50.204  26.819  1.00  0.00     0.000 C 
BRANCH   3   4
ATOM      4  C   UNL     1      33.709  51.502  26.477  1.00  0.00     0.000 C 
BRANCH   4   5
ATOM      5  C   UNL     1      32.184  51.350  26.562  1.00  0.00     0.006 C 
BRANCH   5   6
ATOM      6  C   UNL     1      31.503  51.955  25.331  1.00  0.00     0.053 C 
BRANCH   6   7
ATOM      7  C   UNL     1      30.740  50.907  24.586  1.00  0.00     0.041 C 
ATOM      8  O   UNL     1      31.333  50.145  23.778  1.00  0.00    -0.550 OA
ATOM      9  O   UNL     1      29.364  50.802  24.746  1.00  0.00    -0.550 OA
ENDBRANCH   6   7
ENDBRANCH   5   6
ENDBRANCH   4   5
ENDBRANCH   3   4
ENDBRANCH   2   3
ENDBRANCH   1   2
BRANCH   1  10
ATOM     10  C   UNL     1      35.660  47.246  26.851  1.00  0.00     0.000 C 
BRANCH  10  11
ATOM     11  C   UNL     1      36.563  46.102  26.376  1.00  0.00    -0.000 C 
BRANCH  11  12
ATOM     12  C   UNL     1      36.217  44.792  27.097  1.00  0.00    -0.000 C 
BRANCH  12  13
ATOM     13  C   UNL     1      34.706  44.513  27.125  1.00  0.00    -0.000 C 
BRANCH  13  14
ATOM     14  C   UNL     1      34.128  44.243  25.725  1.00  0.00    -0.000 C 
BRANCH  14  15
ATOM     15  C   UNL     1      32.806  44.986  25.480  1.00  0.00    -0.003 C 
ATOM     16  C   UNL     1      32.120  45.413  26.777  1.00  0.00     0.004 C 
ENDBRANCH  14  15
ENDBRANCH  13  14
ENDBRANCH  12  13
ENDBRANCH  11  12
ENDBRANCH  10  11
ENDBRANCH   1  10
TORSDOF 12
ENDMDL
MODEL 9
REMARK VINA RESULT:    -3.568      2.391      3.953
REMARK INTER + INTRA:          -7.259
REMARK INTER:                  -6.314
REMARK INTRA:                  -0.945
REMARK UNBOUND:                -1.189
REMARK SMILES CCCCCCCCCCCCCC(=O)[O-]
REMARK SMILES IDX 8 1 9 2 10 3 11 4 12 5 13 6 14 7 15 8 16 9 7 10 6 11 5 12
REMARK SMILES IDX 4 13 3 14 2 15 1 16
REMARK H PARENT
REMARK Flexibility Score: inf
ROOT
ATOM      1  C   UNL     1      34.148  48.202  26.710  1.00  0.00     0.000 C 
ENDROOT
BRANCH   1   2
ATOM      2  C   UNL     1      34.284  47.100  25.649  1.00  0.00     0.000 C 
BRANCH   2   3
ATOM      3  C   UNL     1      33.089  46.130  25.633  1.00  0.00     0.000 C 
BRANCH   3   4
ATOM      4  C   UNL     1      33.464  44.637  25.649  1.00  0.00     0.000 C 
BRANCH   4   5
ATOM      5  C   UNL     1      34.588  44.311  26.643  1.00  0.00     0.006 C 
BRANCH   5   6
ATOM      6  C   UNL     1      35.711  43.523  25.961  1.00  0.00     0.053 C 
BRANCH   6   7
ATOM      7  C   UNL     1      37.046  44.083  26.337  1.00  0.00     0.041 C 
ATOM      8  O   UNL     1      38.068  43.346  26.328  1.00  0.00    -0.550 OA
ATOM      9  O   UNL     1      37.156  45.406  26.747  1.00  0.00    -0.550 OA
ENDBRANCH   6   7
ENDBRANCH   5   6
ENDBRANCH   4   5
ENDBRANCH   3   4
ENDBRANCH   2   3
ENDBRANCH   1   2
BRANCH   1  10
ATOM     10  C   UNL     1      34.387  49.587  26.098  1.00  0.00     0.000 C 
BRANCH  10  11
ATOM     11  C   UNL     1      33.231  50.541  26.423  1.00  0.00    -0.000 C 
BRANCH  11  12
ATOM     12  C   UNL     1      31.889  49.957  25.960  1.00  0.00    -0.000 C 
BRANCH  12  13
ATOM     13  C   UNL     1      31.706  50.029  24.437  1.00  0.00    -0.000 C 
BRANCH  13  14
ATOM     14  C   UNL     1      30.582  50.994  24.020  1.00  0.00    -0.000 C 
BRANCH  14  15
ATOM     15  C   UNL     1      30.437  52.182  24.984  1.00  0.00    -0.003 C 
ATOM     16  C   UNL     1      31.008  53.480  24.411  1.00  0.00     0.004 C 
ENDBRANCH  14  15
ENDBRANCH  13  14
ENDBRANCH  12  13
ENDBRANCH  11  12
ENDBRANCH  10  11
ENDBRANCH   1  10
TORSDOF 12
ENDMDL
