MODEL 1
REMARK VINA RESULT:    -4.012      0.000      0.000
REMARK INTER + INTRA:         -12.996
REMARK INTER:                  -9.172
REMARK INTRA:                  -3.824
REMARK UNBOUND:                -3.824
REMARK SMILES CCCCCCCCCCCCCCCCCCCCCCCC(=O)[O-]
REMARK SMILES IDX 13 1 14 2 15 3 16 4 17 5 18 6 19 7 20 8 21 9 22 10 23 11
REMARK SMILES IDX 24 12 25 13 26 14 12 15 11 16 10 17 9 18 8 19 7 20 6 21 5 22
REMARK SMILES IDX 4 23 3 24 2 25 1 26
REMARK H PARENT
REMARK Flexibility Score: inf
ROOT
ATOM      1  C   UNL     1      10.312  17.294  13.378  1.00  0.00     0.000 C 
ENDROOT
BRANCH   1   2
ATOM      2  C   UNL     1      10.250  16.693  11.963  1.00  0.00     0.000 C 
BRANCH   2   3
ATOM      3  C   UNL     1       8.852  16.161  11.608  1.00  0.00     0.000 C 
BRANCH   3   4
ATOM      4  C   UNL     1       8.499  16.370  10.125  1.00  0.00     0.000 C 
BRANCH   4   5
ATOM      5  C   UNL     1       7.437  17.474   9.932  1.00  0.00     0.000 C 
BRANCH   5   6
ATOM      6  C   UNL     1       7.095  18.234  11.224  1.00  0.00     0.000 C 
BRANCH   6   7
ATOM      7  C   UNL     1       7.619  19.680  11.222  1.00  0.00     0.000 C 
BRANCH   7   8
ATOM      8  C   UNL     1       8.503  19.991  10.003  1.00  0.00     0.000 C 
BRANCH   8   9
ATOM      9  C   UNL     1       9.982  20.282  10.329  1.00  0.00     0.000 C 
BRANCH   9  10
ATOM     10  C   UNL     1      10.973  19.356   9.593  1.00  0.00     0.006 C 
BRANCH  10  11
ATOM     11  C   UNL     1      10.451  18.922   8.217  1.00  0.00     0.053 C 
BRANCH  11  12
ATOM     12  C   UNL     1      11.447  19.253   7.151  1.00  0.00     0.041 C 
ATOM     13  O   UNL     1      11.056  19.587   6.002  1.00  0.00    -0.550 OA
ATOM     14  O   UNL     1      12.807  19.139   7.411  1.00  0.00    -0.550 OA
ENDBRANCH  11  12
ENDBRANCH  10  11
ENDBRANCH   9  10
ENDBRANCH   8   9
ENDBRANCH   7   8
ENDBRANCH   6   7
ENDBRANCH   5   6
ENDBRANCH   4   5
ENDBRANCH   3   4
ENDBRANCH   2   3
ENDBRANCH   1   2
BRANCH   1  15
ATOM     15  C   UNL     1      11.158  18.575  13.436  1.00  0.00     0.000 C 
BRANCH  15  16
ATOM     16  C   UNL     1      10.337  19.802  13.872  1.00  0.00     0.000 C 
BRANCH  16  17
ATOM     17  C   UNL     1      10.914  20.482  15.124  1.00  0.00     0.000 C 
BRANCH  17  18
ATOM     18  C   UNL     1      12.065  19.677  15.754  1.00  0.00    -0.000 C 
BRANCH  18  19
ATOM     19  C   UNL     1      13.343  20.514  15.922  1.00  0.00    -0.000 C 
BRANCH  19  20
ATOM     20  C   UNL     1      14.608  19.641  16.016  1.00  0.00    -0.000 C 
BRANCH  20  21
ATOM     21  C   UNL     1      14.512  18.366  15.163  1.00  0.00    -0.000 C 
BRANCH  21  22
ATOM     22  C   UNL     1      15.030  17.122  15.904  1.00  0.00    -0.000 C 
BRANCH  22  23
ATOM     23  C   UNL     1      13.940  16.439  16.746  1.00  0.00    -0.000 C 
BRANCH  23  24
ATOM     24  C   UNL     1      12.704  16.049  15.916  1.00  0.00    -0.000 C 
BRANCH  24  25
ATOM     25  C   UNL     1      11.630  15.341  16.755  1.00  0.00    -0.003 C 
ATOM     26  C   UNL     1      10.405  16.219  17.009  1.00  0.00     0.004 C 
ENDBRANCH  24  25
ENDBRANCH  23  24
ENDBRANCH  22  23
ENDBRANCH  21  22
ENDBRANCH  20  21
ENDBRANCH  19  20
ENDBRANCH  18  19
ENDBRANCH  17  18
ENDBRANCH  16  17
ENDBRANCH  15  16
ENDBRANCH   1  15
TORSDOF 22
ENDMDL
MODEL 2
REMARK VINA RESULT:    -3.986      5.756      9.739
REMARK INTER + INTRA:         -12.937
REMARK INTER:                  -8.789
REMARK INTRA:                  -4.148
REMARK UNBOUND:                -3.824
REMARK SMILES CCCCCCCCCCCCCCCCCCCCCCCC(=O)[O-]
REMARK SMILES IDX 13 1 14 2 15 3 16 4 17 5 18 6 19 7 20 8 21 9 22 10 23 11
REMARK SMILES IDX 24 12 25 13 26 14 12 15 11 16 10 17 9 18 8 19 7 20 6 21 5 22
REMARK SMILES IDX 4 23 3 24 2 25 1 26
REMARK H PARENT
REMARK Flexibility Score: inf
ROOT
ATOM      1  C   UNL     1      14.783  16.285  15.991  1.00  0.00     0.000 C 
ENDROOT
BRANCH   1   2
ATOM      2  C   UNL     1      16.248  16.755  15.983  1.00  0.00     0.000 C 
BRANCH   2   3
ATOM      3  C   UNL     1      16.632  17.469  14.678  1.00  0.00     0.000 C 
BRANCH   3   4
ATOM      4  C   UNL     1      17.943  18.267  14.803  1.00  0.00     0.000 C 
BRANCH   4   5
ATOM      5  C   UNL     1      17.913  19.564  13.967  1.00  0.00     0.000 C 
BRANCH   5   6
ATOM      6  C   UNL     1      19.158  20.448  14.156  1.00  0.00     0.000 C 
BRANCH   6   7
ATOM      7  C   UNL     1      20.205  19.813  15.086  1.00  0.00     0.000 C 
BRANCH   7   8
ATOM      8  C   UNL     1      20.236  20.462  16.480  1.00  0.00     0.000 C 
BRANCH   8   9
ATOM      9  C   UNL     1      20.100  19.479  17.660  1.00  0.00     0.000 C 
BRANCH   9  10
ATOM     10  C   UNL     1      20.735  18.098  17.394  1.00  0.00     0.006 C 
BRANCH  10  11
ATOM     11  C   UNL     1      19.955  16.961  18.067  1.00  0.00     0.053 C 
BRANCH  11  12
ATOM     12  C   UNL     1      20.809  16.272  19.085  1.00  0.00     0.041 C 
ATOM     13  O   UNL     1      20.295  15.452  19.891  1.00  0.00    -0.550 OA
ATOM     14  O   UNL     1      22.161  16.576  19.178  1.00  0.00    -0.550 OA
ENDBRANCH  11  12
ENDBRANCH  10  11
ENDBRANCH   9  10
ENDBRANCH   8   9
ENDBRANCH   7   8
ENDBRANCH   6   7
ENDBRANCH   5   6
ENDBRANCH   4   5
ENDBRANCH   3   4
ENDBRANCH   2   3
ENDBRANCH   1   2
BRANCH   1  15
ATOM     15  C   UNL     1      14.018  16.763  17.235  1.00  0.00     0.000 C 
BRANCH  15  16
ATOM     16  C   UNL     1      12.874  15.809  17.625  1.00  0.00     0.000 C 
BRANCH  16  17
ATOM     17  C   UNL     1      11.943  15.493  16.444  1.00  0.00     0.000 C 
BRANCH  17  18
ATOM     18  C   UNL     1      11.050  16.687  16.061  1.00  0.00    -0.000 C 
BRANCH  18  19
ATOM     19  C   UNL     1      11.371  17.235  14.661  1.00  0.00    -0.000 C 
BRANCH  19  20
ATOM     20  C   UNL     1      11.237  18.767  14.586  1.00  0.00    -0.000 C 
BRANCH  20  21
ATOM     21  C   UNL     1      12.311  19.496  15.410  1.00  0.00    -0.000 C 
BRANCH  21  22
ATOM     22  C   UNL     1      13.649  19.614  14.660  1.00  0.00    -0.000 C 
BRANCH  22  23
ATOM     23  C   UNL     1      14.633  20.570  15.354  1.00  0.00    -0.000 C 
BRANCH  23  24
ATOM     24  C   UNL     1      14.799  20.266  16.854  1.00  0.00    -0.000 C 
BRANCH  24  25
ATOM     25  C   UNL     1      16.272  20.238  17.288  1.00  0.00    -0.003 C 
ATOM     26  C   UNL     1      16.501  19.397  18.544  1.00  0.00     0.004 C 
ENDBRANCH  24  25
ENDBRANCH  23  24
ENDBRANCH  22  23
ENDBRANCH  21  22
ENDBRANCH  20  21
ENDBRANCH  19  20
ENDBRANCH  18  19
ENDBRANCH  17  18
ENDBRANCH  16  17
ENDBRANCH  15  16
ENDBRANCH   1  15
TORSDOF 22
ENDMDL
MODEL 3
REMARK VINA RESULT:    -3.875      5.545      8.823
REMARK INTER + INTRA:         -12.683
REMARK INTER:                  -8.132
REMARK INTRA:                  -4.551
REMARK UNBOUND:                -3.824
REMARK SMILES CCCCCCCCCCCCCCCCCCCCCCCC(=O)[O-]
REMARK SMILES IDX 13 1 14 2 15 3 16 4 17 5 18 6 19 7 20 8 21 9 22 10 23 11
REMARK SMILES IDX 24 12 25 13 26 14 12 15 11 16 10 17 9 18 8 19 7 20 6 21 5 22
REMARK SMILES IDX 4 23 3 24 2 25 1 26
REMARK H PARENT
REMARK Flexibility Score: inf
ROOT
ATOM      1  C   UNL     1      12.587  15.906  17.348  1.00  0.00     0.000 C 
ENDROOT
BRANCH   1   2
ATOM      2  C   UNL     1      13.982  16.552  17.383  1.00  0.00     0.000 C 
BRANCH   2   3
ATOM      3  C   UNL     1      14.630  16.634  15.992  1.00  0.00     0.000 C 
BRANCH   3   4
ATOM      4  C   UNL     1      16.056  17.213  16.037  1.00  0.00     0.000 C 
BRANCH   4   5
ATOM      5  C   UNL     1      16.637  17.433  14.623  1.00  0.00     0.000 C 
BRANCH   5   6
ATOM      6  C   UNL     1      16.457  18.868  14.099  1.00  0.00     0.000 C 
BRANCH   6   7
ATOM      7  C   UNL     1      17.422  19.868  14.757  1.00  0.00     0.000 C 
BRANCH   7   8
ATOM      8  C   UNL     1      18.898  19.470  14.591  1.00  0.00     0.000 C 
BRANCH   8   9
ATOM      9  C   UNL     1      19.675  19.284  15.909  1.00  0.00     0.000 C 
BRANCH   9  10
ATOM     10  C   UNL     1      20.175  17.842  16.137  1.00  0.00     0.006 C 
BRANCH  10  11
ATOM     11  C   UNL     1      19.559  17.205  17.390  1.00  0.00     0.053 C 
BRANCH  11  12
ATOM     12  C   UNL     1      20.505  17.306  18.546  1.00  0.00     0.041 C 
ATOM     13  O   UNL     1      20.425  18.275  19.346  1.00  0.00    -0.550 OA
ATOM     14  O   UNL     1      21.507  16.358  18.708  1.00  0.00    -0.550 OA
ENDBRANCH  11  12
ENDBRANCH  10  11
ENDBRANCH   9  10
ENDBRANCH   8   9
ENDBRANCH   7   8
ENDBRANCH   6   7
ENDBRANCH   5   6
ENDBRANCH   4   5
ENDBRANCH   3   4
ENDBRANCH   2   3
ENDBRANCH   1   2
BRANCH   1  15
ATOM     15  C   UNL     1      11.509  16.861  16.811  1.00  0.00     0.000 C 
BRANCH  15  16
ATOM     16  C   UNL     1      10.969  16.425  15.437  1.00  0.00     0.000 C 
BRANCH  16  17
ATOM     17  C   UNL     1      11.016  17.558  14.400  1.00  0.00     0.000 C 
BRANCH  17  18
ATOM     18  C   UNL     1      11.486  18.893  15.005  1.00  0.00    -0.000 C 
BRANCH  18  19
ATOM     19  C   UNL     1      12.730  19.452  14.298  1.00  0.00    -0.000 C 
BRANCH  19  20
ATOM     20  C   UNL     1      13.541  20.401  15.200  1.00  0.00    -0.000 C 
BRANCH  20  21
ATOM     21  C   UNL     1      13.328  20.121  16.696  1.00  0.00    -0.000 C 
BRANCH  21  22
ATOM     22  C   UNL     1      14.602  20.353  17.526  1.00  0.00    -0.000 C 
BRANCH  22  23
ATOM     23  C   UNL     1      14.456  19.877  18.980  1.00  0.00    -0.000 C 
BRANCH  23  24
ATOM     24  C   UNL     1      15.812  19.612  19.658  1.00  0.00    -0.000 C 
BRANCH  24  25
ATOM     25  C   UNL     1      16.981  19.626  18.662  1.00  0.00    -0.003 C 
ATOM     26  C   UNL     1      17.935  20.799  18.887  1.00  0.00     0.004 C 
ENDBRANCH  24  25
ENDBRANCH  23  24
ENDBRANCH  22  23
ENDBRANCH  21  22
ENDBRANCH  20  21
ENDBRANCH  19  20
ENDBRANCH  18  19
ENDBRANCH  17  18
ENDBRANCH  16  17
ENDBRANCH  15  16
ENDBRANCH   1  15
TORSDOF 22
ENDMDL
MODEL 4
REMARK VINA RESULT:    -3.863      5.327      9.381
REMARK INTER + INTRA:         -12.655
REMARK INTER:                  -8.459
REMARK INTRA:                  -4.196
REMARK UNBOUND:                -3.824
REMARK SMILES CCCCCCCCCCCCCCCCCCCCCCCC(=O)[O-]
REMARK SMILES IDX 13 1 14 2 15 3 16 4 17 5 18 6 19 7 20 8 21 9 22 10 23 11
REMARK SMILES IDX 24 12 25 13 26 14 12 15 11 16 10 17 9 18 8 19 7 20 6 21 5 22
REMARK SMILES IDX 4 23 3 24 2 25 1 26
REMARK H PARENT
REMARK Flexibility Score: inf
ROOT
ATOM      1  C   UNL     1      15.410  16.327  15.748  1.00  0.00     0.000 C 
ENDROOT
BRANCH   1   2
ATOM      2  C   UNL     1      16.601  17.295  15.649  1.00  0.00     0.000 C 
BRANCH   2   3
ATOM      3  C   UNL     1      16.850  17.782  14.213  1.00  0.00     0.000 C 
BRANCH   3   4
ATOM      4  C   UNL     1      17.217  19.275  14.149  1.00  0.00     0.000 C 
BRANCH   4   5
ATOM      5  C   UNL     1      17.956  19.745  15.420  1.00  0.00     0.000 C 
BRANCH   5   6
ATOM      6  C   UNL     1      19.353  20.325  15.142  1.00  0.00     0.000 C 
BRANCH   6   7
ATOM      7  C   UNL     1      20.458  19.256  15.164  1.00  0.00     0.000 C 
BRANCH   7   8
ATOM      8  C   UNL     1      20.112  18.059  16.065  1.00  0.00     0.000 C 
BRANCH   8   9
ATOM      9  C   UNL     1      20.592  18.182  17.525  1.00  0.00     0.000 C 
BRANCH   9  10
ATOM     10  C   UNL     1      19.637  17.535  18.550  1.00  0.00     0.006 C 
BRANCH  10  11
ATOM     11  C   UNL     1      18.453  18.446  18.896  1.00  0.00     0.053 C 
BRANCH  11  12
ATOM     12  C   UNL     1      17.978  18.180  20.290  1.00  0.00     0.041 C 
ATOM     13  O   UNL     1      18.561  17.322  21.004  1.00  0.00    -0.550 OA
ATOM     14  O   UNL     1      16.859  18.840  20.781  1.00  0.00    -0.550 OA
ENDBRANCH  11  12
ENDBRANCH  10  11
ENDBRANCH   9  10
ENDBRANCH   8   9
ENDBRANCH   7   8
ENDBRANCH   6   7
ENDBRANCH   5   6
ENDBRANCH   4   5
ENDBRANCH   3   4
ENDBRANCH   2   3
ENDBRANCH   1   2
BRANCH   1  15
ATOM     15  C   UNL     1      14.515  16.617  16.963  1.00  0.00     0.000 C 
BRANCH  15  16
ATOM     16  C   UNL     1      15.089  17.723  17.866  1.00  0.00     0.000 C 
BRANCH  16  17
ATOM     17  C   UNL     1      14.138  18.922  18.006  1.00  0.00     0.000 C 
BRANCH  17  18
ATOM     18  C   UNL     1      14.663  20.178  17.287  1.00  0.00    -0.000 C 
BRANCH  18  19
ATOM     19  C   UNL     1      13.614  20.802  16.353  1.00  0.00    -0.000 C 
BRANCH  19  20
ATOM     20  C   UNL     1      13.913  20.526  14.868  1.00  0.00    -0.000 C 
BRANCH  20  21
ATOM     21  C   UNL     1      13.334  19.187  14.386  1.00  0.00    -0.000 C 
BRANCH  21  22
ATOM     22  C   UNL     1      11.951  19.345  13.730  1.00  0.00    -0.000 C 
BRANCH  22  23
ATOM     23  C   UNL     1      10.932  18.315  14.242  1.00  0.00    -0.000 C 
BRANCH  23  24
ATOM     24  C   UNL     1      11.598  17.118  14.944  1.00  0.00    -0.000 C 
BRANCH  24  25
ATOM     25  C   UNL     1      11.019  16.859  16.343  1.00  0.00    -0.003 C 
ATOM     26  C   UNL     1      11.031  15.378  16.722  1.00  0.00     0.004 C 
ENDBRANCH  24  25
ENDBRANCH  23  24
ENDBRANCH  22  23
ENDBRANCH  21  22
ENDBRANCH  20  21
ENDBRANCH  19  20
ENDBRANCH  18  19
ENDBRANCH  17  18
ENDBRANCH  16  17
ENDBRANCH  15  16
ENDBRANCH   1  15
TORSDOF 22
ENDMDL
MODEL 5
REMARK VINA RESULT:    -3.818      3.717      8.011
REMARK INTER + INTRA:         -12.551
REMARK INTER:                  -8.882
REMARK INTRA:                  -3.670
REMARK UNBOUND:                -3.824
REMARK SMILES CCCCCCCCCCCCCCCCCCCCCCCC(=O)[O-]
REMARK SMILES IDX 13 1 14 2 15 3 16 4 17 5 18 6 19 7 20 8 21 9 22 10 23 11
REMARK SMILES IDX 24 12 25 13 26 14 12 15 11 16 10 17 9 18 8 19 7 20 6 21 5 22
REMARK SMILES IDX 4 23 3 24 2 25 1 26
REMARK H PARENT
REMARK Flexibility Score: inf
ROOT
ATOM      1  C   UNL     1      13.515  16.557  16.298  1.00  0.00     0.000 C 
ENDROOT
BRANCH   1   2
ATOM      2  C   UNL     1      14.171  16.933  17.638  1.00  0.00     0.000 C 
BRANCH   2   3
ATOM      3  C   UNL     1      14.310  18.452  17.822  1.00  0.00     0.000 C 
BRANCH   3   4
ATOM      4  C   UNL     1      13.451  19.250  16.824  1.00  0.00     0.000 C 
BRANCH   4   5
ATOM      5  C   UNL     1      14.100  20.601  16.452  1.00  0.00     0.000 C 
BRANCH   5   6
ATOM      6  C   UNL     1      14.382  20.756  14.948  1.00  0.00     0.000 C 
BRANCH   6   7
ATOM      7  C   UNL     1      14.739  19.424  14.268  1.00  0.00     0.000 C 
BRANCH   7   8
ATOM      8  C   UNL     1      16.201  19.370  13.795  1.00  0.00     0.000 C 
BRANCH   8   9
ATOM      9  C   UNL     1      16.905  18.015  14.008  1.00  0.00     0.000 C 
BRANCH   9  10
ATOM     10  C   UNL     1      17.038  17.611  15.491  1.00  0.00     0.006 C 
BRANCH  10  11
ATOM     11  C   UNL     1      17.982  18.541  16.265  1.00  0.00     0.053 C 
BRANCH  11  12
ATOM     12  C   UNL     1      19.402  18.094  16.107  1.00  0.00     0.041 C 
ATOM     13  O   UNL     1      20.115  18.566  15.182  1.00  0.00    -0.550 OA
ATOM     14  O   UNL     1      19.921  17.117  16.947  1.00  0.00    -0.550 OA
ENDBRANCH  11  12
ENDBRANCH  10  11
ENDBRANCH   9  10
ENDBRANCH   8   9
ENDBRANCH   7   8
ENDBRANCH   6   7
ENDBRANCH   5   6
ENDBRANCH   4   5
ENDBRANCH   3   4
ENDBRANCH   2   3
ENDBRANCH   1   2
BRANCH   1  15
ATOM     15  C   UNL     1      12.167  15.842  16.484  1.00  0.00     0.000 C 
BRANCH  15  16
ATOM     16  C   UNL     1      11.009  16.582  15.791  1.00  0.00     0.000 C 
BRANCH  16  17
ATOM     17  C   UNL     1      11.416  17.173  14.432  1.00  0.00     0.000 C 
BRANCH  17  18
ATOM     18  C   UNL     1      10.792  18.558  14.182  1.00  0.00    -0.000 C 
BRANCH  18  19
ATOM     19  C   UNL     1      11.309  19.209  12.889  1.00  0.00    -0.000 C 
BRANCH  19  20
ATOM     20  C   UNL     1      10.268  20.145  12.247  1.00  0.00    -0.000 C 
BRANCH  20  21
ATOM     21  C   UNL     1       8.879  20.017  12.891  1.00  0.00    -0.000 C 
BRANCH  21  22
ATOM     22  C   UNL     1       7.771  19.762  11.855  1.00  0.00    -0.000 C 
BRANCH  22  23
ATOM     23  C   UNL     1       7.501  18.264  11.635  1.00  0.00    -0.000 C 
BRANCH  23  24
ATOM     24  C   UNL     1       7.940  17.780  10.241  1.00  0.00    -0.000 C 
BRANCH  24  25
ATOM     25  C   UNL     1       8.611  16.399  10.282  1.00  0.00    -0.003 C 
ATOM     26  C   UNL     1       9.486  16.205  11.521  1.00  0.00     0.004 C 
ENDBRANCH  24  25
ENDBRANCH  23  24
ENDBRANCH  22  23
ENDBRANCH  21  22
ENDBRANCH  20  21
ENDBRANCH  19  20
ENDBRANCH  18  19
ENDBRANCH  17  18
ENDBRANCH  16  17
ENDBRANCH  15  16
ENDBRANCH   1  15
TORSDOF 22
ENDMDL
MODEL 6
REMARK VINA RESULT:    -3.815      2.870      5.928
REMARK INTER + INTRA:         -12.545
REMARK INTER:                  -8.794
REMARK INTRA:                  -3.751
REMARK UNBOUND:                -3.824
REMARK SMILES CCCCCCCCCCCCCCCCCCCCCCCC(=O)[O-]
REMARK SMILES IDX 13 1 14 2 15 3 16 4 17 5 18 6 19 7 20 8 21 9 22 10 23 11
REMARK SMILES IDX 24 12 25 13 26 14 12 15 11 16 10 17 9 18 8 19 7 20 6 21 5 22
REMARK SMILES IDX 4 23 3 24 2 25 1 26
REMARK H PARENT
REMARK Flexibility Score: inf
ROOT
ATOM      1  C   UNL     1      16.142  16.902  16.031  1.00  0.00     0.000 C 
ENDROOT
BRANCH   1   2
ATOM      2  C   UNL     1      14.751  16.246  16.041  1.00  0.00     0.000 C 
BRANCH   2   3
ATOM      3  C   UNL     1      14.023  16.424  17.383  1.00  0.00     0.000 C 
BRANCH   3   4
ATOM      4  C   UNL     1      12.802  15.496  17.522  1.00  0.00     0.000 C 
BRANCH   4   5
ATOM      5  C   UNL     1      11.580  16.026  16.742  1.00  0.00     0.000 C 
BRANCH   5   6
ATOM      6  C   UNL     1      11.372  17.544  16.879  1.00  0.00     0.000 C 
BRANCH   6   7
ATOM      7  C   UNL     1      11.426  18.278  15.529  1.00  0.00     0.000 C 
BRANCH   7   8
ATOM      8  C   UNL     1      11.328  17.323  14.327  1.00  0.00     0.000 C 
BRANCH   8   9
ATOM      9  C   UNL     1      10.649  17.917  13.077  1.00  0.00     0.000 C 
BRANCH   9  10
ATOM     10  C   UNL     1       9.879  16.878  12.236  1.00  0.00     0.006 C 
BRANCH  10  11
ATOM     11  C   UNL     1       9.861  17.237  10.744  1.00  0.00     0.053 C 
BRANCH  11  12
ATOM     12  C   UNL     1       8.465  17.176  10.209  1.00  0.00     0.041 C 
ATOM     13  O   UNL     1       8.262  16.869   9.004  1.00  0.00    -0.550 OA
ATOM     14  O   UNL     1       7.392  17.511  11.025  1.00  0.00    -0.550 OA
ENDBRANCH  11  12
ENDBRANCH  10  11
ENDBRANCH   9  10
ENDBRANCH   8   9
ENDBRANCH   7   8
ENDBRANCH   6   7
ENDBRANCH   5   6
ENDBRANCH   4   5
ENDBRANCH   3   4
ENDBRANCH   2   3
ENDBRANCH   1   2
BRANCH   1  15
ATOM     15  C   UNL     1      16.447  17.614  14.704  1.00  0.00     0.000 C 
BRANCH  15  16
ATOM     16  C   UNL     1      16.289  19.142  14.806  1.00  0.00     0.000 C 
BRANCH  16  17
ATOM     17  C   UNL     1      14.817  19.585  14.781  1.00  0.00     0.000 C 
BRANCH  17  18
ATOM     18  C   UNL     1      14.514  20.680  15.820  1.00  0.00    -0.000 C 
BRANCH  18  19
ATOM     19  C   UNL     1      14.163  20.099  17.199  1.00  0.00    -0.000 C 
BRANCH  19  20
ATOM     20  C   UNL     1      15.231  20.422  18.260  1.00  0.00    -0.000 C 
BRANCH  20  21
ATOM     21  C   UNL     1      15.679  19.179  19.046  1.00  0.00    -0.000 C 
BRANCH  21  22
ATOM     22  C   UNL     1      17.165  18.847  18.825  1.00  0.00    -0.000 C 
BRANCH  22  23
ATOM     23  C   UNL     1      17.919  19.970  18.093  1.00  0.00    -0.000 C 
BRANCH  23  24
ATOM     24  C   UNL     1      19.346  19.560  17.688  1.00  0.00    -0.000 C 
BRANCH  24  25
ATOM     25  C   UNL     1      19.410  18.135  17.118  1.00  0.00    -0.003 C 
ATOM     26  C   UNL     1      19.966  18.094  15.695  1.00  0.00     0.004 C 
ENDBRANCH  24  25
ENDBRANCH  23  24
ENDBRANCH  22  23
ENDBRANCH  21  22
ENDBRANCH  20  21
ENDBRANCH  19  20
ENDBRANCH  18  19
ENDBRANCH  17  18
ENDBRANCH  16  17
ENDBRANCH  15  16
ENDBRANCH   1  15
TORSDOF 22
ENDMDL
MODEL 7
REMARK VINA RESULT:    -3.811      5.960      9.473
REMARK INTER + INTRA:         -12.537
REMARK INTER:                  -8.303
REMARK INTRA:                  -4.234
REMARK UNBOUND:                -3.824
REMARK SMILES CCCCCCCCCCCCCCCCCCCCCCCC(=O)[O-]
REMARK SMILES IDX 13 1 14 2 15 3 16 4 17 5 18 6 19 7 20 8 21 9 22 10 23 11
REMARK SMILES IDX 24 12 25 13 26 14 12 15 11 16 10 17 9 18 8 19 7 20 6 21 5 22
REMARK SMILES IDX 4 23 3 24 2 25 1 26
REMARK H PARENT
REMARK Flexibility Score: inf
ROOT
ATOM      1  C   UNL     1      15.383  17.197  15.871  1.00  0.00     0.000 C 
ENDROOT
BRANCH   1   2
ATOM      2  C   UNL     1      16.376  17.516  14.740  1.00  0.00     0.000 C 
BRANCH   2   3
ATOM      3  C   UNL     1      16.170  18.921  14.152  1.00  0.00     0.000 C 
BRANCH   3   4
ATOM      4  C   UNL     1      17.325  19.351  13.229  1.00  0.00     0.000 C 
BRANCH   4   5
ATOM      5  C   UNL     1      18.488  19.991  14.016  1.00  0.00     0.000 C 
BRANCH   5   6
ATOM      6  C   UNL     1      18.082  20.508  15.407  1.00  0.00     0.000 C 
BRANCH   6   7
ATOM      7  C   UNL     1      18.905  19.877  16.542  1.00  0.00     0.000 C 
BRANCH   7   8
ATOM      8  C   UNL     1      19.749  18.681  16.072  1.00  0.00     0.000 C 
BRANCH   8   9
ATOM      9  C   UNL     1      19.685  17.440  16.984  1.00  0.00     0.000 C 
BRANCH   9  10
ATOM     10  C   UNL     1      19.332  17.764  18.451  1.00  0.00     0.006 C 
BRANCH  10  11
ATOM     11  C   UNL     1      20.560  17.715  19.369  1.00  0.00     0.053 C 
BRANCH  11  12
ATOM     12  C   UNL     1      20.997  16.300  19.583  1.00  0.00     0.041 C 
ATOM     13  O   UNL     1      20.211  15.469  20.111  1.00  0.00    -0.550 OA
ATOM     14  O   UNL     1      22.288  15.912  19.250  1.00  0.00    -0.550 OA
ENDBRANCH  11  12
ENDBRANCH  10  11
ENDBRANCH   9  10
ENDBRANCH   8   9
ENDBRANCH   7   8
ENDBRANCH   6   7
ENDBRANCH   5   6
ENDBRANCH   4   5
ENDBRANCH   3   4
ENDBRANCH   2   3
ENDBRANCH   1   2
BRANCH   1  15
ATOM     15  C   UNL     1      15.904  17.630  17.250  1.00  0.00     0.000 C 
BRANCH  15  16
ATOM     16  C   UNL     1      14.898  18.516  18.007  1.00  0.00     0.000 C 
BRANCH  16  17
ATOM     17  C   UNL     1      15.371  19.973  18.129  1.00  0.00     0.000 C 
BRANCH  17  18
ATOM     18  C   UNL     1      14.330  20.977  17.603  1.00  0.00    -0.000 C 
BRANCH  18  19
ATOM     19  C   UNL     1      14.316  21.057  16.068  1.00  0.00    -0.000 C 
BRANCH  19  20
ATOM     20  C   UNL     1      12.897  20.916  15.487  1.00  0.00    -0.000 C 
BRANCH  20  21
ATOM     21  C   UNL     1      12.251  19.563  15.824  1.00  0.00    -0.000 C 
BRANCH  21  22
ATOM     22  C   UNL     1      12.251  18.596  14.628  1.00  0.00    -0.000 C 
BRANCH  22  23
ATOM     23  C   UNL     1      11.519  17.279  14.932  1.00  0.00    -0.000 C 
BRANCH  23  24
ATOM     24  C   UNL     1      11.403  16.998  16.440  1.00  0.00    -0.000 C 
BRANCH  24  25
ATOM     25  C   UNL     1      11.726  15.538  16.794  1.00  0.00    -0.003 C 
ATOM     26  C   UNL     1      12.883  15.413  17.786  1.00  0.00     0.004 C 
ENDBRANCH  24  25
ENDBRANCH  23  24
ENDBRANCH  22  23
ENDBRANCH  21  22
ENDBRANCH  20  21
ENDBRANCH  19  20
ENDBRANCH  18  19
ENDBRANCH  17  18
ENDBRANCH  16  17
ENDBRANCH  15  16
ENDBRANCH   1  15
TORSDOF 22
ENDMDL
MODEL 8
REMARK VINA RESULT:    -3.788      4.813      9.078
REMARK INTER + INTRA:         -12.484
REMARK INTER:                  -9.492
REMARK INTRA:                  -2.992
REMARK UNBOUND:                -3.824
REMARK SMILES CCCCCCCCCCCCCCCCCCCCCCCC(=O)[O-]
REMARK SMILES IDX 13 1 14 2 15 3 16 4 17 5 18 6 19 7 20 8 21 9 22 10 23 11
REMARK SMILES IDX 24 12 25 13 26 14 12 15 11 16 10 17 9 18 8 19 7 20 6 21 5 22
REMARK SMILES IDX 4 23 3 24 2 25 1 26
REMARK H PARENT
REMARK Flexibility Score: inf
ROOT
ATOM      1  C   UNL     1      15.549  17.101  15.978  1.00  0.00     0.000 C 
ENDROOT
BRANCH   1   2
ATOM      2  C   UNL     1      15.307  18.322  16.882  1.00  0.00     0.000 C 
BRANCH   2   3
ATOM      3  C   UNL     1      14.980  19.592  16.082  1.00  0.00     0.000 C 
BRANCH   3   4
ATOM      4  C   UNL     1      14.958  19.346  14.562  1.00  0.00     0.000 C 
BRANCH   4   5
ATOM      5  C   UNL     1      15.909  20.300  13.807  1.00  0.00     0.000 C 
BRANCH   5   6
ATOM      6  C   UNL     1      17.171  19.610  13.264  1.00  0.00     0.000 C 
BRANCH   6   7
ATOM      7  C   UNL     1      18.470  20.280  13.743  1.00  0.00     0.000 C 
BRANCH   7   8
ATOM      8  C   UNL     1      18.898  19.817  15.145  1.00  0.00     0.000 C 
BRANCH   8   9
ATOM      9  C   UNL     1      18.811  18.296  15.384  1.00  0.00     0.000 C 
BRANCH   9  10
ATOM     10  C   UNL     1      20.048  17.707  16.094  1.00  0.00     0.006 C 
BRANCH  10  11
ATOM     11  C   UNL     1      19.816  17.511  17.597  1.00  0.00     0.053 C 
BRANCH  11  12
ATOM     12  C   UNL     1      21.056  17.846  18.366  1.00  0.00     0.041 C 
ATOM     13  O   UNL     1      21.822  16.928  18.762  1.00  0.00    -0.550 OA
ATOM     14  O   UNL     1      21.336  19.167  18.691  1.00  0.00    -0.550 OA
ENDBRANCH  11  12
ENDBRANCH  10  11
ENDBRANCH   9  10
ENDBRANCH   8   9
ENDBRANCH   7   8
ENDBRANCH   6   7
ENDBRANCH   5   6
ENDBRANCH   4   5
ENDBRANCH   3   4
ENDBRANCH   2   3
ENDBRANCH   1   2
BRANCH   1  15
ATOM     15  C   UNL     1      14.455  16.032  16.127  1.00  0.00     0.000 C 
BRANCH  15  16
ATOM     16  C   UNL     1      13.560  16.274  17.356  1.00  0.00     0.000 C 
BRANCH  16  17
ATOM     17  C   UNL     1      12.212  15.544  17.255  1.00  0.00     0.000 C 
BRANCH  17  18
ATOM     18  C   UNL     1      11.079  16.463  16.762  1.00  0.00    -0.000 C 
BRANCH  18  19
ATOM     19  C   UNL     1      11.441  17.952  16.874  1.00  0.00    -0.000 C 
BRANCH  19  20
ATOM     20  C   UNL     1      11.422  18.664  15.509  1.00  0.00    -0.000 C 
BRANCH  20  21
ATOM     21  C   UNL     1      11.625  17.696  14.333  1.00  0.00    -0.000 C 
BRANCH  21  22
ATOM     22  C   UNL     1      10.679  17.991  13.157  1.00  0.00    -0.000 C 
BRANCH  22  23
ATOM     23  C   UNL     1       9.864  16.760  12.730  1.00  0.00    -0.000 C 
BRANCH  23  24
ATOM     24  C   UNL     1       9.957  16.480  11.219  1.00  0.00    -0.000 C 
BRANCH  24  25
ATOM     25  C   UNL     1       8.577  16.315  10.565  1.00  0.00    -0.003 C 
ATOM     26  C   UNL     1       8.395  17.212   9.340  1.00  0.00     0.004 C 
ENDBRANCH  24  25
ENDBRANCH  23  24
ENDBRANCH  22  23
ENDBRANCH  21  22
ENDBRANCH  20  21
ENDBRANCH  19  20
ENDBRANCH  18  19
ENDBRANCH  17  18
ENDBRANCH  16  17
ENDBRANCH  15  16
ENDBRANCH   1  15
TORSDOF 22
ENDMDL
MODEL 9
REMARK VINA RESULT:    -3.762      4.589      9.193
REMARK INTER + INTRA:         -12.425
REMARK INTER:                  -8.806
REMARK INTRA:                  -3.619
REMARK UNBOUND:                -3.824
REMARK SMILES CCCCCCCCCCCCCCCCCCCCCCCC(=O)[O-]
REMARK SMILES IDX 13 1 14 2 15 3 16 4 17 5 18 6 19 7 20 8 21 9 22 10 23 11
REMARK SMILES IDX 24 12 25 13 26 14 12 15 11 16 10 17 9 18 8 19 7 20 6 21 5 22
REMARK SMILES IDX 4 23 3 24 2 25 1 26
REMARK H PARENT
REMARK Flexibility Score: inf
ROOT
ATOM      1  C   UNL     1      15.884  17.394  15.616  1.00  0.00     0.000 C 
ENDROOT
BRANCH   1   2
ATOM      2  C   UNL     1      15.140  18.734  15.486  1.00  0.00     0.000 C 
BRANCH   2   3
ATOM      3  C   UNL     1      16.057  19.944  15.727  1.00  0.00     0.000 C 
BRANCH   3   4
ATOM      4  C   UNL     1      15.474  20.933  16.754  1.00  0.00     0.000 C 
BRANCH   4   5
ATOM      5  C   UNL     1      14.065  20.516  17.225  1.00  0.00     0.000 C 
BRANCH   5   6
ATOM      6  C   UNL     1      14.000  20.130  18.712  1.00  0.00     0.000 C 
BRANCH   6   7
ATOM      7  C   UNL     1      15.250  20.564  19.496  1.00  0.00     0.000 C 
BRANCH   7   8
ATOM      8  C   UNL     1      15.963  19.387  20.180  1.00  0.00     0.000 C 
BRANCH   8   9
ATOM      9  C   UNL     1      16.728  18.446  19.228  1.00  0.00     0.000 C 
BRANCH   9  10
ATOM     10  C   UNL     1      18.082  19.011  18.751  1.00  0.00     0.006 C 
BRANCH  10  11
ATOM     11  C   UNL     1      18.835  18.027  17.846  1.00  0.00     0.053 C 
BRANCH  11  12
ATOM     12  C   UNL     1      19.939  17.359  18.604  1.00  0.00     0.041 C 
ATOM     13  O   UNL     1      20.808  16.683  17.992  1.00  0.00    -0.550 OA
ATOM     14  O   UNL     1      19.977  17.437  19.990  1.00  0.00    -0.550 OA
ENDBRANCH  11  12
ENDBRANCH  10  11
ENDBRANCH   9  10
ENDBRANCH   8   9
ENDBRANCH   7   8
ENDBRANCH   6   7
ENDBRANCH   5   6
ENDBRANCH   4   5
ENDBRANCH   3   4
ENDBRANCH   2   3
ENDBRANCH   1   2
BRANCH   1  15
ATOM     15  C   UNL     1      14.979  16.267  16.136  1.00  0.00     0.000 C 
BRANCH  15  16
ATOM     16  C   UNL     1      14.019  16.745  17.239  1.00  0.00     0.000 C 
BRANCH  16  17
ATOM     17  C   UNL     1      12.790  15.834  17.386  1.00  0.00     0.000 C 
BRANCH  17  18
ATOM     18  C   UNL     1      11.504  16.486  16.846  1.00  0.00    -0.000 C 
BRANCH  18  19
ATOM     19  C   UNL     1      11.641  18.009  16.687  1.00  0.00    -0.000 C 
BRANCH  19  20
ATOM     20  C   UNL     1      11.497  18.460  15.222  1.00  0.00    -0.000 C 
BRANCH  20  21
ATOM     21  C   UNL     1      11.331  17.280  14.252  1.00  0.00    -0.000 C 
BRANCH  21  22
ATOM     22  C   UNL     1      10.365  17.598  13.098  1.00  0.00    -0.000 C 
BRANCH  22  23
ATOM     23  C   UNL     1      10.369  16.514  12.008  1.00  0.00    -0.000 C 
BRANCH  23  24
ATOM     24  C   UNL     1       9.563  16.920  10.762  1.00  0.00    -0.000 C 
BRANCH  24  25
ATOM     25  C   UNL     1       8.349  16.009  10.522  1.00  0.00    -0.003 C 
ATOM     26  C   UNL     1       7.198  16.295  11.487  1.00  0.00     0.004 C 
ENDBRANCH  24  25
ENDBRANCH  23  24
ENDBRANCH  22  23
ENDBRANCH  21  22
ENDBRANCH  20  21
ENDBRANCH  19  20
ENDBRANCH  18  19
ENDBRANCH  17  18
ENDBRANCH  16  17
ENDBRANCH  15  16
ENDBRANCH   1  15
TORSDOF 22
ENDMDL
