MODEL 1
REMARK VINA RESULT:    -3.493      0.000      0.000
REMARK INTER + INTRA:         -11.464
REMARK INTER:                  -7.985
REMARK INTRA:                  -3.479
REMARK UNBOUND:                -3.479
REMARK SMILES CCCCCCCCCCCCCCCCCCCCCCCC(=O)[O-]
REMARK SMILES IDX 13 1 14 2 15 3 16 4 17 5 18 6 19 7 20 8 21 9 22 10 23 11
REMARK SMILES IDX 24 12 25 13 26 14 12 15 11 16 10 17 9 18 8 19 7 20 6 21 5 22
REMARK SMILES IDX 4 23 3 24 2 25 1 26
REMARK H PARENT
REMARK Flexibility Score: inf
ROOT
ATOM      1  C   UNL     1      60.103   1.503  97.121  1.00  0.00     0.000 C 
ENDROOT
BRANCH   1   2
ATOM      2  C   UNL     1      58.758   1.874  96.470  1.00  0.00     0.000 C 
BRANCH   2   3
ATOM      3  C   UNL     1      58.295   3.325  96.708  1.00  0.00     0.000 C 
BRANCH   3   4
ATOM      4  C   UNL     1      57.651   4.012  95.491  1.00  0.00     0.000 C 
BRANCH   4   5
ATOM      5  C   UNL     1      56.323   4.706  95.830  1.00  0.00     0.000 C 
BRANCH   5   6
ATOM      6  C   UNL     1      56.109   5.944  94.945  1.00  0.00     0.000 C 
BRANCH   6   7
ATOM      7  C   UNL     1      57.297   6.919  94.993  1.00  0.00     0.000 C 
BRANCH   7   8
ATOM      8  C   UNL     1      57.378   7.689  96.322  1.00  0.00     0.000 C 
BRANCH   8   9
ATOM      9  C   UNL     1      58.781   7.647  96.946  1.00  0.00     0.000 C 
BRANCH   9  10
ATOM     10  C   UNL     1      59.769   6.801  96.124  1.00  0.00     0.006 C 
BRANCH  10  11
ATOM     11  C   UNL     1      61.079   7.548  95.844  1.00  0.00     0.053 C 
BRANCH  11  12
ATOM     12  C   UNL     1      60.862   8.750  94.976  1.00  0.00     0.041 C 
ATOM     13  O   UNL     1      60.467   8.611  93.788  1.00  0.00    -0.550 OA
ATOM     14  O   UNL     1      61.122  10.021  95.471  1.00  0.00    -0.550 OA
ENDBRANCH  11  12
ENDBRANCH  10  11
ENDBRANCH   9  10
ENDBRANCH   8   9
ENDBRANCH   7   8
ENDBRANCH   6   7
ENDBRANCH   5   6
ENDBRANCH   4   5
ENDBRANCH   3   4
ENDBRANCH   2   3
ENDBRANCH   1   2
BRANCH   1  15
ATOM     15  C   UNL     1      60.595   0.105  96.716  1.00  0.00     0.000 C 
BRANCH  15  16
ATOM     16  C   UNL     1      59.713  -0.488  95.607  1.00  0.00     0.000 C 
BRANCH  16  17
ATOM     17  C   UNL     1      60.443  -0.603  94.257  1.00  0.00     0.000 C 
BRANCH  17  18
ATOM     18  C   UNL     1      59.600  -1.183  93.106  1.00  0.00    -0.000 C 
BRANCH  18  19
ATOM     19  C   UNL     1      59.354  -0.169  91.975  1.00  0.00    -0.000 C 
BRANCH  19  20
ATOM     20  C   UNL     1      57.877   0.244  91.863  1.00  0.00    -0.000 C 
BRANCH  20  21
ATOM     21  C   UNL     1      57.509   1.397  92.810  1.00  0.00    -0.000 C 
BRANCH  21  22
ATOM     22  C   UNL     1      56.163   1.127  93.503  1.00  0.00    -0.000 C 
BRANCH  22  23
ATOM     23  C   UNL     1      56.199  -0.115  94.409  1.00  0.00    -0.000 C 
BRANCH  23  24
ATOM     24  C   UNL     1      55.784   0.198  95.858  1.00  0.00    -0.000 C 
BRANCH  24  25
ATOM     25  C   UNL     1      56.287  -0.860  96.853  1.00  0.00    -0.003 C 
ATOM     26  C   UNL     1      56.484  -2.233  96.211  1.00  0.00     0.004 C 
ENDBRANCH  24  25
ENDBRANCH  23  24
ENDBRANCH  22  23
ENDBRANCH  21  22
ENDBRANCH  20  21
ENDBRANCH  19  20
ENDBRANCH  18  19
ENDBRANCH  17  18
ENDBRANCH  16  17
ENDBRANCH  15  16
ENDBRANCH   1  15
TORSDOF 22
ENDMDL
MODEL 2
REMARK VINA RESULT:    -3.436      1.660      3.972
REMARK INTER + INTRA:         -11.333
REMARK INTER:                  -7.338
REMARK INTRA:                  -3.995
REMARK UNBOUND:                -3.479
REMARK SMILES CCCCCCCCCCCCCCCCCCCCCCCC(=O)[O-]
REMARK SMILES IDX 13 1 14 2 15 3 16 4 17 5 18 6 19 7 20 8 21 9 22 10 23 11
REMARK SMILES IDX 24 12 25 13 26 14 12 15 11 16 10 17 9 18 8 19 7 20 6 21 5 22
REMARK SMILES IDX 4 23 3 24 2 25 1 26
REMARK H PARENT
REMARK Flexibility Score: inf
ROOT
ATOM      1  C   UNL     1      60.204  -1.599  93.588  1.00  0.00     0.000 C 
ENDROOT
BRANCH   1   2
ATOM      2  C   UNL     1      59.907  -0.606  92.450  1.00  0.00     0.000 C 
BRANCH   2   3
ATOM      3  C   UNL     1      58.780   0.405  92.741  1.00  0.00     0.000 C 
BRANCH   3   4
ATOM      4  C   UNL     1      57.458   0.142  91.998  1.00  0.00     0.000 C 
BRANCH   4   5
ATOM      5  C   UNL     1      56.443   1.281  92.163  1.00  0.00     0.000 C 
BRANCH   5   6
ATOM      6  C   UNL     1      56.986   2.591  91.570  1.00  0.00     0.000 C 
BRANCH   6   7
ATOM      7  C   UNL     1      56.535   3.830  92.360  1.00  0.00     0.000 C 
BRANCH   7   8
ATOM      8  C   UNL     1      56.984   3.791  93.831  1.00  0.00     0.000 C 
BRANCH   8   9
ATOM      9  C   UNL     1      56.931   5.172  94.502  1.00  0.00     0.000 C 
BRANCH   9  10
ATOM     10  C   UNL     1      57.365   5.130  95.977  1.00  0.00     0.006 C 
BRANCH  10  11
ATOM     11  C   UNL     1      58.892   5.096  96.132  1.00  0.00     0.053 C 
BRANCH  11  12
ATOM     12  C   UNL     1      59.513   6.425  95.830  1.00  0.00     0.041 C 
ATOM     13  O   UNL     1      59.296   7.412  96.582  1.00  0.00    -0.550 OA
ATOM     14  O   UNL     1      60.308   6.581  94.702  1.00  0.00    -0.550 OA
ENDBRANCH  11  12
ENDBRANCH  10  11
ENDBRANCH   9  10
ENDBRANCH   8   9
ENDBRANCH   7   8
ENDBRANCH   6   7
ENDBRANCH   5   6
ENDBRANCH   4   5
ENDBRANCH   3   4
ENDBRANCH   2   3
ENDBRANCH   1   2
BRANCH   1  15
ATOM     15  C   UNL     1      61.084  -0.996  94.692  1.00  0.00     0.000 C 
BRANCH  15  16
ATOM     16  C   UNL     1      60.266  -0.730  95.964  1.00  0.00     0.000 C 
BRANCH  16  17
ATOM     17  C   UNL     1      60.740   0.515  96.734  1.00  0.00     0.000 C 
BRANCH  17  18
ATOM     18  C   UNL     1      59.647   1.562  97.018  1.00  0.00    -0.000 C 
BRANCH  18  19
ATOM     19  C   UNL     1      58.477   1.490  96.020  1.00  0.00    -0.000 C 
BRANCH  19  20
ATOM     20  C   UNL     1      57.108   1.433  96.717  1.00  0.00    -0.000 C 
BRANCH  20  21
ATOM     21  C   UNL     1      56.545   0.005  96.804  1.00  0.00    -0.000 C 
BRANCH  21  22
ATOM     22  C   UNL     1      56.539  -0.665  95.421  1.00  0.00    -0.000 C 
BRANCH  22  23
ATOM     23  C   UNL     1      56.922  -2.153  95.478  1.00  0.00    -0.000 C 
BRANCH  23  24
ATOM     24  C   UNL     1      56.788  -2.853  94.113  1.00  0.00    -0.000 C 
BRANCH  24  25
ATOM     25  C   UNL     1      55.330  -3.194  93.770  1.00  0.00    -0.003 C 
ATOM     26  C   UNL     1      54.806  -2.413  92.564  1.00  0.00     0.004 C 
ENDBRANCH  24  25
ENDBRANCH  23  24
ENDBRANCH  22  23
ENDBRANCH  21  22
ENDBRANCH  20  21
ENDBRANCH  19  20
ENDBRANCH  18  19
ENDBRANCH  17  18
ENDBRANCH  16  17
ENDBRANCH  15  16
ENDBRANCH   1  15
TORSDOF 22
ENDMDL
MODEL 3
REMARK VINA RESULT:    -3.329      2.202      4.903
REMARK INTER + INTRA:         -11.089
REMARK INTER:                  -7.023
REMARK INTRA:                  -4.066
REMARK UNBOUND:                -3.479
REMARK SMILES CCCCCCCCCCCCCCCCCCCCCCCC(=O)[O-]
REMARK SMILES IDX 13 1 14 2 15 3 16 4 17 5 18 6 19 7 20 8 21 9 22 10 23 11
REMARK SMILES IDX 24 12 25 13 26 14 12 15 11 16 10 17 9 18 8 19 7 20 6 21 5 22
REMARK SMILES IDX 4 23 3 24 2 25 1 26
REMARK H PARENT
REMARK Flexibility Score: inf
ROOT
ATOM      1  C   UNL     1      60.044  -0.822  95.636  1.00  0.00     0.000 C 
ENDROOT
BRANCH   1   2
ATOM      2  C   UNL     1      60.946  -1.197  94.446  1.00  0.00     0.000 C 
BRANCH   2   3
ATOM      3  C   UNL     1      60.310  -1.002  93.056  1.00  0.00     0.000 C 
BRANCH   3   4
ATOM      4  C   UNL     1      59.171   0.031  92.998  1.00  0.00     0.000 C 
BRANCH   4   5
ATOM      5  C   UNL     1      58.507   0.111  91.616  1.00  0.00     0.000 C 
BRANCH   5   6
ATOM      6  C   UNL     1      57.456   1.232  91.575  1.00  0.00     0.000 C 
BRANCH   6   7
ATOM      7  C   UNL     1      56.887   1.560  92.965  1.00  0.00     0.000 C 
BRANCH   7   8
ATOM      8  C   UNL     1      56.883   3.070  93.261  1.00  0.00     0.000 C 
BRANCH   8   9
ATOM      9  C   UNL     1      55.738   3.486  94.197  1.00  0.00     0.000 C 
BRANCH   9  10
ATOM     10  C   UNL     1      55.770   4.985  94.542  1.00  0.00     0.006 C 
BRANCH  10  11
ATOM     11  C   UNL     1      56.576   5.270  95.817  1.00  0.00     0.053 C 
BRANCH  11  12
ATOM     12  C   UNL     1      56.462   6.703  96.239  1.00  0.00     0.041 C 
ATOM     13  O   UNL     1      57.498   7.370  96.504  1.00  0.00    -0.550 OA
ATOM     14  O   UNL     1      55.212   7.293  96.369  1.00  0.00    -0.550 OA
ENDBRANCH  11  12
ENDBRANCH  10  11
ENDBRANCH   9  10
ENDBRANCH   8   9
ENDBRANCH   7   8
ENDBRANCH   6   7
ENDBRANCH   5   6
ENDBRANCH   4   5
ENDBRANCH   3   4
ENDBRANCH   2   3
ENDBRANCH   1   2
BRANCH   1  15
ATOM     15  C   UNL     1      60.783  -0.012  96.712  1.00  0.00     0.000 C 
BRANCH  15  16
ATOM     16  C   UNL     1      60.058   1.312  96.997  1.00  0.00     0.000 C 
BRANCH  16  17
ATOM     17  C   UNL     1      58.737   1.454  96.219  1.00  0.00     0.000 C 
BRANCH  17  18
ATOM     18  C   UNL     1      57.539   1.945  97.052  1.00  0.00    -0.000 C 
BRANCH  18  19
ATOM     19  C   UNL     1      56.311   1.024  96.933  1.00  0.00    -0.000 C 
BRANCH  19  20
ATOM     20  C   UNL     1      56.692  -0.432  96.619  1.00  0.00    -0.000 C 
BRANCH  20  21
ATOM     21  C   UNL     1      55.634  -1.152  95.768  1.00  0.00    -0.000 C 
BRANCH  21  22
ATOM     22  C   UNL     1      56.205  -1.533  94.393  1.00  0.00    -0.000 C 
BRANCH  22  23
ATOM     23  C   UNL     1      57.091  -2.789  94.443  1.00  0.00    -0.000 C 
BRANCH  23  24
ATOM     24  C   UNL     1      57.293  -3.427  93.057  1.00  0.00    -0.000 C 
BRANCH  24  25
ATOM     25  C   UNL     1      58.598  -4.234  92.967  1.00  0.00    -0.003 C 
ATOM     26  C   UNL     1      59.256  -4.146  91.590  1.00  0.00     0.004 C 
ENDBRANCH  24  25
ENDBRANCH  23  24
ENDBRANCH  22  23
ENDBRANCH  21  22
ENDBRANCH  20  21
ENDBRANCH  19  20
ENDBRANCH  18  19
ENDBRANCH  17  18
ENDBRANCH  16  17
ENDBRANCH  15  16
ENDBRANCH   1  15
TORSDOF 22
ENDMDL
MODEL 4
REMARK VINA RESULT:    -3.322      3.341      7.816
REMARK INTER + INTRA:         -11.074
REMARK INTER:                  -8.029
REMARK INTRA:                  -3.045
REMARK UNBOUND:                -3.479
REMARK SMILES CCCCCCCCCCCCCCCCCCCCCCCC(=O)[O-]
REMARK SMILES IDX 13 1 14 2 15 3 16 4 17 5 18 6 19 7 20 8 21 9 22 10 23 11
REMARK SMILES IDX 24 12 25 13 26 14 12 15 11 16 10 17 9 18 8 19 7 20 6 21 5 22
REMARK SMILES IDX 4 23 3 24 2 25 1 26
REMARK H PARENT
REMARK Flexibility Score: inf
ROOT
ATOM      1  C   UNL     1      57.498   3.927  95.365  1.00  0.00     0.000 C 
ENDROOT
BRANCH   1   2
ATOM      2  C   UNL     1      57.793   2.417  95.369  1.00  0.00     0.000 C 
BRANCH   2   3
ATOM      3  C   UNL     1      58.263   1.844  96.721  1.00  0.00     0.000 C 
BRANCH   3   4
ATOM      4  C   UNL     1      59.786   1.676  96.866  1.00  0.00     0.000 C 
BRANCH   4   5
ATOM      5  C   UNL     1      60.266   0.262  96.510  1.00  0.00     0.000 C 
BRANCH   5   6
ATOM      6  C   UNL     1      59.075  -0.677  96.263  1.00  0.00     0.000 C 
BRANCH   6   7
ATOM      7  C   UNL     1      59.130  -1.354  94.884  1.00  0.00     0.000 C 
BRANCH   7   8
ATOM      8  C   UNL     1      60.349  -0.913  94.056  1.00  0.00     0.000 C 
BRANCH   8   9
ATOM      9  C   UNL     1      59.958  -0.347  92.682  1.00  0.00     0.000 C 
BRANCH   9  10
ATOM     10  C   UNL     1      58.437  -0.184  92.520  1.00  0.00     0.006 C 
BRANCH  10  11
ATOM     11  C   UNL     1      58.075   0.884  91.480  1.00  0.00     0.053 C 
BRANCH  11  12
ATOM     12  C   UNL     1      57.933   0.300  90.107  1.00  0.00     0.041 C 
ATOM     13  O   UNL     1      57.646   1.041  89.130  1.00  0.00    -0.550 OA
ATOM     14  O   UNL     1      58.089  -1.066  89.913  1.00  0.00    -0.550 OA
ENDBRANCH  11  12
ENDBRANCH  10  11
ENDBRANCH   9  10
ENDBRANCH   8   9
ENDBRANCH   7   8
ENDBRANCH   6   7
ENDBRANCH   5   6
ENDBRANCH   4   5
ENDBRANCH   3   4
ENDBRANCH   2   3
ENDBRANCH   1   2
BRANCH   1  15
ATOM     15  C   UNL     1      57.501   4.539  96.774  1.00  0.00     0.000 C 
BRANCH  15  16
ATOM     16  C   UNL     1      58.448   5.746  96.847  1.00  0.00     0.000 C 
BRANCH  16  17
ATOM     17  C   UNL     1      59.929   5.342  96.958  1.00  0.00     0.000 C 
BRANCH  17  18
ATOM     18  C   UNL     1      60.898   6.172  96.097  1.00  0.00    -0.000 C 
BRANCH  18  19
ATOM     19  C   UNL     1      60.215   7.372  95.417  1.00  0.00    -0.000 C 
BRANCH  19  20
ATOM     20  C   UNL     1      60.122   7.212  93.891  1.00  0.00    -0.000 C 
BRANCH  20  21
ATOM     21  C   UNL     1      58.676   7.044  93.398  1.00  0.00    -0.000 C 
BRANCH  21  22
ATOM     22  C   UNL     1      57.767   8.134  93.988  1.00  0.00    -0.000 C 
BRANCH  22  23
ATOM     23  C   UNL     1      56.408   7.588  94.455  1.00  0.00    -0.000 C 
BRANCH  23  24
ATOM     24  C   UNL     1      55.325   8.680  94.530  1.00  0.00    -0.000 C 
BRANCH  24  25
ATOM     25  C   UNL     1      54.751   8.841  95.947  1.00  0.00    -0.003 C 
ATOM     26  C   UNL     1      55.653   8.239  97.024  1.00  0.00     0.004 C 
ENDBRANCH  24  25
ENDBRANCH  23  24
ENDBRANCH  22  23
ENDBRANCH  21  22
ENDBRANCH  20  21
ENDBRANCH  19  20
ENDBRANCH  18  19
ENDBRANCH  17  18
ENDBRANCH  16  17
ENDBRANCH  15  16
ENDBRANCH   1  15
TORSDOF 22
ENDMDL
MODEL 5
REMARK VINA RESULT:    -3.310      2.121      4.191
REMARK INTER + INTRA:         -11.045
REMARK INTER:                  -7.997
REMARK INTRA:                  -3.049
REMARK UNBOUND:                -3.479
REMARK SMILES CCCCCCCCCCCCCCCCCCCCCCCC(=O)[O-]
REMARK SMILES IDX 13 1 14 2 15 3 16 4 17 5 18 6 19 7 20 8 21 9 22 10 23 11
REMARK SMILES IDX 24 12 25 13 26 14 12 15 11 16 10 17 9 18 8 19 7 20 6 21 5 22
REMARK SMILES IDX 4 23 3 24 2 25 1 26
REMARK H PARENT
REMARK Flexibility Score: inf
ROOT
ATOM      1  C   UNL     1      57.746   3.761  95.181  1.00  0.00     0.000 C 
ENDROOT
BRANCH   1   2
ATOM      2  C   UNL     1      57.424   5.051  95.956  1.00  0.00     0.000 C 
BRANCH   2   3
ATOM      3  C   UNL     1      58.438   5.426  97.055  1.00  0.00     0.000 C 
BRANCH   3   4
ATOM      4  C   UNL     1      59.914   5.395  96.619  1.00  0.00     0.000 C 
BRANCH   4   5
ATOM      5  C   UNL     1      60.487   6.794  96.351  1.00  0.00     0.000 C 
BRANCH   5   6
ATOM      6  C   UNL     1      59.577   7.882  96.942  1.00  0.00     0.000 C 
BRANCH   6   7
ATOM      7  C   UNL     1      59.630   9.196  96.145  1.00  0.00     0.000 C 
BRANCH   7   8
ATOM      8  C   UNL     1      58.942   9.085  94.774  1.00  0.00     0.000 C 
BRANCH   8   9
ATOM      9  C   UNL     1      57.450   8.735  94.887  1.00  0.00     0.000 C 
BRANCH   9  10
ATOM     10  C   UNL     1      56.902   8.059  93.619  1.00  0.00     0.006 C 
BRANCH  10  11
ATOM     11  C   UNL     1      57.829   8.254  92.411  1.00  0.00     0.053 C 
BRANCH  11  12
ATOM     12  C   UNL     1      57.999   6.988  91.628  1.00  0.00     0.041 C 
ATOM     13  O   UNL     1      58.054   7.022  90.370  1.00  0.00    -0.550 OA
ATOM     14  O   UNL     1      58.067   5.767  92.287  1.00  0.00    -0.550 OA
ENDBRANCH  11  12
ENDBRANCH  10  11
ENDBRANCH   9  10
ENDBRANCH   8   9
ENDBRANCH   7   8
ENDBRANCH   6   7
ENDBRANCH   5   6
ENDBRANCH   4   5
ENDBRANCH   3   4
ENDBRANCH   2   3
ENDBRANCH   1   2
BRANCH   1  15
ATOM     15  C   UNL     1      57.084   2.517  95.791  1.00  0.00     0.000 C 
BRANCH  15  16
ATOM     16  C   UNL     1      58.100   1.376  95.951  1.00  0.00     0.000 C 
BRANCH  16  17
ATOM     17  C   UNL     1      59.309   1.765  96.820  1.00  0.00     0.000 C 
BRANCH  17  18
ATOM     18  C   UNL     1      60.511   0.807  96.734  1.00  0.00    -0.000 C 
BRANCH  18  19
ATOM     19  C   UNL     1      60.145  -0.556  96.118  1.00  0.00    -0.000 C 
BRANCH  19  20
ATOM     20  C   UNL     1      61.125  -0.988  95.014  1.00  0.00    -0.000 C 
BRANCH  20  21
ATOM     21  C   UNL     1      60.412  -1.561  93.779  1.00  0.00    -0.000 C 
BRANCH  21  22
ATOM     22  C   UNL     1      58.914  -1.761  94.056  1.00  0.00    -0.000 C 
BRANCH  22  23
ATOM     23  C   UNL     1      58.045  -1.557  92.804  1.00  0.00    -0.000 C 
BRANCH  23  24
ATOM     24  C   UNL     1      58.831  -0.944  91.631  1.00  0.00    -0.000 C 
BRANCH  24  25
ATOM     25  C   UNL     1      58.534   0.552  91.444  1.00  0.00    -0.003 C 
ATOM     26  C   UNL     1      57.356   1.034  92.291  1.00  0.00     0.004 C 
ENDBRANCH  24  25
ENDBRANCH  23  24
ENDBRANCH  22  23
ENDBRANCH  21  22
ENDBRANCH  20  21
ENDBRANCH  19  20
ENDBRANCH  18  19
ENDBRANCH  17  18
ENDBRANCH  16  17
ENDBRANCH  15  16
ENDBRANCH   1  15
TORSDOF 22
ENDMDL
MODEL 6
REMARK VINA RESULT:    -3.306      4.481      7.329
REMARK INTER + INTRA:         -11.037
REMARK INTER:                  -6.300
REMARK INTRA:                  -4.737
REMARK UNBOUND:                -3.479
REMARK SMILES CCCCCCCCCCCCCCCCCCCCCCCC(=O)[O-]
REMARK SMILES IDX 13 1 14 2 15 3 16 4 17 5 18 6 19 7 20 8 21 9 22 10 23 11
REMARK SMILES IDX 24 12 25 13 26 14 12 15 11 16 10 17 9 18 8 19 7 20 6 21 5 22
REMARK SMILES IDX 4 23 3 24 2 25 1 26
REMARK H PARENT
REMARK Flexibility Score: inf
ROOT
ATOM      1  C   UNL     1      58.612   1.461  97.052  1.00  0.00     0.000 C 
ENDROOT
BRANCH   1   2
ATOM      2  C   UNL     1      60.104   1.398  96.678  1.00  0.00     0.000 C 
BRANCH   2   3
ATOM      3  C   UNL     1      60.740  -0.004  96.751  1.00  0.00     0.000 C 
BRANCH   3   4
ATOM      4  C   UNL     1      60.262  -0.994  95.673  1.00  0.00     0.000 C 
BRANCH   4   5
ATOM      5  C   UNL     1      60.750  -0.624  94.265  1.00  0.00     0.000 C 
BRANCH   5   6
ATOM      6  C   UNL     1      59.582  -0.144  93.389  1.00  0.00     0.000 C 
BRANCH   6   7
ATOM      7  C   UNL     1      59.853  -0.329  91.887  1.00  0.00     0.000 C 
BRANCH   7   8
ATOM      8  C   UNL     1      58.639   0.038  91.017  1.00  0.00     0.000 C 
BRANCH   8   9
ATOM      9  C   UNL     1      57.973  -1.192  90.381  1.00  0.00     0.000 C 
BRANCH   9  10
ATOM     10  C   UNL     1      56.547  -1.430  90.904  1.00  0.00     0.006 C 
BRANCH  10  11
ATOM     11  C   UNL     1      55.994  -0.212  91.657  1.00  0.00     0.053 C 
BRANCH  11  12
ATOM     12  C   UNL     1      54.981   0.533  90.843  1.00  0.00     0.041 C 
ATOM     13  O   UNL     1      55.353   1.295  89.911  1.00  0.00    -0.550 OA
ATOM     14  O   UNL     1      53.628   0.410  91.133  1.00  0.00    -0.550 OA
ENDBRANCH  11  12
ENDBRANCH  10  11
ENDBRANCH   9  10
ENDBRANCH   8   9
ENDBRANCH   7   8
ENDBRANCH   6   7
ENDBRANCH   5   6
ENDBRANCH   4   5
ENDBRANCH   3   4
ENDBRANCH   2   3
ENDBRANCH   1   2
BRANCH   1  15
ATOM     15  C   UNL     1      57.706   1.744  95.845  1.00  0.00     0.000 C 
BRANCH  15  16
ATOM     16  C   UNL     1      56.723   0.587  95.611  1.00  0.00     0.000 C 
BRANCH  16  17
ATOM     17  C   UNL     1      56.805  -0.499  96.698  1.00  0.00     0.000 C 
BRANCH  17  18
ATOM     18  C   UNL     1      56.639  -1.944  96.192  1.00  0.00    -0.000 C 
BRANCH  18  19
ATOM     19  C   UNL     1      56.987  -2.097  94.701  1.00  0.00    -0.000 C 
BRANCH  19  20
ATOM     20  C   UNL     1      56.331  -3.334  94.065  1.00  0.00    -0.000 C 
BRANCH  20  21
ATOM     21  C   UNL     1      57.316  -4.164  93.226  1.00  0.00    -0.000 C 
BRANCH  21  22
ATOM     22  C   UNL     1      58.746  -3.617  93.363  1.00  0.00    -0.000 C 
BRANCH  22  23
ATOM     23  C   UNL     1      59.797  -4.531  92.713  1.00  0.00    -0.000 C 
BRANCH  23  24
ATOM     24  C   UNL     1      60.992  -3.747  92.141  1.00  0.00    -0.000 C 
BRANCH  24  25
ATOM     25  C   UNL     1      60.945  -3.642  90.608  1.00  0.00    -0.003 C 
ATOM     26  C   UNL     1      59.811  -4.460  89.992  1.00  0.00     0.004 C 
ENDBRANCH  24  25
ENDBRANCH  23  24
ENDBRANCH  22  23
ENDBRANCH  21  22
ENDBRANCH  20  21
ENDBRANCH  19  20
ENDBRANCH  18  19
ENDBRANCH  17  18
ENDBRANCH  16  17
ENDBRANCH  15  16
ENDBRANCH   1  15
TORSDOF 22
ENDMDL
MODEL 7
REMARK VINA RESULT:    -3.298      3.440      8.055
REMARK INTER + INTRA:         -11.017
REMARK INTER:                  -7.551
REMARK INTRA:                  -3.466
REMARK UNBOUND:                -3.479
REMARK SMILES CCCCCCCCCCCCCCCCCCCCCCCC(=O)[O-]
REMARK SMILES IDX 13 1 14 2 15 3 16 4 17 5 18 6 19 7 20 8 21 9 22 10 23 11
REMARK SMILES IDX 24 12 25 13 26 14 12 15 11 16 10 17 9 18 8 19 7 20 6 21 5 22
REMARK SMILES IDX 4 23 3 24 2 25 1 26
REMARK H PARENT
REMARK Flexibility Score: inf
ROOT
ATOM      1  C   UNL     1      55.645   3.652  93.985  1.00  0.00     0.000 C 
ENDROOT
BRANCH   1   2
ATOM      2  C   UNL     1      54.964   2.925  95.159  1.00  0.00     0.000 C 
BRANCH   2   3
ATOM      3  C   UNL     1      55.577   1.559  95.528  1.00  0.00     0.000 C 
BRANCH   3   4
ATOM      4  C   UNL     1      56.529   1.576  96.737  1.00  0.00     0.000 C 
BRANCH   4   5
ATOM      5  C   UNL     1      57.860   0.864  96.458  1.00  0.00     0.000 C 
BRANCH   5   6
ATOM      6  C   UNL     1      59.051   1.785  96.768  1.00  0.00     0.000 C 
BRANCH   6   7
ATOM      7  C   UNL     1      60.385   1.026  96.839  1.00  0.00     0.000 C 
BRANCH   7   8
ATOM      8  C   UNL     1      60.264  -0.430  96.356  1.00  0.00     0.000 C 
BRANCH   8   9
ATOM      9  C   UNL     1      60.999  -0.675  95.029  1.00  0.00     0.000 C 
BRANCH   9  10
ATOM     10  C   UNL     1      60.039  -0.783  93.832  1.00  0.00     0.006 C 
BRANCH  10  11
ATOM     11  C   UNL     1      59.119  -2.008  93.934  1.00  0.00     0.053 C 
BRANCH  11  12
ATOM     12  C   UNL     1      57.672  -1.624  93.885  1.00  0.00     0.041 C 
ATOM     13  O   UNL     1      56.863  -2.095  94.728  1.00  0.00    -0.550 OA
ATOM     14  O   UNL     1      57.212  -0.770  92.891  1.00  0.00    -0.550 OA
ENDBRANCH  11  12
ENDBRANCH  10  11
ENDBRANCH   9  10
ENDBRANCH   8   9
ENDBRANCH   7   8
ENDBRANCH   6   7
ENDBRANCH   5   6
ENDBRANCH   4   5
ENDBRANCH   3   4
ENDBRANCH   2   3
ENDBRANCH   1   2
BRANCH   1  15
ATOM     15  C   UNL     1      56.780   4.581  94.438  1.00  0.00     0.000 C 
BRANCH  15  16
ATOM     16  C   UNL     1      56.456   5.225  95.794  1.00  0.00     0.000 C 
BRANCH  16  17
ATOM     17  C   UNL     1      57.706   5.468  96.658  1.00  0.00     0.000 C 
BRANCH  17  18
ATOM     18  C   UNL     1      59.049   5.208  95.951  1.00  0.00    -0.000 C 
BRANCH  18  19
ATOM     19  C   UNL     1      60.257   5.717  96.758  1.00  0.00    -0.000 C 
BRANCH  19  20
ATOM     20  C   UNL     1      60.939   6.928  96.100  1.00  0.00    -0.000 C 
BRANCH  20  21
ATOM     21  C   UNL     1      60.319   8.266  96.532  1.00  0.00    -0.000 C 
BRANCH  21  22
ATOM     22  C   UNL     1      59.800   9.046  95.313  1.00  0.00    -0.000 C 
BRANCH  22  23
ATOM     23  C   UNL     1      58.351   8.687  94.950  1.00  0.00    -0.000 C 
BRANCH  23  24
ATOM     24  C   UNL     1      58.167   8.414  93.445  1.00  0.00    -0.000 C 
BRANCH  24  25
ATOM     25  C   UNL     1      58.949   7.178  92.974  1.00  0.00    -0.003 C 
ATOM     26  C   UNL     1      58.808   6.924  91.473  1.00  0.00     0.004 C 
ENDBRANCH  24  25
ENDBRANCH  23  24
ENDBRANCH  22  23
ENDBRANCH  21  22
ENDBRANCH  20  21
ENDBRANCH  19  20
ENDBRANCH  18  19
ENDBRANCH  17  18
ENDBRANCH  16  17
ENDBRANCH  15  16
ENDBRANCH   1  15
TORSDOF 22
ENDMDL
MODEL 8
REMARK VINA RESULT:    -3.293      4.028      7.620
REMARK INTER + INTRA:         -11.007
REMARK INTER:                  -7.498
REMARK INTRA:                  -3.508
REMARK UNBOUND:                -3.479
REMARK SMILES CCCCCCCCCCCCCCCCCCCCCCCC(=O)[O-]
REMARK SMILES IDX 13 1 14 2 15 3 16 4 17 5 18 6 19 7 20 8 21 9 22 10 23 11
REMARK SMILES IDX 24 12 25 13 26 14 12 15 11 16 10 17 9 18 8 19 7 20 6 21 5 22
REMARK SMILES IDX 4 23 3 24 2 25 1 26
REMARK H PARENT
REMARK Flexibility Score: inf
ROOT
ATOM      1  C   UNL     1      59.998  -1.451  92.701  1.00  0.00     0.000 C 
ENDROOT
BRANCH   1   2
ATOM      2  C   UNL     1      60.538  -1.625  94.132  1.00  0.00     0.000 C 
BRANCH   2   3
ATOM      3  C   UNL     1      60.885  -0.314  94.865  1.00  0.00     0.000 C 
BRANCH   3   4
ATOM      4  C   UNL     1      60.719  -0.358  96.395  1.00  0.00     0.000 C 
BRANCH   4   5
ATOM      5  C   UNL     1      60.005   0.881  96.954  1.00  0.00     0.000 C 
BRANCH   5   6
ATOM      6  C   UNL     1      58.826   1.287  96.055  1.00  0.00     0.000 C 
BRANCH   6   7
ATOM      7  C   UNL     1      57.604   1.761  96.858  1.00  0.00     0.000 C 
BRANCH   7   8
ATOM      8  C   UNL     1      56.364   0.881  96.625  1.00  0.00     0.000 C 
BRANCH   8   9
ATOM      9  C   UNL     1      56.677  -0.619  96.721  1.00  0.00     0.000 C 
BRANCH   9  10
ATOM     10  C   UNL     1      55.671  -1.485  95.945  1.00  0.00     0.006 C 
BRANCH  10  11
ATOM     11  C   UNL     1      55.612  -2.924  96.476  1.00  0.00     0.053 C 
BRANCH  11  12
ATOM     12  C   UNL     1      55.794  -3.931  95.382  1.00  0.00     0.041 C 
ATOM     13  O   UNL     1      55.787  -5.163  95.645  1.00  0.00    -0.550 OA
ATOM     14  O   UNL     1      56.000  -3.508  94.075  1.00  0.00    -0.550 OA
ENDBRANCH  11  12
ENDBRANCH  10  11
ENDBRANCH   9  10
ENDBRANCH   8   9
ENDBRANCH   7   8
ENDBRANCH   6   7
ENDBRANCH   5   6
ENDBRANCH   4   5
ENDBRANCH   3   4
ENDBRANCH   2   3
ENDBRANCH   1   2
BRANCH   1  15
ATOM     15  C   UNL     1      59.098  -0.216  92.550  1.00  0.00     0.000 C 
BRANCH  15  16
ATOM     16  C   UNL     1      57.686  -0.496  93.087  1.00  0.00     0.000 C 
BRANCH  16  17
ATOM     17  C   UNL     1      56.607   0.379  92.426  1.00  0.00     0.000 C 
BRANCH  17  18
ATOM     18  C   UNL     1      57.141   1.577  91.619  1.00  0.00    -0.000 C 
BRANCH  18  19
ATOM     19  C   UNL     1      56.934   2.921  92.339  1.00  0.00    -0.000 C 
BRANCH  19  20
ATOM     20  C   UNL     1      55.784   2.875  93.359  1.00  0.00    -0.000 C 
BRANCH  20  21
ATOM     21  C   UNL     1      55.904   3.962  94.439  1.00  0.00    -0.000 C 
BRANCH  21  22
ATOM     22  C   UNL     1      57.305   4.593  94.427  1.00  0.00    -0.000 C 
BRANCH  22  23
ATOM     23  C   UNL     1      57.623   5.362  95.719  1.00  0.00    -0.000 C 
BRANCH  23  24
ATOM     24  C   UNL     1      59.094   5.215  96.150  1.00  0.00    -0.000 C 
BRANCH  24  25
ATOM     25  C   UNL     1      59.720   6.554  96.567  1.00  0.00    -0.003 C 
ATOM     26  C   UNL     1      61.122   6.758  95.991  1.00  0.00     0.004 C 
ENDBRANCH  24  25
ENDBRANCH  23  24
ENDBRANCH  22  23
ENDBRANCH  21  22
ENDBRANCH  20  21
ENDBRANCH  19  20
ENDBRANCH  18  19
ENDBRANCH  17  18
ENDBRANCH  16  17
ENDBRANCH  15  16
ENDBRANCH   1  15
TORSDOF 22
ENDMDL
MODEL 9
REMARK VINA RESULT:    -3.277      4.509      7.491
REMARK INTER + INTRA:         -10.971
REMARK INTER:                  -6.563
REMARK INTRA:                  -4.408
REMARK UNBOUND:                -3.479
REMARK SMILES CCCCCCCCCCCCCCCCCCCCCCCC(=O)[O-]
REMARK SMILES IDX 13 1 14 2 15 3 16 4 17 5 18 6 19 7 20 8 21 9 22 10 23 11
REMARK SMILES IDX 24 12 25 13 26 14 12 15 11 16 10 17 9 18 8 19 7 20 6 21 5 22
REMARK SMILES IDX 4 23 3 24 2 25 1 26
REMARK H PARENT
REMARK Flexibility Score: inf
ROOT
ATOM      1  C   UNL     1      60.744   0.015  96.752  1.00  0.00     0.000 C 
ENDROOT
BRANCH   1   2
ATOM      2  C   UNL     1      60.049  -0.703  95.581  1.00  0.00     0.000 C 
BRANCH   2   3
ATOM      3  C   UNL     1      60.997  -1.296  94.520  1.00  0.00     0.000 C 
BRANCH   3   4
ATOM      4  C   UNL     1      60.453  -1.286  93.081  1.00  0.00     0.000 C 
BRANCH   4   5
ATOM      5  C   UNL     1      59.345  -0.245  92.868  1.00  0.00     0.000 C 
BRANCH   5   6
ATOM      6  C   UNL     1      59.276   0.191  91.396  1.00  0.00     0.000 C 
BRANCH   6   7
ATOM      7  C   UNL     1      57.848   0.147  90.830  1.00  0.00     0.000 C 
BRANCH   7   8
ATOM      8  C   UNL     1      56.920  -0.780  91.635  1.00  0.00     0.000 C 
BRANCH   8   9
ATOM      9  C   UNL     1      56.112  -1.730  90.740  1.00  0.00     0.000 C 
BRANCH   9  10
ATOM     10  C   UNL     1      56.329  -3.210  91.098  1.00  0.00     0.006 C 
BRANCH  10  11
ATOM     11  C   UNL     1      57.556  -3.416  91.997  1.00  0.00     0.053 C 
BRANCH  11  12
ATOM     12  C   UNL     1      58.727  -3.946  91.228  1.00  0.00     0.041 C 
ATOM     13  O   UNL     1      59.266  -3.247  90.330  1.00  0.00    -0.550 OA
ATOM     14  O   UNL     1      59.206  -5.225  91.485  1.00  0.00    -0.550 OA
ENDBRANCH  11  12
ENDBRANCH  10  11
ENDBRANCH   9  10
ENDBRANCH   8   9
ENDBRANCH   7   8
ENDBRANCH   6   7
ENDBRANCH   5   6
ENDBRANCH   4   5
ENDBRANCH   3   4
ENDBRANCH   2   3
ENDBRANCH   1   2
BRANCH   1  15
ATOM     15  C   UNL     1      60.269   1.465  96.929  1.00  0.00     0.000 C 
BRANCH  15  16
ATOM     16  C   UNL     1      58.755   1.579  96.699  1.00  0.00     0.000 C 
BRANCH  16  17
ATOM     17  C   UNL     1      58.271   3.037  96.598  1.00  0.00     0.000 C 
BRANCH  17  18
ATOM     18  C   UNL     1      57.430   3.360  95.349  1.00  0.00    -0.000 C 
BRANCH  18  19
ATOM     19  C   UNL     1      57.096   2.110  94.514  1.00  0.00    -0.000 C 
BRANCH  19  20
ATOM     20  C   UNL     1      56.190   2.427  93.313  1.00  0.00    -0.000 C 
BRANCH  20  21
ATOM     21  C   UNL     1      54.809   1.759  93.419  1.00  0.00    -0.000 C 
BRANCH  21  22
ATOM     22  C   UNL     1      54.795   0.706  94.538  1.00  0.00    -0.000 C 
BRANCH  22  23
ATOM     23  C   UNL     1      54.474  -0.706  94.022  1.00  0.00    -0.000 C 
BRANCH  23  24
ATOM     24  C   UNL     1      54.992  -1.812  94.959  1.00  0.00    -0.000 C 
BRANCH  24  25
ATOM     25  C   UNL     1      56.499  -1.688  95.237  1.00  0.00    -0.003 C 
ATOM     26  C   UNL     1      56.831  -1.718  96.729  1.00  0.00     0.004 C 
ENDBRANCH  24  25
ENDBRANCH  23  24
ENDBRANCH  22  23
ENDBRANCH  21  22
ENDBRANCH  20  21
ENDBRANCH  19  20
ENDBRANCH  18  19
ENDBRANCH  17  18
ENDBRANCH  16  17
ENDBRANCH  15  16
ENDBRANCH   1  15
TORSDOF 22
ENDMDL
