MODEL 1
REMARK VINA RESULT:    -7.132      0.000      0.000
REMARK INTER + INTRA:         -11.833
REMARK INTER:                 -10.467
REMARK INTRA:                  -1.366
REMARK UNBOUND:                -1.366
REMARK SMILES O=c1c(O[C@@H]2O[C@@H](CO)[C@H](O)[C@H](O)[C@H]2O)c(-c2ccc(O)c(O)c2)oc2cc(O)cc(O)c12
REMARK SMILES IDX 4 1 3 2 16 3 25 4 2 5 26 6 1 7 33 8 27 9 31 10 28 11 30 12
REMARK SMILES IDX 17 13 18 14 19 15 20 16 24 17 22 18 21 19 23 21 32 23 29 25
REMARK SMILES IDX 5 27 14 28 6 29 12 30 7 31 10 32 15 33 13 35 8 37 9 38 11 40
REMARK H PARENT 21 20 23 22 32 24 29 26 15 34 13 36 9 39 11 41
REMARK Flexibility Score: inf
ROOT
ATOM      1  O   UNL     1      14.976 -35.222  -1.472  1.00  0.00    -0.454 OA
ENDROOT
BRANCH   1   2
ATOM      2  C   UNL     1      14.266 -36.020  -2.382  1.00  0.00     0.214 A 
ATOM      3  C   UNL     1      14.851 -37.152  -2.982  1.00  0.00     0.180 A 
ATOM      4  O   UNL     1      14.114 -37.933  -3.763  1.00  0.00    -0.452 OA
ATOM      5  C   UNL     1      12.945 -35.687  -2.705  1.00  0.00     0.239 A 
ATOM      6  C   UNL     1      12.850 -37.674  -4.075  1.00  0.00     0.146 A 
ATOM      7  O   UNL     1      12.430 -34.679  -2.157  1.00  0.00    -0.285 OA
ATOM      8  C   UNL     1      12.209 -36.500  -3.599  1.00  0.00     0.111 A 
ATOM      9  C   UNL     1      12.162 -38.580  -4.884  1.00  0.00     0.094 A 
ATOM     10  C   UNL     1      10.869 -36.241  -4.016  1.00  0.00     0.134 A 
ATOM     11  C   UNL     1      10.836 -38.347  -5.238  1.00  0.00     0.123 A 
ATOM     12  C   UNL     1      10.196 -37.184  -4.802  1.00  0.00     0.093 A 
BRANCH   3  13
ATOM     13  C   UNL     1      16.269 -37.520  -2.770  1.00  0.00     0.025 A 
ATOM     14  C   UNL     1      17.266 -36.903  -3.540  1.00  0.00     0.016 A 
ATOM     15  C   UNL     1      18.609 -37.244  -3.361  1.00  0.00     0.051 A 
ATOM     16  C   UNL     1      18.973 -38.197  -2.400  1.00  0.00     0.157 A 
ATOM     17  C   UNL     1      16.641 -38.460  -1.791  1.00  0.00     0.062 A 
ATOM     18  C   UNL     1      17.988 -38.803  -1.611  1.00  0.00     0.158 A 
BRANCH  16  19
ATOM     19  O   UNL     1      20.311 -38.543  -2.220  1.00  0.00    -0.504 OA
ATOM     20  H   UNL     1      20.991 -38.430  -2.963  1.00  0.00     0.293 HD
ENDBRANCH  16  19
BRANCH  18  21
ATOM     21  O   UNL     1      18.355 -39.742  -0.652  1.00  0.00    -0.504 OA
ATOM     22  H   UNL     1      17.783 -39.918   0.166  1.00  0.00     0.293 HD
ENDBRANCH  18  21
ENDBRANCH   3  13
BRANCH  10  23
ATOM     23  O   UNL     1      10.168 -35.072  -3.710  1.00  0.00    -0.507 OA
ATOM     24  H   UNL     1      10.574 -34.150  -3.675  1.00  0.00     0.293 HD
ENDBRANCH  10  23
BRANCH  11  25
ATOM     25  O   UNL     1      10.163 -39.274  -6.031  1.00  0.00    -0.508 OA
ATOM     26  H   UNL     1      10.123 -39.178  -7.038  1.00  0.00     0.293 HD
ENDBRANCH  11  25
ENDBRANCH   1   2
BRANCH   1  27
ATOM     27  C   UNL     1      15.176 -35.571  -0.098  1.00  0.00     0.339 C 
ATOM     28  C   UNL     1      16.481 -34.947   0.425  1.00  0.00     0.214 C 
ATOM     29  O   UNL     1      14.056 -35.155   0.669  1.00  0.00    -0.332 OA
ATOM     30  C   UNL     1      16.679 -35.333   1.898  1.00  0.00     0.180 C 
ATOM     31  C   UNL     1      14.148 -35.532   2.037  1.00  0.00     0.179 C 
ATOM     32  C   UNL     1      15.422 -34.975   2.712  1.00  0.00     0.177 C 
BRANCH  28  33
ATOM     33  O   UNL     1      17.557 -35.422  -0.341  1.00  0.00    -0.384 OA
ATOM     34  H   UNL     1      18.313 -35.569   0.284  1.00  0.00     0.211 HD
ENDBRANCH  28  33
BRANCH  30  35
ATOM     35  O   UNL     1      17.797 -34.659   2.415  1.00  0.00    -0.387 OA
ATOM     36  H   UNL     1      18.281 -34.267   1.641  1.00  0.00     0.211 HD
ENDBRANCH  30  35
BRANCH  31  37
ATOM     37  C   UNL     1      13.950 -37.046   2.258  1.00  0.00     0.191 C 
BRANCH  37  38
ATOM     38  O   UNL     1      12.871 -37.278   3.125  1.00  0.00    -0.394 OA
ATOM     39  H   UNL     1      13.136 -36.920   4.012  1.00  0.00     0.210 HD
ENDBRANCH  37  38
ENDBRANCH  31  37
BRANCH  32  40
ATOM     40  O   UNL     1      15.300 -33.578   2.818  1.00  0.00    -0.387 OA
ATOM     41  H   UNL     1      15.312 -33.213   1.894  1.00  0.00     0.211 HD
ENDBRANCH  32  40
ENDBRANCH   1  27
TORSDOF 12
ENDMDL
MODEL 2
REMARK VINA RESULT:    -6.647      1.528      2.852
REMARK INTER + INTRA:         -11.122
REMARK INTER:                 -10.622
REMARK INTRA:                  -0.500
REMARK UNBOUND:                -1.366
REMARK SMILES O=c1c(O[C@@H]2O[C@@H](CO)[C@H](O)[C@H](O)[C@H]2O)c(-c2ccc(O)c(O)c2)oc2cc(O)cc(O)c12
REMARK SMILES IDX 4 1 3 2 16 3 25 4 2 5 26 6 1 7 33 8 27 9 31 10 28 11 30 12
REMARK SMILES IDX 17 13 18 14 19 15 20 16 24 17 22 18 21 19 23 21 32 23 29 25
REMARK SMILES IDX 5 27 14 28 6 29 12 30 7 31 10 32 15 33 13 35 8 37 9 38 11 40
REMARK H PARENT 21 20 23 22 32 24 29 26 15 34 13 36 9 39 11 41
REMARK Flexibility Score: inf
ROOT
ATOM      1  O   UNL     1      15.296 -34.309  -1.178  1.00  0.00    -0.454 OA
ENDROOT
BRANCH   1   2
ATOM      2  C   UNL     1      14.248 -34.833  -1.950  1.00  0.00     0.214 A 
ATOM      3  C   UNL     1      14.281 -36.152  -2.441  1.00  0.00     0.180 A 
ATOM      4  O   UNL     1      13.228 -36.638  -3.086  1.00  0.00    -0.452 OA
ATOM      5  C   UNL     1      13.141 -34.028  -2.245  1.00  0.00     0.239 A 
ATOM      6  C   UNL     1      12.144 -35.922  -3.363  1.00  0.00     0.146 A 
ATOM      7  O   UNL     1      13.117 -32.853  -1.794  1.00  0.00    -0.285 OA
ATOM      8  C   UNL     1      12.064 -34.553  -2.998  1.00  0.00     0.111 A 
ATOM      9  C   UNL     1      11.083 -36.545  -4.024  1.00  0.00     0.094 A 
ATOM     10  C   UNL     1      10.901 -33.816  -3.375  1.00  0.00     0.134 A 
ATOM     11  C   UNL     1       9.929 -35.831  -4.336  1.00  0.00     0.123 A 
ATOM     12  C   UNL     1       9.842 -34.476  -4.010  1.00  0.00     0.093 A 
BRANCH   3  13
ATOM     13  C   UNL     1      15.453 -37.039  -2.257  1.00  0.00     0.025 A 
ATOM     14  C   UNL     1      15.386 -38.089  -1.330  1.00  0.00     0.016 A 
ATOM     15  C   UNL     1      16.484 -38.931  -1.136  1.00  0.00     0.051 A 
ATOM     16  C   UNL     1      17.659 -38.741  -1.875  1.00  0.00     0.157 A 
ATOM     17  C   UNL     1      16.627 -36.865  -3.013  1.00  0.00     0.062 A 
ATOM     18  C   UNL     1      17.729 -37.709  -2.819  1.00  0.00     0.158 A 
BRANCH  16  19
ATOM     19  O   UNL     1      18.758 -39.575  -1.683  1.00  0.00    -0.504 OA
ATOM     20  H   UNL     1      18.892 -40.410  -2.240  1.00  0.00     0.293 HD
ENDBRANCH  16  19
BRANCH  18  21
ATOM     21  O   UNL     1      18.894 -37.529  -3.559  1.00  0.00    -0.504 OA
ATOM     22  H   UNL     1      19.426 -36.668  -3.512  1.00  0.00     0.293 HD
ENDBRANCH  18  21
ENDBRANCH   3  13
BRANCH  10  23
ATOM     23  O   UNL     1      10.749 -32.443  -3.175  1.00  0.00    -0.507 OA
ATOM     24  H   UNL     1      10.822 -31.743  -3.898  1.00  0.00     0.293 HD
ENDBRANCH  10  23
BRANCH  11  25
ATOM     25  O   UNL     1       8.875 -36.477  -4.979  1.00  0.00    -0.508 OA
ATOM     26  H   UNL     1       9.006 -36.946  -5.867  1.00  0.00     0.293 HD
ENDBRANCH  11  25
ENDBRANCH   1   2
BRANCH   1  27
ATOM     27  C   UNL     1      15.502 -34.631   0.202  1.00  0.00     0.339 C 
ATOM     28  C   UNL     1      14.158 -34.948   0.880  1.00  0.00     0.214 C 
ATOM     29  O   UNL     1      16.407 -35.720   0.309  1.00  0.00    -0.332 OA
ATOM     30  C   UNL     1      14.397 -35.290   2.357  1.00  0.00     0.180 C 
ATOM     31  C   UNL     1      16.719 -36.054   1.655  1.00  0.00     0.179 C 
ATOM     32  C   UNL     1      15.457 -36.401   2.478  1.00  0.00     0.177 C 
BRANCH  28  33
ATOM     33  O   UNL     1      13.318 -33.828   0.780  1.00  0.00    -0.384 OA
ATOM     34  H   UNL     1      12.774 -33.800   1.610  1.00  0.00     0.211 HD
ENDBRANCH  28  33
BRANCH  30  35
ATOM     35  O   UNL     1      13.192 -35.706   2.946  1.00  0.00    -0.387 OA
ATOM     36  H   UNL     1      12.826 -36.428   2.372  1.00  0.00     0.211 HD
ENDBRANCH  30  35
BRANCH  31  37
ATOM     37  C   UNL     1      17.628 -35.011   2.338  1.00  0.00     0.191 C 
BRANCH  37  38
ATOM     38  O   UNL     1      18.817 -34.847   1.611  1.00  0.00    -0.394 OA
ATOM     39  H   UNL     1      18.739 -33.983   1.127  1.00  0.00     0.210 HD
ENDBRANCH  37  38
ENDBRANCH  31  37
BRANCH  32  40
ATOM     40  O   UNL     1      14.933 -37.617   2.005  1.00  0.00    -0.387 OA
ATOM     41  H   UNL     1      14.005 -37.436   1.700  1.00  0.00     0.211 HD
ENDBRANCH  32  40
ENDBRANCH   1  27
TORSDOF 12
ENDMDL
MODEL 3
REMARK VINA RESULT:    -6.614      1.196      2.135
REMARK INTER + INTRA:         -11.074
REMARK INTER:                 -10.549
REMARK INTRA:                  -0.525
REMARK UNBOUND:                -1.366
REMARK SMILES O=c1c(O[C@@H]2O[C@@H](CO)[C@H](O)[C@H](O)[C@H]2O)c(-c2ccc(O)c(O)c2)oc2cc(O)cc(O)c12
REMARK SMILES IDX 4 1 3 2 16 3 25 4 2 5 26 6 1 7 33 8 27 9 31 10 28 11 30 12
REMARK SMILES IDX 17 13 18 14 19 15 20 16 24 17 22 18 21 19 23 21 32 23 29 25
REMARK SMILES IDX 5 27 14 28 6 29 12 30 7 31 10 32 15 33 13 35 8 37 9 38 11 40
REMARK H PARENT 21 20 23 22 32 24 29 26 15 34 13 36 9 39 11 41
REMARK Flexibility Score: inf
ROOT
ATOM      1  O   UNL     1      15.116 -34.353  -1.944  1.00  0.00    -0.454 OA
ENDROOT
BRANCH   1   2
ATOM      2  C   UNL     1      14.235 -35.208  -2.624  1.00  0.00     0.214 A 
ATOM      3  C   UNL     1      14.601 -36.525  -2.963  1.00  0.00     0.180 A 
ATOM      4  O   UNL     1      13.705 -37.330  -3.521  1.00  0.00    -0.452 OA
ATOM      5  C   UNL     1      12.962 -34.745  -2.978  1.00  0.00     0.239 A 
ATOM      6  C   UNL     1      12.477 -36.945  -3.847  1.00  0.00     0.146 A 
ATOM      7  O   UNL     1      12.642 -33.570  -2.663  1.00  0.00    -0.285 OA
ATOM      8  C   UNL     1      12.054 -35.607  -3.638  1.00  0.00     0.111 A 
ATOM      9  C   UNL     1      11.608 -37.886  -4.404  1.00  0.00     0.094 A 
ATOM     10  C   UNL     1      10.744 -35.233  -4.064  1.00  0.00     0.134 A 
ATOM     11  C   UNL     1      10.312 -37.525  -4.764  1.00  0.00     0.123 A 
ATOM     12  C   UNL     1       9.886 -36.206  -4.591  1.00  0.00     0.093 A 
BRANCH   3  13
ATOM     13  C   UNL     1      15.957 -37.062  -2.712  1.00  0.00     0.025 A 
ATOM     14  C   UNL     1      17.043 -36.569  -3.451  1.00  0.00     0.016 A 
ATOM     15  C   UNL     1      18.330 -37.070  -3.235  1.00  0.00     0.051 A 
ATOM     16  C   UNL     1      18.549 -38.061  -2.269  1.00  0.00     0.157 A 
ATOM     17  C   UNL     1      16.185 -38.042  -1.728  1.00  0.00     0.062 A 
ATOM     18  C   UNL     1      17.476 -38.544  -1.511  1.00  0.00     0.158 A 
BRANCH  16  19
ATOM     19  O   UNL     1      19.829 -38.566  -2.053  1.00  0.00    -0.504 OA
ATOM     20  H   UNL     1      20.105 -38.940  -1.153  1.00  0.00     0.293 HD
ENDBRANCH  16  19
BRANCH  18  21
ATOM     21  O   UNL     1      17.699 -39.522  -0.546  1.00  0.00    -0.504 OA
ATOM     22  H   UNL     1      18.264 -40.341  -0.739  1.00  0.00     0.293 HD
ENDBRANCH  18  21
ENDBRANCH   3  13
BRANCH  10  23
ATOM     23  O   UNL     1      10.251 -33.928  -4.017  1.00  0.00    -0.507 OA
ATOM     24  H   UNL     1      10.686 -33.164  -3.522  1.00  0.00     0.293 HD
ENDBRANCH  10  23
BRANCH  11  25
ATOM     25  O   UNL     1       9.456 -38.483  -5.302  1.00  0.00    -0.508 OA
ATOM     26  H   UNL     1       8.659 -38.831  -4.783  1.00  0.00     0.293 HD
ENDBRANCH  11  25
ENDBRANCH   1   2
BRANCH   1  27
ATOM     27  C   UNL     1      15.279 -34.350  -0.522  1.00  0.00     0.339 C 
ATOM     28  C   UNL     1      14.009 -33.808   0.157  1.00  0.00     0.214 C 
ATOM     29  O   UNL     1      15.589 -35.661  -0.074  1.00  0.00    -0.332 OA
ATOM     30  C   UNL     1      14.202 -33.811   1.680  1.00  0.00     0.180 C 
ATOM     31  C   UNL     1      15.837 -35.726   1.325  1.00  0.00     0.179 C 
ATOM     32  C   UNL     1      14.639 -35.210   2.155  1.00  0.00     0.177 C 
BRANCH  28  33
ATOM     33  O   UNL     1      13.772 -32.499  -0.290  1.00  0.00    -0.384 OA
ATOM     34  H   UNL     1      14.150 -32.434  -1.205  1.00  0.00     0.211 HD
ENDBRANCH  28  33
BRANCH  30  35
ATOM     35  O   UNL     1      13.002 -33.442   2.307  1.00  0.00    -0.387 OA
ATOM     36  H   UNL     1      13.019 -32.454   2.405  1.00  0.00     0.211 HD
ENDBRANCH  30  35
BRANCH  31  37
ATOM     37  C   UNL     1      17.182 -35.088   1.727  1.00  0.00     0.191 C 
BRANCH  37  38
ATOM     38  O   UNL     1      18.202 -35.502   0.856  1.00  0.00    -0.394 OA
ATOM     39  H   UNL     1      18.320 -34.776   0.189  1.00  0.00     0.210 HD
ENDBRANCH  37  38
ENDBRANCH  31  37
BRANCH  32  40
ATOM     40  O   UNL     1      13.574 -36.117   2.020  1.00  0.00    -0.387 OA
ATOM     41  H   UNL     1      13.939 -36.933   1.588  1.00  0.00     0.211 HD
ENDBRANCH  32  40
ENDBRANCH   1  27
TORSDOF 12
ENDMDL
MODEL 4
REMARK VINA RESULT:    -6.590      2.424      5.327
REMARK INTER + INTRA:         -11.039
REMARK INTER:                  -9.930
REMARK INTRA:                  -1.108
REMARK UNBOUND:                -1.366
REMARK SMILES O=c1c(O[C@@H]2O[C@@H](CO)[C@H](O)[C@H](O)[C@H]2O)c(-c2ccc(O)c(O)c2)oc2cc(O)cc(O)c12
REMARK SMILES IDX 4 1 3 2 16 3 25 4 2 5 26 6 1 7 33 8 27 9 31 10 28 11 30 12
REMARK SMILES IDX 17 13 18 14 19 15 20 16 24 17 22 18 21 19 23 21 32 23 29 25
REMARK SMILES IDX 5 27 14 28 6 29 12 30 7 31 10 32 15 33 13 35 8 37 9 38 11 40
REMARK H PARENT 21 20 23 22 32 24 29 26 15 34 13 36 9 39 11 41
REMARK Flexibility Score: inf
ROOT
ATOM      1  O   UNL     1      15.287 -34.585  -2.107  1.00  0.00    -0.454 OA
ENDROOT
BRANCH   1   2
ATOM      2  C   UNL     1      14.195 -34.517  -1.229  1.00  0.00     0.214 A 
ATOM      3  C   UNL     1      14.292 -34.956   0.105  1.00  0.00     0.180 A 
ATOM      4  O   UNL     1      13.264 -34.786   0.927  1.00  0.00    -0.452 OA
ATOM      5  C   UNL     1      12.975 -34.001  -1.687  1.00  0.00     0.239 A 
ATOM      6  C   UNL     1      12.099 -34.275   0.547  1.00  0.00     0.146 A 
ATOM      7  O   UNL     1      12.902 -33.604  -2.878  1.00  0.00    -0.285 OA
ATOM      8  C   UNL     1      11.874 -33.900  -0.803  1.00  0.00     0.111 A 
ATOM      9  C   UNL     1      11.095 -34.116   1.504  1.00  0.00     0.094 A 
ATOM     10  C   UNL     1      10.583 -33.414  -1.168  1.00  0.00     0.134 A 
ATOM     11  C   UNL     1       9.856 -33.587   1.149  1.00  0.00     0.123 A 
ATOM     12  C   UNL     1       9.607 -33.238  -0.180  1.00  0.00     0.093 A 
BRANCH   3  13
ATOM     13  C   UNL     1      15.512 -35.600   0.642  1.00  0.00     0.025 A 
ATOM     14  C   UNL     1      15.514 -36.982   0.886  1.00  0.00     0.016 A 
ATOM     15  C   UNL     1      16.652 -37.607   1.401  1.00  0.00     0.051 A 
ATOM     16  C   UNL     1      17.808 -36.860   1.667  1.00  0.00     0.157 A 
ATOM     17  C   UNL     1      16.682 -34.859   0.890  1.00  0.00     0.062 A 
ATOM     18  C   UNL     1      17.824 -35.485   1.407  1.00  0.00     0.158 A 
BRANCH  16  19
ATOM     19  O   UNL     1      18.944 -37.478   2.184  1.00  0.00    -0.504 OA
ATOM     20  H   UNL     1      19.093 -37.561   3.183  1.00  0.00     0.293 HD
ENDBRANCH  16  19
BRANCH  18  21
ATOM     21  O   UNL     1      18.977 -34.748   1.664  1.00  0.00    -0.504 OA
ATOM     22  H   UNL     1      19.243 -34.488   2.607  1.00  0.00     0.293 HD
ENDBRANCH  18  21
ENDBRANCH   3  13
BRANCH  10  23
ATOM     23  O   UNL     1      10.202 -33.119  -2.479  1.00  0.00    -0.507 OA
ATOM     24  H   UNL     1       9.638 -32.329  -2.751  1.00  0.00     0.293 HD
ENDBRANCH  10  23
BRANCH  11  25
ATOM     25  O   UNL     1       8.875 -33.420   2.124  1.00  0.00    -0.508 OA
ATOM     26  H   UNL     1       8.982 -33.809   3.053  1.00  0.00     0.293 HD
ENDBRANCH  11  25
ENDBRANCH   1   2
BRANCH   1  27
ATOM     27  C   UNL     1      15.616 -35.748  -2.875  1.00  0.00     0.339 C 
ATOM     28  C   UNL     1      17.110 -36.082  -2.720  1.00  0.00     0.214 C 
ATOM     29  O   UNL     1      14.795 -36.834  -2.472  1.00  0.00    -0.332 OA
ATOM     30  C   UNL     1      17.444 -37.329  -3.550  1.00  0.00     0.180 C 
ATOM     31  C   UNL     1      15.014 -38.010  -3.241  1.00  0.00     0.179 C 
ATOM     32  C   UNL     1      16.486 -38.479  -3.186  1.00  0.00     0.177 C 
BRANCH  28  33
ATOM     33  O   UNL     1      17.873 -34.993  -3.168  1.00  0.00    -0.384 OA
ATOM     34  H   UNL     1      18.689 -35.367  -3.591  1.00  0.00     0.211 HD
ENDBRANCH  28  33
BRANCH  30  35
ATOM     35  O   UNL     1      18.773 -37.714  -3.308  1.00  0.00    -0.387 OA
ATOM     36  H   UNL     1      19.065 -38.250  -4.091  1.00  0.00     0.211 HD
ENDBRANCH  30  35
BRANCH  31  37
ATOM     37  C   UNL     1      14.458 -37.902  -4.676  1.00  0.00     0.191 C 
BRANCH  37  38
ATOM     38  O   UNL     1      13.332 -37.065  -4.703  1.00  0.00    -0.394 OA
ATOM     39  H   UNL     1      12.650 -37.484  -4.116  1.00  0.00     0.210 HD
ENDBRANCH  37  38
ENDBRANCH  31  37
BRANCH  32  40
ATOM     40  O   UNL     1      16.762 -38.942  -1.888  1.00  0.00    -0.387 OA
ATOM     41  H   UNL     1      17.582 -38.474  -1.580  1.00  0.00     0.211 HD
ENDBRANCH  32  40
ENDBRANCH   1  27
TORSDOF 12
ENDMDL
MODEL 5
REMARK VINA RESULT:    -6.573      2.912      6.214
REMARK INTER + INTRA:         -11.013
REMARK INTER:                  -9.807
REMARK INTRA:                  -1.207
REMARK UNBOUND:                -1.366
REMARK SMILES O=c1c(O[C@@H]2O[C@@H](CO)[C@H](O)[C@H](O)[C@H]2O)c(-c2ccc(O)c(O)c2)oc2cc(O)cc(O)c12
REMARK SMILES IDX 4 1 3 2 16 3 25 4 2 5 26 6 1 7 33 8 27 9 31 10 28 11 30 12
REMARK SMILES IDX 17 13 18 14 19 15 20 16 24 17 22 18 21 19 23 21 32 23 29 25
REMARK SMILES IDX 5 27 14 28 6 29 12 30 7 31 10 32 15 33 13 35 8 37 9 38 11 40
REMARK H PARENT 21 20 23 22 32 24 29 26 15 34 13 36 9 39 11 41
REMARK Flexibility Score: inf
ROOT
ATOM      1  O   UNL     1      13.702 -39.144  -4.489  1.00  0.00    -0.454 OA
ENDROOT
BRANCH   1   2
ATOM      2  C   UNL     1      13.212 -37.912  -4.031  1.00  0.00     0.214 A 
ATOM      3  C   UNL     1      13.987 -37.069  -3.212  1.00  0.00     0.180 A 
ATOM      4  O   UNL     1      13.522 -35.870  -2.880  1.00  0.00    -0.452 OA
ATOM      5  C   UNL     1      11.922 -37.506  -4.393  1.00  0.00     0.239 A 
ATOM      6  C   UNL     1      12.318 -35.431  -3.224  1.00  0.00     0.146 A 
ATOM      7  O   UNL     1      11.241 -38.263  -5.132  1.00  0.00    -0.285 OA
ATOM      8  C   UNL     1      11.427 -36.252  -3.962  1.00  0.00     0.111 A 
ATOM      9  C   UNL     1      11.944 -34.141  -2.843  1.00  0.00     0.094 A 
ATOM     10  C   UNL     1      10.122 -35.751  -4.251  1.00  0.00     0.134 A 
ATOM     11  C   UNL     1      10.689 -33.640  -3.180  1.00  0.00     0.123 A 
ATOM     12  C   UNL     1       9.788 -34.443  -3.882  1.00  0.00     0.093 A 
BRANCH   3  13
ATOM     13  C   UNL     1      15.322 -37.461  -2.705  1.00  0.00     0.025 A 
ATOM     14  C   UNL     1      15.427 -38.107  -1.464  1.00  0.00     0.016 A 
ATOM     15  C   UNL     1      16.678 -38.478  -0.964  1.00  0.00     0.051 A 
ATOM     16  C   UNL     1      17.839 -38.219  -1.706  1.00  0.00     0.157 A 
ATOM     17  C   UNL     1      16.488 -37.224  -3.455  1.00  0.00     0.062 A 
ATOM     18  C   UNL     1      17.743 -37.595  -2.955  1.00  0.00     0.158 A 
BRANCH  16  19
ATOM     19  O   UNL     1      19.089 -38.583  -1.210  1.00  0.00    -0.504 OA
ATOM     20  H   UNL     1      19.258 -39.506  -0.828  1.00  0.00     0.293 HD
ENDBRANCH  16  19
BRANCH  18  21
ATOM     21  O   UNL     1      18.898 -37.348  -3.692  1.00  0.00    -0.504 OA
ATOM     22  H   UNL     1      19.296 -36.418  -3.762  1.00  0.00     0.293 HD
ENDBRANCH  18  21
ENDBRANCH   3  13
BRANCH  10  23
ATOM     23  O   UNL     1       9.118 -36.500  -4.870  1.00  0.00    -0.507 OA
ATOM     24  H   UNL     1       8.171 -36.186  -5.013  1.00  0.00     0.293 HD
ENDBRANCH  10  23
BRANCH  11  25
ATOM     25  O   UNL     1      10.343 -32.343  -2.805  1.00  0.00    -0.508 OA
ATOM     26  H   UNL     1       9.385 -32.018  -2.850  1.00  0.00     0.293 HD
ENDBRANCH  11  25
ENDBRANCH   1   2
BRANCH   1  27
ATOM     27  C   UNL     1      13.086 -40.402  -4.191  1.00  0.00     0.339 C 
ATOM     28  C   UNL     1      13.020 -41.275  -5.457  1.00  0.00     0.214 C 
ATOM     29  O   UNL     1      13.802 -41.050  -3.150  1.00  0.00    -0.332 OA
ATOM     30  C   UNL     1      12.357 -42.617  -5.119  1.00  0.00     0.180 C 
ATOM     31  C   UNL     1      13.209 -42.277  -2.747  1.00  0.00     0.179 C 
ATOM     32  C   UNL     1      13.070 -43.273  -3.922  1.00  0.00     0.177 C 
BRANCH  28  33
ATOM     33  O   UNL     1      12.270 -40.606  -6.437  1.00  0.00    -0.384 OA
ATOM     34  H   UNL     1      12.888 -39.981  -6.897  1.00  0.00     0.211 HD
ENDBRANCH  28  33
BRANCH  30  35
ATOM     35  O   UNL     1      12.413 -43.464  -6.237  1.00  0.00    -0.387 OA
ATOM     36  H   UNL     1      12.687 -44.359  -5.907  1.00  0.00     0.211 HD
ENDBRANCH  30  35
BRANCH  31  37
ATOM     37  C   UNL     1      11.900 -42.080  -1.954  1.00  0.00     0.191 C 
BRANCH  37  38
ATOM     38  O   UNL     1      11.275 -43.316  -1.724  1.00  0.00    -0.394 OA
ATOM     39  H   UNL     1      10.845 -43.256  -0.832  1.00  0.00     0.210 HD
ENDBRANCH  37  38
ENDBRANCH  31  37
BRANCH  32  40
ATOM     40  O   UNL     1      14.355 -43.699  -4.303  1.00  0.00    -0.387 OA
ATOM     41  H   UNL     1      15.006 -43.082  -3.877  1.00  0.00     0.211 HD
ENDBRANCH  32  40
ENDBRANCH   1  27
TORSDOF 12
ENDMDL
MODEL 6
REMARK VINA RESULT:    -6.534      2.448      5.470
REMARK INTER + INTRA:         -10.957
REMARK INTER:                  -9.843
REMARK INTRA:                  -1.113
REMARK UNBOUND:                -1.366
REMARK SMILES O=c1c(O[C@@H]2O[C@@H](CO)[C@H](O)[C@H](O)[C@H]2O)c(-c2ccc(O)c(O)c2)oc2cc(O)cc(O)c12
REMARK SMILES IDX 4 1 3 2 16 3 25 4 2 5 26 6 1 7 33 8 27 9 31 10 28 11 30 12
REMARK SMILES IDX 17 13 18 14 19 15 20 16 24 17 22 18 21 19 23 21 32 23 29 25
REMARK SMILES IDX 5 27 14 28 6 29 12 30 7 31 10 32 15 33 13 35 8 37 9 38 11 40
REMARK H PARENT 21 20 23 22 32 24 29 26 15 34 13 36 9 39 11 41
REMARK Flexibility Score: inf
ROOT
ATOM      1  O   UNL     1      14.995 -38.117  -1.686  1.00  0.00    -0.454 OA
ENDROOT
BRANCH   1   2
ATOM      2  C   UNL     1      13.965 -38.248  -2.629  1.00  0.00     0.214 A 
ATOM      3  C   UNL     1      13.098 -37.180  -2.928  1.00  0.00     0.180 A 
ATOM      4  O   UNL     1      12.198 -37.316  -3.894  1.00  0.00    -0.452 OA
ATOM      5  C   UNL     1      13.789 -39.470  -3.291  1.00  0.00     0.239 A 
ATOM      6  C   UNL     1      12.014 -38.444  -4.569  1.00  0.00     0.146 A 
ATOM      7  O   UNL     1      14.574 -40.415  -3.024  1.00  0.00    -0.285 OA
ATOM      8  C   UNL     1      12.771 -39.606  -4.266  1.00  0.00     0.111 A 
ATOM      9  C   UNL     1      11.056 -38.467  -5.585  1.00  0.00     0.094 A 
ATOM     10  C   UNL     1      12.489 -40.808  -4.982  1.00  0.00     0.134 A 
ATOM     11  C   UNL     1      10.829 -39.629  -6.317  1.00  0.00     0.123 A 
ATOM     12  C   UNL     1      11.544 -40.790  -6.015  1.00  0.00     0.093 A 
BRANCH   3  13
ATOM     13  C   UNL     1      13.154 -35.887  -2.208  1.00  0.00     0.025 A 
ATOM     14  C   UNL     1      13.657 -34.753  -2.862  1.00  0.00     0.016 A 
ATOM     15  C   UNL     1      13.726 -33.526  -2.197  1.00  0.00     0.051 A 
ATOM     16  C   UNL     1      13.280 -33.415  -0.873  1.00  0.00     0.157 A 
ATOM     17  C   UNL     1      12.687 -35.765  -0.886  1.00  0.00     0.062 A 
ATOM     18  C   UNL     1      12.756 -34.535  -0.218  1.00  0.00     0.158 A 
BRANCH  16  19
ATOM     19  O   UNL     1      13.351 -32.194  -0.205  1.00  0.00    -0.504 OA
ATOM     20  H   UNL     1      12.743 -31.985   0.579  1.00  0.00     0.293 HD
ENDBRANCH  16  19
BRANCH  18  21
ATOM     21  O   UNL     1      12.305 -34.418   1.094  1.00  0.00    -0.504 OA
ATOM     22  H   UNL     1      11.323 -34.507   1.328  1.00  0.00     0.293 HD
ENDBRANCH  18  21
ENDBRANCH   3  13
BRANCH  10  23
ATOM     23  O   UNL     1      13.083 -42.041  -4.702  1.00  0.00    -0.507 OA
ATOM     24  H   UNL     1      13.242 -42.771  -5.379  1.00  0.00     0.293 HD
ENDBRANCH  10  23
BRANCH  11  25
ATOM     25  O   UNL     1       9.881 -39.624  -7.338  1.00  0.00    -0.508 OA
ATOM     26  H   UNL     1       8.892 -39.533  -7.141  1.00  0.00     0.293 HD
ENDBRANCH  11  25
ENDBRANCH   1   2
BRANCH   1  27
ATOM     27  C   UNL     1      16.242 -37.469  -1.959  1.00  0.00     0.339 C 
ATOM     28  C   UNL     1      17.403 -38.468  -1.814  1.00  0.00     0.214 C 
ATOM     29  O   UNL     1      16.209 -36.895  -3.257  1.00  0.00    -0.332 OA
ATOM     30  C   UNL     1      18.731 -37.757  -2.109  1.00  0.00     0.180 C 
ATOM     31  C   UNL     1      17.389 -36.170  -3.575  1.00  0.00     0.179 C 
ATOM     32  C   UNL     1      18.659 -37.046  -3.474  1.00  0.00     0.177 C 
BRANCH  28  33
ATOM     33  O   UNL     1      17.414 -38.974  -0.505  1.00  0.00    -0.384 OA
ATOM     34  H   UNL     1      16.668 -39.624  -0.441  1.00  0.00     0.211 HD
ENDBRANCH  28  33
BRANCH  30  35
ATOM     35  O   UNL     1      19.778 -38.693  -2.107  1.00  0.00    -0.387 OA
ATOM     36  H   UNL     1      19.456 -39.485  -2.611  1.00  0.00     0.211 HD
ENDBRANCH  30  35
BRANCH  31  37
ATOM     37  C   UNL     1      17.502 -34.838  -2.804  1.00  0.00     0.191 C 
BRANCH  37  38
ATOM     38  O   UNL     1      18.186 -33.883  -3.573  1.00  0.00    -0.394 OA
ATOM     39  H   UNL     1      17.509 -33.448  -4.155  1.00  0.00     0.210 HD
ENDBRANCH  37  38
ENDBRANCH  31  37
BRANCH  32  40
ATOM     40  O   UNL     1      18.631 -37.997  -4.509  1.00  0.00    -0.387 OA
ATOM     41  H   UNL     1      18.804 -38.884  -4.096  1.00  0.00     0.211 HD
ENDBRANCH  32  40
ENDBRANCH   1  27
TORSDOF 12
ENDMDL
MODEL 7
REMARK VINA RESULT:    -6.382      2.254      7.649
REMARK INTER + INTRA:         -10.733
REMARK INTER:                  -9.276
REMARK INTRA:                  -1.457
REMARK UNBOUND:                -1.366
REMARK SMILES O=c1c(O[C@@H]2O[C@@H](CO)[C@H](O)[C@H](O)[C@H]2O)c(-c2ccc(O)c(O)c2)oc2cc(O)cc(O)c12
REMARK SMILES IDX 4 1 3 2 16 3 25 4 2 5 26 6 1 7 33 8 27 9 31 10 28 11 30 12
REMARK SMILES IDX 17 13 18 14 19 15 20 16 24 17 22 18 21 19 23 21 32 23 29 25
REMARK SMILES IDX 5 27 14 28 6 29 12 30 7 31 10 32 15 33 13 35 8 37 9 38 11 40
REMARK H PARENT 21 20 23 22 32 24 29 26 15 34 13 36 9 39 11 41
REMARK Flexibility Score: inf
ROOT
ATOM      1  O   UNL     1      13.965 -37.299  -3.798  1.00  0.00    -0.454 OA
ENDROOT
BRANCH   1   2
ATOM      2  C   UNL     1      14.683 -37.181  -2.597  1.00  0.00     0.214 A 
ATOM      3  C   UNL     1      14.330 -36.234  -1.617  1.00  0.00     0.180 A 
ATOM      4  O   UNL     1      14.976 -36.220  -0.457  1.00  0.00    -0.452 OA
ATOM      5  C   UNL     1      15.777 -38.023  -2.365  1.00  0.00     0.239 A 
ATOM      6  C   UNL     1      15.999 -37.018  -0.180  1.00  0.00     0.146 A 
ATOM      7  O   UNL     1      16.078 -38.872  -3.243  1.00  0.00    -0.285 OA
ATOM      8  C   UNL     1      16.491 -37.934  -1.145  1.00  0.00     0.111 A 
ATOM      9  C   UNL     1      16.587 -36.936   1.085  1.00  0.00     0.094 A 
ATOM     10  C   UNL     1      17.633 -38.724  -0.815  1.00  0.00     0.134 A 
ATOM     11  C   UNL     1      17.665 -37.752   1.418  1.00  0.00     0.123 A 
ATOM     12  C   UNL     1      18.180 -38.641   0.471  1.00  0.00     0.093 A 
BRANCH   3  13
ATOM     13  C   UNL     1      13.249 -35.243  -1.822  1.00  0.00     0.025 A 
ATOM     14  C   UNL     1      13.565 -33.964  -2.305  1.00  0.00     0.016 A 
ATOM     15  C   UNL     1      12.560 -33.013  -2.497  1.00  0.00     0.051 A 
ATOM     16  C   UNL     1      11.224 -33.332  -2.220  1.00  0.00     0.157 A 
ATOM     17  C   UNL     1      11.903 -35.566  -1.568  1.00  0.00     0.062 A 
ATOM     18  C   UNL     1      10.895 -34.612  -1.759  1.00  0.00     0.158 A 
BRANCH  16  19
ATOM     19  O   UNL     1      10.219 -32.386  -2.406  1.00  0.00    -0.504 OA
ATOM     20  H   UNL     1       9.737 -32.293  -3.292  1.00  0.00     0.293 HD
ENDBRANCH  16  19
BRANCH  18  21
ATOM     21  O   UNL     1       9.565 -34.929  -1.495  1.00  0.00    -0.504 OA
ATOM     22  H   UNL     1       9.121 -34.672  -0.621  1.00  0.00     0.293 HD
ENDBRANCH  18  21
ENDBRANCH   3  13
BRANCH  10  23
ATOM     23  O   UNL     1      18.278 -39.577  -1.712  1.00  0.00    -0.507 OA
ATOM     24  H   UNL     1      17.814 -40.246  -2.307  1.00  0.00     0.293 HD
ENDBRANCH  10  23
BRANCH  11  25
ATOM     25  O   UNL     1      18.224 -37.667   2.691  1.00  0.00    -0.508 OA
ATOM     26  H   UNL     1      19.202 -37.441   2.825  1.00  0.00     0.293 HD
ENDBRANCH  11  25
ENDBRANCH   1   2
BRANCH   1  27
ATOM     27  C   UNL     1      12.825 -38.149  -3.960  1.00  0.00     0.339 C 
ATOM     28  C   UNL     1      13.104 -39.211  -5.038  1.00  0.00     0.214 C 
ATOM     29  O   UNL     1      12.493 -38.746  -2.715  1.00  0.00    -0.332 OA
ATOM     30  C   UNL     1      11.872 -40.113  -5.199  1.00  0.00     0.180 C 
ATOM     31  C   UNL     1      11.324 -39.553  -2.780  1.00  0.00     0.179 C 
ATOM     32  C   UNL     1      11.449 -40.680  -3.831  1.00  0.00     0.177 C 
BRANCH  28  33
ATOM     33  O   UNL     1      13.387 -38.569  -6.253  1.00  0.00    -0.384 OA
ATOM     34  H   UNL     1      12.734 -37.828  -6.347  1.00  0.00     0.211 HD
ENDBRANCH  28  33
BRANCH  30  35
ATOM     35  O   UNL     1      12.169 -41.162  -6.084  1.00  0.00    -0.387 OA
ATOM     36  H   UNL     1      12.548 -40.749  -6.903  1.00  0.00     0.211 HD
ENDBRANCH  30  35
BRANCH  31  37
ATOM     37  C   UNL     1      10.030 -38.725  -2.921  1.00  0.00     0.191 C 
BRANCH  37  38
ATOM     38  O   UNL     1       9.711 -38.103  -1.703  1.00  0.00    -0.394 OA
ATOM     39  H   UNL     1       9.421 -37.179  -1.922  1.00  0.00     0.210 HD
ENDBRANCH  37  38
ENDBRANCH  31  37
BRANCH  32  40
ATOM     40  O   UNL     1      12.402 -41.610  -3.380  1.00  0.00    -0.387 OA
ATOM     41  H   UNL     1      13.262 -41.123  -3.282  1.00  0.00     0.211 HD
ENDBRANCH  32  40
ENDBRANCH   1  27
TORSDOF 12
ENDMDL
MODEL 8
REMARK VINA RESULT:    -6.350      2.113      6.190
REMARK INTER + INTRA:         -10.687
REMARK INTER:                  -9.187
REMARK INTRA:                  -1.500
REMARK UNBOUND:                -1.366
REMARK SMILES O=c1c(O[C@@H]2O[C@@H](CO)[C@H](O)[C@H](O)[C@H]2O)c(-c2ccc(O)c(O)c2)oc2cc(O)cc(O)c12
REMARK SMILES IDX 4 1 3 2 16 3 25 4 2 5 26 6 1 7 33 8 27 9 31 10 28 11 30 12
REMARK SMILES IDX 17 13 18 14 19 15 20 16 24 17 22 18 21 19 23 21 32 23 29 25
REMARK SMILES IDX 5 27 14 28 6 29 12 30 7 31 10 32 15 33 13 35 8 37 9 38 11 40
REMARK H PARENT 21 20 23 22 32 24 29 26 15 34 13 36 9 39 11 41
REMARK Flexibility Score: inf
ROOT
ATOM      1  O   UNL     1      13.179 -36.173  -3.390  1.00  0.00    -0.454 OA
ENDROOT
BRANCH   1   2
ATOM      2  C   UNL     1      13.322 -35.497  -2.168  1.00  0.00     0.214 A 
ATOM      3  C   UNL     1      14.581 -35.331  -1.561  1.00  0.00     0.180 A 
ATOM      4  O   UNL     1      14.684 -34.604  -0.455  1.00  0.00    -0.452 OA
ATOM      5  C   UNL     1      12.189 -34.975  -1.534  1.00  0.00     0.239 A 
ATOM      6  C   UNL     1      13.643 -34.064   0.166  1.00  0.00     0.146 A 
ATOM      7  O   UNL     1      11.069 -35.121  -2.089  1.00  0.00    -0.285 OA
ATOM      8  C   UNL     1      12.323 -34.265  -0.316  1.00  0.00     0.111 A 
ATOM      9  C   UNL     1      13.871 -33.294   1.308  1.00  0.00     0.094 A 
ATOM     10  C   UNL     1      11.236 -33.714   0.426  1.00  0.00     0.134 A 
ATOM     11  C   UNL     1      12.808 -32.712   1.993  1.00  0.00     0.123 A 
ATOM     12  C   UNL     1      11.500 -32.921   1.549  1.00  0.00     0.093 A 
BRANCH   3  13
ATOM     13  C   UNL     1      15.816 -35.932  -2.115  1.00  0.00     0.025 A 
ATOM     14  C   UNL     1      16.729 -35.122  -2.806  1.00  0.00     0.016 A 
ATOM     15  C   UNL     1      17.896 -35.672  -3.344  1.00  0.00     0.051 A 
ATOM     16  C   UNL     1      18.170 -37.037  -3.186  1.00  0.00     0.157 A 
ATOM     17  C   UNL     1      16.106 -37.298  -1.940  1.00  0.00     0.062 A 
ATOM     18  C   UNL     1      17.276 -37.850  -2.480  1.00  0.00     0.158 A 
BRANCH  16  19
ATOM     19  O   UNL     1      19.330 -37.591  -3.724  1.00  0.00    -0.504 OA
ATOM     20  H   UNL     1      19.999 -38.083  -3.144  1.00  0.00     0.293 HD
ENDBRANCH  16  19
BRANCH  18  21
ATOM     21  O   UNL     1      17.557 -39.204  -2.317  1.00  0.00    -0.504 OA
ATOM     22  H   UNL     1      17.660 -39.619  -1.398  1.00  0.00     0.293 HD
ENDBRANCH  18  21
ENDBRANCH   3  13
BRANCH  10  23
ATOM     23  O   UNL     1       9.891 -33.934   0.121  1.00  0.00    -0.507 OA
ATOM     24  H   UNL     1       9.303 -34.618   0.570  1.00  0.00     0.293 HD
ENDBRANCH  10  23
BRANCH  11  25
ATOM     25  O   UNL     1      13.060 -31.932   3.119  1.00  0.00    -0.508 OA
ATOM     26  H   UNL     1      12.421 -31.203   3.412  1.00  0.00     0.293 HD
ENDBRANCH  11  25
ENDBRANCH   1   2
BRANCH   1  27
ATOM     27  C   UNL     1      12.778 -37.544  -3.495  1.00  0.00     0.339 C 
ATOM     28  C   UNL     1      11.614 -37.682  -4.492  1.00  0.00     0.214 C 
ATOM     29  O   UNL     1      13.890 -38.339  -3.881  1.00  0.00    -0.332 OA
ATOM     30  C   UNL     1      11.197 -39.156  -4.592  1.00  0.00     0.180 C 
ATOM     31  C   UNL     1      13.588 -39.727  -3.938  1.00  0.00     0.179 C 
ATOM     32  C   UNL     1      12.424 -40.032  -4.909  1.00  0.00     0.177 C 
BRANCH  28  33
ATOM     33  O   UNL     1      10.531 -36.910  -4.044  1.00  0.00    -0.384 OA
ATOM     34  H   UNL     1      10.706 -36.693  -3.092  1.00  0.00     0.211 HD
ENDBRANCH  28  33
BRANCH  30  35
ATOM     35  O   UNL     1      10.226 -39.304  -5.595  1.00  0.00    -0.387 OA
ATOM     36  H   UNL     1      10.570 -38.836  -6.400  1.00  0.00     0.211 HD
ENDBRANCH  30  35
BRANCH  31  37
ATOM     37  C   UNL     1      13.404 -40.359  -2.542  1.00  0.00     0.191 C 
BRANCH  37  38
ATOM     38  O   UNL     1      14.599 -40.289  -1.811  1.00  0.00    -0.394 OA
ATOM     39  H   UNL     1      14.473 -40.851  -1.002  1.00  0.00     0.210 HD
ENDBRANCH  37  38
ENDBRANCH  31  37
BRANCH  32  40
ATOM     40  O   UNL     1      12.860 -39.790  -6.223  1.00  0.00    -0.387 OA
ATOM     41  H   UNL     1      13.184 -40.655  -6.587  1.00  0.00     0.211 HD
ENDBRANCH  32  40
ENDBRANCH   1  27
TORSDOF 12
ENDMDL
MODEL 9
REMARK VINA RESULT:    -6.326      1.542      2.005
REMARK INTER + INTRA:         -10.650
REMARK INTER:                  -9.701
REMARK INTRA:                  -0.950
REMARK UNBOUND:                -1.366
REMARK SMILES O=c1c(O[C@@H]2O[C@@H](CO)[C@H](O)[C@H](O)[C@H]2O)c(-c2ccc(O)c(O)c2)oc2cc(O)cc(O)c12
REMARK SMILES IDX 4 1 3 2 16 3 25 4 2 5 26 6 1 7 33 8 27 9 31 10 28 11 30 12
REMARK SMILES IDX 17 13 18 14 19 15 20 16 24 17 22 18 21 19 23 21 32 23 29 25
REMARK SMILES IDX 5 27 14 28 6 29 12 30 7 31 10 32 15 33 13 35 8 37 9 38 11 40
REMARK H PARENT 21 20 23 22 32 24 29 26 15 34 13 36 9 39 11 41
REMARK Flexibility Score: inf
ROOT
ATOM      1  O   UNL     1      14.009 -34.846  -1.861  1.00  0.00    -0.454 OA
ENDROOT
BRANCH   1   2
ATOM      2  C   UNL     1      13.310 -35.771  -2.651  1.00  0.00     0.214 A 
ATOM      3  C   UNL     1      13.843 -37.040  -2.947  1.00  0.00     0.180 A 
ATOM      4  O   UNL     1      13.108 -37.920  -3.617  1.00  0.00    -0.452 OA
ATOM      5  C   UNL     1      12.051 -35.429  -3.159  1.00  0.00     0.239 A 
ATOM      6  C   UNL     1      11.899 -37.651  -4.093  1.00  0.00     0.146 A 
ATOM      7  O   UNL     1      11.579 -34.297  -2.882  1.00  0.00    -0.285 OA
ATOM      8  C   UNL     1      11.322 -36.365  -3.933  1.00  0.00     0.111 A 
ATOM      9  C   UNL     1      11.204 -38.662  -4.760  1.00  0.00     0.094 A 
ATOM     10  C   UNL     1      10.045 -36.113  -4.519  1.00  0.00     0.134 A 
ATOM     11  C   UNL     1       9.934 -38.424  -5.279  1.00  0.00     0.123 A 
ATOM     12  C   UNL     1       9.361 -37.156  -5.154  1.00  0.00     0.093 A 
BRANCH   3  13
ATOM     13  C   UNL     1      15.204 -37.446  -2.529  1.00  0.00     0.025 A 
ATOM     14  C   UNL     1      15.385 -38.092  -1.297  1.00  0.00     0.016 A 
ATOM     15  C   UNL     1      16.663 -38.476  -0.881  1.00  0.00     0.051 A 
ATOM     16  C   UNL     1      17.774 -38.230  -1.698  1.00  0.00     0.157 A 
ATOM     17  C   UNL     1      16.320 -37.221  -3.356  1.00  0.00     0.062 A 
ATOM     18  C   UNL     1      17.602 -37.606  -2.939  1.00  0.00     0.158 A 
BRANCH  16  19
ATOM     19  O   UNL     1      19.051 -38.607  -1.286  1.00  0.00    -0.504 OA
ATOM     20  H   UNL     1      19.788 -37.924  -1.157  1.00  0.00     0.293 HD
ENDBRANCH  16  19
BRANCH  18  21
ATOM     21  O   UNL     1      18.708 -37.371  -3.752  1.00  0.00    -0.504 OA
ATOM     22  H   UNL     1      18.607 -37.049  -4.707  1.00  0.00     0.293 HD
ENDBRANCH  18  21
ENDBRANCH   3  13
BRANCH  10  23
ATOM     23  O   UNL     1       9.423 -34.863  -4.528  1.00  0.00    -0.507 OA
ATOM     24  H   UNL     1       9.775 -34.041  -4.063  1.00  0.00     0.293 HD
ENDBRANCH  10  23
BRANCH  11  25
ATOM     25  O   UNL     1       9.251 -39.452  -5.924  1.00  0.00    -0.508 OA
ATOM     26  H   UNL     1       8.244 -39.431  -6.034  1.00  0.00     0.293 HD
ENDBRANCH  11  25
ENDBRANCH   1   2
BRANCH   1  27
ATOM     27  C   UNL     1      13.782 -34.668  -0.459  1.00  0.00     0.339 C 
ATOM     28  C   UNL     1      15.079 -34.219   0.237  1.00  0.00     0.214 C 
ATOM     29  O   UNL     1      12.734 -33.731  -0.260  1.00  0.00    -0.332 OA
ATOM     30  C   UNL     1      14.817 -34.034   1.738  1.00  0.00     0.180 C 
ATOM     31  C   UNL     1      12.400 -33.554   1.111  1.00  0.00     0.179 C 
ATOM     32  C   UNL     1      13.613 -33.098   1.954  1.00  0.00     0.177 C 
BRANCH  28  33
ATOM     33  O   UNL     1      16.067 -35.196   0.042  1.00  0.00    -0.384 OA
ATOM     34  H   UNL     1      16.906 -34.840   0.435  1.00  0.00     0.211 HD
ENDBRANCH  28  33
BRANCH  30  35
ATOM     35  O   UNL     1      15.960 -33.499   2.353  1.00  0.00    -0.387 OA
ATOM     36  H   UNL     1      16.139 -34.050   3.158  1.00  0.00     0.211 HD
ENDBRANCH  30  35
BRANCH  31  37
ATOM     37  C   UNL     1      11.659 -34.767   1.711  1.00  0.00     0.191 C 
BRANCH  37  38
ATOM     38  O   UNL     1      10.804 -35.340   0.756  1.00  0.00    -0.394 OA
ATOM     39  H   UNL     1      11.351 -35.501  -0.057  1.00  0.00     0.210 HD
ENDBRANCH  37  38
ENDBRANCH  31  37
BRANCH  32  40
ATOM     40  O   UNL     1      13.951 -31.786   1.580  1.00  0.00    -0.387 OA
ATOM     41  H   UNL     1      14.066 -31.783   0.593  1.00  0.00     0.211 HD
ENDBRANCH  32  40
ENDBRANCH   1  27
TORSDOF 12
ENDMDL
