MODEL 1
REMARK VINA RESULT:    -3.188      0.000      0.000
REMARK INTER + INTRA:          -7.375
REMARK INTER:                  -5.797
REMARK INTRA:                  -1.578
REMARK UNBOUND:                -1.578
REMARK SMILES CCCCCCCCCCCCCCCC(=O)[O-]
REMARK SMILES IDX 9 1 10 2 11 3 12 4 13 5 14 6 15 7 16 8 17 9 18 10 8 11 7 12
REMARK SMILES IDX 6 13 5 14 4 15 3 16 2 17 1 18
REMARK H PARENT
REMARK Flexibility Score: inf
ROOT
ATOM      1  C   UNL     1      38.647 -31.024   9.731  1.00  0.00     0.000 C 
ENDROOT
BRANCH   1   2
ATOM      2  C   UNL     1      39.784 -31.988  10.123  1.00  0.00     0.000 C 
BRANCH   2   3
ATOM      3  C   UNL     1      39.884 -32.296  11.628  1.00  0.00     0.000 C 
BRANCH   3   4
ATOM      4  C   UNL     1      41.324 -32.228  12.156  1.00  0.00     0.000 C 
BRANCH   4   5
ATOM      5  C   UNL     1      42.104 -31.093  11.483  1.00  0.00     0.000 C 
BRANCH   5   6
ATOM      6  C   UNL     1      43.497 -31.567  11.045  1.00  0.00     0.006 C 
BRANCH   6   7
ATOM      7  C   UNL     1      43.512 -33.053  10.659  1.00  0.00     0.053 C 
BRANCH   7   8
ATOM      8  C   UNL     1      44.263 -33.879  11.658  1.00  0.00     0.041 C 
ATOM      9  O   UNL     1      45.468 -33.622  11.914  1.00  0.00    -0.550 OA
ATOM     10  O   UNL     1      43.621 -34.912  12.331  1.00  0.00    -0.550 OA
ENDBRANCH   7   8
ENDBRANCH   6   7
ENDBRANCH   5   6
ENDBRANCH   4   5
ENDBRANCH   3   4
ENDBRANCH   2   3
ENDBRANCH   1   2
BRANCH   1  11
ATOM     11  C   UNL     1      38.710 -29.631  10.392  1.00  0.00     0.000 C 
BRANCH  11  12
ATOM     12  C   UNL     1      37.661 -29.377  11.489  1.00  0.00    -0.000 C 
BRANCH  12  13
ATOM     13  C   UNL     1      36.293 -30.001  11.163  1.00  0.00    -0.000 C 
BRANCH  13  14
ATOM     14  C   UNL     1      35.290 -28.983  10.590  1.00  0.00    -0.000 C 
BRANCH  14  15
ATOM     15  C   UNL     1      35.005 -29.119   9.083  1.00  0.00    -0.000 C 
BRANCH  15  16
ATOM     16  C   UNL     1      34.772 -30.572   8.644  1.00  0.00    -0.000 C 
BRANCH  16  17
ATOM     17  C   UNL     1      35.729 -30.963   7.512  1.00  0.00    -0.003 C 
ATOM     18  C   UNL     1      36.389 -29.731   6.898  1.00  0.00     0.004 C 
ENDBRANCH  16  17
ENDBRANCH  15  16
ENDBRANCH  14  15
ENDBRANCH  13  14
ENDBRANCH  12  13
ENDBRANCH  11  12
ENDBRANCH   1  11
TORSDOF 14
ENDMDL
MODEL 2
REMARK VINA RESULT:    -3.108      1.913      3.876
REMARK INTER + INTRA:          -7.230
REMARK INTER:                  -5.282
REMARK INTRA:                  -1.948
REMARK UNBOUND:                -1.578
REMARK SMILES CCCCCCCCCCCCCCCC(=O)[O-]
REMARK SMILES IDX 9 1 10 2 11 3 12 4 13 5 14 6 15 7 16 8 17 9 18 10 8 11 7 12
REMARK SMILES IDX 6 13 5 14 4 15 3 16 2 17 1 18
REMARK H PARENT
REMARK Flexibility Score: inf
ROOT
ATOM      1  C   UNL     1      42.203 -30.276   9.940  1.00  0.00     0.000 C 
ENDROOT
BRANCH   1   2
ATOM      2  C   UNL     1      43.625 -29.709  10.114  1.00  0.00     0.000 C 
BRANCH   2   3
ATOM      3  C   UNL     1      44.761 -30.719   9.869  1.00  0.00     0.000 C 
BRANCH   3   4
ATOM      4  C   UNL     1      45.702 -30.862  11.074  1.00  0.00     0.000 C 
BRANCH   4   5
ATOM      5  C   UNL     1      44.948 -30.642  12.390  1.00  0.00     0.000 C 
BRANCH   5   6
ATOM      6  C   UNL     1      44.681 -31.977  13.101  1.00  0.00     0.006 C 
BRANCH   6   7
ATOM      7  C   UNL     1      45.790 -33.006  12.841  1.00  0.00     0.053 C 
BRANCH   7   8
ATOM      8  C   UNL     1      45.240 -34.392  12.698  1.00  0.00     0.041 C 
ATOM      9  O   UNL     1      45.893 -35.379  13.125  1.00  0.00    -0.550 OA
ATOM     10  O   UNL     1      43.990 -34.590  12.124  1.00  0.00    -0.550 OA
ENDBRANCH   7   8
ENDBRANCH   6   7
ENDBRANCH   5   6
ENDBRANCH   4   5
ENDBRANCH   3   4
ENDBRANCH   2   3
ENDBRANCH   1   2
BRANCH   1  11
ATOM     11  C   UNL     1      42.036 -31.762  10.321  1.00  0.00     0.000 C 
BRANCH  11  12
ATOM     12  C   UNL     1      41.107 -32.033  11.518  1.00  0.00    -0.000 C 
BRANCH  12  13
ATOM     13  C   UNL     1      41.164 -30.922  12.581  1.00  0.00    -0.000 C 
BRANCH  13  14
ATOM     14  C   UNL     1      39.789 -30.287  12.859  1.00  0.00    -0.000 C 
BRANCH  14  15
ATOM     15  C   UNL     1      38.596 -30.977  12.171  1.00  0.00    -0.000 C 
BRANCH  15  16
ATOM     16  C   UNL     1      37.463 -30.003  11.814  1.00  0.00    -0.000 C 
BRANCH  16  17
ATOM     17  C   UNL     1      37.084 -30.122  10.333  1.00  0.00    -0.003 C 
ATOM     18  C   UNL     1      38.201 -30.783   9.530  1.00  0.00     0.004 C 
ENDBRANCH  16  17
ENDBRANCH  15  16
ENDBRANCH  14  15
ENDBRANCH  13  14
ENDBRANCH  12  13
ENDBRANCH  11  12
ENDBRANCH   1  11
TORSDOF 14
ENDMDL
MODEL 3
REMARK VINA RESULT:    -3.089      3.679      7.818
REMARK INTER + INTRA:          -7.195
REMARK INTER:                  -5.144
REMARK INTRA:                  -2.051
REMARK UNBOUND:                -1.578
REMARK SMILES CCCCCCCCCCCCCCCC(=O)[O-]
REMARK SMILES IDX 9 1 10 2 11 3 12 4 13 5 14 6 15 7 16 8 17 9 18 10 8 11 7 12
REMARK SMILES IDX 6 13 5 14 4 15 3 16 2 17 1 18
REMARK H PARENT
REMARK Flexibility Score: inf
ROOT
ATOM      1  C   UNL     1      41.930 -31.875  10.223  1.00  0.00     0.000 C 
ENDROOT
BRANCH   1   2
ATOM      2  C   UNL     1      41.274 -32.217  11.576  1.00  0.00     0.000 C 
BRANCH   2   3
ATOM      3  C   UNL     1      41.317 -31.088  12.622  1.00  0.00     0.000 C 
BRANCH   3   4
ATOM      4  C   UNL     1      39.920 -30.652  13.086  1.00  0.00     0.000 C 
BRANCH   4   5
ATOM      5  C   UNL     1      38.840 -31.147  12.119  1.00  0.00     0.000 C 
BRANCH   5   6
ATOM      6  C   UNL     1      38.442 -30.045  11.126  1.00  0.00     0.006 C 
BRANCH   6   7
ATOM      7  C   UNL     1      38.220 -30.593   9.709  1.00  0.00     0.053 C 
BRANCH   7   8
ATOM      8  C   UNL     1      36.936 -30.099   9.117  1.00  0.00     0.041 C 
ATOM      9  O   UNL     1      35.858 -30.215   9.756  1.00  0.00    -0.550 OA
ATOM     10  O   UNL     1      36.935 -29.480   7.872  1.00  0.00    -0.550 OA
ENDBRANCH   7   8
ENDBRANCH   6   7
ENDBRANCH   5   6
ENDBRANCH   4   5
ENDBRANCH   3   4
ENDBRANCH   2   3
ENDBRANCH   1   2
BRANCH   1  11
ATOM     11  C   UNL     1      42.530 -30.457  10.124  1.00  0.00     0.000 C 
BRANCH  11  12
ATOM     12  C   UNL     1      44.047 -30.404   9.865  1.00  0.00    -0.000 C 
BRANCH  12  13
ATOM     13  C   UNL     1      44.811 -29.621  10.946  1.00  0.00    -0.000 C 
BRANCH  13  14
ATOM     14  C   UNL     1      45.753 -30.511  11.778  1.00  0.00    -0.000 C 
BRANCH  14  15
ATOM     15  C   UNL     1      45.054 -31.459  12.770  1.00  0.00    -0.000 C 
BRANCH  15  16
ATOM     16  C   UNL     1      45.609 -32.891  12.724  1.00  0.00    -0.000 C 
BRANCH  16  17
ATOM     17  C   UNL     1      44.869 -33.733  11.677  1.00  0.00    -0.003 C 
ATOM     18  C   UNL     1      43.840 -34.649  12.334  1.00  0.00     0.004 C 
ENDBRANCH  16  17
ENDBRANCH  15  16
ENDBRANCH  14  15
ENDBRANCH  13  14
ENDBRANCH  12  13
ENDBRANCH  11  12
ENDBRANCH   1  11
TORSDOF 14
ENDMDL
MODEL 4
REMARK VINA RESULT:    -3.016      1.532      2.970
REMARK INTER + INTRA:          -7.062
REMARK INTER:                  -5.681
REMARK INTRA:                  -1.382
REMARK UNBOUND:                -1.578
REMARK SMILES CCCCCCCCCCCCCCCC(=O)[O-]
REMARK SMILES IDX 9 1 10 2 11 3 12 4 13 5 14 6 15 7 16 8 17 9 18 10 8 11 7 12
REMARK SMILES IDX 6 13 5 14 4 15 3 16 2 17 1 18
REMARK H PARENT
REMARK Flexibility Score: inf
ROOT
ATOM      1  C   UNL     1      41.484 -31.480  10.169  1.00  0.00     0.000 C 
ENDROOT
BRANCH   1   2
ATOM      2  C   UNL     1      42.652 -30.479  10.284  1.00  0.00     0.000 C 
BRANCH   2   3
ATOM      3  C   UNL     1      43.257 -30.350  11.694  1.00  0.00     0.000 C 
BRANCH   3   4
ATOM      4  C   UNL     1      44.660 -29.726  11.685  1.00  0.00     0.000 C 
BRANCH   4   5
ATOM      5  C   UNL     1      45.721 -30.750  12.103  1.00  0.00     0.000 C 
BRANCH   5   6
ATOM      6  C   UNL     1      45.126 -31.804  13.048  1.00  0.00     0.006 C 
BRANCH   6   7
ATOM      7  C   UNL     1      45.553 -33.230  12.672  1.00  0.00     0.053 C 
BRANCH   7   8
ATOM      8  C   UNL     1      44.489 -33.941  11.893  1.00  0.00     0.041 C 
ATOM      9  O   UNL     1      43.753 -34.792  12.456  1.00  0.00    -0.550 OA
ATOM     10  O   UNL     1      44.289 -33.640  10.551  1.00  0.00    -0.550 OA
ENDBRANCH   7   8
ENDBRANCH   6   7
ENDBRANCH   5   6
ENDBRANCH   4   5
ENDBRANCH   3   4
ENDBRANCH   2   3
ENDBRANCH   1   2
BRANCH   1  11
ATOM     11  C   UNL     1      41.036 -32.123  11.497  1.00  0.00     0.000 C 
BRANCH  11  12
ATOM     12  C   UNL     1      39.514 -32.281  11.669  1.00  0.00    -0.000 C 
BRANCH  12  13
ATOM     13  C   UNL     1      38.868 -31.086  12.390  1.00  0.00    -0.000 C 
BRANCH  13  14
ATOM     14  C   UNL     1      38.049 -30.187  11.445  1.00  0.00    -0.000 C 
BRANCH  14  15
ATOM     15  C   UNL     1      37.920 -30.700   9.999  1.00  0.00    -0.000 C 
BRANCH  15  16
ATOM     16  C   UNL     1      37.556 -29.592   8.999  1.00  0.00    -0.000 C 
BRANCH  16  17
ATOM     17  C   UNL     1      36.131 -29.783   8.464  1.00  0.00    -0.003 C 
ATOM     18  C   UNL     1      36.096 -30.827   7.351  1.00  0.00     0.004 C 
ENDBRANCH  16  17
ENDBRANCH  15  16
ENDBRANCH  14  15
ENDBRANCH  13  14
ENDBRANCH  12  13
ENDBRANCH  11  12
ENDBRANCH   1  11
TORSDOF 14
ENDMDL
MODEL 5
REMARK VINA RESULT:    -2.996      3.551      7.509
REMARK INTER + INTRA:          -7.027
REMARK INTER:                  -4.776
REMARK INTRA:                  -2.251
REMARK UNBOUND:                -1.578
REMARK SMILES CCCCCCCCCCCCCCCC(=O)[O-]
REMARK SMILES IDX 9 1 10 2 11 3 12 4 13 5 14 6 15 7 16 8 17 9 18 10 8 11 7 12
REMARK SMILES IDX 6 13 5 14 4 15 3 16 2 17 1 18
REMARK H PARENT
REMARK Flexibility Score: inf
ROOT
ATOM      1  C   UNL     1      42.619 -32.286  10.511  1.00  0.00     0.000 C 
ENDROOT
BRANCH   1   2
ATOM      2  C   UNL     1      41.782 -32.239  11.805  1.00  0.00     0.000 C 
BRANCH   2   3
ATOM      3  C   UNL     1      41.641 -30.842  12.435  1.00  0.00     0.000 C 
BRANCH   3   4
ATOM      4  C   UNL     1      40.254 -30.222  12.208  1.00  0.00     0.000 C 
BRANCH   4   5
ATOM      5  C   UNL     1      40.328 -29.058  11.214  1.00  0.00     0.000 C 
BRANCH   5   6
ATOM      6  C   UNL     1      39.864 -29.496   9.817  1.00  0.00     0.006 C 
BRANCH   6   7
ATOM      7  C   UNL     1      38.929 -30.712   9.870  1.00  0.00     0.053 C 
BRANCH   7   8
ATOM      8  C   UNL     1      37.551 -30.375   9.389  1.00  0.00     0.041 C 
ATOM      9  O   UNL     1      37.131 -30.837   8.296  1.00  0.00    -0.550 OA
ATOM     10  O   UNL     1      36.718 -29.578  10.165  1.00  0.00    -0.550 OA
ENDBRANCH   7   8
ENDBRANCH   6   7
ENDBRANCH   5   6
ENDBRANCH   4   5
ENDBRANCH   3   4
ENDBRANCH   2   3
ENDBRANCH   1   2
BRANCH   1  11
ATOM     11  C   UNL     1      43.874 -33.181  10.573  1.00  0.00     0.000 C 
BRANCH  11  12
ATOM     12  C   UNL     1      44.335 -33.569  11.989  1.00  0.00    -0.000 C 
BRANCH  12  13
ATOM     13  C   UNL     1      45.616 -32.837  12.422  1.00  0.00    -0.000 C 
BRANCH  13  14
ATOM     14  C   UNL     1      45.378 -31.351  12.745  1.00  0.00    -0.000 C 
BRANCH  14  15
ATOM     15  C   UNL     1      45.916 -30.357  11.699  1.00  0.00    -0.000 C 
BRANCH  15  16
ATOM     16  C   UNL     1      44.827 -29.434  11.131  1.00  0.00    -0.000 C 
BRANCH  16  17
ATOM     17  C   UNL     1      44.871 -29.412   9.598  1.00  0.00    -0.003 C 
ATOM     18  C   UNL     1      43.498 -29.092   9.012  1.00  0.00     0.004 C 
ENDBRANCH  16  17
ENDBRANCH  15  16
ENDBRANCH  14  15
ENDBRANCH  13  14
ENDBRANCH  12  13
ENDBRANCH  11  12
ENDBRANCH   1  11
TORSDOF 14
ENDMDL
MODEL 6
REMARK VINA RESULT:    -2.975      2.195      3.763
REMARK INTER + INTRA:          -6.987
REMARK INTER:                  -5.641
REMARK INTRA:                  -1.347
REMARK UNBOUND:                -1.578
REMARK SMILES CCCCCCCCCCCCCCCC(=O)[O-]
REMARK SMILES IDX 9 1 10 2 11 3 12 4 13 5 14 6 15 7 16 8 17 9 18 10 8 11 7 12
REMARK SMILES IDX 6 13 5 14 4 15 3 16 2 17 1 18
REMARK H PARENT
REMARK Flexibility Score: inf
ROOT
ATOM      1  C   UNL     1      41.639 -32.614  12.443  1.00  0.00     0.000 C 
ENDROOT
BRANCH   1   2
ATOM      2  C   UNL     1      42.859 -33.348  13.034  1.00  0.00     0.000 C 
BRANCH   2   3
ATOM      3  C   UNL     1      43.723 -34.101  12.006  1.00  0.00     0.000 C 
BRANCH   3   4
ATOM      4  C   UNL     1      45.135 -33.513  11.868  1.00  0.00     0.000 C 
BRANCH   4   5
ATOM      5  C   UNL     1      45.362 -32.387  12.883  1.00  0.00     0.000 C 
BRANCH   5   6
ATOM      6  C   UNL     1      45.688 -31.064  12.173  1.00  0.00     0.006 C 
BRANCH   6   7
ATOM      7  C   UNL     1      45.387 -31.122  10.669  1.00  0.00     0.053 C 
BRANCH   7   8
ATOM      8  C   UNL     1      44.507 -29.990  10.235  1.00  0.00     0.041 C 
ATOM      9  O   UNL     1      44.219 -29.842   9.019  1.00  0.00    -0.550 OA
ATOM     10  O   UNL     1      43.978 -29.117  11.178  1.00  0.00    -0.550 OA
ENDBRANCH   7   8
ENDBRANCH   6   7
ENDBRANCH   5   6
ENDBRANCH   4   5
ENDBRANCH   3   4
ENDBRANCH   2   3
ENDBRANCH   1   2
BRANCH   1  11
ATOM     11  C   UNL     1      41.796 -32.149  10.981  1.00  0.00     0.000 C 
BRANCH  11  12
ATOM     12  C   UNL     1      40.838 -31.027  10.543  1.00  0.00    -0.000 C 
BRANCH  12  13
ATOM     13  C   UNL     1      39.451 -31.552  10.134  1.00  0.00    -0.000 C 
BRANCH  13  14
ATOM     14  C   UNL     1      38.309 -30.936  10.963  1.00  0.00    -0.000 C 
BRANCH  14  15
ATOM     15  C   UNL     1      37.166 -30.309  10.143  1.00  0.00    -0.000 C 
BRANCH  15  16
ATOM     16  C   UNL     1      37.300 -30.563   8.634  1.00  0.00    -0.000 C 
BRANCH  16  17
ATOM     17  C   UNL     1      35.924 -30.581   7.957  1.00  0.00    -0.003 C 
ATOM     18  C   UNL     1      34.808 -30.343   8.970  1.00  0.00     0.004 C 
ENDBRANCH  16  17
ENDBRANCH  15  16
ENDBRANCH  14  15
ENDBRANCH  13  14
ENDBRANCH  12  13
ENDBRANCH  11  12
ENDBRANCH   1  11
TORSDOF 14
ENDMDL
MODEL 7
REMARK VINA RESULT:    -2.948      3.817      7.589
REMARK INTER + INTRA:          -6.939
REMARK INTER:                  -5.020
REMARK INTRA:                  -1.918
REMARK UNBOUND:                -1.578
REMARK SMILES CCCCCCCCCCCCCCCC(=O)[O-]
REMARK SMILES IDX 9 1 10 2 11 3 12 4 13 5 14 6 15 7 16 8 17 9 18 10 8 11 7 12
REMARK SMILES IDX 6 13 5 14 4 15 3 16 2 17 1 18
REMARK H PARENT
REMARK Flexibility Score: inf
ROOT
ATOM      1  C   UNL     1      40.106 -32.283  11.497  1.00  0.00     0.000 C 
ENDROOT
BRANCH   1   2
ATOM      2  C   UNL     1      38.820 -31.899  12.254  1.00  0.00     0.000 C 
BRANCH   2   3
ATOM      3  C   UNL     1      38.629 -30.389  12.484  1.00  0.00     0.000 C 
BRANCH   3   4
ATOM      4  C   UNL     1      37.682 -29.744  11.462  1.00  0.00     0.000 C 
BRANCH   4   5
ATOM      5  C   UNL     1      38.457 -28.875  10.466  1.00  0.00     0.000 C 
BRANCH   5   6
ATOM      6  C   UNL     1      38.170 -29.305   9.020  1.00  0.00     0.006 C 
BRANCH   6   7
ATOM      7  C   UNL     1      37.260 -30.540   8.950  1.00  0.00     0.053 C 
BRANCH   7   8
ATOM      8  C   UNL     1      36.148 -30.356   7.964  1.00  0.00     0.041 C 
ATOM      9  O   UNL     1      34.989 -30.766   8.234  1.00  0.00    -0.550 OA
ATOM     10  O   UNL     1      36.385 -29.703   6.761  1.00  0.00    -0.550 OA
ENDBRANCH   7   8
ENDBRANCH   6   7
ENDBRANCH   5   6
ENDBRANCH   4   5
ENDBRANCH   3   4
ENDBRANCH   2   3
ENDBRANCH   1   2
BRANCH   1  11
ATOM     11  C   UNL     1      41.222 -31.218  11.513  1.00  0.00     0.000 C 
BRANCH  11  12
ATOM     12  C   UNL     1      41.691 -30.737  10.128  1.00  0.00    -0.000 C 
BRANCH  12  13
ATOM     13  C   UNL     1      42.750 -29.625  10.210  1.00  0.00    -0.000 C 
BRANCH  13  14
ATOM     14  C   UNL     1      44.101 -30.122  10.759  1.00  0.00    -0.000 C 
BRANCH  14  15
ATOM     15  C   UNL     1      44.596 -31.457  10.175  1.00  0.00    -0.000 C 
BRANCH  15  16
ATOM     16  C   UNL     1      45.038 -32.458  11.253  1.00  0.00    -0.000 C 
BRANCH  16  17
ATOM     17  C   UNL     1      44.221 -33.753  11.169  1.00  0.00    -0.003 C 
ATOM     18  C   UNL     1      43.489 -34.028  12.479  1.00  0.00     0.004 C 
ENDBRANCH  16  17
ENDBRANCH  15  16
ENDBRANCH  14  15
ENDBRANCH  13  14
ENDBRANCH  12  13
ENDBRANCH  11  12
ENDBRANCH   1  11
TORSDOF 14
ENDMDL
MODEL 8
REMARK VINA RESULT:    -2.902      4.003      8.159
REMARK INTER + INTRA:          -6.855
REMARK INTER:                  -5.126
REMARK INTRA:                  -1.729
REMARK UNBOUND:                -1.578
REMARK SMILES CCCCCCCCCCCCCCCC(=O)[O-]
REMARK SMILES IDX 9 1 10 2 11 3 12 4 13 5 14 6 15 7 16 8 17 9 18 10 8 11 7 12
REMARK SMILES IDX 6 13 5 14 4 15 3 16 2 17 1 18
REMARK H PARENT
REMARK Flexibility Score: inf
ROOT
ATOM      1  C   UNL     1      42.379 -31.879  10.142  1.00  0.00     0.000 C 
ENDROOT
BRANCH   1   2
ATOM      2  C   UNL     1      41.708 -30.698  10.871  1.00  0.00     0.000 C 
BRANCH   2   3
ATOM      3  C   UNL     1      41.276 -29.534   9.961  1.00  0.00     0.000 C 
BRANCH   3   4
ATOM      4  C   UNL     1      39.875 -29.003  10.296  1.00  0.00     0.000 C 
BRANCH   4   5
ATOM      5  C   UNL     1      38.788 -29.937   9.751  1.00  0.00     0.000 C 
BRANCH   5   6
ATOM      6  C   UNL     1      37.417 -29.246   9.753  1.00  0.00     0.006 C 
BRANCH   6   7
ATOM      7  C   UNL     1      36.835 -29.105   8.339  1.00  0.00     0.053 C 
BRANCH   7   8
ATOM      8  C   UNL     1      35.871 -30.207   8.022  1.00  0.00     0.041 C 
ATOM      9  O   UNL     1      34.807 -30.326   8.682  1.00  0.00    -0.550 OA
ATOM     10  O   UNL     1      36.132 -31.081   6.974  1.00  0.00    -0.550 OA
ENDBRANCH   7   8
ENDBRANCH   6   7
ENDBRANCH   5   6
ENDBRANCH   4   5
ENDBRANCH   3   4
ENDBRANCH   2   3
ENDBRANCH   1   2
BRANCH   1  11
ATOM     11  C   UNL     1      43.534 -32.554  10.909  1.00  0.00     0.000 C 
BRANCH  11  12
ATOM     12  C   UNL     1      43.880 -31.919  12.268  1.00  0.00    -0.000 C 
BRANCH  12  13
ATOM     13  C   UNL     1      45.389 -31.687  12.452  1.00  0.00    -0.000 C 
BRANCH  13  14
ATOM     14  C   UNL     1      45.781 -30.200  12.368  1.00  0.00    -0.000 C 
BRANCH  14  15
ATOM     15  C   UNL     1      46.125 -29.690  10.956  1.00  0.00    -0.000 C 
BRANCH  15  16
ATOM     16  C   UNL     1      44.977 -28.905  10.305  1.00  0.00    -0.000 C 
BRANCH  16  17
ATOM     17  C   UNL     1      44.767 -29.345   8.851  1.00  0.00    -0.003 C 
ATOM     18  C   UNL     1      45.690 -30.505   8.488  1.00  0.00     0.004 C 
ENDBRANCH  16  17
ENDBRANCH  15  16
ENDBRANCH  14  15
ENDBRANCH  13  14
ENDBRANCH  12  13
ENDBRANCH  11  12
ENDBRANCH   1  11
TORSDOF 14
ENDMDL
