MODEL 1
REMARK VINA RESULT:    -5.338      0.000      0.000
REMARK INTER + INTRA:          -5.650
REMARK INTER:                  -5.650
REMARK INTRA:                   0.000
REMARK UNBOUND:                 0.000
REMARK SMILES O=c1ccc2cc(O)c(O)cc2o1
REMARK SMILES IDX 4 1 3 2 2 3 1 4 13 5 12 6 11 7 9 8 7 9 6 10 5 11 8 12 10 14
REMARK H PARENT 8 13 10 15
REMARK Flexibility Score: inf
ROOT
ATOM      1  C   UNL     1      28.394  41.136  81.760  1.00  0.00     0.019 A 
ATOM      2  C   UNL     1      27.152  41.660  82.122  1.00  0.00     0.094 A 
ATOM      3  C   UNL     1      26.359  42.260  81.139  1.00  0.00     0.336 A 
ATOM      4  O   UNL     1      25.235  42.738  81.446  1.00  0.00    -0.246 OA
ATOM      5  O   UNL     1      26.782  42.330  79.880  1.00  0.00    -0.423 OA
ATOM      6  C   UNL     1      27.959  41.844  79.493  1.00  0.00     0.142 A 
ATOM      7  C   UNL     1      28.351  41.945  78.154  1.00  0.00     0.098 A 
ATOM      8  C   UNL     1      29.591  41.435  77.741  1.00  0.00     0.161 A 
ATOM      9  C   UNL     1      30.441  40.817  78.671  1.00  0.00     0.158 A 
ATOM     10  C   UNL     1      30.052  40.712  80.015  1.00  0.00     0.062 A 
ATOM     11  C   UNL     1      28.814  41.223  80.429  1.00  0.00     0.022 A 
ENDROOT
BRANCH   9  12
ATOM     12  O   UNL     1      31.670  40.312  78.253  1.00  0.00    -0.504 OA
ATOM     13  H   UNL     1      32.037  40.507  77.329  1.00  0.00     0.293 HD
ENDBRANCH   9  12
BRANCH   8  14
ATOM     14  O   UNL     1      29.985  41.534  76.408  1.00  0.00    -0.504 OA
ATOM     15  H   UNL     1      30.963  41.531  76.143  1.00  0.00     0.293 HD
ENDBRANCH   8  14
TORSDOF 2
ENDMDL
MODEL 2
REMARK VINA RESULT:    -5.227      2.535      4.788
REMARK INTER + INTRA:          -5.532
REMARK INTER:                  -5.532
REMARK INTRA:                   0.000
REMARK UNBOUND:                 0.000
REMARK SMILES O=c1ccc2cc(O)c(O)cc2o1
REMARK SMILES IDX 4 1 3 2 2 3 1 4 13 5 12 6 11 7 9 8 7 9 6 10 5 11 8 12 10 14
REMARK H PARENT 8 13 10 15
REMARK Flexibility Score: inf
ROOT
ATOM      1  C   UNL     1      27.250  44.679  78.543  1.00  0.00     0.019 A 
ATOM      2  C   UNL     1      28.173  45.262  77.674  1.00  0.00     0.094 A 
ATOM      3  C   UNL     1      29.509  44.853  77.731  1.00  0.00     0.336 A 
ATOM      4  O   UNL     1      30.356  45.368  76.955  1.00  0.00    -0.246 OA
ATOM      5  O   UNL     1      29.892  43.922  78.601  1.00  0.00    -0.423 OA
ATOM      6  C   UNL     1      29.045  43.341  79.448  1.00  0.00     0.142 A 
ATOM      7  C   UNL     1      29.506  42.368  80.340  1.00  0.00     0.098 A 
ATOM      8  C   UNL     1      28.616  41.753  81.235  1.00  0.00     0.161 A 
ATOM      9  C   UNL     1      27.260  42.112  81.234  1.00  0.00     0.158 A 
ATOM     10  C   UNL     1      26.793  43.087  80.340  1.00  0.00     0.062 A 
ATOM     11  C   UNL     1      27.680  43.703  79.447  1.00  0.00     0.022 A 
ENDROOT
BRANCH   9  12
ATOM     12  O   UNL     1      26.384  41.496  82.125  1.00  0.00    -0.504 OA
ATOM     13  H   UNL     1      26.664  41.264  83.070  1.00  0.00     0.293 HD
ENDBRANCH   9  12
BRANCH   8  14
ATOM     14  O   UNL     1      29.072  40.783  82.125  1.00  0.00    -0.504 OA
ATOM     15  H   UNL     1      28.938  40.876  83.125  1.00  0.00     0.293 HD
ENDBRANCH   8  14
TORSDOF 2
ENDMDL
MODEL 3
REMARK VINA RESULT:    -5.203     11.625     13.843
REMARK INTER + INTRA:          -5.507
REMARK INTER:                  -5.507
REMARK INTRA:                   0.000
REMARK UNBOUND:                 0.000
REMARK SMILES O=c1ccc2cc(O)c(O)cc2o1
REMARK SMILES IDX 4 1 3 2 2 3 1 4 13 5 12 6 11 7 9 8 7 9 6 10 5 11 8 12 10 14
REMARK H PARENT 8 13 10 15
REMARK Flexibility Score: inf
ROOT
ATOM      1  C   UNL     1      16.545  37.544  79.142  1.00  0.00     0.019 A 
ATOM      2  C   UNL     1      17.521  37.339  80.117  1.00  0.00     0.094 A 
ATOM      3  C   UNL     1      17.600  38.228  81.194  1.00  0.00     0.336 A 
ATOM      4  O   UNL     1      18.474  38.059  82.084  1.00  0.00    -0.246 OA
ATOM      5  O   UNL     1      16.755  39.252  81.286  1.00  0.00    -0.423 OA
ATOM      6  C   UNL     1      15.810  39.484  80.377  1.00  0.00     0.142 A 
ATOM      7  C   UNL     1      14.950  40.577  80.527  1.00  0.00     0.098 A 
ATOM      8  C   UNL     1      13.952  40.826  79.572  1.00  0.00     0.161 A 
ATOM      9  C   UNL     1      13.813  39.976  78.465  1.00  0.00     0.158 A 
ATOM     10  C   UNL     1      14.673  38.877  78.311  1.00  0.00     0.062 A 
ATOM     11  C   UNL     1      15.671  38.628  79.263  1.00  0.00     0.022 A 
ENDROOT
BRANCH   9  12
ATOM     12  O   UNL     1      12.819  40.229  77.522  1.00  0.00    -0.504 OA
ATOM     13  H   UNL     1      12.149  40.979  77.645  1.00  0.00     0.293 HD
ENDBRANCH   9  12
BRANCH   8  14
ATOM     14  O   UNL     1      13.094  41.914  79.718  1.00  0.00    -0.504 OA
ATOM     15  H   UNL     1      12.346  41.910  80.402  1.00  0.00     0.293 HD
ENDBRANCH   8  14
TORSDOF 2
ENDMDL
MODEL 4
REMARK VINA RESULT:    -5.072      1.647      2.598
REMARK INTER + INTRA:          -5.368
REMARK INTER:                  -5.368
REMARK INTRA:                   0.000
REMARK UNBOUND:                 0.000
REMARK SMILES O=c1ccc2cc(O)c(O)cc2o1
REMARK SMILES IDX 4 1 3 2 2 3 1 4 13 5 12 6 11 7 9 8 7 9 6 10 5 11 8 12 10 14
REMARK H PARENT 8 13 10 15
REMARK Flexibility Score: inf
ROOT
ATOM      1  C   UNL     1      27.763  43.828  79.415  1.00  0.00     0.019 A 
ATOM      2  C   UNL     1      27.283  43.267  80.599  1.00  0.00     0.094 A 
ATOM      3  C   UNL     1      27.459  41.897  80.819  1.00  0.00     0.336 A 
ATOM      4  O   UNL     1      27.033  41.373  81.882  1.00  0.00    -0.246 OA
ATOM      5  O   UNL     1      28.074  41.142  79.913  1.00  0.00    -0.423 OA
ATOM      6  C   UNL     1      28.546  41.636  78.770  1.00  0.00     0.142 A 
ATOM      7  C   UNL     1      29.185  40.794  77.855  1.00  0.00     0.098 A 
ATOM      8  C   UNL     1      29.684  41.310  76.650  1.00  0.00     0.161 A 
ATOM      9  C   UNL     1      29.545  42.676  76.360  1.00  0.00     0.158 A 
ATOM     10  C   UNL     1      28.906  43.526  77.276  1.00  0.00     0.062 A 
ATOM     11  C   UNL     1      28.406  43.011  78.480  1.00  0.00     0.022 A 
ENDROOT
BRANCH   9  12
ATOM     12  O   UNL     1      30.044  43.181  75.161  1.00  0.00    -0.504 OA
ATOM     13  H   UNL     1      29.517  43.842  74.603  1.00  0.00     0.293 HD
ENDBRANCH   9  12
BRANCH   8  14
ATOM     14  O   UNL     1      30.321  40.473  75.736  1.00  0.00    -0.504 OA
ATOM     15  H   UNL     1      30.137  39.477  75.712  1.00  0.00     0.293 HD
ENDBRANCH   8  14
TORSDOF 2
ENDMDL
MODEL 5
REMARK VINA RESULT:    -5.043      2.212      2.553
REMARK INTER + INTRA:          -5.338
REMARK INTER:                  -5.338
REMARK INTRA:                   0.000
REMARK UNBOUND:                 0.000
REMARK SMILES O=c1ccc2cc(O)c(O)cc2o1
REMARK SMILES IDX 4 1 3 2 2 3 1 4 13 5 12 6 11 7 9 8 7 9 6 10 5 11 8 12 10 14
REMARK H PARENT 8 13 10 15
REMARK Flexibility Score: inf
ROOT
ATOM      1  C   UNL     1      28.753  41.639  80.969  1.00  0.00     0.019 A 
ATOM      2  C   UNL     1      27.620  41.297  81.707  1.00  0.00     0.094 A 
ATOM      3  C   UNL     1      26.423  41.979  81.466  1.00  0.00     0.336 A 
ATOM      4  O   UNL     1      25.390  41.684  82.122  1.00  0.00    -0.246 OA
ATOM      5  O   UNL     1      26.367  42.938  80.545  1.00  0.00    -0.423 OA
ATOM      6  C   UNL     1      27.424  43.295  79.818  1.00  0.00     0.142 A 
ATOM      7  C   UNL     1      27.306  44.310  78.864  1.00  0.00     0.098 A 
ATOM      8  C   UNL     1      28.417  44.691  78.096  1.00  0.00     0.161 A 
ATOM      9  C   UNL     1      29.651  44.051  78.283  1.00  0.00     0.158 A 
ATOM     10  C   UNL     1      29.775  43.031  79.239  1.00  0.00     0.062 A 
ATOM     11  C   UNL     1      28.666  42.650  80.007  1.00  0.00     0.022 A 
ENDROOT
BRANCH   9  12
ATOM     12  O   UNL     1      30.750  44.434  77.516  1.00  0.00    -0.504 OA
ATOM     13  H   UNL     1      30.854  44.137  76.553  1.00  0.00     0.293 HD
ENDBRANCH   9  12
BRANCH   8  14
ATOM     14  O   UNL     1      28.302  45.702  77.145  1.00  0.00    -0.504 OA
ATOM     15  H   UNL     1      27.613  46.439  77.236  1.00  0.00     0.293 HD
ENDBRANCH   8  14
TORSDOF 2
ENDMDL
MODEL 6
REMARK VINA RESULT:    -4.963     13.024     13.944
REMARK INTER + INTRA:          -5.253
REMARK INTER:                  -5.253
REMARK INTRA:                   0.000
REMARK UNBOUND:                 0.000
REMARK SMILES O=c1ccc2cc(O)c(O)cc2o1
REMARK SMILES IDX 4 1 3 2 2 3 1 4 13 5 12 6 11 7 9 8 7 9 6 10 5 11 8 12 10 14
REMARK H PARENT 8 13 10 15
REMARK Flexibility Score: inf
ROOT
ATOM      1  C   UNL     1      15.551  40.046  80.334  1.00  0.00     0.019 A 
ATOM      2  C   UNL     1      16.079  39.202  81.311  1.00  0.00     0.094 A 
ATOM      3  C   UNL     1      16.293  37.855  80.999  1.00  0.00     0.336 A 
ATOM      4  O   UNL     1      16.770  37.078  81.867  1.00  0.00    -0.246 OA
ATOM      5  O   UNL     1      15.996  37.388  79.789  1.00  0.00    -0.423 OA
ATOM      6  C   UNL     1      15.489  38.159  78.828  1.00  0.00     0.142 A 
ATOM      7  C   UNL     1      15.197  37.612  77.575  1.00  0.00     0.098 A 
ATOM      8  C   UNL     1      14.663  38.420  76.560  1.00  0.00     0.161 A 
ATOM      9  C   UNL     1      14.423  39.781  76.800  1.00  0.00     0.158 A 
ATOM     10  C   UNL     1      14.715  40.335  78.055  1.00  0.00     0.062 A 
ATOM     11  C   UNL     1      15.248  39.528  79.071  1.00  0.00     0.022 A 
ENDROOT
BRANCH   9  12
ATOM     12  O   UNL     1      13.893  40.577  75.786  1.00  0.00    -0.504 OA
ATOM     13  H   UNL     1      14.258  40.546  74.841  1.00  0.00     0.293 HD
ENDBRANCH   9  12
BRANCH   8  14
ATOM     14  O   UNL     1      14.371  37.879  75.310  1.00  0.00    -0.504 OA
ATOM     15  H   UNL     1      13.568  37.276  75.168  1.00  0.00     0.293 HD
ENDBRANCH   8  14
TORSDOF 2
ENDMDL
MODEL 7
REMARK VINA RESULT:    -4.928      1.585      5.026
REMARK INTER + INTRA:          -5.216
REMARK INTER:                  -5.216
REMARK INTRA:                   0.000
REMARK UNBOUND:                 0.000
REMARK SMILES O=c1ccc2cc(O)c(O)cc2o1
REMARK SMILES IDX 4 1 3 2 2 3 1 4 13 5 12 6 11 7 9 8 7 9 6 10 5 11 8 12 10 14
REMARK H PARENT 8 13 10 15
REMARK Flexibility Score: inf
ROOT
ATOM      1  C   UNL     1      28.768  43.886  77.611  1.00  0.00     0.019 A 
ATOM      2  C   UNL     1      29.770  43.373  76.787  1.00  0.00     0.094 A 
ATOM      3  C   UNL     1      30.358  42.148  77.119  1.00  0.00     0.336 A 
ATOM      4  O   UNL     1      31.263  41.668  76.387  1.00  0.00    -0.246 OA
ATOM      5  O   UNL     1      29.966  41.483  78.203  1.00  0.00    -0.423 OA
ATOM      6  C   UNL     1      29.015  41.938  79.016  1.00  0.00     0.142 A 
ATOM      7  C   UNL     1      28.645  41.195  80.142  1.00  0.00     0.098 A 
ATOM      8  C   UNL     1      27.643  41.670  81.002  1.00  0.00     0.161 A 
ATOM      9  C   UNL     1      27.008  42.891  80.733  1.00  0.00     0.158 A 
ATOM     10  C   UNL     1      27.375  43.639  79.604  1.00  0.00     0.062 A 
ATOM     11  C   UNL     1      28.376  43.167  78.745  1.00  0.00     0.022 A 
ENDROOT
BRANCH   9  12
ATOM     12  O   UNL     1      26.013  43.355  81.592  1.00  0.00    -0.504 OA
ATOM     13  H   UNL     1      25.032  43.175  81.414  1.00  0.00     0.293 HD
ENDBRANCH   9  12
BRANCH   8  14
ATOM     14  O   UNL     1      27.272  40.932  82.125  1.00  0.00    -0.504 OA
ATOM     15  H   UNL     1      27.024  41.385  82.998  1.00  0.00     0.293 HD
ENDBRANCH   8  14
TORSDOF 2
ENDMDL
MODEL 8
REMARK VINA RESULT:    -4.906     11.896     14.009
REMARK INTER + INTRA:          -5.193
REMARK INTER:                  -5.193
REMARK INTRA:                   0.000
REMARK UNBOUND:                 0.000
REMARK SMILES O=c1ccc2cc(O)c(O)cc2o1
REMARK SMILES IDX 4 1 3 2 2 3 1 4 13 5 12 6 11 7 9 8 7 9 6 10 5 11 8 12 10 14
REMARK H PARENT 8 13 10 15
REMARK Flexibility Score: inf
ROOT
ATOM      1  C   UNL     1      16.753  35.908  78.372  1.00  0.00     0.019 A 
ATOM      2  C   UNL     1      15.776  35.323  77.566  1.00  0.00     0.094 A 
ATOM      3  C   UNL     1      14.466  35.808  77.631  1.00  0.00     0.336 A 
ATOM      4  O   UNL     1      13.570  35.294  76.911  1.00  0.00    -0.246 OA
ATOM      5  O   UNL     1      14.157  36.811  78.449  1.00  0.00    -0.423 OA
ATOM      6  C   UNL     1      15.058  37.397  79.235  1.00  0.00     0.142 A 
ATOM      7  C   UNL     1      14.676  38.447  80.075  1.00  0.00     0.098 A 
ATOM      8  C   UNL     1      15.622  39.067  80.905  1.00  0.00     0.161 A 
ATOM      9  C   UNL     1      16.957  38.635  80.893  1.00  0.00     0.158 A 
ATOM     10  C   UNL     1      17.346  37.582  80.052  1.00  0.00     0.062 A 
ATOM     11  C   UNL     1      16.401  36.961  79.223  1.00  0.00     0.022 A 
ENDROOT
BRANCH   9  12
ATOM     12  O   UNL     1      17.890  39.257  81.721  1.00  0.00    -0.504 OA
ATOM     13  H   UNL     1      18.860  38.966  81.738  1.00  0.00     0.293 HD
ENDBRANCH   9  12
BRANCH   8  14
ATOM     14  O   UNL     1      15.244  40.115  81.743  1.00  0.00    -0.504 OA
ATOM     15  H   UNL     1      15.827  40.936  81.861  1.00  0.00     0.293 HD
ENDBRANCH   8  14
TORSDOF 2
ENDMDL
