MODEL 1
REMARK VINA RESULT:    -6.790      0.000      0.000
REMARK INTER + INTRA:         -11.278
REMARK INTER:                  -9.966
REMARK INTRA:                  -1.312
REMARK UNBOUND:                -1.312
REMARK SMILES O=c1c(O[C@@H]2O[C@H](CO)[C@@H](O)[C@@H](O)[C@H]2O)c(-c2ccc(O)c(O)c2)oc2cc(O)cc(O)c12
REMARK SMILES IDX 4 1 3 2 16 3 25 4 2 5 26 6 1 7 33 8 27 9 31 10 28 11 30 12
REMARK SMILES IDX 17 13 18 14 19 15 20 16 24 17 22 18 21 19 23 21 32 23 29 25
REMARK SMILES IDX 5 27 14 28 6 29 12 30 7 31 10 32 15 33 13 35 8 37 9 38 11 40
REMARK H PARENT 21 20 23 22 32 24 29 26 15 34 13 36 9 39 11 41
REMARK Flexibility Score: inf
ROOT
ATOM      1  O   UNL     1     -39.258   7.007  79.715  1.00  0.00    -0.454 OA
ENDROOT
BRANCH   1   2
ATOM      2  C   UNL     1     -38.275   6.201  80.310  1.00  0.00     0.214 A 
ATOM      3  C   UNL     1     -38.312   4.796  80.212  1.00  0.00     0.180 A 
ATOM      4  O   UNL     1     -37.338   4.072  80.751  1.00  0.00    -0.452 OA
ATOM      5  C   UNL     1     -37.239   6.801  81.036  1.00  0.00     0.239 A 
ATOM      6  C   UNL     1     -36.314   4.600  81.411  1.00  0.00     0.146 A 
ATOM      7  O   UNL     1     -37.275   8.046  81.216  1.00  0.00    -0.285 OA
ATOM      8  C   UNL     1     -36.194   6.006  81.564  1.00  0.00     0.111 A 
ATOM      9  C   UNL     1     -35.363   3.741  81.970  1.00  0.00     0.094 A 
ATOM     10  C   UNL     1     -35.054   6.521  82.250  1.00  0.00     0.134 A 
ATOM     11  C   UNL     1     -34.285   4.255  82.692  1.00  0.00     0.123 A 
ATOM     12  C   UNL     1     -34.139   5.635  82.831  1.00  0.00     0.093 A 
BRANCH   3  13
ATOM     13  C   UNL     1     -39.415   4.081  79.533  1.00  0.00     0.025 A 
ATOM     14  C   UNL     1     -39.218   3.450  78.293  1.00  0.00     0.016 A 
ATOM     15  C   UNL     1     -40.267   2.759  77.680  1.00  0.00     0.051 A 
ATOM     16  C   UNL     1     -41.524   2.695  78.293  1.00  0.00     0.157 A 
ATOM     17  C   UNL     1     -40.684   4.039  80.130  1.00  0.00     0.062 A 
ATOM     18  C   UNL     1     -41.733   3.340  79.523  1.00  0.00     0.158 A 
BRANCH  16  19
ATOM     19  O   UNL     1     -42.564   1.996  77.685  1.00  0.00    -0.504 OA
ATOM     20  H   UNL     1     -43.422   2.456  77.403  1.00  0.00     0.293 HD
ENDBRANCH  16  19
BRANCH  18  21
ATOM     21  O   UNL     1     -42.976   3.297  80.158  1.00  0.00    -0.504 OA
ATOM     22  H   UNL     1     -43.814   2.993  79.679  1.00  0.00     0.293 HD
ENDBRANCH  18  21
ENDBRANCH   3  13
BRANCH  10  23
ATOM     23  O   UNL     1     -34.762   7.884  82.362  1.00  0.00    -0.507 OA
ATOM     24  H   UNL     1     -35.124   8.599  81.750  1.00  0.00     0.293 HD
ENDBRANCH  10  23
BRANCH  11  25
ATOM     25  O   UNL     1     -33.348   3.403  83.272  1.00  0.00    -0.508 OA
ATOM     26  H   UNL     1     -33.052   3.514  84.235  1.00  0.00     0.293 HD
ENDBRANCH  11  25
ENDBRANCH   1   2
BRANCH   1  27
ATOM     27  C   UNL     1     -39.173   7.480  78.365  1.00  0.00     0.339 C 
ATOM     28  C   UNL     1     -39.993   8.783  78.204  1.00  0.00     0.214 C 
ATOM     29  O   UNL     1     -37.810   7.646  78.007  1.00  0.00    -0.332 OA
ATOM     30  C   UNL     1     -39.952   9.313  76.747  1.00  0.00     0.180 C 
ATOM     31  C   UNL     1     -37.567   8.391  76.816  1.00  0.00     0.179 C 
ATOM     32  C   UNL     1     -38.812   8.661  75.928  1.00  0.00     0.177 C 
BRANCH  28  33
ATOM     33  O   UNL     1     -41.314   8.615  78.659  1.00  0.00    -0.384 OA
ATOM     34  H   UNL     1     -41.786   9.481  78.550  1.00  0.00     0.211 HD
ENDBRANCH  28  33
BRANCH  30  35
ATOM     35  O   UNL     1     -41.187   9.115  76.104  1.00  0.00    -0.387 OA
ATOM     36  H   UNL     1     -41.016   8.507  75.337  1.00  0.00     0.211 HD
ENDBRANCH  30  35
BRANCH  31  37
ATOM     37  C   UNL     1     -36.824   9.683  77.185  1.00  0.00     0.191 C 
BRANCH  37  38
ATOM     38  O   UNL     1     -36.531   9.696  78.556  1.00  0.00    -0.394 OA
ATOM     39  H   UNL     1     -37.401   9.582  79.025  1.00  0.00     0.210 HD
ENDBRANCH  37  38
ENDBRANCH  31  37
BRANCH  32  40
ATOM     40  O   UNL     1     -39.239   7.441  75.369  1.00  0.00    -0.387 OA
ATOM     41  H   UNL     1     -39.579   7.637  74.456  1.00  0.00     0.211 HD
ENDBRANCH  32  40
ENDBRANCH   1  27
TORSDOF 12
ENDMDL
MODEL 2
REMARK VINA RESULT:    -6.689      2.476      7.435
REMARK INTER + INTRA:         -11.130
REMARK INTER:                 -10.164
REMARK INTRA:                  -0.967
REMARK UNBOUND:                -1.312
REMARK SMILES O=c1c(O[C@@H]2O[C@H](CO)[C@@H](O)[C@@H](O)[C@H]2O)c(-c2ccc(O)c(O)c2)oc2cc(O)cc(O)c12
REMARK SMILES IDX 4 1 3 2 16 3 25 4 2 5 26 6 1 7 33 8 27 9 31 10 28 11 30 12
REMARK SMILES IDX 17 13 18 14 19 15 20 16 24 17 22 18 21 19 23 21 32 23 29 25
REMARK SMILES IDX 5 27 14 28 6 29 12 30 7 31 10 32 15 33 13 35 8 37 9 38 11 40
REMARK H PARENT 21 20 23 22 32 24 29 26 15 34 13 36 9 39 11 41
REMARK Flexibility Score: inf
ROOT
ATOM      1  O   UNL     1     -38.147   5.914  81.377  1.00  0.00    -0.454 OA
ENDROOT
BRANCH   1   2
ATOM      2  C   UNL     1     -38.842   5.274  80.339  1.00  0.00     0.214 A 
ATOM      3  C   UNL     1     -38.272   5.105  79.061  1.00  0.00     0.180 A 
ATOM      4  O   UNL     1     -38.946   4.452  78.122  1.00  0.00    -0.452 OA
ATOM      5  C   UNL     1     -40.140   4.802  80.568  1.00  0.00     0.239 A 
ATOM      6  C   UNL     1     -40.161   3.952  78.307  1.00  0.00     0.146 A 
ATOM      7  O   UNL     1     -40.685   5.058  81.674  1.00  0.00    -0.285 OA
ATOM      8  C   UNL     1     -40.816   4.076  79.560  1.00  0.00     0.111 A 
ATOM      9  C   UNL     1     -40.794   3.315  77.235  1.00  0.00     0.094 A 
ATOM     10  C   UNL     1     -42.107   3.487  79.715  1.00  0.00     0.134 A 
ATOM     11  C   UNL     1     -42.081   2.797  77.382  1.00  0.00     0.123 A 
ATOM     12  C   UNL     1     -42.729   2.888  78.613  1.00  0.00     0.093 A 
BRANCH   3  13
ATOM     13  C   UNL     1     -36.940   5.643  78.714  1.00  0.00     0.025 A 
ATOM     14  C   UNL     1     -36.799   6.904  78.110  1.00  0.00     0.016 A 
ATOM     15  C   UNL     1     -35.529   7.405  77.813  1.00  0.00     0.051 A 
ATOM     16  C   UNL     1     -34.385   6.652  78.108  1.00  0.00     0.157 A 
ATOM     17  C   UNL     1     -35.793   4.880  78.982  1.00  0.00     0.062 A 
ATOM     18  C   UNL     1     -34.519   5.382  78.694  1.00  0.00     0.158 A 
BRANCH  16  19
ATOM     19  O   UNL     1     -33.120   7.159  77.821  1.00  0.00    -0.504 OA
ATOM     20  H   UNL     1     -32.338   7.025  78.451  1.00  0.00     0.293 HD
ENDBRANCH  16  19
BRANCH  18  21
ATOM     21  O   UNL     1     -33.400   4.606  78.997  1.00  0.00    -0.504 OA
ATOM     22  H   UNL     1     -33.303   3.652  78.673  1.00  0.00     0.293 HD
ENDBRANCH  18  21
ENDBRANCH   3  13
BRANCH  10  23
ATOM     23  O   UNL     1     -42.800   3.438  80.928  1.00  0.00    -0.507 OA
ATOM     24  H   UNL     1     -43.471   4.127  81.232  1.00  0.00     0.293 HD
ENDBRANCH  10  23
BRANCH  11  25
ATOM     25  O   UNL     1     -42.726   2.182  76.311  1.00  0.00    -0.508 OA
ATOM     26  H   UNL     1     -42.238   1.547  75.689  1.00  0.00     0.293 HD
ENDBRANCH  11  25
ENDBRANCH   1   2
BRANCH   1  27
ATOM     27  C   UNL     1     -36.927   5.410  81.933  1.00  0.00     0.339 C 
ATOM     28  C   UNL     1     -36.627   6.109  83.281  1.00  0.00     0.214 C 
ATOM     29  O   UNL     1     -37.013   3.999  82.059  1.00  0.00    -0.332 OA
ATOM     30  C   UNL     1     -35.296   5.611  83.904  1.00  0.00     0.180 C 
ATOM     31  C   UNL     1     -36.013   3.385  82.868  1.00  0.00     0.179 C 
ATOM     32  C   UNL     1     -34.812   4.293  83.255  1.00  0.00     0.177 C 
BRANCH  28  33
ATOM     33  O   UNL     1     -36.646   7.510  83.146  1.00  0.00    -0.384 OA
ATOM     34  H   UNL     1     -36.246   7.737  82.267  1.00  0.00     0.211 HD
ENDBRANCH  28  33
BRANCH  30  35
ATOM     35  O   UNL     1     -34.296   6.595  83.807  1.00  0.00    -0.387 OA
ATOM     36  H   UNL     1     -34.129   6.926  84.729  1.00  0.00     0.211 HD
ENDBRANCH  30  35
BRANCH  31  37
ATOM     37  C   UNL     1     -36.689   2.759  84.097  1.00  0.00     0.191 C 
BRANCH  37  38
ATOM     38  O   UNL     1     -37.775   1.968  83.699  1.00  0.00    -0.394 OA
ATOM     39  H   UNL     1     -38.232   2.472  82.973  1.00  0.00     0.210 HD
ENDBRANCH  37  38
ENDBRANCH  31  37
BRANCH  32  40
ATOM     40  O   UNL     1     -34.058   4.557  82.096  1.00  0.00    -0.387 OA
ATOM     41  H   UNL     1     -33.101   4.558  82.361  1.00  0.00     0.211 HD
ENDBRANCH  32  40
ENDBRANCH   1  27
TORSDOF 12
ENDMDL
MODEL 3
REMARK VINA RESULT:    -6.451      2.859      6.792
REMARK INTER + INTRA:         -10.781
REMARK INTER:                  -9.362
REMARK INTRA:                  -1.419
REMARK UNBOUND:                -1.312
REMARK SMILES O=c1c(O[C@@H]2O[C@H](CO)[C@@H](O)[C@@H](O)[C@H]2O)c(-c2ccc(O)c(O)c2)oc2cc(O)cc(O)c12
REMARK SMILES IDX 4 1 3 2 16 3 25 4 2 5 26 6 1 7 33 8 27 9 31 10 28 11 30 12
REMARK SMILES IDX 17 13 18 14 19 15 20 16 24 17 22 18 21 19 23 21 32 23 29 25
REMARK SMILES IDX 5 27 14 28 6 29 12 30 7 31 10 32 15 33 13 35 8 37 9 38 11 40
REMARK H PARENT 21 20 23 22 32 24 29 26 15 34 13 36 9 39 11 41
REMARK Flexibility Score: inf
ROOT
ATOM      1  O   UNL     1     -37.491   5.230  82.051  1.00  0.00    -0.454 OA
ENDROOT
BRANCH   1   2
ATOM      2  C   UNL     1     -38.247   4.797  80.951  1.00  0.00     0.214 A 
ATOM      3  C   UNL     1     -37.702   4.748  79.652  1.00  0.00     0.180 A 
ATOM      4  O   UNL     1     -38.436   4.288  78.647  1.00  0.00    -0.452 OA
ATOM      5  C   UNL     1     -39.581   4.417  81.139  1.00  0.00     0.239 A 
ATOM      6  C   UNL     1     -39.691   3.878  78.786  1.00  0.00     0.146 A 
ATOM      7  O   UNL     1     -40.095   4.572  82.278  1.00  0.00    -0.285 OA
ATOM      8  C   UNL     1     -40.326   3.893  80.055  1.00  0.00     0.111 A 
ATOM      9  C   UNL     1     -40.385   3.447  77.651  1.00  0.00     0.094 A 
ATOM     10  C   UNL     1     -41.664   3.407  80.154  1.00  0.00     0.134 A 
ATOM     11  C   UNL     1     -41.713   3.031  77.751  1.00  0.00     0.123 A 
ATOM     12  C   UNL     1     -42.343   3.016  78.994  1.00  0.00     0.093 A 
BRANCH   3  13
ATOM     13  C   UNL     1     -36.328   5.207  79.356  1.00  0.00     0.025 A 
ATOM     14  C   UNL     1     -35.210   4.429  79.703  1.00  0.00     0.016 A 
ATOM     15  C   UNL     1     -33.921   4.870  79.392  1.00  0.00     0.051 A 
ATOM     16  C   UNL     1     -33.731   6.092  78.737  1.00  0.00     0.157 A 
ATOM     17  C   UNL     1     -36.132   6.445  78.725  1.00  0.00     0.062 A 
ATOM     18  C   UNL     1     -34.843   6.885  78.404  1.00  0.00     0.158 A 
BRANCH  16  19
ATOM     19  O   UNL     1     -32.445   6.523  78.418  1.00  0.00    -0.504 OA
ATOM     20  H   UNL     1     -31.626   5.977  78.660  1.00  0.00     0.293 HD
ENDBRANCH  16  19
BRANCH  18  21
ATOM     21  O   UNL     1     -34.686   8.110  77.753  1.00  0.00    -0.504 OA
ATOM     22  H   UNL     1     -33.938   8.750  77.985  1.00  0.00     0.293 HD
ENDBRANCH  18  21
ENDBRANCH   3  13
BRANCH  10  23
ATOM     23  O   UNL     1     -42.352   3.260  81.362  1.00  0.00    -0.507 OA
ATOM     24  H   UNL     1     -42.343   2.424  81.928  1.00  0.00     0.293 HD
ENDBRANCH  10  23
BRANCH  11  25
ATOM     25  O   UNL     1     -42.416   2.623  76.620  1.00  0.00    -0.508 OA
ATOM     26  H   UNL     1     -43.341   2.982  76.410  1.00  0.00     0.293 HD
ENDBRANCH  11  25
ENDBRANCH   1   2
BRANCH   1  27
ATOM     27  C   UNL     1     -37.149   6.602  82.278  1.00  0.00     0.339 C 
ATOM     28  C   UNL     1     -37.765   7.094  83.609  1.00  0.00     0.214 C 
ATOM     29  O   UNL     1     -35.737   6.748  82.245  1.00  0.00    -0.332 OA
ATOM     30  C   UNL     1     -37.442   8.587  83.879  1.00  0.00     0.180 C 
ATOM     31  C   UNL     1     -35.228   7.981  82.749  1.00  0.00     0.179 C 
ATOM     32  C   UNL     1     -36.284   9.096  82.987  1.00  0.00     0.177 C 
BRANCH  28  33
ATOM     33  O   UNL     1     -39.150   6.846  83.653  1.00  0.00    -0.384 OA
ATOM     34  H   UNL     1     -39.560   7.262  82.852  1.00  0.00     0.211 HD
ENDBRANCH  28  33
BRANCH  30  35
ATOM     35  O   UNL     1     -38.582   9.390  83.698  1.00  0.00    -0.387 OA
ATOM     36  H   UNL     1     -39.353   8.877  84.058  1.00  0.00     0.211 HD
ENDBRANCH  30  35
BRANCH  31  37
ATOM     37  C   UNL     1     -34.392   7.693  84.005  1.00  0.00     0.191 C 
BRANCH  37  38
ATOM     38  O   UNL     1     -33.901   6.380  83.966  1.00  0.00    -0.394 OA
ATOM     39  H   UNL     1     -34.344   5.898  84.714  1.00  0.00     0.210 HD
ENDBRANCH  37  38
ENDBRANCH  31  37
BRANCH  32  40
ATOM     40  O   UNL     1     -36.771   9.526  81.739  1.00  0.00    -0.387 OA
ATOM     41  H   UNL     1     -35.990   9.828  81.205  1.00  0.00     0.211 HD
ENDBRANCH  32  40
ENDBRANCH   1  27
TORSDOF 12
ENDMDL
MODEL 4
REMARK VINA RESULT:    -6.416      2.313      6.610
REMARK INTER + INTRA:         -10.730
REMARK INTER:                  -9.432
REMARK INTRA:                  -1.298
REMARK UNBOUND:                -1.312
REMARK SMILES O=c1c(O[C@@H]2O[C@H](CO)[C@@H](O)[C@@H](O)[C@H]2O)c(-c2ccc(O)c(O)c2)oc2cc(O)cc(O)c12
REMARK SMILES IDX 4 1 3 2 16 3 25 4 2 5 26 6 1 7 33 8 27 9 31 10 28 11 30 12
REMARK SMILES IDX 17 13 18 14 19 15 20 16 24 17 22 18 21 19 23 21 32 23 29 25
REMARK SMILES IDX 5 27 14 28 6 29 12 30 7 31 10 32 15 33 13 35 8 37 9 38 11 40
REMARK H PARENT 21 20 23 22 32 24 29 26 15 34 13 36 9 39 11 41
REMARK Flexibility Score: inf
ROOT
ATOM      1  O   UNL     1     -37.891   5.473  81.806  1.00  0.00    -0.454 OA
ENDROOT
BRANCH   1   2
ATOM      2  C   UNL     1     -38.588   4.932  80.715  1.00  0.00     0.214 A 
ATOM      3  C   UNL     1     -37.978   4.769  79.455  1.00  0.00     0.180 A 
ATOM      4  O   UNL     1     -38.658   4.209  78.462  1.00  0.00    -0.452 OA
ATOM      5  C   UNL     1     -39.927   4.556  80.871  1.00  0.00     0.239 A 
ATOM      6  C   UNL     1     -39.915   3.800  78.576  1.00  0.00     0.146 A 
ATOM      7  O   UNL     1     -40.499   4.809  81.963  1.00  0.00    -0.285 OA
ATOM      8  C   UNL     1     -40.613   3.925  79.805  1.00  0.00     0.111 A 
ATOM      9  C   UNL     1     -40.548   3.258  77.453  1.00  0.00     0.094 A 
ATOM     10  C   UNL     1     -41.951   3.435  79.882  1.00  0.00     0.134 A 
ATOM     11  C   UNL     1     -41.876   2.838  77.525  1.00  0.00     0.123 A 
ATOM     12  C   UNL     1     -42.569   2.932  78.731  1.00  0.00     0.093 A 
BRANCH   3  13
ATOM     13  C   UNL     1     -36.593   5.214  79.186  1.00  0.00     0.025 A 
ATOM     14  C   UNL     1     -35.490   4.463  79.625  1.00  0.00     0.016 A 
ATOM     15  C   UNL     1     -34.190   4.888  79.338  1.00  0.00     0.051 A 
ATOM     16  C   UNL     1     -33.975   6.069  78.617  1.00  0.00     0.157 A 
ATOM     17  C   UNL     1     -36.374   6.412  78.489  1.00  0.00     0.062 A 
ATOM     18  C   UNL     1     -35.073   6.835  78.192  1.00  0.00     0.158 A 
BRANCH  16  19
ATOM     19  O   UNL     1     -32.678   6.484  78.324  1.00  0.00    -0.504 OA
ATOM     20  H   UNL     1     -31.870   5.935  78.595  1.00  0.00     0.293 HD
ENDBRANCH  16  19
BRANCH  18  21
ATOM     21  O   UNL     1     -34.893   8.018  77.474  1.00  0.00    -0.504 OA
ATOM     22  H   UNL     1     -35.493   8.823  77.604  1.00  0.00     0.293 HD
ENDBRANCH  18  21
ENDBRANCH   3  13
BRANCH  10  23
ATOM     23  O   UNL     1     -42.698   3.393  81.063  1.00  0.00    -0.507 OA
ATOM     24  H   UNL     1     -42.959   2.546  81.545  1.00  0.00     0.293 HD
ENDBRANCH  10  23
BRANCH  11  25
ATOM     25  O   UNL     1     -42.519   2.319  76.403  1.00  0.00    -0.508 OA
ATOM     26  H   UNL     1     -42.117   1.561  75.862  1.00  0.00     0.293 HD
ENDBRANCH  11  25
ENDBRANCH   1   2
BRANCH   1  27
ATOM     27  C   UNL     1     -37.915   6.866  82.140  1.00  0.00     0.339 C 
ATOM     28  C   UNL     1     -36.521   7.495  81.902  1.00  0.00     0.214 C 
ATOM     29  O   UNL     1     -38.938   7.512  81.399  1.00  0.00    -0.332 OA
ATOM     30  C   UNL     1     -36.496   9.000  82.280  1.00  0.00     0.180 C 
ATOM     31  C   UNL     1     -38.893   8.937  81.388  1.00  0.00     0.179 C 
ATOM     32  C   UNL     1     -37.922   9.585  82.414  1.00  0.00     0.177 C 
BRANCH  28  33
ATOM     33  O   UNL     1     -35.514   6.775  82.570  1.00  0.00    -0.384 OA
ATOM     34  H   UNL     1     -35.327   5.954  82.045  1.00  0.00     0.211 HD
ENDBRANCH  28  33
BRANCH  30  35
ATOM     35  O   UNL     1     -35.772   9.209  83.467  1.00  0.00    -0.387 OA
ATOM     36  H   UNL     1     -35.678  10.192  83.576  1.00  0.00     0.211 HD
ENDBRANCH  30  35
BRANCH  31  37
ATOM     37  C   UNL     1     -38.624   9.412  79.953  1.00  0.00     0.191 C 
BRANCH  37  38
ATOM     38  O   UNL     1     -39.158   8.497  79.035  1.00  0.00    -0.394 OA
ATOM     39  H   UNL     1     -38.406   7.903  78.767  1.00  0.00     0.210 HD
ENDBRANCH  37  38
ENDBRANCH  31  37
BRANCH  32  40
ATOM     40  O   UNL     1     -38.428   9.367  83.709  1.00  0.00    -0.387 OA
ATOM     41  H   UNL     1     -39.011  10.140  83.933  1.00  0.00     0.211 HD
ENDBRANCH  32  40
ENDBRANCH   1  27
TORSDOF 12
ENDMDL
MODEL 5
REMARK VINA RESULT:    -6.237      2.236      5.591
REMARK INTER + INTRA:         -10.467
REMARK INTER:                  -9.611
REMARK INTRA:                  -0.855
REMARK UNBOUND:                -1.312
REMARK SMILES O=c1c(O[C@@H]2O[C@H](CO)[C@@H](O)[C@@H](O)[C@H]2O)c(-c2ccc(O)c(O)c2)oc2cc(O)cc(O)c12
REMARK SMILES IDX 4 1 3 2 16 3 25 4 2 5 26 6 1 7 33 8 27 9 31 10 28 11 30 12
REMARK SMILES IDX 17 13 18 14 19 15 20 16 24 17 22 18 21 19 23 21 32 23 29 25
REMARK SMILES IDX 5 27 14 28 6 29 12 30 7 31 10 32 15 33 13 35 8 37 9 38 11 40
REMARK H PARENT 21 20 23 22 32 24 29 26 15 34 13 36 9 39 11 41
REMARK Flexibility Score: inf
ROOT
ATOM      1  O   UNL     1     -38.500   5.327  77.749  1.00  0.00    -0.454 OA
ENDROOT
BRANCH   1   2
ATOM      2  C   UNL     1     -37.470   6.223  78.074  1.00  0.00     0.214 A 
ATOM      3  C   UNL     1     -37.641   7.618  77.967  1.00  0.00     0.180 A 
ATOM      4  O   UNL     1     -36.656   8.431  78.328  1.00  0.00    -0.452 OA
ATOM      5  C   UNL     1     -36.233   5.725  78.500  1.00  0.00     0.239 A 
ATOM      6  C   UNL     1     -35.482   8.005  78.777  1.00  0.00     0.146 A 
ATOM      7  O   UNL     1     -36.049   4.479  78.483  1.00  0.00    -0.285 OA
ATOM      8  C   UNL     1     -35.216   6.618  78.916  1.00  0.00     0.111 A 
ATOM      9  C   UNL     1     -34.503   8.951  79.095  1.00  0.00     0.094 A 
ATOM     10  C   UNL     1     -33.951   6.215  79.439  1.00  0.00     0.134 A 
ATOM     11  C   UNL     1     -33.247   8.542  79.547  1.00  0.00     0.123 A 
ATOM     12  C   UNL     1     -32.978   7.184  79.712  1.00  0.00     0.093 A 
BRANCH   3  13
ATOM     13  C   UNL     1     -38.888   8.222  77.450  1.00  0.00     0.025 A 
ATOM     14  C   UNL     1     -38.940   8.799  76.169  1.00  0.00     0.016 A 
ATOM     15  C   UNL     1     -40.135   9.342  75.690  1.00  0.00     0.051 A 
ATOM     16  C   UNL     1     -41.289   9.322  76.484  1.00  0.00     0.157 A 
ATOM     17  C   UNL     1     -40.038   8.230  78.253  1.00  0.00     0.062 A 
ATOM     18  C   UNL     1     -41.239   8.765  77.772  1.00  0.00     0.158 A 
BRANCH  16  19
ATOM     19  O   UNL     1     -42.481   9.854  75.998  1.00  0.00    -0.504 OA
ATOM     20  H   UNL     1     -42.643  10.854  75.967  1.00  0.00     0.293 HD
ENDBRANCH  16  19
BRANCH  18  21
ATOM     21  O   UNL     1     -42.370   8.732  78.588  1.00  0.00    -0.504 OA
ATOM     22  H   UNL     1     -42.782   9.575  78.970  1.00  0.00     0.293 HD
ENDBRANCH  18  21
ENDBRANCH   3  13
BRANCH  10  23
ATOM     23  O   UNL     1     -33.615   4.891  79.733  1.00  0.00    -0.507 OA
ATOM     24  H   UNL     1     -32.871   4.377  79.286  1.00  0.00     0.293 HD
ENDBRANCH  10  23
BRANCH  11  25
ATOM     25  O   UNL     1     -32.259   9.479  79.842  1.00  0.00    -0.508 OA
ATOM     26  H   UNL     1     -31.608   9.805  79.136  1.00  0.00     0.293 HD
ENDBRANCH  11  25
ENDBRANCH   1   2
BRANCH   1  27
ATOM     27  C   UNL     1     -39.387   4.764  78.723  1.00  0.00     0.339 C 
ATOM     28  C   UNL     1     -39.802   3.334  78.303  1.00  0.00     0.214 C 
ATOM     29  O   UNL     1     -38.769   4.799  80.000  1.00  0.00    -0.332 OA
ATOM     30  C   UNL     1     -40.788   2.698  79.318  1.00  0.00     0.180 C 
ATOM     31  C   UNL     1     -39.390   4.008  81.012  1.00  0.00     0.179 C 
ATOM     32  C   UNL     1     -40.801   3.461  80.664  1.00  0.00     0.177 C 
BRANCH  28  33
ATOM     33  O   UNL     1     -40.320   3.316  76.994  1.00  0.00    -0.384 OA
ATOM     34  H   UNL     1     -40.275   2.382  76.662  1.00  0.00     0.211 HD
ENDBRANCH  28  33
BRANCH  30  35
ATOM     35  O   UNL     1     -42.088   2.633  78.784  1.00  0.00    -0.387 OA
ATOM     36  H   UNL     1     -42.332   3.557  78.513  1.00  0.00     0.211 HD
ENDBRANCH  30  35
BRANCH  31  37
ATOM     37  C   UNL     1     -38.420   2.894  81.431  1.00  0.00     0.191 C 
BRANCH  37  38
ATOM     38  O   UNL     1     -39.124   1.847  82.042  1.00  0.00    -0.394 OA
ATOM     39  H   UNL     1     -39.468   2.210  82.901  1.00  0.00     0.210 HD
ENDBRANCH  37  38
ENDBRANCH  31  37
BRANCH  32  40
ATOM     40  O   UNL     1     -41.702   4.541  80.613  1.00  0.00    -0.387 OA
ATOM     41  H   UNL     1     -41.257   5.317  81.045  1.00  0.00     0.211 HD
ENDBRANCH  32  40
ENDBRANCH   1  27
TORSDOF 12
ENDMDL
MODEL 6
REMARK VINA RESULT:    -6.157      2.504      5.160
REMARK INTER + INTRA:         -10.349
REMARK INTER:                  -8.839
REMARK INTRA:                  -1.511
REMARK UNBOUND:                -1.312
REMARK SMILES O=c1c(O[C@@H]2O[C@H](CO)[C@@H](O)[C@@H](O)[C@H]2O)c(-c2ccc(O)c(O)c2)oc2cc(O)cc(O)c12
REMARK SMILES IDX 4 1 3 2 16 3 25 4 2 5 26 6 1 7 33 8 27 9 31 10 28 11 30 12
REMARK SMILES IDX 17 13 18 14 19 15 20 16 24 17 22 18 21 19 23 21 32 23 29 25
REMARK SMILES IDX 5 27 14 28 6 29 12 30 7 31 10 32 15 33 13 35 8 37 9 38 11 40
REMARK H PARENT 21 20 23 22 32 24 29 26 15 34 13 36 9 39 11 41
REMARK Flexibility Score: inf
ROOT
ATOM      1  O   UNL     1     -37.122   7.572  80.465  1.00  0.00    -0.454 OA
ENDROOT
BRANCH   1   2
ATOM      2  C   UNL     1     -37.885   6.446  80.811  1.00  0.00     0.214 A 
ATOM      3  C   UNL     1     -39.057   6.102  80.108  1.00  0.00     0.180 A 
ATOM      4  O   UNL     1     -39.724   5.003  80.439  1.00  0.00    -0.452 OA
ATOM      5  C   UNL     1     -37.486   5.649  81.891  1.00  0.00     0.239 A 
ATOM      6  C   UNL     1     -39.360   4.195  81.427  1.00  0.00     0.146 A 
ATOM      7  O   UNL     1     -36.505   6.025  82.585  1.00  0.00    -0.285 OA
ATOM      8  C   UNL     1     -38.195   4.462  82.193  1.00  0.00     0.111 A 
ATOM      9  C   UNL     1     -40.158   3.084  81.713  1.00  0.00     0.094 A 
ATOM     10  C   UNL     1     -37.829   3.541  83.220  1.00  0.00     0.134 A 
ATOM     11  C   UNL     1     -39.823   2.224  82.760  1.00  0.00     0.123 A 
ATOM     12  C   UNL     1     -38.669   2.458  83.506  1.00  0.00     0.093 A 
BRANCH   3  13
ATOM     13  C   UNL     1     -39.590   6.934  79.008  1.00  0.00     0.025 A 
ATOM     14  C   UNL     1     -40.613   7.870  79.234  1.00  0.00     0.016 A 
ATOM     15  C   UNL     1     -41.085   8.664  78.185  1.00  0.00     0.051 A 
ATOM     16  C   UNL     1     -40.547   8.530  76.899  1.00  0.00     0.157 A 
ATOM     17  C   UNL     1     -39.073   6.782  77.712  1.00  0.00     0.062 A 
ATOM     18  C   UNL     1     -39.537   7.582  76.662  1.00  0.00     0.158 A 
BRANCH  16  19
ATOM     19  O   UNL     1     -41.012   9.331  75.859  1.00  0.00    -0.504 OA
ATOM     20  H   UNL     1     -41.413   8.931  75.018  1.00  0.00     0.293 HD
ENDBRANCH  16  19
BRANCH  18  21
ATOM     21  O   UNL     1     -38.982   7.422  75.392  1.00  0.00    -0.504 OA
ATOM     22  H   UNL     1     -38.909   8.190  74.736  1.00  0.00     0.293 HD
ENDBRANCH  18  21
ENDBRANCH   3  13
BRANCH  10  23
ATOM     23  O   UNL     1     -36.647   3.629  83.960  1.00  0.00    -0.507 OA
ATOM     24  H   UNL     1     -36.224   2.858  84.456  1.00  0.00     0.293 HD
ENDBRANCH  10  23
BRANCH  11  25
ATOM     25  O   UNL     1     -40.627   1.128  83.064  1.00  0.00    -0.508 OA
ATOM     26  H   UNL     1     -40.735   0.795  84.016  1.00  0.00     0.293 HD
ENDBRANCH  11  25
ENDBRANCH   1   2
BRANCH   1  27
ATOM     27  C   UNL     1     -35.944   7.503  79.653  1.00  0.00     0.339 C 
ATOM     28  C   UNL     1     -34.730   8.075  80.424  1.00  0.00     0.214 C 
ATOM     29  O   UNL     1     -35.739   6.163  79.232  1.00  0.00    -0.332 OA
ATOM     30  C   UNL     1     -33.437   8.046  79.568  1.00  0.00     0.180 C 
ATOM     31  C   UNL     1     -34.457   5.876  78.677  1.00  0.00     0.179 C 
ATOM     32  C   UNL     1     -33.579   7.112  78.341  1.00  0.00     0.177 C 
BRANCH  28  33
ATOM     33  O   UNL     1     -34.999   9.367  80.915  1.00  0.00    -0.384 OA
ATOM     34  H   UNL     1     -34.136   9.847  80.997  1.00  0.00     0.211 HD
ENDBRANCH  28  33
BRANCH  30  35
ATOM     35  O   UNL     1     -33.078   9.341  79.153  1.00  0.00    -0.387 OA
ATOM     36  H   UNL     1     -33.495   9.973  79.796  1.00  0.00     0.211 HD
ENDBRANCH  30  35
BRANCH  31  37
ATOM     37  C   UNL     1     -33.734   4.880  79.595  1.00  0.00     0.191 C 
BRANCH  37  38
ATOM     38  O   UNL     1     -34.567   4.516  80.663  1.00  0.00    -0.394 OA
ATOM     39  H   UNL     1     -34.434   5.208  81.365  1.00  0.00     0.210 HD
ENDBRANCH  37  38
ENDBRANCH  31  37
BRANCH  32  40
ATOM     40  O   UNL     1     -34.163   7.798  77.261  1.00  0.00    -0.387 OA
ATOM     41  H   UNL     1     -34.433   8.695  77.591  1.00  0.00     0.211 HD
ENDBRANCH  32  40
ENDBRANCH   1  27
TORSDOF 12
ENDMDL
MODEL 7
REMARK VINA RESULT:    -6.042      2.517      5.460
REMARK INTER + INTRA:         -10.180
REMARK INTER:                  -9.183
REMARK INTRA:                  -0.996
REMARK UNBOUND:                -1.312
REMARK SMILES O=c1c(O[C@@H]2O[C@H](CO)[C@@H](O)[C@@H](O)[C@H]2O)c(-c2ccc(O)c(O)c2)oc2cc(O)cc(O)c12
REMARK SMILES IDX 4 1 3 2 16 3 25 4 2 5 26 6 1 7 33 8 27 9 31 10 28 11 30 12
REMARK SMILES IDX 17 13 18 14 19 15 20 16 24 17 22 18 21 19 23 21 32 23 29 25
REMARK SMILES IDX 5 27 14 28 6 29 12 30 7 31 10 32 15 33 13 35 8 37 9 38 11 40
REMARK H PARENT 21 20 23 22 32 24 29 26 15 34 13 36 9 39 11 41
REMARK Flexibility Score: inf
ROOT
ATOM      1  O   UNL     1     -36.982   5.602  78.466  1.00  0.00    -0.454 OA
ENDROOT
BRANCH   1   2
ATOM      2  C   UNL     1     -38.052   5.197  79.279  1.00  0.00     0.214 A 
ATOM      3  C   UNL     1     -39.348   5.724  79.113  1.00  0.00     0.180 A 
ATOM      4  O   UNL     1     -40.342   5.279  79.873  1.00  0.00    -0.452 OA
ATOM      5  C   UNL     1     -37.829   4.257  80.293  1.00  0.00     0.239 A 
ATOM      6  C   UNL     1     -40.185   4.359  80.817  1.00  0.00     0.146 A 
ATOM      7  O   UNL     1     -36.648   3.877  80.510  1.00  0.00    -0.285 OA
ATOM      8  C   UNL     1     -38.916   3.773  81.059  1.00  0.00     0.111 A 
ATOM      9  C   UNL     1     -41.295   3.991  81.584  1.00  0.00     0.094 A 
ATOM     10  C   UNL     1     -38.811   2.762  82.061  1.00  0.00     0.134 A 
ATOM     11  C   UNL     1     -41.167   3.046  82.602  1.00  0.00     0.123 A 
ATOM     12  C   UNL     1     -39.932   2.442  82.837  1.00  0.00     0.093 A 
BRANCH   3  13
ATOM     13  C   UNL     1     -39.650   6.777  78.120  1.00  0.00     0.025 A 
ATOM     14  C   UNL     1     -39.126   6.721  76.818  1.00  0.00     0.016 A 
ATOM     15  C   UNL     1     -39.444   7.714  75.887  1.00  0.00     0.051 A 
ATOM     16  C   UNL     1     -40.282   8.776  76.246  1.00  0.00     0.157 A 
ATOM     17  C   UNL     1     -40.466   7.859  78.485  1.00  0.00     0.062 A 
ATOM     18  C   UNL     1     -40.794   8.850  77.553  1.00  0.00     0.158 A 
BRANCH  16  19
ATOM     19  O   UNL     1     -40.606   9.758  75.313  1.00  0.00    -0.504 OA
ATOM     20  H   UNL     1     -41.456   9.709  74.763  1.00  0.00     0.293 HD
ENDBRANCH  16  19
BRANCH  18  21
ATOM     21  O   UNL     1     -41.629   9.898  77.942  1.00  0.00    -0.504 OA
ATOM     22  H   UNL     1     -41.872  10.653  77.314  1.00  0.00     0.293 HD
ENDBRANCH  18  21
ENDBRANCH   3  13
BRANCH  10  23
ATOM     23  O   UNL     1     -37.648   2.029  82.310  1.00  0.00    -0.507 OA
ATOM     24  H   UNL     1     -37.252   1.878  83.226  1.00  0.00     0.293 HD
ENDBRANCH  10  23
BRANCH  11  25
ATOM     25  O   UNL     1     -42.263   2.693  83.386  1.00  0.00    -0.508 OA
ATOM     26  H   UNL     1     -42.412   3.093  84.305  1.00  0.00     0.293 HD
ENDBRANCH  11  25
ENDBRANCH   1   2
BRANCH   1  27
ATOM     27  C   UNL     1     -35.978   6.529  78.894  1.00  0.00     0.339 C 
ATOM     28  C   UNL     1     -34.610   6.160  78.270  1.00  0.00     0.214 C 
ATOM     29  O   UNL     1     -36.385   7.850  78.569  1.00  0.00    -0.332 OA
ATOM     30  C   UNL     1     -33.486   7.125  78.732  1.00  0.00     0.180 C 
ATOM     31  C   UNL     1     -35.373   8.850  78.652  1.00  0.00     0.179 C 
ATOM     32  C   UNL     1     -34.059   8.419  79.360  1.00  0.00     0.177 C 
BRANCH  28  33
ATOM     33  O   UNL     1     -34.278   4.816  78.525  1.00  0.00    -0.384 OA
ATOM     34  H   UNL     1     -35.124   4.307  78.622  1.00  0.00     0.211 HD
ENDBRANCH  28  33
BRANCH  30  35
ATOM     35  O   UNL     1     -32.618   6.490  79.638  1.00  0.00    -0.387 OA
ATOM     36  H   UNL     1     -32.649   7.016  80.481  1.00  0.00     0.211 HD
ENDBRANCH  30  35
BRANCH  31  37
ATOM     37  C   UNL     1     -35.120   9.413  77.246  1.00  0.00     0.191 C 
BRANCH  37  38
ATOM     38  O   UNL     1     -36.338   9.633  76.588  1.00  0.00    -0.394 OA
ATOM     39  H   UNL     1     -37.050   9.458  77.259  1.00  0.00     0.210 HD
ENDBRANCH  37  38
ENDBRANCH  31  37
BRANCH  32  40
ATOM     40  O   UNL     1     -34.327   8.230  80.728  1.00  0.00    -0.387 OA
ATOM     41  H   UNL     1     -34.939   8.959  81.013  1.00  0.00     0.211 HD
ENDBRANCH  32  40
ENDBRANCH   1  27
TORSDOF 12
ENDMDL
MODEL 8
REMARK VINA RESULT:    -5.970      2.657      5.884
REMARK INTER + INTRA:         -10.075
REMARK INTER:                  -8.793
REMARK INTRA:                  -1.282
REMARK UNBOUND:                -1.312
REMARK SMILES O=c1c(O[C@@H]2O[C@H](CO)[C@@H](O)[C@@H](O)[C@H]2O)c(-c2ccc(O)c(O)c2)oc2cc(O)cc(O)c12
REMARK SMILES IDX 4 1 3 2 16 3 25 4 2 5 26 6 1 7 33 8 27 9 31 10 28 11 30 12
REMARK SMILES IDX 17 13 18 14 19 15 20 16 24 17 22 18 21 19 23 21 32 23 29 25
REMARK SMILES IDX 5 27 14 28 6 29 12 30 7 31 10 32 15 33 13 35 8 37 9 38 11 40
REMARK H PARENT 21 20 23 22 32 24 29 26 15 34 13 36 9 39 11 41
REMARK Flexibility Score: inf
ROOT
ATOM      1  O   UNL     1     -38.328   6.157  81.635  1.00  0.00    -0.454 OA
ENDROOT
BRANCH   1   2
ATOM      2  C   UNL     1     -37.541   6.637  80.577  1.00  0.00     0.214 A 
ATOM      3  C   UNL     1     -37.698   6.156  79.261  1.00  0.00     0.180 A 
ATOM      4  O   UNL     1     -36.965   6.671  78.281  1.00  0.00    -0.452 OA
ATOM      5  C   UNL     1     -36.564   7.607  80.831  1.00  0.00     0.239 A 
ATOM      6  C   UNL     1     -36.057   7.621  78.468  1.00  0.00     0.146 A 
ATOM      7  O   UNL     1     -36.351   7.947  82.024  1.00  0.00    -0.285 OA
ATOM      8  C   UNL     1     -35.826   8.164  79.759  1.00  0.00     0.111 A 
ATOM      9  C   UNL     1     -35.315   8.064  77.369  1.00  0.00     0.094 A 
ATOM     10  C   UNL     1     -34.864   9.209  79.897  1.00  0.00     0.134 A 
ATOM     11  C   UNL     1     -34.333   9.043  77.528  1.00  0.00     0.123 A 
ATOM     12  C   UNL     1     -34.112   9.605  78.784  1.00  0.00     0.093 A 
BRANCH   3  13
ATOM     13  C   UNL     1     -38.651   5.078  78.924  1.00  0.00     0.025 A 
ATOM     14  C   UNL     1     -40.035   5.318  78.874  1.00  0.00     0.016 A 
ATOM     15  C   UNL     1     -40.916   4.291  78.529  1.00  0.00     0.051 A 
ATOM     16  C   UNL     1     -40.430   3.011  78.236  1.00  0.00     0.157 A 
ATOM     17  C   UNL     1     -38.170   3.787  78.658  1.00  0.00     0.062 A 
ATOM     18  C   UNL     1     -39.049   2.758  78.303  1.00  0.00     0.158 A 
BRANCH  16  19
ATOM     19  O   UNL     1     -41.311   1.992  77.881  1.00  0.00    -0.504 OA
ATOM     20  H   UNL     1     -41.452   1.724  76.914  1.00  0.00     0.293 HD
ENDBRANCH  16  19
BRANCH  18  21
ATOM     21  O   UNL     1     -38.533   1.492  78.019  1.00  0.00    -0.504 OA
ATOM     22  H   UNL     1     -38.961   0.877  77.339  1.00  0.00     0.293 HD
ENDBRANCH  18  21
ENDBRANCH   3  13
BRANCH  10  23
ATOM     23  O   UNL     1     -34.634   9.904  81.087  1.00  0.00    -0.507 OA
ATOM     24  H   UNL     1     -33.745   9.946  81.563  1.00  0.00     0.293 HD
ENDBRANCH  10  23
BRANCH  11  25
ATOM     25  O   UNL     1     -33.575   9.471  76.441  1.00  0.00    -0.508 OA
ATOM     26  H   UNL     1     -32.873  10.198  76.534  1.00  0.00     0.293 HD
ENDBRANCH  11  25
ENDBRANCH   1   2
BRANCH   1  27
ATOM     27  C   UNL     1     -38.235   4.820  82.140  1.00  0.00     0.339 C 
ATOM     28  C   UNL     1     -37.564   4.821  83.534  1.00  0.00     0.214 C 
ATOM     29  O   UNL     1     -39.526   4.230  82.157  1.00  0.00    -0.332 OA
ATOM     30  C   UNL     1     -37.417   3.386  84.105  1.00  0.00     0.180 C 
ATOM     31  C   UNL     1     -39.648   3.024  82.908  1.00  0.00     0.179 C 
ATOM     32  C   UNL     1     -38.310   2.371  83.351  1.00  0.00     0.177 C 
BRANCH  28  33
ATOM     33  O   UNL     1     -36.330   5.499  83.507  1.00  0.00    -0.384 OA
ATOM     34  H   UNL     1     -35.614   4.834  83.681  1.00  0.00     0.211 HD
ENDBRANCH  28  33
BRANCH  30  35
ATOM     35  O   UNL     1     -36.074   2.967  84.074  1.00  0.00    -0.387 OA
ATOM     36  H   UNL     1     -35.519   3.790  84.035  1.00  0.00     0.211 HD
ENDBRANCH  30  35
BRANCH  31  37
ATOM     37  C   UNL     1     -40.595   3.274  84.091  1.00  0.00     0.191 C 
BRANCH  37  38
ATOM     38  O   UNL     1     -40.983   4.620  84.122  1.00  0.00    -0.394 OA
ATOM     39  H   UNL     1     -41.978   4.621  84.121  1.00  0.00     0.210 HD
ENDBRANCH  37  38
ENDBRANCH  31  37
BRANCH  32  40
ATOM     40  O   UNL     1     -37.649   1.881  82.209  1.00  0.00    -0.387 OA
ATOM     41  H   UNL     1     -37.900   0.925  82.110  1.00  0.00     0.211 HD
ENDBRANCH  32  40
ENDBRANCH   1  27
TORSDOF 12
ENDMDL
MODEL 9
REMARK VINA RESULT:    -5.940      2.576      4.642
REMARK INTER + INTRA:         -10.030
REMARK INTER:                  -8.796
REMARK INTRA:                  -1.234
REMARK UNBOUND:                -1.312
REMARK SMILES O=c1c(O[C@@H]2O[C@H](CO)[C@@H](O)[C@@H](O)[C@H]2O)c(-c2ccc(O)c(O)c2)oc2cc(O)cc(O)c12
REMARK SMILES IDX 4 1 3 2 16 3 25 4 2 5 26 6 1 7 33 8 27 9 31 10 28 11 30 12
REMARK SMILES IDX 17 13 18 14 19 15 20 16 24 17 22 18 21 19 23 21 32 23 29 25
REMARK SMILES IDX 5 27 14 28 6 29 12 30 7 31 10 32 15 33 13 35 8 37 9 38 11 40
REMARK H PARENT 21 20 23 22 32 24 29 26 15 34 13 36 9 39 11 41
REMARK Flexibility Score: inf
ROOT
ATOM      1  O   UNL     1     -36.605   4.557  79.614  1.00  0.00    -0.454 OA
ENDROOT
BRANCH   1   2
ATOM      2  C   UNL     1     -35.839   5.321  80.508  1.00  0.00     0.214 A 
ATOM      3  C   UNL     1     -36.140   5.374  81.883  1.00  0.00     0.180 A 
ATOM      4  O   UNL     1     -35.362   6.072  82.701  1.00  0.00    -0.452 OA
ATOM      5  C   UNL     1     -34.757   6.067  80.024  1.00  0.00     0.239 A 
ATOM      6  C   UNL     1     -34.302   6.759  82.294  1.00  0.00     0.146 A 
ATOM      7  O   UNL     1     -34.564   6.107  78.780  1.00  0.00    -0.285 OA
ATOM      8  C   UNL     1     -33.923   6.769  80.926  1.00  0.00     0.111 A 
ATOM      9  C   UNL     1     -33.575   7.491  83.237  1.00  0.00     0.094 A 
ATOM     10  C   UNL     1     -32.754   7.494  80.548  1.00  0.00     0.134 A 
ATOM     11  C   UNL     1     -32.468   8.246  82.845  1.00  0.00     0.123 A 
ATOM     12  C   UNL     1     -32.068   8.247  81.509  1.00  0.00     0.093 A 
BRANCH   3  13
ATOM     13  C   UNL     1     -37.312   4.681  82.461  1.00  0.00     0.025 A 
ATOM     14  C   UNL     1     -38.431   5.399  82.915  1.00  0.00     0.016 A 
ATOM     15  C   UNL     1     -39.538   4.723  83.435  1.00  0.00     0.051 A 
ATOM     16  C   UNL     1     -39.539   3.325  83.514  1.00  0.00     0.157 A 
ATOM     17  C   UNL     1     -37.305   3.282  82.569  1.00  0.00     0.062 A 
ATOM     18  C   UNL     1     -38.416   2.601  83.081  1.00  0.00     0.158 A 
BRANCH  16  19
ATOM     19  O   UNL     1     -40.649   2.654  84.023  1.00  0.00    -0.504 OA
ATOM     20  H   UNL     1     -41.318   2.195  83.415  1.00  0.00     0.293 HD
ENDBRANCH  16  19
BRANCH  18  21
ATOM     21  O   UNL     1     -38.385   1.208  83.150  1.00  0.00    -0.504 OA
ATOM     22  H   UNL     1     -37.696   0.660  82.649  1.00  0.00     0.293 HD
ENDBRANCH  18  21
ENDBRANCH   3  13
BRANCH  10  23
ATOM     23  O   UNL     1     -32.212   7.483  79.259  1.00  0.00    -0.507 OA
ATOM     24  H   UNL     1     -31.633   6.745  78.889  1.00  0.00     0.293 HD
ENDBRANCH  10  23
BRANCH  11  25
ATOM     25  O   UNL     1     -31.754   8.996  83.776  1.00  0.00    -0.508 OA
ATOM     26  H   UNL     1     -31.044   8.576  84.366  1.00  0.00     0.293 HD
ENDBRANCH  11  25
ENDBRANCH   1   2
BRANCH   1  27
ATOM     27  C   UNL     1     -37.977   4.838  79.315  1.00  0.00     0.339 C 
ATOM     28  C   UNL     1     -38.100   5.452  77.900  1.00  0.00     0.214 C 
ATOM     29  O   UNL     1     -38.746   3.654  79.464  1.00  0.00    -0.332 OA
ATOM     30  C   UNL     1     -39.570   5.800  77.547  1.00  0.00     0.180 C 
ATOM     31  C   UNL     1     -40.061   3.694  78.914  1.00  0.00     0.179 C 
ATOM     32  C   UNL     1     -40.571   5.101  78.498  1.00  0.00     0.177 C 
BRANCH  28  33
ATOM     33  O   UNL     1     -37.252   6.566  77.751  1.00  0.00    -0.384 OA
ATOM     34  H   UNL     1     -37.113   6.965  78.648  1.00  0.00     0.211 HD
ENDBRANCH  28  33
BRANCH  30  35
ATOM     35  O   UNL     1     -39.776   7.191  77.563  1.00  0.00    -0.387 OA
ATOM     36  H   UNL     1     -39.235   7.552  78.314  1.00  0.00     0.211 HD
ENDBRANCH  30  35
BRANCH  31  37
ATOM     37  C   UNL     1     -40.146   2.680  77.764  1.00  0.00     0.191 C 
BRANCH  37  38
ATOM     38  O   UNL     1     -38.982   1.899  77.722  1.00  0.00    -0.394 OA
ATOM     39  H   UNL     1     -38.869   1.622  76.774  1.00  0.00     0.210 HD
ENDBRANCH  37  38
ENDBRANCH  31  37
BRANCH  32  40
ATOM     40  O   UNL     1     -40.770   5.868  79.660  1.00  0.00    -0.387 OA
ATOM     41  H   UNL     1     -41.115   5.257  80.363  1.00  0.00     0.211 HD
ENDBRANCH  32  40
ENDBRANCH   1  27
TORSDOF 12
ENDMDL
