MODEL 1
REMARK VINA RESULT:    -6.342      0.000      0.000
REMARK INTER + INTRA:          -7.734
REMARK INTER:                  -7.454
REMARK INTRA:                  -0.280
REMARK UNBOUND:                -0.280
REMARK SMILES O=c1cc(-c2ccc(O)c(O)c2)oc2cc(O)cc(O)c12
REMARK SMILES IDX 4 1 3 2 2 3 1 4 21 5 19 6 18 7 16 8 15 9 14 10 13 11 5 12
REMARK SMILES IDX 6 13 7 14 8 15 12 16 10 17 9 18 11 20 20 22 17 24
REMARK H PARENT 9 19 11 21 20 23 17 25
REMARK Flexibility Score: inf
ROOT
ATOM      1  C   UNL     1      33.659   5.993  42.038  1.00  0.00     0.138 A 
ATOM      2  C   UNL     1      34.027   7.285  41.634  1.00  0.00     0.100 A 
ATOM      3  C   UNL     1      34.901   7.449  40.560  1.00  0.00     0.197 A 
ATOM      4  O   UNL     1      35.262   8.616  40.261  1.00  0.00    -0.289 OA
ATOM      5  C   UNL     1      35.386   6.314  39.868  1.00  0.00     0.107 A 
ATOM      6  C   UNL     1      36.250   6.362  38.733  1.00  0.00     0.134 A 
ATOM      7  C   UNL     1      36.758   5.170  38.202  1.00  0.00     0.093 A 
ATOM      8  C   UNL     1      36.384   3.930  38.726  1.00  0.00     0.123 A 
ATOM      9  C   UNL     1      35.500   3.871  39.799  1.00  0.00     0.094 A 
ATOM     10  C   UNL     1      35.002   5.043  40.373  1.00  0.00     0.146 A 
ATOM     11  O   UNL     1      34.172   4.942  41.405  1.00  0.00    -0.456 OA
ENDROOT
BRANCH   1  12
ATOM     12  C   UNL     1      32.731   5.761  43.174  1.00  0.00     0.021 A 
ATOM     13  C   UNL     1      33.050   6.271  44.445  1.00  0.00     0.016 A 
ATOM     14  C   UNL     1      32.197   6.060  45.530  1.00  0.00     0.051 A 
ATOM     15  C   UNL     1      31.015   5.326  45.367  1.00  0.00     0.157 A 
ATOM     16  C   UNL     1      31.546   5.013  43.020  1.00  0.00     0.062 A 
ATOM     17  C   UNL     1      30.691   4.800  44.112  1.00  0.00     0.158 A 
BRANCH  15  18
ATOM     18  O   UNL     1      30.161   5.115  46.448  1.00  0.00    -0.504 OA
ATOM     19  H   UNL     1      30.244   5.653  47.303  1.00  0.00     0.293 HD
ENDBRANCH  15  18
BRANCH  17  20
ATOM     20  O   UNL     1      29.520   4.061  43.955  1.00  0.00    -0.504 OA
ATOM     21  H   UNL     1      29.374   3.461  43.151  1.00  0.00     0.293 HD
ENDBRANCH  17  20
ENDBRANCH   1  12
BRANCH   6  22
ATOM     22  O   UNL     1      36.617   7.542  38.080  1.00  0.00    -0.507 OA
ATOM     23  H   UNL     1      36.906   8.391  38.542  1.00  0.00     0.293 HD
ENDBRANCH   6  22
BRANCH   8  24
ATOM     24  O   UNL     1      36.883   2.749  38.181  1.00  0.00    -0.508 OA
ATOM     25  H   UNL     1      36.527   2.375  37.308  1.00  0.00     0.293 HD
ENDBRANCH   8  24
TORSDOF 5
ENDMDL
MODEL 2
REMARK VINA RESULT:    -5.974      4.140      8.281
REMARK INTER + INTRA:          -7.301
REMARK INTER:                  -7.005
REMARK INTRA:                  -0.296
REMARK UNBOUND:                -0.280
REMARK SMILES O=c1cc(-c2ccc(O)c(O)c2)oc2cc(O)cc(O)c12
REMARK SMILES IDX 4 1 3 2 2 3 1 4 21 5 19 6 18 7 16 8 15 9 14 10 13 11 5 12
REMARK SMILES IDX 6 13 7 14 8 15 12 16 10 17 9 18 11 20 20 22 17 24
REMARK H PARENT 9 19 11 21 20 23 17 25
REMARK Flexibility Score: inf
ROOT
ATOM      1  C   UNL     1      29.184   4.641  42.224  1.00  0.00     0.138 A 
ATOM      2  C   UNL     1      28.571   4.420  43.465  1.00  0.00     0.100 A 
ATOM      3  C   UNL     1      27.232   4.034  43.514  1.00  0.00     0.197 A 
ATOM      4  O   UNL     1      26.691   3.904  44.643  1.00  0.00    -0.289 OA
ATOM      5  C   UNL     1      26.512   3.837  42.311  1.00  0.00     0.107 A 
ATOM      6  C   UNL     1      25.154   3.404  42.239  1.00  0.00     0.134 A 
ATOM      7  C   UNL     1      24.510   3.357  40.996  1.00  0.00     0.093 A 
ATOM      8  C   UNL     1      25.194   3.668  39.818  1.00  0.00     0.123 A 
ATOM      9  C   UNL     1      26.535   4.040  39.873  1.00  0.00     0.094 A 
ATOM     10  C   UNL     1      27.195   4.130  41.101  1.00  0.00     0.146 A 
ATOM     11  O   UNL     1      28.470   4.502  41.111  1.00  0.00    -0.456 OA
ENDROOT
BRANCH   1  12
ATOM     12  C   UNL     1      30.607   5.052  42.114  1.00  0.00     0.021 A 
ATOM     13  C   UNL     1      31.192   5.187  40.842  1.00  0.00     0.016 A 
ATOM     14  C   UNL     1      32.530   5.566  40.712  1.00  0.00     0.051 A 
ATOM     15  C   UNL     1      33.310   5.806  41.851  1.00  0.00     0.157 A 
ATOM     16  C   UNL     1      31.402   5.283  43.255  1.00  0.00     0.062 A 
ATOM     17  C   UNL     1      32.746   5.661  43.122  1.00  0.00     0.158 A 
BRANCH  15  18
ATOM     18  O   UNL     1      34.645   6.185  41.724  1.00  0.00    -0.504 OA
ATOM     19  H   UNL     1      34.920   7.160  41.702  1.00  0.00     0.293 HD
ENDBRANCH  15  18
BRANCH  17  20
ATOM     20  O   UNL     1      33.528   5.890  44.254  1.00  0.00    -0.504 OA
ATOM     21  H   UNL     1      33.173   6.410  45.048  1.00  0.00     0.293 HD
ENDBRANCH  17  20
ENDBRANCH   1  12
BRANCH   6  22
ATOM     22  O   UNL     1      24.406   2.989  43.345  1.00  0.00    -0.507 OA
ATOM     23  H   UNL     1      23.439   2.705  43.313  1.00  0.00     0.293 HD
ENDBRANCH   6  22
BRANCH   8  24
ATOM     24  O   UNL     1      24.550   3.604  38.584  1.00  0.00    -0.508 OA
ATOM     25  H   UNL     1      23.678   3.101  38.467  1.00  0.00     0.293 HD
ENDBRANCH   8  24
TORSDOF 5
ENDMDL
MODEL 3
REMARK VINA RESULT:    -5.864      5.605      9.586
REMARK INTER + INTRA:          -7.173
REMARK INTER:                  -6.876
REMARK INTRA:                  -0.296
REMARK UNBOUND:                -0.280
REMARK SMILES O=c1cc(-c2ccc(O)c(O)c2)oc2cc(O)cc(O)c12
REMARK SMILES IDX 4 1 3 2 2 3 1 4 21 5 19 6 18 7 16 8 15 9 14 10 13 11 5 12
REMARK SMILES IDX 6 13 7 14 8 15 12 16 10 17 9 18 11 20 20 22 17 24
REMARK H PARENT 9 19 11 21 20 23 17 25
REMARK Flexibility Score: inf
ROOT
ATOM      1  C   UNL     1      27.515   4.153  41.270  1.00  0.00     0.138 A 
ATOM      2  C   UNL     1      26.987   4.274  42.563  1.00  0.00     0.100 A 
ATOM      3  C   UNL     1      25.679   3.862  42.815  1.00  0.00     0.197 A 
ATOM      4  O   UNL     1      25.211   4.041  43.969  1.00  0.00    -0.289 OA
ATOM      5  C   UNL     1      24.906   3.295  41.773  1.00  0.00     0.107 A 
ATOM      6  C   UNL     1      23.575   2.803  41.923  1.00  0.00     0.134 A 
ATOM      7  C   UNL     1      22.867   2.372  40.795  1.00  0.00     0.093 A 
ATOM      8  C   UNL     1      23.464   2.358  39.531  1.00  0.00     0.123 A 
ATOM      9  C   UNL     1      24.781   2.787  39.383  1.00  0.00     0.094 A 
ATOM     10  C   UNL     1      25.502   3.255  40.484  1.00  0.00     0.146 A 
ATOM     11  O   UNL     1      26.750   3.668  40.297  1.00  0.00    -0.456 OA
ENDROOT
BRANCH   1  12
ATOM     12  C   UNL     1      28.902   4.574  40.946  1.00  0.00     0.021 A 
ATOM     13  C   UNL     1      29.340   4.544  39.611  1.00  0.00     0.016 A 
ATOM     14  C   UNL     1      30.642   4.929  39.281  1.00  0.00     0.051 A 
ATOM     15  C   UNL     1      31.531   5.341  40.282  1.00  0.00     0.157 A 
ATOM     16  C   UNL     1      29.806   4.978  41.949  1.00  0.00     0.062 A 
ATOM     17  C   UNL     1      31.114   5.363  41.616  1.00  0.00     0.158 A 
BRANCH  15  18
ATOM     18  O   UNL     1      32.830   5.727  39.956  1.00  0.00    -0.504 OA
ATOM     19  H   UNL     1      33.192   6.639  40.209  1.00  0.00     0.293 HD
ENDBRANCH  15  18
BRANCH  17  20
ATOM     20  O   UNL     1      32.005   5.763  42.611  1.00  0.00    -0.504 OA
ATOM     21  H   UNL     1      32.495   6.648  42.560  1.00  0.00     0.293 HD
ENDBRANCH  17  20
ENDBRANCH   1  12
BRANCH   6  22
ATOM     22  O   UNL     1      22.917   2.694  43.152  1.00  0.00    -0.507 OA
ATOM     23  H   UNL     1      22.518   3.467  43.664  1.00  0.00     0.293 HD
ENDBRANCH   6  22
BRANCH   8  24
ATOM     24  O   UNL     1      22.757   1.912  38.417  1.00  0.00    -0.508 OA
ATOM     25  H   UNL     1      23.165   1.928  37.489  1.00  0.00     0.293 HD
ENDBRANCH   8  24
TORSDOF 5
ENDMDL
MODEL 4
REMARK VINA RESULT:    -5.832      4.417      6.394
REMARK INTER + INTRA:          -7.135
REMARK INTER:                  -6.838
REMARK INTRA:                  -0.296
REMARK UNBOUND:                -0.280
REMARK SMILES O=c1cc(-c2ccc(O)c(O)c2)oc2cc(O)cc(O)c12
REMARK SMILES IDX 4 1 3 2 2 3 1 4 21 5 19 6 18 7 16 8 15 9 14 10 13 11 5 12
REMARK SMILES IDX 6 13 7 14 8 15 12 16 10 17 9 18 11 20 20 22 17 24
REMARK H PARENT 9 19 11 21 20 23 17 25
REMARK Flexibility Score: inf
ROOT
ATOM      1  C   UNL     1      28.419   4.459  41.114  1.00  0.00     0.138 A 
ATOM      2  C   UNL     1      29.033   4.696  39.876  1.00  0.00     0.100 A 
ATOM      3  C   UNL     1      30.373   5.081  39.833  1.00  0.00     0.197 A 
ATOM      4  O   UNL     1      30.879   5.348  38.713  1.00  0.00    -0.289 OA
ATOM      5  C   UNL     1      31.110   5.199  41.036  1.00  0.00     0.107 A 
ATOM      6  C   UNL     1      32.492   5.546  41.111  1.00  0.00     0.134 A 
ATOM      7  C   UNL     1      33.086   5.747  42.364  1.00  0.00     0.093 A 
ATOM      8  C   UNL     1      32.363   5.554  43.543  1.00  0.00     0.123 A 
ATOM      9  C   UNL     1      31.027   5.164  43.481  1.00  0.00     0.094 A 
ATOM     10  C   UNL     1      30.397   4.989  42.247  1.00  0.00     0.146 A 
ATOM     11  O   UNL     1      29.118   4.630  42.231  1.00  0.00    -0.456 OA
ENDROOT
BRANCH   1  12
ATOM     12  C   UNL     1      26.996   4.046  41.217  1.00  0.00     0.021 A 
ATOM     13  C   UNL     1      26.405   3.914  42.486  1.00  0.00     0.016 A 
ATOM     14  C   UNL     1      25.070   3.520  42.610  1.00  0.00     0.051 A 
ATOM     15  C   UNL     1      24.307   3.241  41.469  1.00  0.00     0.157 A 
ATOM     16  C   UNL     1      26.226   3.751  40.074  1.00  0.00     0.062 A 
ATOM     17  C   UNL     1      24.886   3.353  40.201  1.00  0.00     0.158 A 
BRANCH  15  18
ATOM     18  O   UNL     1      22.976   2.848  41.590  1.00  0.00    -0.504 OA
ATOM     19  H   UNL     1      22.420   3.097  42.401  1.00  0.00     0.293 HD
ENDBRANCH  15  18
BRANCH  17  20
ATOM     20  O   UNL     1      24.127   3.064  39.068  1.00  0.00    -0.504 OA
ATOM     21  H   UNL     1      23.414   3.700  38.730  1.00  0.00     0.293 HD
ENDBRANCH  17  20
ENDBRANCH   1  12
BRANCH   6  22
ATOM     22  O   UNL     1      33.326   5.679  39.997  1.00  0.00    -0.507 OA
ATOM     23  H   UNL     1      33.464   6.533  39.478  1.00  0.00     0.293 HD
ENDBRANCH   6  22
BRANCH   8  24
ATOM     24  O   UNL     1      32.966   5.741  44.785  1.00  0.00    -0.508 OA
ATOM     25  H   UNL     1      32.770   6.558  45.352  1.00  0.00     0.293 HD
ENDBRANCH   8  24
TORSDOF 5
ENDMDL
MODEL 5
REMARK VINA RESULT:    -5.732      4.316      6.377
REMARK INTER + INTRA:          -7.017
REMARK INTER:                  -6.701
REMARK INTRA:                  -0.316
REMARK UNBOUND:                -0.280
REMARK SMILES O=c1cc(-c2ccc(O)c(O)c2)oc2cc(O)cc(O)c12
REMARK SMILES IDX 4 1 3 2 2 3 1 4 21 5 19 6 18 7 16 8 15 9 14 10 13 11 5 12
REMARK SMILES IDX 6 13 7 14 8 15 12 16 10 17 9 18 11 20 20 22 17 24
REMARK H PARENT 9 19 11 21 20 23 17 25
REMARK Flexibility Score: inf
ROOT
ATOM      1  C   UNL     1      28.474   4.408  41.005  1.00  0.00     0.138 A 
ATOM      2  C   UNL     1      29.099   4.706  39.786  1.00  0.00     0.100 A 
ATOM      3  C   UNL     1      30.425   5.138  39.778  1.00  0.00     0.197 A 
ATOM      4  O   UNL     1      30.939   5.458  38.676  1.00  0.00    -0.289 OA
ATOM      5  C   UNL     1      31.138   5.242  40.996  1.00  0.00     0.107 A 
ATOM      6  C   UNL     1      32.506   5.634  41.106  1.00  0.00     0.134 A 
ATOM      7  C   UNL     1      33.073   5.814  42.374  1.00  0.00     0.093 A 
ATOM      8  C   UNL     1      32.338   5.558  43.535  1.00  0.00     0.123 A 
ATOM      9  C   UNL     1      31.018   5.125  43.437  1.00  0.00     0.094 A 
ATOM     10  C   UNL     1      30.414   4.968  42.188  1.00  0.00     0.146 A 
ATOM     11  O   UNL     1      29.149   4.567  42.139  1.00  0.00    -0.456 OA
ENDROOT
BRANCH   1  12
ATOM     12  C   UNL     1      27.065   3.943  41.071  1.00  0.00     0.021 A 
ATOM     13  C   UNL     1      26.394   3.595  39.886  1.00  0.00     0.016 A 
ATOM     14  C   UNL     1      25.067   3.161  39.921  1.00  0.00     0.051 A 
ATOM     15  C   UNL     1      24.384   3.078  41.140  1.00  0.00     0.157 A 
ATOM     16  C   UNL     1      26.367   3.868  42.294  1.00  0.00     0.062 A 
ATOM     17  C   UNL     1      25.033   3.434  42.327  1.00  0.00     0.158 A 
BRANCH  15  18
ATOM     18  O   UNL     1      23.060   2.644  41.179  1.00  0.00    -0.504 OA
ATOM     19  H   UNL     1      22.804   1.697  40.924  1.00  0.00     0.293 HD
ENDBRANCH  15  18
BRANCH  17  20
ATOM     20  O   UNL     1      24.347   3.360  43.538  1.00  0.00    -0.504 OA
ATOM     21  H   UNL     1      24.751   3.708  44.400  1.00  0.00     0.293 HD
ENDBRANCH  17  20
ENDBRANCH   1  12
BRANCH   6  22
ATOM     22  O   UNL     1      33.352   5.831  40.011  1.00  0.00    -0.507 OA
ATOM     23  H   UNL     1      33.070   5.767  39.045  1.00  0.00     0.293 HD
ENDBRANCH   6  22
BRANCH   8  24
ATOM     24  O   UNL     1      32.915   5.726  44.792  1.00  0.00    -0.508 OA
ATOM     25  H   UNL     1      32.912   6.624  45.261  1.00  0.00     0.293 HD
ENDBRANCH   8  24
TORSDOF 5
ENDMDL
MODEL 6
REMARK VINA RESULT:    -5.690      4.171      6.214
REMARK INTER + INTRA:          -6.968
REMARK INTER:                  -6.652
REMARK INTRA:                  -0.316
REMARK UNBOUND:                -0.280
REMARK SMILES O=c1cc(-c2ccc(O)c(O)c2)oc2cc(O)cc(O)c12
REMARK SMILES IDX 4 1 3 2 2 3 1 4 21 5 19 6 18 7 16 8 15 9 14 10 13 11 5 12
REMARK SMILES IDX 6 13 7 14 8 15 12 16 10 17 9 18 11 20 20 22 17 24
REMARK H PARENT 9 19 11 21 20 23 17 25
REMARK Flexibility Score: inf
ROOT
ATOM      1  C   UNL     1      28.620   4.572  41.878  1.00  0.00     0.138 A 
ATOM      2  C   UNL     1      29.228   4.371  43.126  1.00  0.00     0.100 A 
ATOM      3  C   UNL     1      30.555   4.756  43.317  1.00  0.00     0.197 A 
ATOM      4  O   UNL     1      31.092   4.507  44.427  1.00  0.00    -0.289 OA
ATOM      5  C   UNL     1      31.267   5.375  42.262  1.00  0.00     0.107 A 
ATOM      6  C   UNL     1      32.611   5.845  42.355  1.00  0.00     0.134 A 
ATOM      7  C   UNL     1      33.251   6.335  41.210  1.00  0.00     0.093 A 
ATOM      8  C   UNL     1      32.576   6.427  39.990  1.00  0.00     0.123 A 
ATOM      9  C   UNL     1      31.248   6.020  39.902  1.00  0.00     0.094 A 
ATOM     10  C   UNL     1      30.592   5.495  41.018  1.00  0.00     0.146 A 
ATOM     11  O   UNL     1      29.328   5.105  40.887  1.00  0.00    -0.456 OA
ENDROOT
BRANCH   1  12
ATOM     12  C   UNL     1      27.211   4.182  41.620  1.00  0.00     0.021 A 
ATOM     13  C   UNL     1      26.383   3.825  42.699  1.00  0.00     0.016 A 
ATOM     14  C   UNL     1      25.056   3.448  42.481  1.00  0.00     0.051 A 
ATOM     15  C   UNL     1      24.536   3.412  41.181  1.00  0.00     0.157 A 
ATOM     16  C   UNL     1      26.684   4.131  40.314  1.00  0.00     0.062 A 
ATOM     17  C   UNL     1      25.352   3.751  40.097  1.00  0.00     0.158 A 
BRANCH  15  18
ATOM     18  O   UNL     1      23.212   3.037  40.961  1.00  0.00    -0.504 OA
ATOM     19  H   UNL     1      22.773   3.144  40.054  1.00  0.00     0.293 HD
ENDBRANCH  15  18
BRANCH  17  20
ATOM     20  O   UNL     1      24.834   3.703  38.803  1.00  0.00    -0.504 OA
ATOM     21  H   UNL     1      24.897   2.864  38.236  1.00  0.00     0.293 HD
ENDBRANCH  17  20
ENDBRANCH   1  12
BRANCH   6  22
ATOM     22  O   UNL     1      33.347   5.878  43.543  1.00  0.00    -0.507 OA
ATOM     23  H   UNL     1      32.967   5.705  44.462  1.00  0.00     0.293 HD
ENDBRANCH   6  22
BRANCH   8  24
ATOM     24  O   UNL     1      33.217   6.930  38.859  1.00  0.00    -0.508 OA
ATOM     25  H   UNL     1      34.031   6.473  38.465  1.00  0.00     0.293 HD
ENDBRANCH   8  24
TORSDOF 5
ENDMDL
MODEL 7
REMARK VINA RESULT:    -5.634      5.673      9.933
REMARK INTER + INTRA:          -6.901
REMARK INTER:                  -6.588
REMARK INTRA:                  -0.314
REMARK UNBOUND:                -0.280
REMARK SMILES O=c1cc(-c2ccc(O)c(O)c2)oc2cc(O)cc(O)c12
REMARK SMILES IDX 4 1 3 2 2 3 1 4 21 5 19 6 18 7 16 8 15 9 14 10 13 11 5 12
REMARK SMILES IDX 6 13 7 14 8 15 12 16 10 17 9 18 11 20 20 22 17 24
REMARK H PARENT 9 19 11 21 20 23 17 25
REMARK Flexibility Score: inf
ROOT
ATOM      1  C   UNL     1      26.986   3.975  41.766  1.00  0.00     0.138 A 
ATOM      2  C   UNL     1      26.506   3.837  40.456  1.00  0.00     0.100 A 
ATOM      3  C   UNL     1      25.179   3.463  40.243  1.00  0.00     0.197 A 
ATOM      4  O   UNL     1      24.795   3.285  39.058  1.00  0.00    -0.289 OA
ATOM      5  C   UNL     1      24.320   3.258  41.349  1.00  0.00     0.107 A 
ATOM      6  C   UNL     1      22.939   2.913  41.252  1.00  0.00     0.134 A 
ATOM      7  C   UNL     1      22.217   2.621  42.416  1.00  0.00     0.093 A 
ATOM      8  C   UNL     1      22.811   2.720  43.676  1.00  0.00     0.123 A 
ATOM      9  C   UNL     1      24.144   3.106  43.784  1.00  0.00     0.094 A 
ATOM     10  C   UNL     1      24.901   3.371  42.640  1.00  0.00     0.146 A 
ATOM     11  O   UNL     1      26.173   3.723  42.787  1.00  0.00    -0.456 OA
ENDROOT
BRANCH   1  12
ATOM     12  C   UNL     1      28.388   4.372  42.049  1.00  0.00     0.021 A 
ATOM     13  C   UNL     1      29.158   4.967  41.035  1.00  0.00     0.016 A 
ATOM     14  C   UNL     1      30.482   5.343  41.275  1.00  0.00     0.051 A 
ATOM     15  C   UNL     1      31.063   5.121  42.530  1.00  0.00     0.157 A 
ATOM     16  C   UNL     1      28.984   4.140  43.306  1.00  0.00     0.062 A 
ATOM     17  C   UNL     1      30.314   4.516  43.545  1.00  0.00     0.158 A 
BRANCH  15  18
ATOM     18  O   UNL     1      32.383   5.496  42.773  1.00  0.00    -0.504 OA
ATOM     19  H   UNL     1      33.131   4.813  42.808  1.00  0.00     0.293 HD
ENDBRANCH  15  18
BRANCH  17  20
ATOM     20  O   UNL     1      30.898   4.287  44.790  1.00  0.00    -0.504 OA
ATOM     21  H   UNL     1      30.337   4.104  45.614  1.00  0.00     0.293 HD
ENDBRANCH  17  20
ENDBRANCH   1  12
BRANCH   6  22
ATOM     22  O   UNL     1      22.227   2.870  40.049  1.00  0.00    -0.507 OA
ATOM     23  H   UNL     1      22.355   2.176  39.328  1.00  0.00     0.293 HD
ENDBRANCH   6  22
BRANCH   8  24
ATOM     24  O   UNL     1      22.081   2.441  44.830  1.00  0.00    -0.508 OA
ATOM     25  H   UNL     1      22.355   2.810  45.733  1.00  0.00     0.293 HD
ENDBRANCH   8  24
TORSDOF 5
ENDMDL
MODEL 8
REMARK VINA RESULT:    -5.421      2.867      7.714
REMARK INTER + INTRA:          -6.652
REMARK INTER:                  -6.379
REMARK INTRA:                  -0.273
REMARK UNBOUND:                -0.280
REMARK SMILES O=c1cc(-c2ccc(O)c(O)c2)oc2cc(O)cc(O)c12
REMARK SMILES IDX 4 1 3 2 2 3 1 4 21 5 19 6 18 7 16 8 15 9 14 10 13 11 5 12
REMARK SMILES IDX 6 13 7 14 8 15 12 16 10 17 9 18 11 20 20 22 17 24
REMARK H PARENT 9 19 11 21 20 23 17 25
REMARK Flexibility Score: inf
ROOT
ATOM      1  C   UNL     1      30.970   5.294  40.568  1.00  0.00     0.138 A 
ATOM      2  C   UNL     1      30.053   4.706  39.685  1.00  0.00     0.100 A 
ATOM      3  C   UNL     1      28.836   4.229  40.172  1.00  0.00     0.197 A 
ATOM      4  O   UNL     1      28.061   3.650  39.368  1.00  0.00    -0.289 OA
ATOM      5  C   UNL     1      28.524   4.369  41.545  1.00  0.00     0.107 A 
ATOM      6  C   UNL     1      27.297   3.956  42.146  1.00  0.00     0.134 A 
ATOM      7  C   UNL     1      27.146   4.039  43.535  1.00  0.00     0.093 A 
ATOM      8  C   UNL     1      28.155   4.577  44.338  1.00  0.00     0.123 A 
ATOM      9  C   UNL     1      29.335   5.032  43.756  1.00  0.00     0.094 A 
ATOM     10  C   UNL     1      29.529   4.931  42.376  1.00  0.00     0.146 A 
ATOM     11  O   UNL     1      30.675   5.364  41.862  1.00  0.00    -0.456 OA
ENDROOT
BRANCH   1  12
ATOM     12  C   UNL     1      32.279   5.820  40.104  1.00  0.00     0.021 A 
ATOM     13  C   UNL     1      32.312   6.909  39.215  1.00  0.00     0.016 A 
ATOM     14  C   UNL     1      33.530   7.418  38.759  1.00  0.00     0.051 A 
ATOM     15  C   UNL     1      34.736   6.840  39.175  1.00  0.00     0.157 A 
ATOM     16  C   UNL     1      33.497   5.236  40.508  1.00  0.00     0.062 A 
ATOM     17  C   UNL     1      34.719   5.747  40.047  1.00  0.00     0.158 A 
BRANCH  15  18
ATOM     18  O   UNL     1      35.953   7.346  38.722  1.00  0.00    -0.504 OA
ATOM     19  H   UNL     1      36.314   8.234  39.051  1.00  0.00     0.293 HD
ENDBRANCH  15  18
BRANCH  17  20
ATOM     20  O   UNL     1      35.922   5.168  40.450  1.00  0.00    -0.504 OA
ATOM     21  H   UNL     1      36.782   5.318  39.936  1.00  0.00     0.293 HD
ENDBRANCH  17  20
ENDBRANCH   1  12
BRANCH   6  22
ATOM     22  O   UNL     1      26.195   3.485  41.426  1.00  0.00    -0.507 OA
ATOM     23  H   UNL     1      25.960   3.760  40.484  1.00  0.00     0.293 HD
ENDBRANCH   6  22
BRANCH   8  24
ATOM     24  O   UNL     1      27.990   4.670  45.719  1.00  0.00    -0.508 OA
ATOM     25  H   UNL     1      27.272   5.255  46.129  1.00  0.00     0.293 HD
ENDBRANCH   8  24
TORSDOF 5
ENDMDL
MODEL 9
REMARK VINA RESULT:    -5.304     15.339     16.655
REMARK INTER + INTRA:          -6.515
REMARK INTER:                  -6.233
REMARK INTRA:                  -0.282
REMARK UNBOUND:                -0.280
REMARK SMILES O=c1cc(-c2ccc(O)c(O)c2)oc2cc(O)cc(O)c12
REMARK SMILES IDX 4 1 3 2 2 3 1 4 21 5 19 6 18 7 16 8 15 9 14 10 13 11 5 12
REMARK SMILES IDX 6 13 7 14 8 15 12 16 10 17 9 18 11 20 20 22 17 24
REMARK H PARENT 9 19 11 21 20 23 17 25
REMARK Flexibility Score: inf
ROOT
ATOM      1  C   UNL     1      20.627  -2.082  45.454  1.00  0.00     0.138 A 
ATOM      2  C   UNL     1      21.385  -1.721  46.577  1.00  0.00     0.100 A 
ATOM      3  C   UNL     1      22.184  -2.676  47.205  1.00  0.00     0.197 A 
ATOM      4  O   UNL     1      22.803  -2.340  48.247  1.00  0.00    -0.289 OA
ATOM      5  C   UNL     1      22.248  -3.991  46.686  1.00  0.00     0.107 A 
ATOM      6  C   UNL     1      23.060  -5.037  47.220  1.00  0.00     0.134 A 
ATOM      7  C   UNL     1      22.953  -6.331  46.694  1.00  0.00     0.093 A 
ATOM      8  C   UNL     1      22.110  -6.602  45.614  1.00  0.00     0.123 A 
ATOM      9  C   UNL     1      21.353  -5.577  45.052  1.00  0.00     0.094 A 
ATOM     10  C   UNL     1      21.412  -4.283  45.576  1.00  0.00     0.146 A 
ATOM     11  O   UNL     1      20.663  -3.338  45.019  1.00  0.00    -0.456 OA
ENDROOT
BRANCH   1  12
ATOM     12  C   UNL     1      19.761  -1.106  44.745  1.00  0.00     0.021 A 
ATOM     13  C   UNL     1      18.506  -1.517  44.262  1.00  0.00     0.016 A 
ATOM     14  C   UNL     1      17.676  -0.619  43.587  1.00  0.00     0.051 A 
ATOM     15  C   UNL     1      18.089   0.702  43.373  1.00  0.00     0.157 A 
ATOM     16  C   UNL     1      20.175   0.222  44.516  1.00  0.00     0.062 A 
ATOM     17  C   UNL     1      19.341   1.122  43.835  1.00  0.00     0.158 A 
BRANCH  15  18
ATOM     18  O   UNL     1      17.263   1.600  42.700  1.00  0.00    -0.504 OA
ATOM     19  H   UNL     1      16.267   1.645  42.885  1.00  0.00     0.293 HD
ENDBRANCH  15  18
BRANCH  17  20
ATOM     20  O   UNL     1      19.754   2.434  43.611  1.00  0.00    -0.504 OA
ATOM     21  H   UNL     1      19.390   3.206  44.158  1.00  0.00     0.293 HD
ENDBRANCH  17  20
ENDBRANCH   1  12
BRANCH   6  22
ATOM     22  O   UNL     1      23.997  -4.854  48.241  1.00  0.00    -0.507 OA
ATOM     23  H   UNL     1      24.361  -3.961  48.537  1.00  0.00     0.293 HD
ENDBRANCH   6  22
BRANCH   8  24
ATOM     24  O   UNL     1      22.021  -7.889  45.087  1.00  0.00    -0.508 OA
ATOM     25  H   UNL     1      22.598  -8.184  44.308  1.00  0.00     0.293 HD
ENDBRANCH   8  24
TORSDOF 5
ENDMDL
