MODEL 1
REMARK VINA RESULT:    -3.881      0.000      0.000
REMARK INTER + INTRA:          -3.994
REMARK INTER:                  -3.994
REMARK INTRA:                   0.000
REMARK UNBOUND:                 0.000
REMARK SMILES O=c1ccc2ccc(O)cc2o1
REMARK SMILES IDX 6 1 7 2 8 3 10 4 11 5 5 6 4 7 3 8 2 9 1 10 12 11 9 12
REMARK H PARENT 9 13
REMARK Flexibility Score: inf
ROOT
ATOM      1  C   UNL     1      -1.922  60.380  -3.974  1.00  0.00     0.016 A 
ATOM      2  C   UNL     1      -3.205  59.996  -4.375  1.00  0.00     0.047 A 
ATOM      3  C   UNL     1      -3.386  59.248  -5.544  1.00  0.00     0.119 A 
ATOM      4  C   UNL     1      -2.277  58.880  -6.319  1.00  0.00     0.094 A 
ATOM      5  C   UNL     1      -0.989  59.259  -5.926  1.00  0.00     0.142 A 
ATOM      6  C   UNL     1      -0.810  60.014  -4.745  1.00  0.00     0.018 A 
ATOM      7  C   UNL     1       0.489  60.378  -4.378  1.00  0.00     0.019 A 
ATOM      8  C   UNL     1       1.562  59.990  -5.179  1.00  0.00     0.094 A 
ATOM      9  C   UNL     1       1.309  59.243  -6.334  1.00  0.00     0.336 A 
ATOM     10  O   UNL     1       2.264  58.883  -7.072  1.00  0.00    -0.246 OA
ATOM     11  O   UNL     1       0.063  58.909  -6.663  1.00  0.00    -0.423 OA
ENDROOT
BRANCH   3  12
ATOM     12  O   UNL     1      -4.673  58.875  -5.928  1.00  0.00    -0.508 OA
ATOM     13  H   UNL     1      -5.491  59.364  -5.584  1.00  0.00     0.293 HD
ENDBRANCH   3  12
TORSDOF 1
ENDMDL
MODEL 2
REMARK VINA RESULT:    -3.756      0.775      4.225
REMARK INTER + INTRA:          -3.866
REMARK INTER:                  -3.866
REMARK INTRA:                   0.000
REMARK UNBOUND:                 0.000
REMARK SMILES O=c1ccc2ccc(O)cc2o1
REMARK SMILES IDX 6 1 7 2 8 3 10 4 11 5 5 6 4 7 3 8 2 9 1 10 12 11 9 12
REMARK H PARENT 9 13
REMARK Flexibility Score: inf
ROOT
ATOM      1  C   UNL     1       0.544  60.379  -4.382  1.00  0.00     0.016 A 
ATOM      2  C   UNL     1       1.625  59.998  -5.184  1.00  0.00     0.047 A 
ATOM      3  C   UNL     1       1.413  59.253  -6.350  1.00  0.00     0.119 A 
ATOM      4  C   UNL     1       0.110  58.886  -6.718  1.00  0.00     0.094 A 
ATOM      5  C   UNL     1      -0.977  59.262  -5.923  1.00  0.00     0.142 A 
ATOM      6  C   UNL     1      -0.759  60.014  -4.747  1.00  0.00     0.018 A 
ATOM      7  C   UNL     1      -1.866  60.375  -3.972  1.00  0.00     0.019 A 
ATOM      8  C   UNL     1      -3.142  59.988  -4.378  1.00  0.00     0.094 A 
ATOM      9  C   UNL     1      -3.282  59.244  -5.555  1.00  0.00     0.336 A 
ATOM     10  O   UNL     1      -4.426  58.884  -5.938  1.00  0.00    -0.246 OA
ATOM     11  O   UNL     1      -2.212  58.913  -6.275  1.00  0.00    -0.423 OA
ENDROOT
BRANCH   3  12
ATOM     12  O   UNL     1       2.502  58.883  -7.135  1.00  0.00    -0.508 OA
ATOM     13  H   UNL     1       2.964  57.989  -7.015  1.00  0.00     0.293 HD
ENDBRANCH   3  12
TORSDOF 1
ENDMDL
MODEL 3
REMARK VINA RESULT:    -3.396      1.969      4.959
REMARK INTER + INTRA:          -3.496
REMARK INTER:                  -3.496
REMARK INTRA:                   0.000
REMARK UNBOUND:                 0.000
REMARK SMILES O=c1ccc2ccc(O)cc2o1
REMARK SMILES IDX 6 1 7 2 8 3 10 4 11 5 5 6 4 7 3 8 2 9 1 10 12 11 9 12
REMARK H PARENT 9 13
REMARK Flexibility Score: inf
ROOT
ATOM      1  C   UNL     1       0.903  58.875  -7.794  1.00  0.00     0.016 A 
ATOM      2  C   UNL     1       2.237  59.239  -8.002  1.00  0.00     0.047 A 
ATOM      3  C   UNL     1       2.926  59.982  -7.037  1.00  0.00     0.119 A 
ATOM      4  C   UNL     1       2.277  60.365  -5.854  1.00  0.00     0.094 A 
ATOM      5  C   UNL     1       0.943  60.006  -5.637  1.00  0.00     0.142 A 
ATOM      6  C   UNL     1       0.250  59.256  -6.614  1.00  0.00     0.018 A 
ATOM      7  C   UNL     1      -1.083  58.912  -6.369  1.00  0.00     0.019 A 
ATOM      8  C   UNL     1      -1.686  59.315  -5.178  1.00  0.00     0.094 A 
ATOM      9  C   UNL     1      -0.938  60.056  -4.256  1.00  0.00     0.336 A 
ATOM     10  O   UNL     1      -1.465  60.430  -3.176  1.00  0.00    -0.246 OA
ATOM     11  O   UNL     1       0.330  60.370  -4.513  1.00  0.00    -0.423 OA
ENDROOT
BRANCH   3  12
ATOM     12  O   UNL     1       4.255  60.335  -7.262  1.00  0.00    -0.508 OA
ATOM     13  H   UNL     1       5.020  59.794  -6.876  1.00  0.00     0.293 HD
ENDBRANCH   3  12
TORSDOF 1
ENDMDL
MODEL 4
REMARK VINA RESULT:    -3.091      1.303      2.170
REMARK INTER + INTRA:          -3.181
REMARK INTER:                  -3.181
REMARK INTRA:                   0.000
REMARK UNBOUND:                 0.000
REMARK SMILES O=c1ccc2ccc(O)cc2o1
REMARK SMILES IDX 6 1 7 2 8 3 10 4 11 5 5 6 4 7 3 8 2 9 1 10 12 11 9 12
REMARK H PARENT 9 13
REMARK Flexibility Score: inf
ROOT
ATOM      1  C   UNL     1      -2.307  58.875  -6.901  1.00  0.00     0.016 A 
ATOM      2  C   UNL     1      -3.323  59.149  -5.980  1.00  0.00     0.047 A 
ATOM      3  C   UNL     1      -3.015  59.695  -4.728  1.00  0.00     0.119 A 
ATOM      4  C   UNL     1      -1.681  59.969  -4.394  1.00  0.00     0.094 A 
ATOM      5  C   UNL     1      -0.657  59.699  -5.309  1.00  0.00     0.142 A 
ATOM      6  C   UNL     1      -0.972  59.148  -6.571  1.00  0.00     0.018 A 
ATOM      7  C   UNL     1       0.072  58.889  -7.464  1.00  0.00     0.019 A 
ATOM      8  C   UNL     1       1.383  59.178  -7.088  1.00  0.00     0.094 A 
ATOM      9  C   UNL     1       1.619  59.723  -5.821  1.00  0.00     0.336 A 
ATOM     10  O   UNL     1       2.796  59.991  -5.462  1.00  0.00    -0.246 OA
ATOM     11  O   UNL     1       0.608  59.961  -4.989  1.00  0.00    -0.423 OA
ENDROOT
BRANCH   3  12
ATOM     12  O   UNL     1      -4.041  59.960  -3.824  1.00  0.00    -0.508 OA
ATOM     13  H   UNL     1      -3.858  60.395  -2.927  1.00  0.00     0.293 HD
ENDBRANCH   3  12
TORSDOF 1
ENDMDL
MODEL 5
REMARK VINA RESULT:    -3.060      2.028      3.095
REMARK INTER + INTRA:          -3.150
REMARK INTER:                  -3.150
REMARK INTRA:                   0.000
REMARK UNBOUND:                 0.000
REMARK SMILES O=c1ccc2ccc(O)cc2o1
REMARK SMILES IDX 6 1 7 2 8 3 10 4 11 5 5 6 4 7 3 8 2 9 1 10 12 11 9 12
REMARK H PARENT 9 13
REMARK Flexibility Score: inf
ROOT
ATOM      1  C   UNL     1      -0.877  58.902  -6.267  1.00  0.00     0.016 A 
ATOM      2  C   UNL     1      -1.403  59.286  -5.030  1.00  0.00     0.047 A 
ATOM      3  C   UNL     1      -0.621  60.009  -4.122  1.00  0.00     0.119 A 
ATOM      4  C   UNL     1       0.698  60.350  -4.452  1.00  0.00     0.094 A 
ATOM      5  C   UNL     1       1.234  59.971  -5.687  1.00  0.00     0.142 A 
ATOM      6  C   UNL     1       0.441  59.241  -6.601  1.00  0.00     0.018 A 
ATOM      7  C   UNL     1       1.004  58.875  -7.828  1.00  0.00     0.019 A 
ATOM      8  C   UNL     1       2.320  59.237  -8.112  1.00  0.00     0.094 A 
ATOM      9  C   UNL     1       3.045  59.960  -7.159  1.00  0.00     0.336 A 
ATOM     10  O   UNL     1       4.235  60.296  -7.397  1.00  0.00    -0.246 OA
ATOM     11  O   UNL     1       2.486  60.296  -5.998  1.00  0.00    -0.423 OA
ENDROOT
BRANCH   3  12
ATOM     12  O   UNL     1      -1.164  60.382  -2.894  1.00  0.00    -0.508 OA
ATOM     13  H   UNL     1      -1.242  61.355  -2.623  1.00  0.00     0.293 HD
ENDBRANCH   3  12
TORSDOF 1
ENDMDL
MODEL 6
REMARK VINA RESULT:    -2.876      1.997      4.462
REMARK INTER + INTRA:          -2.960
REMARK INTER:                  -2.960
REMARK INTRA:                   0.000
REMARK UNBOUND:                 0.000
REMARK SMILES O=c1ccc2ccc(O)cc2o1
REMARK SMILES IDX 6 1 7 2 8 3 10 4 11 5 5 6 4 7 3 8 2 9 1 10 12 11 9 12
REMARK H PARENT 9 13
REMARK Flexibility Score: inf
ROOT
ATOM      1  C   UNL     1       0.430  59.528  -5.935  1.00  0.00     0.016 A 
ATOM      2  C   UNL     1       1.034  60.004  -4.767  1.00  0.00     0.047 A 
ATOM      3  C   UNL     1       0.251  60.382  -3.670  1.00  0.00     0.119 A 
ATOM      4  C   UNL     1      -1.146  60.283  -3.739  1.00  0.00     0.094 A 
ATOM      5  C   UNL     1      -1.759  59.807  -4.903  1.00  0.00     0.142 A 
ATOM      6  C   UNL     1      -0.966  59.427  -6.009  1.00  0.00     0.018 A 
ATOM      7  C   UNL     1      -1.607  58.956  -7.159  1.00  0.00     0.019 A 
ATOM      8  C   UNL     1      -2.999  58.875  -7.182  1.00  0.00     0.094 A 
ATOM      9  C   UNL     1      -3.720  59.269  -6.049  1.00  0.00     0.336 A 
ATOM     10  O   UNL     1      -4.977  59.204  -6.050  1.00  0.00    -0.246 OA
ATOM     11  O   UNL     1      -3.085  59.714  -4.967  1.00  0.00    -0.423 OA
ENDROOT
BRANCH   3  12
ATOM     12  O   UNL     1       0.871  60.854  -2.514  1.00  0.00    -0.508 OA
ATOM     13  H   UNL     1       0.786  60.367  -1.630  1.00  0.00     0.293 HD
ENDBRANCH   3  12
TORSDOF 1
ENDMDL
MODEL 7
REMARK VINA RESULT:    -2.791      1.969      2.677
REMARK INTER + INTRA:          -2.872
REMARK INTER:                  -2.872
REMARK INTRA:                   0.000
REMARK UNBOUND:                 0.000
REMARK SMILES O=c1ccc2ccc(O)cc2o1
REMARK SMILES IDX 6 1 7 2 8 3 10 4 11 5 5 6 4 7 3 8 2 9 1 10 12 11 9 12
REMARK H PARENT 9 13
REMARK Flexibility Score: inf
ROOT
ATOM      1  C   UNL     1      -1.298  59.012  -6.646  1.00  0.00     0.016 A 
ATOM      2  C   UNL     1      -2.688  58.875  -6.705  1.00  0.00     0.047 A 
ATOM      3  C   UNL     1      -3.483  59.257  -5.618  1.00  0.00     0.119 A 
ATOM      4  C   UNL     1      -2.885  59.779  -4.462  1.00  0.00     0.094 A 
ATOM      5  C   UNL     1      -1.495  59.920  -4.394  1.00  0.00     0.142 A 
ATOM      6  C   UNL     1      -0.695  59.534  -5.493  1.00  0.00     0.018 A 
ATOM      7  C   UNL     1       0.691  59.686  -5.395  1.00  0.00     0.019 A 
ATOM      8  C   UNL     1       1.242  60.210  -4.227  1.00  0.00     0.094 A 
ATOM      9  C   UNL     1       0.388  60.572  -3.178  1.00  0.00     0.336 A 
ATOM     10  O   UNL     1       0.866  61.046  -2.114  1.00  0.00    -0.246 OA
ATOM     11  O   UNL     1      -0.929  60.417  -3.296  1.00  0.00    -0.423 OA
ENDROOT
BRANCH   3  12
ATOM     12  O   UNL     1      -4.867  59.113  -5.696  1.00  0.00    -0.508 OA
ATOM     13  H   UNL     1      -5.336  58.291  -5.334  1.00  0.00     0.293 HD
ENDBRANCH   3  12
TORSDOF 1
ENDMDL
MODEL 8
REMARK VINA RESULT:    -2.140      2.157      3.069
REMARK INTER + INTRA:          -2.202
REMARK INTER:                  -2.202
REMARK INTRA:                   0.000
REMARK UNBOUND:                 0.000
REMARK SMILES O=c1ccc2ccc(O)cc2o1
REMARK SMILES IDX 6 1 7 2 8 3 10 4 11 5 5 6 4 7 3 8 2 9 1 10 12 11 9 12
REMARK H PARENT 9 13
REMARK Flexibility Score: inf
ROOT
ATOM      1  C   UNL     1      -4.409  58.909  -5.072  1.00  0.00     0.016 A 
ATOM      2  C   UNL     1      -4.369  58.896  -3.675  1.00  0.00     0.047 A 
ATOM      3  C   UNL     1      -3.141  58.887  -3.002  1.00  0.00     0.119 A 
ATOM      4  C   UNL     1      -1.944  58.890  -3.732  1.00  0.00     0.094 A 
ATOM      5  C   UNL     1      -1.973  58.903  -5.131  1.00  0.00     0.142 A 
ATOM      6  C   UNL     1      -3.215  58.912  -5.806  1.00  0.00     0.018 A 
ATOM      7  C   UNL     1      -3.213  58.924  -7.204  1.00  0.00     0.019 A 
ATOM      8  C   UNL     1      -1.997  58.927  -7.887  1.00  0.00     0.094 A 
ATOM      9  C   UNL     1      -0.807  58.917  -7.152  1.00  0.00     0.336 A 
ATOM     10  O   UNL     1       0.301  58.919  -7.750  1.00  0.00    -0.246 OA
ATOM     11  O   UNL     1      -0.835  58.906  -5.821  1.00  0.00    -0.423 OA
ENDROOT
BRANCH   3  12
ATOM     12  O   UNL     1      -3.122  58.875  -1.609  1.00  0.00    -0.508 OA
ATOM     13  H   UNL     1      -3.022  59.729  -1.073  1.00  0.00     0.293 HD
ENDBRANCH   3  12
TORSDOF 1
ENDMDL
MODEL 9
REMARK VINA RESULT:    -1.108     22.872     23.863
REMARK INTER + INTRA:          -1.140
REMARK INTER:                  -1.140
REMARK INTRA:                   0.000
REMARK UNBOUND:                 0.000
REMARK SMILES O=c1ccc2ccc(O)cc2o1
REMARK SMILES IDX 6 1 7 2 8 3 10 4 11 5 5 6 4 7 3 8 2 9 1 10 12 11 9 12
REMARK H PARENT 9 13
REMARK Flexibility Score: inf
ROOT
ATOM      1  C   UNL     1       1.940  79.125   8.087  1.00  0.00     0.016 A 
ATOM      2  C   UNL     1       1.939  78.549   6.813  1.00  0.00     0.047 A 
ATOM      3  C   UNL     1       2.729  77.426   6.543  1.00  0.00     0.119 A 
ATOM      4  C   UNL     1       3.528  76.873   7.554  1.00  0.00     0.094 A 
ATOM      5  C   UNL     1       3.536  77.441   8.832  1.00  0.00     0.142 A 
ATOM      6  C   UNL     1       2.738  78.575   9.101  1.00  0.00     0.018 A 
ATOM      7  C   UNL     1       2.767  79.122  10.388  1.00  0.00     0.019 A 
ATOM      8  C   UNL     1       3.577  78.538  11.361  1.00  0.00     0.094 A 
ATOM      9  C   UNL     1       4.341  77.416  11.023  1.00  0.00     0.336 A 
ATOM     10  O   UNL     1       5.079  76.874  11.887  1.00  0.00    -0.246 OA
ATOM     11  O   UNL     1       4.295  76.914   9.790  1.00  0.00    -0.423 OA
ENDROOT
BRANCH   3  12
ATOM     12  O   UNL     1       2.713  76.867   5.267  1.00  0.00    -0.508 OA
ATOM     13  H   UNL     1       3.532  76.417   4.875  1.00  0.00     0.293 HD
ENDBRANCH   3  12
TORSDOF 1
ENDMDL
