MODEL 1
REMARK VINA RESULT:    -4.941      0.000      0.000
REMARK INTER + INTRA:         -15.049
REMARK INTER:                 -11.297
REMARK INTRA:                  -3.752
REMARK UNBOUND:                -3.752
REMARK SMILES CCCCCCCCCCCCCCCCCCCCCCCC(=O)[O-]
REMARK SMILES IDX 13 1 14 2 15 3 16 4 17 5 18 6 19 7 20 8 21 9 22 10 23 11
REMARK SMILES IDX 24 12 25 13 26 14 12 15 11 16 10 17 9 18 8 19 7 20 6 21 5 22
REMARK SMILES IDX 4 23 3 24 2 25 1 26
REMARK H PARENT
REMARK Flexibility Score: inf
ROOT
ATOM      1  C   UNL     1     249.690 258.815 247.226  1.00  0.00     0.000 C 
ENDROOT
BRANCH   1   2
ATOM      2  C   UNL     1     249.861 257.356 247.690  1.00  0.00     0.000 C 
BRANCH   2   3
ATOM      3  C   UNL     1     249.054 256.370 246.822  1.00  0.00     0.000 C 
BRANCH   3   4
ATOM      4  C   UNL     1     249.653 256.131 245.424  1.00  0.00     0.000 C 
BRANCH   4   5
ATOM      5  C   UNL     1     250.596 254.911 245.337  1.00  0.00     0.000 C 
BRANCH   5   6
ATOM      6  C   UNL     1     252.100 255.255 245.353  1.00  0.00     0.000 C 
BRANCH   6   7
ATOM      7  C   UNL     1     252.934 254.516 246.418  1.00  0.00     0.000 C 
BRANCH   7   8
ATOM      8  C   UNL     1     252.625 254.967 247.852  1.00  0.00     0.000 C 
BRANCH   8   9
ATOM      9  C   UNL     1     252.532 253.763 248.801  1.00  0.00     0.000 C 
BRANCH   9  10
ATOM     10  C   UNL     1     251.083 253.314 249.068  1.00  0.00     0.006 C 
BRANCH  10  11
ATOM     11  C   UNL     1     250.823 251.829 248.762  1.00  0.00     0.053 C 
BRANCH  11  12
ATOM     12  C   UNL     1     250.521 251.584 247.314  1.00  0.00     0.041 C 
ATOM     13  O   UNL     1     249.467 252.044 246.801  1.00  0.00    -0.550 OA
ATOM     14  O   UNL     1     251.382 250.816 246.541  1.00  0.00    -0.550 OA
ENDBRANCH  11  12
ENDBRANCH  10  11
ENDBRANCH   9  10
ENDBRANCH   8   9
ENDBRANCH   7   8
ENDBRANCH   6   7
ENDBRANCH   5   6
ENDBRANCH   4   5
ENDBRANCH   3   4
ENDBRANCH   2   3
ENDBRANCH   1   2
BRANCH   1  15
ATOM     15  C   UNL     1     251.025 259.485 246.863  1.00  0.00     0.000 C 
BRANCH  15  16
ATOM     16  C   UNL     1     252.203 258.496 246.860  1.00  0.00     0.000 C 
BRANCH  16  17
ATOM     17  C   UNL     1     253.533 259.146 246.439  1.00  0.00     0.000 C 
BRANCH  17  18
ATOM     18  C   UNL     1     253.642 260.659 246.706  1.00  0.00    -0.000 C 
BRANCH  18  19
ATOM     19  C   UNL     1     254.095 260.985 248.140  1.00  0.00    -0.000 C 
BRANCH  19  20
ATOM     20  C   UNL     1     255.400 260.269 248.534  1.00  0.00    -0.000 C 
BRANCH  20  21
ATOM     21  C   UNL     1     255.309 259.378 249.789  1.00  0.00    -0.000 C 
BRANCH  21  22
ATOM     22  C   UNL     1     254.598 258.026 249.582  1.00  0.00    -0.000 C 
BRANCH  22  23
ATOM     23  C   UNL     1     254.963 256.934 250.607  1.00  0.00    -0.000 C 
BRANCH  23  24
ATOM     24  C   UNL     1     255.764 255.750 250.037  1.00  0.00    -0.000 C 
BRANCH  24  25
ATOM     25  C   UNL     1     256.245 255.993 248.599  1.00  0.00    -0.003 C 
ATOM     26  C   UNL     1     256.314 254.685 247.816  1.00  0.00     0.004 C 
ENDBRANCH  24  25
ENDBRANCH  23  24
ENDBRANCH  22  23
ENDBRANCH  21  22
ENDBRANCH  20  21
ENDBRANCH  19  20
ENDBRANCH  18  19
ENDBRANCH  17  18
ENDBRANCH  16  17
ENDBRANCH  15  16
ENDBRANCH   1  15
TORSDOF 22
ENDMDL
MODEL 2
REMARK VINA RESULT:    -4.907      4.220      7.934
REMARK INTER + INTRA:         -14.970
REMARK INTER:                 -11.525
REMARK INTRA:                  -3.445
REMARK UNBOUND:                -3.752
REMARK SMILES CCCCCCCCCCCCCCCCCCCCCCCC(=O)[O-]
REMARK SMILES IDX 13 1 14 2 15 3 16 4 17 5 18 6 19 7 20 8 21 9 22 10 23 11
REMARK SMILES IDX 24 12 25 13 26 14 12 15 11 16 10 17 9 18 8 19 7 20 6 21 5 22
REMARK SMILES IDX 4 23 3 24 2 25 1 26
REMARK H PARENT
REMARK Flexibility Score: inf
ROOT
ATOM      1  C   UNL     1     253.708 258.089 248.486  1.00  0.00     0.000 C 
ENDROOT
BRANCH   1   2
ATOM      2  C   UNL     1     252.862 258.607 247.308  1.00  0.00     0.000 C 
BRANCH   2   3
ATOM      3  C   UNL     1     253.733 259.084 246.129  1.00  0.00     0.000 C 
BRANCH   3   4
ATOM      4  C   UNL     1     254.198 260.548 246.246  1.00  0.00     0.000 C 
BRANCH   4   5
ATOM      5  C   UNL     1     255.657 260.788 245.800  1.00  0.00     0.000 C 
BRANCH   5   6
ATOM      6  C   UNL     1     256.568 261.409 246.880  1.00  0.00     0.000 C 
BRANCH   6   7
ATOM      7  C   UNL     1     257.050 260.437 247.975  1.00  0.00     0.000 C 
BRANCH   7   8
ATOM      8  C   UNL     1     256.860 260.983 249.398  1.00  0.00     0.000 C 
BRANCH   8   9
ATOM      9  C   UNL     1     255.380 260.959 249.806  1.00  0.00     0.000 C 
BRANCH   9  10
ATOM     10  C   UNL     1     255.173 260.928 251.331  1.00  0.00     0.006 C 
BRANCH  10  11
ATOM     11  C   UNL     1     256.012 261.967 252.096  1.00  0.00     0.053 C 
BRANCH  11  12
ATOM     12  C   UNL     1     255.743 261.950 253.570  1.00  0.00     0.041 C 
ATOM     13  O   UNL     1     254.560 261.984 253.999  1.00  0.00    -0.550 OA
ATOM     14  O   UNL     1     256.799 261.937 254.473  1.00  0.00    -0.550 OA
ENDBRANCH  11  12
ENDBRANCH  10  11
ENDBRANCH   9  10
ENDBRANCH   8   9
ENDBRANCH   7   8
ENDBRANCH   6   7
ENDBRANCH   5   6
ENDBRANCH   4   5
ENDBRANCH   3   4
ENDBRANCH   2   3
ENDBRANCH   1   2
BRANCH   1  15
ATOM     15  C   UNL     1     255.000 257.392 248.030  1.00  0.00     0.000 C 
BRANCH  15  16
ATOM     16  C   UNL     1     255.760 256.733 249.193  1.00  0.00     0.000 C 
BRANCH  16  17
ATOM     17  C   UNL     1     256.839 255.740 248.721  1.00  0.00     0.000 C 
BRANCH  17  18
ATOM     18  C   UNL     1     256.312 254.386 248.210  1.00  0.00    -0.000 C 
BRANCH  18  19
ATOM     19  C   UNL     1     255.091 253.881 248.997  1.00  0.00    -0.000 C 
BRANCH  19  20
ATOM     20  C   UNL     1     253.818 253.787 248.136  1.00  0.00    -0.000 C 
BRANCH  20  21
ATOM     21  C   UNL     1     254.018 254.065 246.632  1.00  0.00    -0.000 C 
BRANCH  21  22
ATOM     22  C   UNL     1     252.998 255.036 246.005  1.00  0.00    -0.000 C 
BRANCH  22  23
ATOM     23  C   UNL     1     251.571 254.945 246.583  1.00  0.00    -0.000 C 
BRANCH  23  24
ATOM     24  C   UNL     1     250.448 255.320 245.602  1.00  0.00    -0.000 C 
BRANCH  24  25
ATOM     25  C   UNL     1     249.638 256.541 246.061  1.00  0.00    -0.003 C 
ATOM     26  C   UNL     1     249.767 256.751 247.567  1.00  0.00     0.004 C 
ENDBRANCH  24  25
ENDBRANCH  23  24
ENDBRANCH  22  23
ENDBRANCH  21  22
ENDBRANCH  20  21
ENDBRANCH  19  20
ENDBRANCH  18  19
ENDBRANCH  17  18
ENDBRANCH  16  17
ENDBRANCH  15  16
ENDBRANCH   1  15
TORSDOF 22
ENDMDL
MODEL 3
REMARK VINA RESULT:    -4.893      5.316      8.471
REMARK INTER + INTRA:         -14.939
REMARK INTER:                 -11.829
REMARK INTRA:                  -3.110
REMARK UNBOUND:                -3.752
REMARK SMILES CCCCCCCCCCCCCCCCCCCCCCCC(=O)[O-]
REMARK SMILES IDX 13 1 14 2 15 3 16 4 17 5 18 6 19 7 20 8 21 9 22 10 23 11
REMARK SMILES IDX 24 12 25 13 26 14 12 15 11 16 10 17 9 18 8 19 7 20 6 21 5 22
REMARK SMILES IDX 4 23 3 24 2 25 1 26
REMARK H PARENT
REMARK Flexibility Score: inf
ROOT
ATOM      1  C   UNL     1     252.620 260.008 247.043  1.00  0.00     0.000 C 
ENDROOT
BRANCH   1   2
ATOM      2  C   UNL     1     253.741 260.907 247.599  1.00  0.00     0.000 C 
BRANCH   2   3
ATOM      3  C   UNL     1     255.117 260.567 246.991  1.00  0.00     0.000 C 
BRANCH   3   4
ATOM      4  C   UNL     1     255.323 261.113 245.566  1.00  0.00     0.000 C 
BRANCH   4   5
ATOM      5  C   UNL     1     256.764 260.962 245.031  1.00  0.00     0.000 C 
BRANCH   5   6
ATOM      6  C   UNL     1     257.605 262.255 245.068  1.00  0.00     0.000 C 
BRANCH   6   7
ATOM      7  C   UNL     1     259.085 262.069 245.458  1.00  0.00     0.000 C 
BRANCH   7   8
ATOM      8  C   UNL     1     259.417 260.640 245.912  1.00  0.00     0.000 C 
BRANCH   8   9
ATOM      9  C   UNL     1     259.874 260.620 247.379  1.00  0.00     0.000 C 
BRANCH   9  10
ATOM     10  C   UNL     1     258.727 260.879 248.372  1.00  0.00     0.006 C 
BRANCH  10  11
ATOM     11  C   UNL     1     258.657 262.328 248.882  1.00  0.00     0.053 C 
BRANCH  11  12
ATOM     12  C   UNL     1     259.818 262.686 249.759  1.00  0.00     0.041 C 
ATOM     13  O   UNL     1     260.188 263.886 249.863  1.00  0.00    -0.550 OA
ATOM     14  O   UNL     1     260.519 261.693 250.432  1.00  0.00    -0.550 OA
ENDBRANCH  11  12
ENDBRANCH  10  11
ENDBRANCH   9  10
ENDBRANCH   8   9
ENDBRANCH   7   8
ENDBRANCH   6   7
ENDBRANCH   5   6
ENDBRANCH   4   5
ENDBRANCH   3   4
ENDBRANCH   2   3
ENDBRANCH   1   2
BRANCH   1  15
ATOM     15  C   UNL     1     253.121 258.611 246.642  1.00  0.00     0.000 C 
BRANCH  15  16
ATOM     16  C   UNL     1     252.586 257.502 247.563  1.00  0.00     0.000 C 
BRANCH  16  17
ATOM     17  C   UNL     1     253.677 256.512 248.010  1.00  0.00     0.000 C 
BRANCH  17  18
ATOM     18  C   UNL     1     255.059 257.134 248.285  1.00  0.00    -0.000 C 
BRANCH  18  19
ATOM     19  C   UNL     1     255.329 257.358 249.783  1.00  0.00    -0.000 C 
BRANCH  19  20
ATOM     20  C   UNL     1     254.632 258.615 250.337  1.00  0.00    -0.000 C 
BRANCH  20  21
ATOM     21  C   UNL     1     255.522 259.537 251.195  1.00  0.00    -0.000 C 
BRANCH  21  22
ATOM     22  C   UNL     1     255.644 260.987 250.686  1.00  0.00    -0.000 C 
BRANCH  22  23
ATOM     23  C   UNL     1     255.677 262.064 251.788  1.00  0.00    -0.000 C 
BRANCH  23  24
ATOM     24  C   UNL     1     254.371 262.215 252.588  1.00  0.00    -0.000 C 
BRANCH  24  25
ATOM     25  C   UNL     1     254.499 261.723 254.037  1.00  0.00    -0.003 C 
ATOM     26  C   UNL     1     253.633 260.489 254.276  1.00  0.00     0.004 C 
ENDBRANCH  24  25
ENDBRANCH  23  24
ENDBRANCH  22  23
ENDBRANCH  21  22
ENDBRANCH  20  21
ENDBRANCH  19  20
ENDBRANCH  18  19
ENDBRANCH  17  18
ENDBRANCH  16  17
ENDBRANCH  15  16
ENDBRANCH   1  15
TORSDOF 22
ENDMDL
MODEL 4
REMARK VINA RESULT:    -4.888      3.856      7.267
REMARK INTER + INTRA:         -14.926
REMARK INTER:                 -11.951
REMARK INTRA:                  -2.975
REMARK UNBOUND:                -3.752
REMARK SMILES CCCCCCCCCCCCCCCCCCCCCCCC(=O)[O-]
REMARK SMILES IDX 13 1 14 2 15 3 16 4 17 5 18 6 19 7 20 8 21 9 22 10 23 11
REMARK SMILES IDX 24 12 25 13 26 14 12 15 11 16 10 17 9 18 8 19 7 20 6 21 5 22
REMARK SMILES IDX 4 23 3 24 2 25 1 26
REMARK H PARENT
REMARK Flexibility Score: inf
ROOT
ATOM      1  C   UNL     1     249.887 259.351 247.188  1.00  0.00     0.000 C 
ENDROOT
BRANCH   1   2
ATOM      2  C   UNL     1     251.311 259.897 246.968  1.00  0.00     0.000 C 
BRANCH   2   3
ATOM      3  C   UNL     1     252.373 258.779 246.992  1.00  0.00     0.000 C 
BRANCH   3   4
ATOM      4  C   UNL     1     253.672 259.135 246.246  1.00  0.00     0.000 C 
BRANCH   4   5
ATOM      5  C   UNL     1     254.105 260.610 246.392  1.00  0.00     0.000 C 
BRANCH   5   6
ATOM      6  C   UNL     1     255.630 260.842 246.354  1.00  0.00     0.000 C 
BRANCH   6   7
ATOM      7  C   UNL     1     256.341 260.777 247.719  1.00  0.00     0.000 C 
BRANCH   7   8
ATOM      8  C   UNL     1     255.375 260.837 248.911  1.00  0.00     0.000 C 
BRANCH   8   9
ATOM      9  C   UNL     1     256.137 260.776 250.243  1.00  0.00     0.000 C 
BRANCH   9  10
ATOM     10  C   UNL     1     255.234 260.428 251.440  1.00  0.00     0.006 C 
BRANCH  10  11
ATOM     11  C   UNL     1     254.632 261.654 252.147  1.00  0.00     0.053 C 
BRANCH  11  12
ATOM     12  C   UNL     1     254.291 261.383 253.581  1.00  0.00     0.041 C 
ATOM     13  O   UNL     1     254.876 262.012 254.501  1.00  0.00    -0.550 OA
ATOM     14  O   UNL     1     253.356 260.407 253.904  1.00  0.00    -0.550 OA
ENDBRANCH  11  12
ENDBRANCH  10  11
ENDBRANCH   9  10
ENDBRANCH   8   9
ENDBRANCH   7   8
ENDBRANCH   6   7
ENDBRANCH   5   6
ENDBRANCH   4   5
ENDBRANCH   3   4
ENDBRANCH   2   3
ENDBRANCH   1   2
BRANCH   1  15
ATOM     15  C   UNL     1     249.866 257.847 247.500  1.00  0.00     0.000 C 
BRANCH  15  16
ATOM     16  C   UNL     1     248.536 257.179 247.114  1.00  0.00     0.000 C 
BRANCH  16  17
ATOM     17  C   UNL     1     248.195 255.964 247.995  1.00  0.00     0.000 C 
BRANCH  17  18
ATOM     18  C   UNL     1     249.170 254.776 247.889  1.00  0.00    -0.000 C 
BRANCH  18  19
ATOM     19  C   UNL     1     249.124 254.082 246.518  1.00  0.00    -0.000 C 
BRANCH  19  20
ATOM     20  C   UNL     1     250.519 253.887 245.896  1.00  0.00    -0.000 C 
BRANCH  20  21
ATOM     21  C   UNL     1     251.165 255.160 245.315  1.00  0.00    -0.000 C 
BRANCH  21  22
ATOM     22  C   UNL     1     252.650 255.364 245.675  1.00  0.00    -0.000 C 
BRANCH  22  23
ATOM     23  C   UNL     1     253.141 254.559 246.895  1.00  0.00    -0.000 C 
BRANCH  23  24
ATOM     24  C   UNL     1     253.518 255.406 248.123  1.00  0.00    -0.000 C 
BRANCH  24  25
ATOM     25  C   UNL     1     254.929 256.003 248.024  1.00  0.00    -0.003 C 
ATOM     26  C   UNL     1     255.095 257.180 248.981  1.00  0.00     0.004 C 
ENDBRANCH  24  25
ENDBRANCH  23  24
ENDBRANCH  22  23
ENDBRANCH  21  22
ENDBRANCH  20  21
ENDBRANCH  19  20
ENDBRANCH  18  19
ENDBRANCH  17  18
ENDBRANCH  16  17
ENDBRANCH  15  16
ENDBRANCH   1  15
TORSDOF 22
ENDMDL
MODEL 5
REMARK VINA RESULT:    -4.876      1.986      6.155
REMARK INTER + INTRA:         -14.899
REMARK INTER:                 -11.631
REMARK INTRA:                  -3.268
REMARK UNBOUND:                -3.752
REMARK SMILES CCCCCCCCCCCCCCCCCCCCCCCC(=O)[O-]
REMARK SMILES IDX 13 1 14 2 15 3 16 4 17 5 18 6 19 7 20 8 21 9 22 10 23 11
REMARK SMILES IDX 24 12 25 13 26 14 12 15 11 16 10 17 9 18 8 19 7 20 6 21 5 22
REMARK SMILES IDX 4 23 3 24 2 25 1 26
REMARK H PARENT
REMARK Flexibility Score: inf
ROOT
ATOM      1  C   UNL     1     251.954 258.361 247.128  1.00  0.00     0.000 C 
ENDROOT
BRANCH   1   2
ATOM      2  C   UNL     1     253.398 258.459 246.603  1.00  0.00     0.000 C 
BRANCH   2   3
ATOM      3  C   UNL     1     253.738 259.873 246.090  1.00  0.00     0.000 C 
BRANCH   3   4
ATOM      4  C   UNL     1     254.808 260.601 246.924  1.00  0.00     0.000 C 
BRANCH   4   5
ATOM      5  C   UNL     1     254.402 260.860 248.392  1.00  0.00     0.000 C 
BRANCH   5   6
ATOM      6  C   UNL     1     255.563 260.782 249.406  1.00  0.00     0.000 C 
BRANCH   6   7
ATOM      7  C   UNL     1     255.423 259.692 250.486  1.00  0.00     0.000 C 
BRANCH   7   8
ATOM      8  C   UNL     1     254.795 258.393 249.960  1.00  0.00     0.000 C 
BRANCH   8   9
ATOM      9  C   UNL     1     255.781 257.625 249.067  1.00  0.00     0.000 C 
BRANCH   9  10
ATOM     10  C   UNL     1     255.482 256.117 248.995  1.00  0.00     0.006 C 
BRANCH  10  11
ATOM     11  C   UNL     1     254.319 255.667 249.895  1.00  0.00     0.053 C 
BRANCH  11  12
ATOM     12  C   UNL     1     253.257 254.928 249.137  1.00  0.00     0.041 C 
ATOM     13  O   UNL     1     253.557 253.913 248.454  1.00  0.00    -0.550 OA
ATOM     14  O   UNL     1     251.944 255.382 249.152  1.00  0.00    -0.550 OA
ENDBRANCH  11  12
ENDBRANCH  10  11
ENDBRANCH   9  10
ENDBRANCH   8   9
ENDBRANCH   7   8
ENDBRANCH   6   7
ENDBRANCH   5   6
ENDBRANCH   4   5
ENDBRANCH   3   4
ENDBRANCH   2   3
ENDBRANCH   1   2
BRANCH   1  15
ATOM     15  C   UNL     1     251.176 259.678 246.981  1.00  0.00     0.000 C 
BRANCH  15  16
ATOM     16  C   UNL     1     249.652 259.469 246.975  1.00  0.00     0.000 C 
BRANCH  16  17
ATOM     17  C   UNL     1     248.895 260.587 246.235  1.00  0.00     0.000 C 
BRANCH  17  18
ATOM     18  C   UNL     1     247.674 260.127 245.415  1.00  0.00    -0.000 C 
BRANCH  18  19
ATOM     19  C   UNL     1     247.756 258.650 244.993  1.00  0.00    -0.000 C 
BRANCH  19  20
ATOM     20  C   UNL     1     246.562 257.816 245.490  1.00  0.00    -0.000 C 
BRANCH  20  21
ATOM     21  C   UNL     1     246.903 256.384 245.948  1.00  0.00    -0.000 C 
BRANCH  21  22
ATOM     22  C   UNL     1     247.790 256.293 247.206  1.00  0.00    -0.000 C 
BRANCH  22  23
ATOM     23  C   UNL     1     249.210 255.744 246.963  1.00  0.00    -0.000 C 
BRANCH  23  24
ATOM     24  C   UNL     1     249.749 255.945 245.537  1.00  0.00    -0.000 C 
BRANCH  24  25
ATOM     25  C   UNL     1     250.709 254.829 245.100  1.00  0.00    -0.003 C 
ATOM     26  C   UNL     1     252.153 255.177 245.453  1.00  0.00     0.004 C 
ENDBRANCH  24  25
ENDBRANCH  23  24
ENDBRANCH  22  23
ENDBRANCH  21  22
ENDBRANCH  20  21
ENDBRANCH  19  20
ENDBRANCH  18  19
ENDBRANCH  17  18
ENDBRANCH  16  17
ENDBRANCH  15  16
ENDBRANCH   1  15
TORSDOF 22
ENDMDL
MODEL 6
REMARK VINA RESULT:    -4.857      3.908      6.801
REMARK INTER + INTRA:         -14.855
REMARK INTER:                 -10.977
REMARK INTRA:                  -3.878
REMARK UNBOUND:                -3.752
REMARK SMILES CCCCCCCCCCCCCCCCCCCCCCCC(=O)[O-]
REMARK SMILES IDX 13 1 14 2 15 3 16 4 17 5 18 6 19 7 20 8 21 9 22 10 23 11
REMARK SMILES IDX 24 12 25 13 26 14 12 15 11 16 10 17 9 18 8 19 7 20 6 21 5 22
REMARK SMILES IDX 4 23 3 24 2 25 1 26
REMARK H PARENT
REMARK Flexibility Score: inf
ROOT
ATOM      1  C   UNL     1     252.642 261.081 247.277  1.00  0.00     0.000 C 
ENDROOT
BRANCH   1   2
ATOM      2  C   UNL     1     253.695 261.248 246.165  1.00  0.00     0.000 C 
BRANCH   2   3
ATOM      3  C   UNL     1     254.604 260.009 246.032  1.00  0.00     0.000 C 
BRANCH   3   4
ATOM      4  C   UNL     1     253.889 258.675 246.317  1.00  0.00     0.000 C 
BRANCH   4   5
ATOM      5  C   UNL     1     254.481 257.877 247.500  1.00  0.00     0.000 C 
BRANCH   5   6
ATOM      6  C   UNL     1     253.952 258.293 248.888  1.00  0.00     0.000 C 
BRANCH   6   7
ATOM      7  C   UNL     1     254.972 258.195 250.040  1.00  0.00     0.000 C 
BRANCH   7   8
ATOM      8  C   UNL     1     255.177 259.522 250.784  1.00  0.00     0.000 C 
BRANCH   8   9
ATOM      9  C   UNL     1     255.318 260.691 249.799  1.00  0.00     0.000 C 
BRANCH   9  10
ATOM     10  C   UNL     1     256.783 261.069 249.515  1.00  0.00     0.006 C 
BRANCH  10  11
ATOM     11  C   UNL     1     257.360 260.420 248.245  1.00  0.00     0.053 C 
BRANCH  11  12
ATOM     12  C   UNL     1     258.148 261.386 247.412  1.00  0.00     0.041 C 
ATOM     13  O   UNL     1     258.230 262.595 247.754  1.00  0.00    -0.550 OA
ATOM     14  O   UNL     1     258.759 260.962 246.239  1.00  0.00    -0.550 OA
ENDBRANCH  11  12
ENDBRANCH  10  11
ENDBRANCH   9  10
ENDBRANCH   8   9
ENDBRANCH   7   8
ENDBRANCH   6   7
ENDBRANCH   5   6
ENDBRANCH   4   5
ENDBRANCH   3   4
ENDBRANCH   2   3
ENDBRANCH   1   2
BRANCH   1  15
ATOM     15  C   UNL     1     251.261 261.622 246.876  1.00  0.00     0.000 C 
BRANCH  15  16
ATOM     16  C   UNL     1     250.115 260.676 247.274  1.00  0.00     0.000 C 
BRANCH  16  17
ATOM     17  C   UNL     1     250.177 259.318 246.550  1.00  0.00     0.000 C 
BRANCH  17  18
ATOM     18  C   UNL     1     250.529 258.111 247.439  1.00  0.00    -0.000 C 
BRANCH  18  19
ATOM     19  C   UNL     1     250.468 256.771 246.685  1.00  0.00    -0.000 C 
BRANCH  19  20
ATOM     20  C   UNL     1     251.371 255.690 247.307  1.00  0.00    -0.000 C 
BRANCH  20  21
ATOM     21  C   UNL     1     252.284 254.943 246.315  1.00  0.00    -0.000 C 
BRANCH  21  22
ATOM     22  C   UNL     1     253.724 254.698 246.807  1.00  0.00    -0.000 C 
BRANCH  22  23
ATOM     23  C   UNL     1     253.835 254.127 248.235  1.00  0.00    -0.000 C 
BRANCH  23  24
ATOM     24  C   UNL     1     255.271 253.842 248.710  1.00  0.00    -0.000 C 
BRANCH  24  25
ATOM     25  C   UNL     1     256.332 254.560 247.864  1.00  0.00    -0.003 C 
ATOM     26  C   UNL     1     257.142 255.537 248.712  1.00  0.00     0.004 C 
ENDBRANCH  24  25
ENDBRANCH  23  24
ENDBRANCH  22  23
ENDBRANCH  21  22
ENDBRANCH  20  21
ENDBRANCH  19  20
ENDBRANCH  18  19
ENDBRANCH  17  18
ENDBRANCH  16  17
ENDBRANCH  15  16
ENDBRANCH   1  15
TORSDOF 22
ENDMDL
MODEL 7
REMARK VINA RESULT:    -4.853      3.533      5.566
REMARK INTER + INTRA:         -14.846
REMARK INTER:                 -11.302
REMARK INTRA:                  -3.543
REMARK UNBOUND:                -3.752
REMARK SMILES CCCCCCCCCCCCCCCCCCCCCCCC(=O)[O-]
REMARK SMILES IDX 13 1 14 2 15 3 16 4 17 5 18 6 19 7 20 8 21 9 22 10 23 11
REMARK SMILES IDX 24 12 25 13 26 14 12 15 11 16 10 17 9 18 8 19 7 20 6 21 5 22
REMARK SMILES IDX 4 23 3 24 2 25 1 26
REMARK H PARENT
REMARK Flexibility Score: inf
ROOT
ATOM      1  C   UNL     1     249.226 256.242 247.048  1.00  0.00     0.000 C 
ENDROOT
BRANCH   1   2
ATOM      2  C   UNL     1     249.678 256.126 245.580  1.00  0.00     0.000 C 
BRANCH   2   3
ATOM      3  C   UNL     1     250.643 254.944 245.358  1.00  0.00     0.000 C 
BRANCH   3   4
ATOM      4  C   UNL     1     252.127 255.350 245.297  1.00  0.00     0.000 C 
BRANCH   4   5
ATOM      5  C   UNL     1     253.018 254.664 246.355  1.00  0.00     0.000 C 
BRANCH   5   6
ATOM      6  C   UNL     1     252.312 254.359 247.693  1.00  0.00     0.000 C 
BRANCH   6   7
ATOM      7  C   UNL     1     252.960 254.993 248.940  1.00  0.00     0.000 C 
BRANCH   7   8
ATOM      8  C   UNL     1     254.488 254.843 248.972  1.00  0.00     0.000 C 
BRANCH   8   9
ATOM      9  C   UNL     1     255.176 256.215 249.022  1.00  0.00     0.000 C 
BRANCH   9  10
ATOM     10  C   UNL     1     254.985 256.938 250.367  1.00  0.00     0.006 C 
BRANCH  10  11
ATOM     11  C   UNL     1     255.109 258.469 250.276  1.00  0.00     0.053 C 
BRANCH  11  12
ATOM     12  C   UNL     1     255.130 259.126 251.623  1.00  0.00     0.041 C 
ATOM     13  O   UNL     1     255.175 258.425 252.669  1.00  0.00    -0.550 OA
ATOM     14  O   UNL     1     255.058 260.509 251.728  1.00  0.00    -0.550 OA
ENDBRANCH  11  12
ENDBRANCH  10  11
ENDBRANCH   9  10
ENDBRANCH   8   9
ENDBRANCH   7   8
ENDBRANCH   6   7
ENDBRANCH   5   6
ENDBRANCH   4   5
ENDBRANCH   3   4
ENDBRANCH   2   3
ENDBRANCH   1   2
BRANCH   1  15
ATOM     15  C   UNL     1     249.871 257.432 247.777  1.00  0.00     0.000 C 
BRANCH  15  16
ATOM     16  C   UNL     1     250.050 258.658 246.866  1.00  0.00     0.000 C 
BRANCH  16  17
ATOM     17  C   UNL     1     251.463 259.267 246.949  1.00  0.00     0.000 C 
BRANCH  17  18
ATOM     18  C   UNL     1     252.560 258.319 247.469  1.00  0.00    -0.000 C 
BRANCH  18  19
ATOM     19  C   UNL     1     253.857 258.392 246.645  1.00  0.00    -0.000 C 
BRANCH  19  20
ATOM     20  C   UNL     1     253.902 259.609 245.702  1.00  0.00    -0.000 C 
BRANCH  20  21
ATOM     21  C   UNL     1     254.606 260.857 246.271  1.00  0.00    -0.000 C 
BRANCH  21  22
ATOM     22  C   UNL     1     255.754 260.568 247.258  1.00  0.00    -0.000 C 
BRANCH  22  23
ATOM     23  C   UNL     1     257.101 261.228 246.901  1.00  0.00    -0.000 C 
BRANCH  23  24
ATOM     24  C   UNL     1     257.429 261.265 245.399  1.00  0.00    -0.000 C 
BRANCH  24  25
ATOM     25  C   UNL     1     257.810 262.668 244.906  1.00  0.00    -0.003 C 
ATOM     26  C   UNL     1     258.554 263.446 245.987  1.00  0.00     0.004 C 
ENDBRANCH  24  25
ENDBRANCH  23  24
ENDBRANCH  22  23
ENDBRANCH  21  22
ENDBRANCH  20  21
ENDBRANCH  19  20
ENDBRANCH  18  19
ENDBRANCH  17  18
ENDBRANCH  16  17
ENDBRANCH  15  16
ENDBRANCH   1  15
TORSDOF 22
ENDMDL
MODEL 8
REMARK VINA RESULT:    -4.847      2.705      4.410
REMARK INTER + INTRA:         -14.833
REMARK INTER:                 -11.524
REMARK INTRA:                  -3.309
REMARK UNBOUND:                -3.752
REMARK SMILES CCCCCCCCCCCCCCCCCCCCCCCC(=O)[O-]
REMARK SMILES IDX 13 1 14 2 15 3 16 4 17 5 18 6 19 7 20 8 21 9 22 10 23 11
REMARK SMILES IDX 24 12 25 13 26 14 12 15 11 16 10 17 9 18 8 19 7 20 6 21 5 22
REMARK SMILES IDX 4 23 3 24 2 25 1 26
REMARK H PARENT
REMARK Flexibility Score: inf
ROOT
ATOM      1  C   UNL     1     253.420 259.232 246.131  1.00  0.00     0.000 C 
ENDROOT
BRANCH   1   2
ATOM      2  C   UNL     1     252.210 258.822 246.992  1.00  0.00     0.000 C 
BRANCH   2   3
ATOM      3  C   UNL     1     251.933 257.307 246.924  1.00  0.00     0.000 C 
BRANCH   3   4
ATOM      4  C   UNL     1     252.992 256.511 246.139  1.00  0.00     0.000 C 
BRANCH   4   5
ATOM      5  C   UNL     1     252.439 255.272 245.402  1.00  0.00     0.000 C 
BRANCH   5   6
ATOM      6  C   UNL     1     250.902 255.140 245.427  1.00  0.00     0.000 C 
BRANCH   6   7
ATOM      7  C   UNL     1     250.346 254.086 246.405  1.00  0.00     0.000 C 
BRANCH   7   8
ATOM      8  C   UNL     1     248.893 254.353 246.825  1.00  0.00     0.000 C 
BRANCH   8   9
ATOM      9  C   UNL     1     248.784 255.652 247.637  1.00  0.00     0.000 C 
BRANCH   9  10
ATOM     10  C   UNL     1     247.731 256.627 247.080  1.00  0.00     0.006 C 
BRANCH  10  11
ATOM     11  C   UNL     1     248.094 257.223 245.709  1.00  0.00     0.053 C 
BRANCH  11  12
ATOM     12  C   UNL     1     248.000 258.718 245.689  1.00  0.00     0.041 C 
ATOM     13  O   UNL     1     248.819 259.414 246.345  1.00  0.00    -0.550 OA
ATOM     14  O   UNL     1     246.984 259.345 244.979  1.00  0.00    -0.550 OA
ENDBRANCH  11  12
ENDBRANCH  10  11
ENDBRANCH   9  10
ENDBRANCH   8   9
ENDBRANCH   7   8
ENDBRANCH   6   7
ENDBRANCH   5   6
ENDBRANCH   4   5
ENDBRANCH   3   4
ENDBRANCH   2   3
ENDBRANCH   1   2
BRANCH   1  15
ATOM     15  C   UNL     1     253.994 260.602 246.523  1.00  0.00     0.000 C 
BRANCH  15  16
ATOM     16  C   UNL     1     253.931 260.860 248.038  1.00  0.00     0.000 C 
BRANCH  16  17
ATOM     17  C   UNL     1     255.320 260.898 248.700  1.00  0.00     0.000 C 
BRANCH  17  18
ATOM     18  C   UNL     1     255.892 259.529 249.115  1.00  0.00    -0.000 C 
BRANCH  18  19
ATOM     19  C   UNL     1     254.852 258.628 249.803  1.00  0.00    -0.000 C 
BRANCH  19  20
ATOM     20  C   UNL     1     254.814 257.203 249.223  1.00  0.00    -0.000 C 
BRANCH  20  21
ATOM     21  C   UNL     1     255.803 256.206 249.859  1.00  0.00    -0.000 C 
BRANCH  21  22
ATOM     22  C   UNL     1     256.864 255.632 248.899  1.00  0.00    -0.000 C 
BRANCH  22  23
ATOM     23  C   UNL     1     256.558 254.222 248.357  1.00  0.00    -0.000 C 
BRANCH  23  24
ATOM     24  C   UNL     1     255.250 254.104 247.556  1.00  0.00    -0.000 C 
BRANCH  24  25
ATOM     25  C   UNL     1     254.144 253.367 248.325  1.00  0.00    -0.003 C 
ATOM     26  C   UNL     1     253.451 252.336 247.438  1.00  0.00     0.004 C 
ENDBRANCH  24  25
ENDBRANCH  23  24
ENDBRANCH  22  23
ENDBRANCH  21  22
ENDBRANCH  20  21
ENDBRANCH  19  20
ENDBRANCH  18  19
ENDBRANCH  17  18
ENDBRANCH  16  17
ENDBRANCH  15  16
ENDBRANCH   1  15
TORSDOF 22
ENDMDL
MODEL 9
REMARK VINA RESULT:    -4.822      3.405      5.345
REMARK INTER + INTRA:         -14.777
REMARK INTER:                 -11.986
REMARK INTRA:                  -2.790
REMARK UNBOUND:                -3.752
REMARK SMILES CCCCCCCCCCCCCCCCCCCCCCCC(=O)[O-]
REMARK SMILES IDX 13 1 14 2 15 3 16 4 17 5 18 6 19 7 20 8 21 9 22 10 23 11
REMARK SMILES IDX 24 12 25 13 26 14 12 15 11 16 10 17 9 18 8 19 7 20 6 21 5 22
REMARK SMILES IDX 4 23 3 24 2 25 1 26
REMARK H PARENT
REMARK Flexibility Score: inf
ROOT
ATOM      1  C   UNL     1     253.745 260.869 246.875  1.00  0.00     0.000 C 
ENDROOT
BRANCH   1   2
ATOM      2  C   UNL     1     253.117 259.569 247.412  1.00  0.00     0.000 C 
BRANCH   2   3
ATOM      3  C   UNL     1     254.030 258.346 247.191  1.00  0.00     0.000 C 
BRANCH   3   4
ATOM      4  C   UNL     1     253.365 257.201 246.405  1.00  0.00     0.000 C 
BRANCH   4   5
ATOM      5  C   UNL     1     253.327 255.853 247.157  1.00  0.00     0.000 C 
BRANCH   5   6
ATOM      6  C   UNL     1     252.884 254.649 246.299  1.00  0.00     0.000 C 
BRANCH   6   7
ATOM      7  C   UNL     1     251.543 254.007 246.707  1.00  0.00     0.000 C 
BRANCH   7   8
ATOM      8  C   UNL     1     250.364 254.457 245.833  1.00  0.00     0.000 C 
BRANCH   8   9
ATOM      9  C   UNL     1     249.485 255.476 246.573  1.00  0.00     0.000 C 
BRANCH   9  10
ATOM     10  C   UNL     1     249.711 256.924 246.101  1.00  0.00     0.006 C 
BRANCH  10  11
ATOM     11  C   UNL     1     249.705 257.960 247.239  1.00  0.00     0.053 C 
BRANCH  11  12
ATOM     12  C   UNL     1     249.236 259.309 246.786  1.00  0.00     0.041 C 
ATOM     13  O   UNL     1     249.713 260.352 247.305  1.00  0.00    -0.550 OA
ATOM     14  O   UNL     1     248.244 259.416 245.820  1.00  0.00    -0.550 OA
ENDBRANCH  11  12
ENDBRANCH  10  11
ENDBRANCH   9  10
ENDBRANCH   8   9
ENDBRANCH   7   8
ENDBRANCH   6   7
ENDBRANCH   5   6
ENDBRANCH   4   5
ENDBRANCH   3   4
ENDBRANCH   2   3
ENDBRANCH   1   2
BRANCH   1  15
ATOM     15  C   UNL     1     254.627 260.638 245.638  1.00  0.00     0.000 C 
BRANCH  15  16
ATOM     16  C   UNL     1     256.032 261.245 245.790  1.00  0.00     0.000 C 
BRANCH  16  17
ATOM     17  C   UNL     1     256.962 260.909 244.610  1.00  0.00     0.000 C 
BRANCH  17  18
ATOM     18  C   UNL     1     258.332 261.614 244.628  1.00  0.00    -0.000 C 
BRANCH  18  19
ATOM     19  C   UNL     1     258.366 262.836 245.561  1.00  0.00    -0.000 C 
BRANCH  19  20
ATOM     20  C   UNL     1     259.471 262.745 246.630  1.00  0.00    -0.000 C 
BRANCH  20  21
ATOM     21  C   UNL     1     259.634 261.362 247.293  1.00  0.00    -0.000 C 
BRANCH  21  22
ATOM     22  C   UNL     1     259.609 261.368 248.834  1.00  0.00    -0.000 C 
BRANCH  22  23
ATOM     23  C   UNL     1     258.329 261.956 249.463  1.00  0.00    -0.000 C 
BRANCH  23  24
ATOM     24  C   UNL     1     257.043 261.161 249.180  1.00  0.00    -0.000 C 
BRANCH  24  25
ATOM     25  C   UNL     1     256.064 261.171 250.362  1.00  0.00    -0.003 C 
ATOM     26  C   UNL     1     255.267 259.871 250.427  1.00  0.00     0.004 C 
ENDBRANCH  24  25
ENDBRANCH  23  24
ENDBRANCH  22  23
ENDBRANCH  21  22
ENDBRANCH  20  21
ENDBRANCH  19  20
ENDBRANCH  18  19
ENDBRANCH  17  18
ENDBRANCH  16  17
ENDBRANCH  15  16
ENDBRANCH   1  15
TORSDOF 22
ENDMDL
