MODEL 1
REMARK VINA RESULT:    -3.926      0.000      0.000
REMARK INTER + INTRA:          -7.970
REMARK INTER:                  -7.140
REMARK INTRA:                  -0.830
REMARK UNBOUND:                -0.830
REMARK SMILES CCCCCCCCCCCCCCCC(=O)[O-]
REMARK SMILES IDX 9 1 10 2 11 3 12 4 13 5 14 6 15 7 16 8 17 9 18 10 8 11 7 12
REMARK SMILES IDX 6 13 5 14 4 15 3 16 2 17 1 18
REMARK H PARENT
REMARK Flexibility Score: inf
ROOT
ATOM      1  C   UNL     1     -31.470 -20.988 -33.829  1.00  0.00     0.000 C 
ENDROOT
BRANCH   1   2
ATOM      2  C   UNL     1     -29.942 -20.813 -33.821  1.00  0.00     0.000 C 
BRANCH   2   3
ATOM      3  C   UNL     1     -29.515 -19.386 -33.433  1.00  0.00     0.000 C 
BRANCH   3   4
ATOM      4  C   UNL     1     -28.458 -19.371 -32.318  1.00  0.00     0.000 C 
BRANCH   4   5
ATOM      5  C   UNL     1     -29.047 -18.994 -30.947  1.00  0.00     0.000 C 
BRANCH   5   6
ATOM      6  C   UNL     1     -30.584 -18.899 -30.955  1.00  0.00     0.006 C 
BRANCH   6   7
ATOM      7  C   UNL     1     -31.263 -19.689 -29.824  1.00  0.00     0.053 C 
BRANCH   7   8
ATOM      8  C   UNL     1     -30.799 -21.114 -29.759  1.00  0.00     0.041 C 
ATOM      9  O   UNL     1     -30.301 -21.569 -28.698  1.00  0.00    -0.550 OA
ATOM     10  O   UNL     1     -30.952 -21.948 -30.859  1.00  0.00    -0.550 OA
ENDBRANCH   7   8
ENDBRANCH   6   7
ENDBRANCH   5   6
ENDBRANCH   4   5
ENDBRANCH   3   4
ENDBRANCH   2   3
ENDBRANCH   1   2
BRANCH   1  11
ATOM     11  C   UNL     1     -31.911 -22.270 -34.556  1.00  0.00     0.000 C 
BRANCH  11  12
ATOM     12  C   UNL     1     -32.989 -22.013 -35.626  1.00  0.00    -0.000 C 
BRANCH  12  13
ATOM     13  C   UNL     1     -32.687 -22.602 -37.017  1.00  0.00    -0.000 C 
BRANCH  13  14
ATOM     14  C   UNL     1     -31.426 -23.482 -37.034  1.00  0.00    -0.000 C 
BRANCH  14  15
ATOM     15  C   UNL     1     -31.453 -24.528 -38.162  1.00  0.00    -0.000 C 
BRANCH  15  16
ATOM     16  C   UNL     1     -32.727 -25.392 -38.140  1.00  0.00    -0.000 C 
BRANCH  16  17
ATOM     17  C   UNL     1     -32.586 -26.668 -38.985  1.00  0.00    -0.003 C 
ATOM     18  C   UNL     1     -33.450 -27.816 -38.467  1.00  0.00     0.004 C 
ENDBRANCH  16  17
ENDBRANCH  15  16
ENDBRANCH  14  15
ENDBRANCH  13  14
ENDBRANCH  12  13
ENDBRANCH  11  12
ENDBRANCH   1  11
TORSDOF 14
ENDMDL
MODEL 2
REMARK VINA RESULT:    -3.718      1.692      2.362
REMARK INTER + INTRA:          -7.591
REMARK INTER:                  -6.619
REMARK INTRA:                  -0.972
REMARK UNBOUND:                -0.830
REMARK SMILES CCCCCCCCCCCCCCCC(=O)[O-]
REMARK SMILES IDX 9 1 10 2 11 3 12 4 13 5 14 6 15 7 16 8 17 9 18 10 8 11 7 12
REMARK SMILES IDX 6 13 5 14 4 15 3 16 2 17 1 18
REMARK H PARENT
REMARK Flexibility Score: inf
ROOT
ATOM      1  C   UNL     1     -31.556 -22.024 -33.761  1.00  0.00     0.000 C 
ENDROOT
BRANCH   1   2
ATOM      2  C   UNL     1     -30.562 -21.005 -34.341  1.00  0.00     0.000 C 
BRANCH   2   3
ATOM      3  C   UNL     1     -29.459 -20.624 -33.338  1.00  0.00     0.000 C 
BRANCH   3   4
ATOM      4  C   UNL     1     -29.706 -19.256 -32.683  1.00  0.00     0.000 C 
BRANCH   4   5
ATOM      5  C   UNL     1     -28.841 -19.033 -31.430  1.00  0.00     0.000 C 
BRANCH   5   6
ATOM      6  C   UNL     1     -29.665 -18.967 -30.131  1.00  0.00     0.006 C 
BRANCH   6   7
ATOM      7  C   UNL     1     -30.853 -19.944 -30.097  1.00  0.00     0.053 C 
BRANCH   7   8
ATOM      8  C   UNL     1     -32.172 -19.241 -29.982  1.00  0.00     0.041 C 
ATOM      9  O   UNL     1     -32.786 -18.875 -31.018  1.00  0.00    -0.550 OA
ATOM     10  O   UNL     1     -32.741 -19.022 -28.735  1.00  0.00    -0.550 OA
ENDBRANCH   7   8
ENDBRANCH   6   7
ENDBRANCH   5   6
ENDBRANCH   4   5
ENDBRANCH   3   4
ENDBRANCH   2   3
ENDBRANCH   1   2
BRANCH   1  11
ATOM     11  C   UNL     1     -32.569 -22.520 -34.809  1.00  0.00     0.000 C 
BRANCH  11  12
ATOM     12  C   UNL     1     -33.079 -21.397 -35.730  1.00  0.00    -0.000 C 
BRANCH  12  13
ATOM     13  C   UNL     1     -33.963 -21.860 -36.903  1.00  0.00    -0.000 C 
BRANCH  13  14
ATOM     14  C   UNL     1     -33.701 -21.072 -38.199  1.00  0.00    -0.000 C 
BRANCH  14  15
ATOM     15  C   UNL     1     -32.418 -21.527 -38.915  1.00  0.00    -0.000 C 
BRANCH  15  16
ATOM     16  C   UNL     1     -32.361 -23.052 -39.121  1.00  0.00    -0.000 C 
BRANCH  16  17
ATOM     17  C   UNL     1     -31.507 -23.756 -38.055  1.00  0.00    -0.003 C 
ATOM     18  C   UNL     1     -31.999 -25.168 -37.744  1.00  0.00     0.004 C 
ENDBRANCH  16  17
ENDBRANCH  15  16
ENDBRANCH  14  15
ENDBRANCH  13  14
ENDBRANCH  12  13
ENDBRANCH  11  12
ENDBRANCH   1  11
TORSDOF 14
ENDMDL
MODEL 3
REMARK VINA RESULT:    -3.696      3.065      8.198
REMARK INTER + INTRA:          -7.551
REMARK INTER:                  -6.300
REMARK INTRA:                  -1.251
REMARK UNBOUND:                -0.830
REMARK SMILES CCCCCCCCCCCCCCCC(=O)[O-]
REMARK SMILES IDX 9 1 10 2 11 3 12 4 13 5 14 6 15 7 16 8 17 9 18 10 8 11 7 12
REMARK SMILES IDX 6 13 5 14 4 15 3 16 2 17 1 18
REMARK H PARENT
REMARK Flexibility Score: inf
ROOT
ATOM      1  C   UNL     1     -29.794 -20.982 -33.478  1.00  0.00     0.000 C 
ENDROOT
BRANCH   1   2
ATOM      2  C   UNL     1     -31.214 -21.536 -33.679  1.00  0.00     0.000 C 
BRANCH   2   3
ATOM      3  C   UNL     1     -31.516 -21.856 -35.154  1.00  0.00     0.000 C 
BRANCH   3   4
ATOM      4  C   UNL     1     -32.939 -22.400 -35.358  1.00  0.00     0.000 C 
BRANCH   4   5
ATOM      5  C   UNL     1     -33.397 -22.329 -36.825  1.00  0.00     0.000 C 
BRANCH   5   6
ATOM      6  C   UNL     1     -32.228 -22.172 -37.816  1.00  0.00     0.006 C 
BRANCH   6   7
ATOM      7  C   UNL     1     -32.228 -23.212 -38.948  1.00  0.00     0.053 C 
BRANCH   7   8
ATOM      8  C   UNL     1     -31.865 -24.585 -38.468  1.00  0.00     0.041 C 
ATOM      9  O   UNL     1     -31.053 -24.727 -37.516  1.00  0.00    -0.550 OA
ATOM     10  O   UNL     1     -32.449 -25.705 -39.045  1.00  0.00    -0.550 OA
ENDBRANCH   7   8
ENDBRANCH   6   7
ENDBRANCH   5   6
ENDBRANCH   4   5
ENDBRANCH   3   4
ENDBRANCH   2   3
ENDBRANCH   1   2
BRANCH   1  11
ATOM     11  C   UNL     1     -29.785 -19.465 -33.220  1.00  0.00     0.000 C 
BRANCH  11  12
ATOM     12  C   UNL     1     -28.396 -18.931 -32.825  1.00  0.00    -0.000 C 
BRANCH  12  13
ATOM     13  C   UNL     1     -28.120 -18.876 -31.311  1.00  0.00    -0.000 C 
BRANCH  13  14
ATOM     14  C   UNL     1     -29.406 -18.886 -30.466  1.00  0.00    -0.000 C 
BRANCH  14  15
ATOM     15  C   UNL     1     -29.646 -20.239 -29.775  1.00  0.00    -0.000 C 
BRANCH  15  16
ATOM     16  C   UNL     1     -31.140 -20.536 -29.553  1.00  0.00    -0.000 C 
BRANCH  16  17
ATOM     17  C   UNL     1     -32.052 -19.529 -30.272  1.00  0.00    -0.003 C 
ATOM     18  C   UNL     1     -33.065 -18.877 -29.333  1.00  0.00     0.004 C 
ENDBRANCH  16  17
ENDBRANCH  15  16
ENDBRANCH  14  15
ENDBRANCH  13  14
ENDBRANCH  12  13
ENDBRANCH  11  12
ENDBRANCH   1  11
TORSDOF 14
ENDMDL
MODEL 4
REMARK VINA RESULT:    -3.482      2.910      7.775
REMARK INTER + INTRA:          -7.162
REMARK INTER:                  -6.247
REMARK INTRA:                  -0.915
REMARK UNBOUND:                -0.830
REMARK SMILES CCCCCCCCCCCCCCCC(=O)[O-]
REMARK SMILES IDX 9 1 10 2 11 3 12 4 13 5 14 6 15 7 16 8 17 9 18 10 8 11 7 12
REMARK SMILES IDX 6 13 5 14 4 15 3 16 2 17 1 18
REMARK H PARENT
REMARK Flexibility Score: inf
ROOT
ATOM      1  C   UNL     1     -31.697 -21.836 -33.720  1.00  0.00     0.000 C 
ENDROOT
BRANCH   1   2
ATOM      2  C   UNL     1     -32.744 -22.326 -34.734  1.00  0.00     0.000 C 
BRANCH   2   3
ATOM      3  C   UNL     1     -33.057 -21.273 -35.811  1.00  0.00     0.000 C 
BRANCH   3   4
ATOM      4  C   UNL     1     -34.114 -21.756 -36.817  1.00  0.00     0.000 C 
BRANCH   4   5
ATOM      5  C   UNL     1     -33.715 -21.476 -38.277  1.00  0.00     0.000 C 
BRANCH   5   6
ATOM      6  C   UNL     1     -32.259 -21.867 -38.590  1.00  0.00     0.006 C 
BRANCH   6   7
ATOM      7  C   UNL     1     -32.099 -23.300 -39.125  1.00  0.00     0.053 C 
BRANCH   7   8
ATOM      8  C   UNL     1     -31.773 -24.284 -38.042  1.00  0.00     0.041 C 
ATOM      9  O   UNL     1     -32.022 -25.507 -38.202  1.00  0.00    -0.550 OA
ATOM     10  O   UNL     1     -31.160 -23.856 -36.871  1.00  0.00    -0.550 OA
ENDBRANCH   7   8
ENDBRANCH   6   7
ENDBRANCH   5   6
ENDBRANCH   4   5
ENDBRANCH   3   4
ENDBRANCH   2   3
ENDBRANCH   1   2
BRANCH   1  11
ATOM     11  C   UNL     1     -30.529 -21.093 -34.393  1.00  0.00     0.000 C 
BRANCH  11  12
ATOM     12  C   UNL     1     -29.510 -20.536 -33.382  1.00  0.00    -0.000 C 
BRANCH  12  13
ATOM     13  C   UNL     1     -29.831 -19.135 -32.830  1.00  0.00    -0.000 C 
BRANCH  13  14
ATOM     14  C   UNL     1     -31.341 -18.879 -32.683  1.00  0.00    -0.000 C 
BRANCH  14  15
ATOM     15  C   UNL     1     -31.842 -19.122 -31.250  1.00  0.00    -0.000 C 
BRANCH  15  16
ATOM     16  C   UNL     1     -30.695 -19.369 -30.253  1.00  0.00    -0.000 C 
BRANCH  16  17
ATOM     17  C   UNL     1     -30.863 -20.687 -29.480  1.00  0.00    -0.003 C 
ATOM     18  C   UNL     1     -30.766 -21.916 -30.383  1.00  0.00     0.004 C 
ENDBRANCH  16  17
ENDBRANCH  15  16
ENDBRANCH  14  15
ENDBRANCH  13  14
ENDBRANCH  12  13
ENDBRANCH  11  12
ENDBRANCH   1  11
TORSDOF 14
ENDMDL
MODEL 5
REMARK VINA RESULT:    -3.416      0.976      1.572
REMARK INTER + INTRA:          -7.043
REMARK INTER:                  -5.952
REMARK INTRA:                  -1.091
REMARK UNBOUND:                -0.830
REMARK SMILES CCCCCCCCCCCCCCCC(=O)[O-]
REMARK SMILES IDX 9 1 10 2 11 3 12 4 13 5 14 6 15 7 16 8 17 9 18 10 8 11 7 12
REMARK SMILES IDX 6 13 5 14 4 15 3 16 2 17 1 18
REMARK H PARENT
REMARK Flexibility Score: inf
ROOT
ATOM      1  C   UNL     1     -31.188 -20.563 -33.764  1.00  0.00     0.000 C 
ENDROOT
BRANCH   1   2
ATOM      2  C   UNL     1     -29.652 -20.620 -33.824  1.00  0.00     0.000 C 
BRANCH   2   3
ATOM      3  C   UNL     1     -28.990 -19.779 -32.718  1.00  0.00     0.000 C 
BRANCH   3   4
ATOM      4  C   UNL     1     -29.994 -18.876 -31.984  1.00  0.00     0.000 C 
BRANCH   4   5
ATOM      5  C   UNL     1     -30.026 -19.133 -30.468  1.00  0.00     0.000 C 
BRANCH   5   6
ATOM      6  C   UNL     1     -31.455 -19.226 -29.901  1.00  0.00     0.006 C 
BRANCH   6   7
ATOM      7  C   UNL     1     -31.718 -20.503 -29.084  1.00  0.00     0.053 C 
BRANCH   7   8
ATOM      8  C   UNL     1     -30.752 -21.602 -29.408  1.00  0.00     0.041 C 
ATOM      9  O   UNL     1     -29.908 -21.975 -28.552  1.00  0.00    -0.550 OA
ATOM     10  O   UNL     1     -30.807 -22.240 -30.641  1.00  0.00    -0.550 OA
ENDBRANCH   7   8
ENDBRANCH   6   7
ENDBRANCH   5   6
ENDBRANCH   4   5
ENDBRANCH   3   4
ENDBRANCH   2   3
ENDBRANCH   1   2
BRANCH   1  11
ATOM     11  C   UNL     1     -31.834 -21.952 -33.908  1.00  0.00     0.000 C 
BRANCH  11  12
ATOM     12  C   UNL     1     -32.027 -22.376 -35.375  1.00  0.00    -0.000 C 
BRANCH  12  13
ATOM     13  C   UNL     1     -33.358 -21.940 -36.016  1.00  0.00    -0.000 C 
BRANCH  13  14
ATOM     14  C   UNL     1     -33.182 -21.366 -37.432  1.00  0.00    -0.000 C 
BRANCH  14  15
ATOM     15  C   UNL     1     -31.963 -21.958 -38.160  1.00  0.00    -0.000 C 
BRANCH  15  16
ATOM     16  C   UNL     1     -32.303 -23.243 -38.938  1.00  0.00    -0.000 C 
BRANCH  16  17
ATOM     17  C   UNL     1     -31.604 -24.482 -38.359  1.00  0.00    -0.003 C 
ATOM     18  C   UNL     1     -32.446 -25.750 -38.493  1.00  0.00     0.004 C 
ENDBRANCH  16  17
ENDBRANCH  15  16
ENDBRANCH  14  15
ENDBRANCH  13  14
ENDBRANCH  12  13
ENDBRANCH  11  12
ENDBRANCH   1  11
TORSDOF 14
ENDMDL
MODEL 6
REMARK VINA RESULT:    -3.302      1.296      2.301
REMARK INTER + INTRA:          -6.834
REMARK INTER:                  -6.373
REMARK INTRA:                  -0.461
REMARK UNBOUND:                -0.830
REMARK SMILES CCCCCCCCCCCCCCCC(=O)[O-]
REMARK SMILES IDX 9 1 10 2 11 3 12 4 13 5 14 6 15 7 16 8 17 9 18 10 8 11 7 12
REMARK SMILES IDX 6 13 5 14 4 15 3 16 2 17 1 18
REMARK H PARENT
REMARK Flexibility Score: inf
ROOT
ATOM      1  C   UNL     1     -33.547 -21.170 -35.623  1.00  0.00     0.000 C 
ENDROOT
BRANCH   1   2
ATOM      2  C   UNL     1     -32.262 -21.989 -35.418  1.00  0.00     0.000 C 
BRANCH   2   3
ATOM      3  C   UNL     1     -31.743 -21.916 -33.971  1.00  0.00     0.000 C 
BRANCH   3   4
ATOM      4  C   UNL     1     -30.842 -20.695 -33.730  1.00  0.00     0.000 C 
BRANCH   4   5
ATOM      5  C   UNL     1     -29.699 -20.986 -32.741  1.00  0.00     0.000 C 
BRANCH   5   6
ATOM      6  C   UNL     1     -28.989 -19.712 -32.247  1.00  0.00     0.006 C 
BRANCH   6   7
ATOM      7  C   UNL     1     -29.594 -19.120 -30.963  1.00  0.00     0.053 C 
BRANCH   7   8
ATOM      8  C   UNL     1     -30.831 -19.845 -30.524  1.00  0.00     0.041 C 
ATOM      9  O   UNL     1     -30.737 -20.896 -29.838  1.00  0.00    -0.550 OA
ATOM     10  O   UNL     1     -32.086 -19.340 -30.839  1.00  0.00    -0.550 OA
ENDBRANCH   7   8
ENDBRANCH   6   7
ENDBRANCH   5   6
ENDBRANCH   4   5
ENDBRANCH   3   4
ENDBRANCH   2   3
ENDBRANCH   1   2
BRANCH   1  11
ATOM     11  C   UNL     1     -34.083 -21.267 -37.063  1.00  0.00     0.000 C 
BRANCH  11  12
ATOM     12  C   UNL     1     -32.966 -21.233 -38.123  1.00  0.00    -0.000 C 
BRANCH  12  13
ATOM     13  C   UNL     1     -32.920 -22.448 -39.067  1.00  0.00    -0.000 C 
BRANCH  13  14
ATOM     14  C   UNL     1     -31.783 -23.428 -38.729  1.00  0.00    -0.000 C 
BRANCH  14  15
ATOM     15  C   UNL     1     -32.247 -24.577 -37.818  1.00  0.00    -0.000 C 
BRANCH  15  16
ATOM     16  C   UNL     1     -31.870 -25.963 -38.371  1.00  0.00    -0.000 C 
BRANCH  16  17
ATOM     17  C   UNL     1     -33.034 -26.633 -39.118  1.00  0.00    -0.003 C 
ATOM     18  C   UNL     1     -33.450 -27.962 -38.490  1.00  0.00     0.004 C 
ENDBRANCH  16  17
ENDBRANCH  15  16
ENDBRANCH  14  15
ENDBRANCH  13  14
ENDBRANCH  12  13
ENDBRANCH  11  12
ENDBRANCH   1  11
TORSDOF 14
ENDMDL
MODEL 7
REMARK VINA RESULT:    -3.172      2.959      7.906
REMARK INTER + INTRA:          -6.598
REMARK INTER:                  -5.407
REMARK INTRA:                  -1.191
REMARK UNBOUND:                -0.830
REMARK SMILES CCCCCCCCCCCCCCCC(=O)[O-]
REMARK SMILES IDX 9 1 10 2 11 3 12 4 13 5 14 6 15 7 16 8 17 9 18 10 8 11 7 12
REMARK SMILES IDX 6 13 5 14 4 15 3 16 2 17 1 18
REMARK H PARENT
REMARK Flexibility Score: inf
ROOT
ATOM      1  C   UNL     1     -31.377 -20.731 -33.498  1.00  0.00     0.000 C 
ENDROOT
BRANCH   1   2
ATOM      2  C   UNL     1     -32.106 -21.864 -34.239  1.00  0.00     0.000 C 
BRANCH   2   3
ATOM      3  C   UNL     1     -31.941 -21.768 -35.766  1.00  0.00     0.000 C 
BRANCH   3   4
ATOM      4  C   UNL     1     -33.289 -21.657 -36.497  1.00  0.00     0.000 C 
BRANCH   4   5
ATOM      5  C   UNL     1     -33.127 -21.460 -38.015  1.00  0.00     0.000 C 
BRANCH   5   6
ATOM      6  C   UNL     1     -31.989 -22.308 -38.615  1.00  0.00     0.006 C 
BRANCH   6   7
ATOM      7  C   UNL     1     -32.442 -23.686 -39.125  1.00  0.00     0.053 C 
BRANCH   7   8
ATOM      8  C   UNL     1     -31.969 -24.807 -38.249  1.00  0.00     0.041 C 
ATOM      9  O   UNL     1     -31.295 -24.560 -37.215  1.00  0.00    -0.550 OA
ATOM     10  O   UNL     1     -32.303 -26.120 -38.553  1.00  0.00    -0.550 OA
ENDBRANCH   7   8
ENDBRANCH   6   7
ENDBRANCH   5   6
ENDBRANCH   4   5
ENDBRANCH   3   4
ENDBRANCH   2   3
ENDBRANCH   1   2
BRANCH   1  11
ATOM     11  C   UNL     1     -29.890 -20.637 -33.881  1.00  0.00     0.000 C 
BRANCH  11  12
ATOM     12  C   UNL     1     -28.986 -20.262 -32.693  1.00  0.00    -0.000 C 
BRANCH  12  13
ATOM     13  C   UNL     1     -29.251 -18.875 -32.078  1.00  0.00    -0.000 C 
BRANCH  13  14
ATOM     14  C   UNL     1     -29.328 -18.906 -30.542  1.00  0.00    -0.000 C 
BRANCH  14  15
ATOM     15  C   UNL     1     -30.776 -18.885 -30.025  1.00  0.00    -0.000 C 
BRANCH  15  16
ATOM     16  C   UNL     1     -31.483 -20.243 -30.183  1.00  0.00    -0.000 C 
BRANCH  16  17
ATOM     17  C   UNL     1     -30.637 -21.411 -29.653  1.00  0.00    -0.003 C 
ATOM     18  C   UNL     1     -30.983 -22.741 -30.321  1.00  0.00     0.004 C 
ENDBRANCH  16  17
ENDBRANCH  15  16
ENDBRANCH  14  15
ENDBRANCH  13  14
ENDBRANCH  12  13
ENDBRANCH  11  12
ENDBRANCH   1  11
TORSDOF 14
ENDMDL
MODEL 8
REMARK VINA RESULT:    -2.819      3.681      8.635
REMARK INTER + INTRA:          -5.956
REMARK INTER:                  -5.360
REMARK INTRA:                  -0.596
REMARK UNBOUND:                -0.830
REMARK SMILES CCCCCCCCCCCCCCCC(=O)[O-]
REMARK SMILES IDX 9 1 10 2 11 3 12 4 13 5 14 6 15 7 16 8 17 9 18 10 8 11 7 12
REMARK SMILES IDX 6 13 5 14 4 15 3 16 2 17 1 18
REMARK H PARENT
REMARK Flexibility Score: inf
ROOT
ATOM      1  C   UNL     1     -32.083 -22.035 -34.351  1.00  0.00     0.000 C 
ENDROOT
BRANCH   1   2
ATOM      2  C   UNL     1     -33.258 -21.607 -35.245  1.00  0.00     0.000 C 
BRANCH   2   3
ATOM      3  C   UNL     1     -33.015 -21.931 -36.730  1.00  0.00     0.000 C 
BRANCH   3   4
ATOM      4  C   UNL     1     -32.473 -23.354 -36.941  1.00  0.00     0.000 C 
BRANCH   4   5
ATOM      5  C   UNL     1     -31.808 -23.539 -38.316  1.00  0.00     0.000 C 
BRANCH   5   6
ATOM      6  C   UNL     1     -32.083 -24.920 -38.939  1.00  0.00     0.006 C 
BRANCH   6   7
ATOM      7  C   UNL     1     -33.015 -25.808 -38.096  1.00  0.00     0.053 C 
BRANCH   7   8
ATOM      8  C   UNL     1     -32.997 -27.241 -38.539  1.00  0.00     0.041 C 
ATOM      9  O   UNL     1     -31.973 -27.947 -38.355  1.00  0.00    -0.550 OA
ATOM     10  O   UNL     1     -34.125 -27.805 -39.121  1.00  0.00    -0.550 OA
ENDBRANCH   7   8
ENDBRANCH   6   7
ENDBRANCH   5   6
ENDBRANCH   4   5
ENDBRANCH   3   4
ENDBRANCH   2   3
ENDBRANCH   1   2
BRANCH   1  11
ATOM     11  C   UNL     1     -31.288 -20.834 -33.810  1.00  0.00     0.000 C 
BRANCH  11  12
ATOM     12  C   UNL     1     -29.794 -21.145 -33.605  1.00  0.00    -0.000 C 
BRANCH  12  13
ATOM     13  C   UNL     1     -28.987 -20.048 -32.886  1.00  0.00    -0.000 C 
BRANCH  13  14
ATOM     14  C   UNL     1     -29.875 -18.938 -32.298  1.00  0.00    -0.000 C 
BRANCH  14  15
ATOM     15  C   UNL     1     -30.267 -19.209 -30.836  1.00  0.00    -0.000 C 
BRANCH  15  16
ATOM     16  C   UNL     1     -31.746 -19.607 -30.682  1.00  0.00    -0.000 C 
BRANCH  16  17
ATOM     17  C   UNL     1     -32.426 -18.896 -29.501  1.00  0.00    -0.003 C 
ATOM     18  C   UNL     1     -33.920 -19.200 -29.411  1.00  0.00     0.004 C 
ENDBRANCH  16  17
ENDBRANCH  15  16
ENDBRANCH  14  15
ENDBRANCH  13  14
ENDBRANCH  12  13
ENDBRANCH  11  12
ENDBRANCH   1  11
TORSDOF 14
ENDMDL
MODEL 9
REMARK VINA RESULT:    -1.772      2.995      8.099
REMARK INTER + INTRA:          -4.052
REMARK INTER:                  -3.770
REMARK INTRA:                  -0.281
REMARK UNBOUND:                -0.830
REMARK SMILES CCCCCCCCCCCCCCCC(=O)[O-]
REMARK SMILES IDX 9 1 10 2 11 3 12 4 13 5 14 6 15 7 16 8 17 9 18 10 8 11 7 12
REMARK SMILES IDX 6 13 5 14 4 15 3 16 2 17 1 18
REMARK H PARENT
REMARK Flexibility Score: inf
ROOT
ATOM      1  C   UNL     1     -30.210 -20.712 -33.682  1.00  0.00     0.000 C 
ENDROOT
BRANCH   1   2
ATOM      2  C   UNL     1     -31.462 -21.582 -33.886  1.00  0.00     0.000 C 
BRANCH   2   3
ATOM      3  C   UNL     1     -31.787 -21.805 -35.373  1.00  0.00     0.000 C 
BRANCH   3   4
ATOM      4  C   UNL     1     -33.297 -21.915 -35.636  1.00  0.00     0.000 C 
BRANCH   4   5
ATOM      5  C   UNL     1     -33.633 -22.036 -37.132  1.00  0.00     0.000 C 
BRANCH   5   6
ATOM      6  C   UNL     1     -32.402 -21.871 -38.042  1.00  0.00     0.006 C 
BRANCH   6   7
ATOM      7  C   UNL     1     -32.181 -23.046 -39.010  1.00  0.00     0.053 C 
BRANCH   7   8
ATOM      8  C   UNL     1     -31.836 -24.320 -38.299  1.00  0.00     0.041 C 
ATOM      9  O   UNL     1     -32.329 -25.412 -38.683  1.00  0.00    -0.550 OA
ATOM     10  O   UNL     1     -30.943 -24.306 -37.235  1.00  0.00    -0.550 OA
ENDBRANCH   7   8
ENDBRANCH   6   7
ENDBRANCH   5   6
ENDBRANCH   4   5
ENDBRANCH   3   4
ENDBRANCH   2   3
ENDBRANCH   1   2
BRANCH   1  11
ATOM     11  C   UNL     1     -30.557 -19.276 -33.252  1.00  0.00     0.000 C 
BRANCH  11  12
ATOM     12  C   UNL     1     -32.069 -19.051 -33.071  1.00  0.00    -0.000 C 
BRANCH  12  13
ATOM     13  C   UNL     1     -32.552 -18.977 -31.610  1.00  0.00    -0.000 C 
BRANCH  13  14
ATOM     14  C   UNL     1     -31.396 -18.875 -30.601  1.00  0.00    -0.000 C 
BRANCH  14  15
ATOM     15  C   UNL     1     -30.793 -20.247 -30.255  1.00  0.00    -0.000 C 
BRANCH  15  16
ATOM     16  C   UNL     1     -29.458 -20.135 -29.496  1.00  0.00    -0.000 C 
BRANCH  16  17
ATOM     17  C   UNL     1     -28.659 -18.884 -29.894  1.00  0.00    -0.003 C 
ATOM     18  C   UNL     1     -28.211 -18.911 -31.354  1.00  0.00     0.004 C 
ENDBRANCH  16  17
ENDBRANCH  15  16
ENDBRANCH  14  15
ENDBRANCH  13  14
ENDBRANCH  12  13
ENDBRANCH  11  12
ENDBRANCH   1  11
TORSDOF 14
ENDMDL
