MODEL 1
REMARK VINA RESULT:    -5.371      0.000      0.000
REMARK INTER + INTRA:          -6.298
REMARK INTER:                  -6.156
REMARK INTRA:                  -0.143
REMARK UNBOUND:                -0.143
REMARK SMILES O=C([O-])C=Cc1ccc(O)cc1
REMARK SMILES IDX 6 1 7 2 12 3 8 4 11 5 9 6 5 7 4 8 2 9 1 10 3 11 10 12
REMARK H PARENT 10 13
REMARK Flexibility Score: inf
ROOT
ATOM      1  C   UNL     1      72.837  40.966  -3.021  1.00  0.00    -0.025 A 
ATOM      2  C   UNL     1      73.762  40.490  -3.965  1.00  0.00     0.012 A 
ATOM      3  C   UNL     1      71.559  40.373  -2.964  1.00  0.00     0.012 A 
ATOM      4  C   UNL     1      73.430  39.431  -4.816  1.00  0.00     0.047 A 
ATOM      5  C   UNL     1      71.231  39.316  -3.818  1.00  0.00     0.047 A 
ATOM      6  C   UNL     1      72.163  38.840  -4.742  1.00  0.00     0.115 A 
ENDROOT
BRANCH   1   7
ATOM      7  C   UNL     1      73.233  42.098  -2.147  1.00  0.00     0.010 C 
ATOM      8  C   UNL     1      73.575  43.309  -2.607  1.00  0.00     0.025 C 
BRANCH   8   9
ATOM      9  C   UNL     1      73.950  44.407  -1.703  1.00  0.00     0.064 C 
ATOM     10  O   UNL     1      73.539  44.402  -0.513  1.00  0.00    -0.545 OA
ATOM     11  O   UNL     1      74.750  45.457  -2.143  1.00  0.00    -0.545 OA
ENDBRANCH   8   9
ENDBRANCH   1   7
BRANCH   6  12
ATOM     12  O   UNL     1      71.822  37.785  -5.586  1.00  0.00    -0.508 OA
ATOM     13  H   UNL     1      70.960  37.269  -5.465  1.00  0.00     0.293 HD
ENDBRANCH   6  12
TORSDOF 3
ENDMDL
MODEL 2
REMARK VINA RESULT:    -5.012      2.047      5.849
REMARK INTER + INTRA:          -5.887
REMARK INTER:                  -5.733
REMARK INTRA:                  -0.154
REMARK UNBOUND:                -0.143
REMARK SMILES O=C([O-])C=Cc1ccc(O)cc1
REMARK SMILES IDX 6 1 7 2 12 3 8 4 11 5 9 6 5 7 4 8 2 9 1 10 3 11 10 12
REMARK H PARENT 10 13
REMARK Flexibility Score: inf
ROOT
ATOM      1  C   UNL     1      74.392  42.509  -3.477  1.00  0.00    -0.025 A 
ATOM      2  C   UNL     1      73.635  41.914  -2.454  1.00  0.00     0.012 A 
ATOM      3  C   UNL     1      74.733  43.873  -3.365  1.00  0.00     0.012 A 
ATOM      4  C   UNL     1      73.248  42.654  -1.332  1.00  0.00     0.047 A 
ATOM      5  C   UNL     1      74.343  44.609  -2.242  1.00  0.00     0.047 A 
ATOM      6  C   UNL     1      73.604  44.003  -1.222  1.00  0.00     0.115 A 
ENDROOT
BRANCH   1   7
ATOM      7  C   UNL     1      74.769  41.685  -4.652  1.00  0.00     0.010 C 
ATOM      8  C   UNL     1      74.375  40.416  -4.829  1.00  0.00     0.025 C 
BRANCH   8   9
ATOM      9  C   UNL     1      74.763  39.640  -6.016  1.00  0.00     0.064 C 
ATOM     10  O   UNL     1      75.123  40.240  -7.063  1.00  0.00    -0.545 OA
ATOM     11  O   UNL     1      74.735  38.249  -6.004  1.00  0.00    -0.545 OA
ENDBRANCH   8   9
ENDBRANCH   1   7
BRANCH   6  12
ATOM     12  O   UNL     1      73.225  44.750  -0.109  1.00  0.00    -0.508 OA
ATOM     13  H   UNL     1      72.256  44.983   0.066  1.00  0.00     0.293 HD
ENDBRANCH   6  12
TORSDOF 3
ENDMDL
MODEL 3
REMARK VINA RESULT:    -4.870      2.657      3.628
REMARK INTER + INTRA:          -5.724
REMARK INTER:                  -5.577
REMARK INTRA:                  -0.147
REMARK UNBOUND:                -0.143
REMARK SMILES O=C([O-])C=Cc1ccc(O)cc1
REMARK SMILES IDX 6 1 7 2 12 3 8 4 11 5 9 6 5 7 4 8 2 9 1 10 3 11 10 12
REMARK H PARENT 10 13
REMARK Flexibility Score: inf
ROOT
ATOM      1  C   UNL     1      73.612  43.447  -2.248  1.00  0.00    -0.025 A 
ATOM      2  C   UNL     1      73.332  42.121  -1.877  1.00  0.00     0.012 A 
ATOM      3  C   UNL     1      74.425  43.679  -3.376  1.00  0.00     0.012 A 
ATOM      4  C   UNL     1      73.829  41.051  -2.628  1.00  0.00     0.047 A 
ATOM      5  C   UNL     1      74.921  42.607  -4.123  1.00  0.00     0.047 A 
ATOM      6  C   UNL     1      74.624  41.293  -3.755  1.00  0.00     0.115 A 
ENDROOT
BRANCH   1   7
ATOM      7  C   UNL     1      73.069  44.547  -1.412  1.00  0.00     0.010 C 
ATOM      8  C   UNL     1      71.906  44.475  -0.750  1.00  0.00     0.025 C 
BRANCH   8   9
ATOM      9  C   UNL     1      71.412  45.586   0.077  1.00  0.00     0.064 C 
ATOM     10  O   UNL     1      71.002  46.640  -0.477  1.00  0.00    -0.545 OA
ATOM     11  O   UNL     1      71.394  45.495   1.464  1.00  0.00    -0.545 OA
ENDBRANCH   8   9
ENDBRANCH   1   7
BRANCH   6  12
ATOM     12  O   UNL     1      75.125  40.235  -4.511  1.00  0.00    -0.508 OA
ATOM     13  H   UNL     1      75.464  39.387  -4.074  1.00  0.00     0.293 HD
ENDBRANCH   6  12
TORSDOF 3
ENDMDL
MODEL 4
REMARK VINA RESULT:    -4.787     14.081     15.469
REMARK INTER + INTRA:          -5.630
REMARK INTER:                  -5.493
REMARK INTRA:                  -0.137
REMARK UNBOUND:                -0.143
REMARK SMILES O=C([O-])C=Cc1ccc(O)cc1
REMARK SMILES IDX 6 1 7 2 12 3 8 4 11 5 9 6 5 7 4 8 2 9 1 10 3 11 10 12
REMARK H PARENT 10 13
REMARK Flexibility Score: inf
ROOT
ATOM      1  C   UNL     1      70.887  49.996   8.886  1.00  0.00    -0.025 A 
ATOM      2  C   UNL     1      71.594  50.341   7.722  1.00  0.00     0.012 A 
ATOM      3  C   UNL     1      71.539  49.235   9.877  1.00  0.00     0.012 A 
ATOM      4  C   UNL     1      72.930  49.959   7.562  1.00  0.00     0.047 A 
ATOM      5  C   UNL     1      72.874  48.854   9.712  1.00  0.00     0.047 A 
ATOM      6  C   UNL     1      73.574  49.216   8.558  1.00  0.00     0.115 A 
ENDROOT
BRANCH   1   7
ATOM      7  C   UNL     1      69.468  50.417   9.004  1.00  0.00     0.010 C 
ATOM      8  C   UNL     1      68.438  49.560   9.036  1.00  0.00     0.025 C 
BRANCH   8   9
ATOM      9  C   UNL     1      67.047  50.021   9.168  1.00  0.00     0.064 C 
ATOM     10  O   UNL     1      66.755  50.875  10.044  1.00  0.00    -0.545 OA
ATOM     11  O   UNL     1      66.046  49.524   8.340  1.00  0.00    -0.545 OA
ENDBRANCH   8   9
ENDBRANCH   1   7
BRANCH   6  12
ATOM     12  O   UNL     1      74.904  48.830   8.409  1.00  0.00    -0.508 OA
ATOM     13  H   UNL     1      75.435  49.071   7.581  1.00  0.00     0.293 HD
ENDBRANCH   6  12
TORSDOF 3
ENDMDL
MODEL 5
REMARK VINA RESULT:    -4.776     14.086     15.494
REMARK INTER + INTRA:          -5.617
REMARK INTER:                  -5.478
REMARK INTRA:                  -0.138
REMARK UNBOUND:                -0.143
REMARK SMILES O=C([O-])C=Cc1ccc(O)cc1
REMARK SMILES IDX 6 1 7 2 12 3 8 4 11 5 9 6 5 7 4 8 2 9 1 10 3 11 10 12
REMARK H PARENT 10 13
REMARK Flexibility Score: inf
ROOT
ATOM      1  C   UNL     1      70.835  49.982   8.833  1.00  0.00    -0.025 A 
ATOM      2  C   UNL     1      71.453  49.251   9.861  1.00  0.00     0.012 A 
ATOM      3  C   UNL     1      71.592  50.327   7.695  1.00  0.00     0.012 A 
ATOM      4  C   UNL     1      72.788  48.849   9.745  1.00  0.00     0.047 A 
ATOM      5  C   UNL     1      72.926  49.925   7.584  1.00  0.00     0.047 A 
ATOM      6  C   UNL     1      73.527  49.184   8.605  1.00  0.00     0.115 A 
ENDROOT
BRANCH   1   7
ATOM      7  C   UNL     1      69.420  50.394   9.008  1.00  0.00     0.010 C 
ATOM      8  C   UNL     1      68.386  49.543   8.958  1.00  0.00     0.025 C 
BRANCH   8   9
ATOM      9  C   UNL     1      66.998  49.993   9.149  1.00  0.00     0.064 C 
ATOM     10  O   UNL     1      66.733  50.825  10.056  1.00  0.00    -0.545 OA
ATOM     11  O   UNL     1      65.971  49.511   8.344  1.00  0.00    -0.545 OA
ENDBRANCH   8   9
ENDBRANCH   1   7
BRANCH   6  12
ATOM     12  O   UNL     1      74.857  48.789   8.479  1.00  0.00    -0.508 OA
ATOM     13  H   UNL     1      75.107  47.841   8.227  1.00  0.00     0.293 HD
ENDBRANCH   6  12
TORSDOF 3
ENDMDL
MODEL 6
REMARK VINA RESULT:    -4.673      2.141      5.913
REMARK INTER + INTRA:          -5.499
REMARK INTER:                  -5.348
REMARK INTRA:                  -0.151
REMARK UNBOUND:                -0.143
REMARK SMILES O=C([O-])C=Cc1ccc(O)cc1
REMARK SMILES IDX 6 1 7 2 12 3 8 4 11 5 9 6 5 7 4 8 2 9 1 10 3 11 10 12
REMARK H PARENT 10 13
REMARK Flexibility Score: inf
ROOT
ATOM      1  C   UNL     1      74.093  40.606  -4.356  1.00  0.00    -0.025 A 
ATOM      2  C   UNL     1      74.922  41.724  -4.550  1.00  0.00     0.012 A 
ATOM      3  C   UNL     1      73.234  40.584  -3.238  1.00  0.00     0.012 A 
ATOM      4  C   UNL     1      74.877  42.806  -3.666  1.00  0.00     0.047 A 
ATOM      5  C   UNL     1      73.193  41.667  -2.356  1.00  0.00     0.047 A 
ATOM      6  C   UNL     1      74.010  42.781  -2.567  1.00  0.00     0.115 A 
ENDROOT
BRANCH   1   7
ATOM      7  C   UNL     1      74.185  39.479  -5.317  1.00  0.00     0.010 C 
ATOM      8  C   UNL     1      74.555  39.620  -6.597  1.00  0.00     0.025 C 
BRANCH   8   9
ATOM      9  C   UNL     1      74.644  38.472  -7.512  1.00  0.00     0.064 C 
ATOM     10  O   UNL     1      74.322  37.325  -7.105  1.00  0.00    -0.545 OA
ATOM     11  O   UNL     1      75.084  38.631  -8.822  1.00  0.00    -0.545 OA
ENDBRANCH   8   9
ENDBRANCH   1   7
BRANCH   6  12
ATOM     12  O   UNL     1      73.957  43.854  -1.679  1.00  0.00    -0.508 OA
ATOM     13  H   UNL     1      74.496  44.696  -1.835  1.00  0.00     0.293 HD
ENDBRANCH   6  12
TORSDOF 3
ENDMDL
MODEL 7
REMARK VINA RESULT:    -4.611      1.856      2.601
REMARK INTER + INTRA:          -5.427
REMARK INTER:                  -5.288
REMARK INTRA:                  -0.139
REMARK UNBOUND:                -0.143
REMARK SMILES O=C([O-])C=Cc1ccc(O)cc1
REMARK SMILES IDX 6 1 7 2 12 3 8 4 11 5 9 6 5 7 4 8 2 9 1 10 3 11 10 12
REMARK H PARENT 10 13
REMARK Flexibility Score: inf
ROOT
ATOM      1  C   UNL     1      73.779  41.864  -3.183  1.00  0.00    -0.025 A 
ATOM      2  C   UNL     1      73.286  40.566  -3.399  1.00  0.00     0.012 A 
ATOM      3  C   UNL     1      74.710  42.398  -4.098  1.00  0.00     0.012 A 
ATOM      4  C   UNL     1      73.692  39.827  -4.515  1.00  0.00     0.047 A 
ATOM      5  C   UNL     1      75.114  41.655  -5.211  1.00  0.00     0.047 A 
ATOM      6  C   UNL     1      74.606  40.371  -5.425  1.00  0.00     0.115 A 
ENDROOT
BRANCH   1   7
ATOM      7  C   UNL     1      73.326  42.604  -1.979  1.00  0.00     0.010 C 
ATOM      8  C   UNL     1      73.041  43.913  -1.974  1.00  0.00     0.025 C 
BRANCH   8   9
ATOM      9  C   UNL     1      72.583  44.604  -0.759  1.00  0.00     0.064 C 
ATOM     10  O   UNL     1      73.190  44.419   0.329  1.00  0.00    -0.545 OA
ATOM     11  O   UNL     1      71.486  45.458  -0.790  1.00  0.00    -0.545 OA
ENDBRANCH   8   9
ENDBRANCH   1   7
BRANCH   6  12
ATOM     12  O   UNL     1      75.017  39.644  -6.540  1.00  0.00    -0.508 OA
ATOM     13  H   UNL     1      74.987  38.632  -6.552  1.00  0.00     0.293 HD
ENDBRANCH   6  12
TORSDOF 3
ENDMDL
MODEL 8
REMARK VINA RESULT:    -4.463     13.656     14.557
REMARK INTER + INTRA:          -5.258
REMARK INTER:                  -5.109
REMARK INTRA:                  -0.148
REMARK UNBOUND:                -0.143
REMARK SMILES O=C([O-])C=Cc1ccc(O)cc1
REMARK SMILES IDX 6 1 7 2 12 3 8 4 11 5 9 6 5 7 4 8 2 9 1 10 3 11 10 12
REMARK H PARENT 10 13
REMARK Flexibility Score: inf
ROOT
ATOM      1  C   UNL     1      68.753  49.374   8.268  1.00  0.00    -0.025 A 
ATOM      2  C   UNL     1      68.558  48.558   7.140  1.00  0.00     0.012 A 
ATOM      3  C   UNL     1      67.629  49.772   9.020  1.00  0.00     0.012 A 
ATOM      4  C   UNL     1      67.275  48.128   6.786  1.00  0.00     0.047 A 
ATOM      5  C   UNL     1      66.349  49.341   8.661  1.00  0.00     0.047 A 
ATOM      6  C   UNL     1      66.168  48.517   7.548  1.00  0.00     0.115 A 
ENDROOT
BRANCH   1   7
ATOM      7  C   UNL     1      70.133  49.812   8.597  1.00  0.00     0.010 C 
ATOM      8  C   UNL     1      71.233  49.143   8.229  1.00  0.00     0.025 C 
BRANCH   8   9
ATOM      9  C   UNL     1      72.583  49.621   8.567  1.00  0.00     0.064 C 
ATOM     10  O   UNL     1      73.150  50.463   7.822  1.00  0.00    -0.545 OA
ATOM     11  O   UNL     1      73.247  49.154   9.696  1.00  0.00    -0.545 OA
ENDBRANCH   8   9
ENDBRANCH   1   7
BRANCH   6  12
ATOM     12  O   UNL     1      64.885  48.095   7.203  1.00  0.00    -0.508 OA
ATOM     13  H   UNL     1      64.710  47.159   6.861  1.00  0.00     0.293 HD
ENDBRANCH   6  12
TORSDOF 3
ENDMDL
MODEL 9
REMARK VINA RESULT:    -4.351      1.690      2.173
REMARK INTER + INTRA:          -5.130
REMARK INTER:                  -4.982
REMARK INTRA:                  -0.148
REMARK UNBOUND:                -0.143
REMARK SMILES O=C([O-])C=Cc1ccc(O)cc1
REMARK SMILES IDX 6 1 7 2 12 3 8 4 11 5 9 6 5 7 4 8 2 9 1 10 3 11 10 12
REMARK H PARENT 10 13
REMARK Flexibility Score: inf
ROOT
ATOM      1  C   UNL     1      73.887  40.038  -4.565  1.00  0.00    -0.025 A 
ATOM      2  C   UNL     1      75.070  39.793  -5.283  1.00  0.00     0.012 A 
ATOM      3  C   UNL     1      72.749  39.252  -4.841  1.00  0.00     0.012 A 
ATOM      4  C   UNL     1      75.125  38.770  -6.236  1.00  0.00     0.047 A 
ATOM      5  C   UNL     1      72.809  38.232  -5.795  1.00  0.00     0.047 A 
ATOM      6  C   UNL     1      73.994  37.985  -6.492  1.00  0.00     0.115 A 
ENDROOT
BRANCH   1   7
ATOM      7  C   UNL     1      73.875  41.141  -3.572  1.00  0.00     0.010 C 
ATOM      8  C   UNL     1      74.437  42.339  -3.784  1.00  0.00     0.025 C 
BRANCH   8   9
ATOM      9  C   UNL     1      74.391  43.409  -2.776  1.00  0.00     0.064 C 
ATOM     10  O   UNL     1      73.695  43.256  -1.738  1.00  0.00    -0.545 OA
ATOM     11  O   UNL     1      75.103  44.591  -2.951  1.00  0.00    -0.545 OA
ENDBRANCH   8   9
ENDBRANCH   1   7
BRANCH   6  12
ATOM     12  O   UNL     1      74.038  36.964  -7.438  1.00  0.00    -0.508 OA
ATOM     13  H   UNL     1      73.253  36.342  -7.583  1.00  0.00     0.293 HD
ENDBRANCH   6  12
TORSDOF 3
ENDMDL
