MODEL 1
REMARK VINA RESULT:    -0.221      0.000      0.000
REMARK INTER + INTRA:          -1.690
REMARK INTER:                  -0.504
REMARK INTRA:                  -1.185
REMARK UNBOUND:                -1.185
REMARK SMILES CCCCCCCCCCCCCCCCCCCCCCCC(=O)[O-]
REMARK SMILES IDX 13 1 14 2 15 3 16 4 17 5 18 6 19 7 20 8 21 9 22 10 23 11
REMARK SMILES IDX 24 12 25 13 26 14 12 15 11 16 10 17 9 18 8 19 7 20 6 21 5 22
REMARK SMILES IDX 4 23 3 24 2 25 1 26
REMARK H PARENT
REMARK Flexibility Score: inf
ROOT
ATOM      1  C   UNL     1      40.820  23.098  14.650  1.00  0.00     0.000 C 
ENDROOT
BRANCH   1   2
ATOM      2  C   UNL     1      39.553  22.309  15.020  1.00  0.00     0.000 C 
BRANCH   2   3
ATOM      3  C   UNL     1      38.261  23.090  14.727  1.00  0.00     0.000 C 
BRANCH   3   4
ATOM      4  C   UNL     1      37.356  22.371  13.711  1.00  0.00     0.000 C 
BRANCH   4   5
ATOM      5  C   UNL     1      36.166  21.648  14.377  1.00  0.00     0.000 C 
BRANCH   5   6
ATOM      6  C   UNL     1      34.831  22.410  14.266  1.00  0.00     0.000 C 
BRANCH   6   7
ATOM      7  C   UNL     1      33.696  21.638  13.567  1.00  0.00     0.000 C 
BRANCH   7   8
ATOM      8  C   UNL     1      34.143  20.721  12.409  1.00  0.00     0.000 C 
BRANCH   8   9
ATOM      9  C   UNL     1      33.416  20.953  11.072  1.00  0.00     0.000 C 
BRANCH   9  10
ATOM     10  C   UNL     1      33.444  22.425  10.623  1.00  0.00     0.006 C 
BRANCH  10  11
ATOM     11  C   UNL     1      34.176  22.610   9.288  1.00  0.00     0.053 C 
BRANCH  11  12
ATOM     12  C   UNL     1      35.664  22.623   9.462  1.00  0.00     0.041 C 
ATOM     13  O   UNL     1      36.170  22.981  10.559  1.00  0.00    -0.550 OA
ATOM     14  O   UNL     1      36.490  22.204   8.427  1.00  0.00    -0.550 OA
ENDBRANCH  11  12
ENDBRANCH  10  11
ENDBRANCH   9  10
ENDBRANCH   8   9
ENDBRANCH   7   8
ENDBRANCH   6   7
ENDBRANCH   5   6
ENDBRANCH   4   5
ENDBRANCH   3   4
ENDBRANCH   2   3
ENDBRANCH   1   2
BRANCH   1  15
ATOM     15  C   UNL     1      41.865  23.123  15.780  1.00  0.00     0.000 C 
BRANCH  15  16
ATOM     16  C   UNL     1      43.335  23.125  15.317  1.00  0.00     0.000 C 
BRANCH  16  17
ATOM     17  C   UNL     1      44.323  22.770  16.440  1.00  0.00     0.000 C 
BRANCH  17  18
ATOM     18  C   UNL     1      44.908  21.352  16.301  1.00  0.00    -0.000 C 
BRANCH  18  19
ATOM     19  C   UNL     1      46.431  21.284  16.090  1.00  0.00    -0.000 C 
BRANCH  19  20
ATOM     20  C   UNL     1      47.186  22.429  16.787  1.00  0.00    -0.000 C 
BRANCH  20  21
ATOM     21  C   UNL     1      48.704  22.365  16.551  1.00  0.00    -0.000 C 
BRANCH  21  22
ATOM     22  C   UNL     1      49.099  21.337  15.476  1.00  0.00    -0.000 C 
BRANCH  22  23
ATOM     23  C   UNL     1      50.546  20.842  15.628  1.00  0.00    -0.000 C 
BRANCH  23  24
ATOM     24  C   UNL     1      51.463  21.253  14.456  1.00  0.00    -0.000 C 
BRANCH  24  25
ATOM     25  C   UNL     1      52.908  21.508  14.913  1.00  0.00    -0.003 C 
ATOM     26  C   UNL     1      52.987  22.714  15.845  1.00  0.00     0.004 C 
ENDBRANCH  24  25
ENDBRANCH  23  24
ENDBRANCH  22  23
ENDBRANCH  21  22
ENDBRANCH  20  21
ENDBRANCH  19  20
ENDBRANCH  18  19
ENDBRANCH  17  18
ENDBRANCH  16  17
ENDBRANCH  15  16
ENDBRANCH   1  15
TORSDOF 22
ENDMDL
MODEL 2
REMARK VINA RESULT:    -0.198      5.728     14.711
REMARK INTER + INTRA:          -1.639
REMARK INTER:                  -0.617
REMARK INTRA:                  -1.021
REMARK UNBOUND:                -1.185
REMARK SMILES CCCCCCCCCCCCCCCCCCCCCCCC(=O)[O-]
REMARK SMILES IDX 13 1 14 2 15 3 16 4 17 5 18 6 19 7 20 8 21 9 22 10 23 11
REMARK SMILES IDX 24 12 25 13 26 14 12 15 11 16 10 17 9 18 8 19 7 20 6 21 5 22
REMARK SMILES IDX 4 23 3 24 2 25 1 26
REMARK H PARENT
REMARK Flexibility Score: inf
ROOT
ATOM      1  C   UNL     1      45.125  21.327  16.228  1.00  0.00     0.000 C 
ENDROOT
BRANCH   1   2
ATOM      2  C   UNL     1      46.654  21.445  16.124  1.00  0.00     0.000 C 
BRANCH   2   3
ATOM      3  C   UNL     1      47.263  22.279  17.262  1.00  0.00     0.000 C 
BRANCH   3   4
ATOM      4  C   UNL     1      48.763  22.557  17.051  1.00  0.00     0.000 C 
BRANCH   4   5
ATOM      5  C   UNL     1      49.231  22.250  15.613  1.00  0.00     0.000 C 
BRANCH   5   6
ATOM      6  C   UNL     1      49.974  20.908  15.471  1.00  0.00     0.000 C 
BRANCH   6   7
ATOM      7  C   UNL     1      51.463  21.024  15.092  1.00  0.00     0.000 C 
BRANCH   7   8
ATOM      8  C   UNL     1      52.248  22.116  15.848  1.00  0.00     0.000 C 
BRANCH   8   9
ATOM      9  C   UNL     1      53.026  21.628  17.083  1.00  0.00     0.000 C 
BRANCH   9  10
ATOM     10  C   UNL     1      52.409  22.109  18.408  1.00  0.00     0.006 C 
BRANCH  10  11
ATOM     11  C   UNL     1      53.057  21.439  19.627  1.00  0.00     0.053 C 
BRANCH  11  12
ATOM     12  C   UNL     1      52.222  21.596  20.861  1.00  0.00     0.041 C 
ATOM     13  O   UNL     1      51.547  20.625  21.296  1.00  0.00    -0.550 OA
ATOM     14  O   UNL     1      52.218  22.802  21.551  1.00  0.00    -0.550 OA
ENDBRANCH  11  12
ENDBRANCH  10  11
ENDBRANCH   9  10
ENDBRANCH   8   9
ENDBRANCH   7   8
ENDBRANCH   6   7
ENDBRANCH   5   6
ENDBRANCH   4   5
ENDBRANCH   3   4
ENDBRANCH   2   3
ENDBRANCH   1   2
BRANCH   1  15
ATOM     15  C   UNL     1      44.433  22.677  16.495  1.00  0.00     0.000 C 
BRANCH  15  16
ATOM     16  C   UNL     1      43.412  23.115  15.428  1.00  0.00     0.000 C 
BRANCH  16  17
ATOM     17  C   UNL     1      41.961  23.096  15.937  1.00  0.00     0.000 C 
BRANCH  17  18
ATOM     18  C   UNL     1      40.924  23.124  14.799  1.00  0.00    -0.000 C 
BRANCH  18  19
ATOM     19  C   UNL     1      39.454  23.016  15.242  1.00  0.00    -0.000 C 
BRANCH  19  20
ATOM     20  C   UNL     1      38.561  22.326  14.196  1.00  0.00    -0.000 C 
BRANCH  20  21
ATOM     21  C   UNL     1      37.421  21.515  14.836  1.00  0.00    -0.000 C 
BRANCH  21  22
ATOM     22  C   UNL     1      36.091  21.653  14.076  1.00  0.00    -0.000 C 
BRANCH  22  23
ATOM     23  C   UNL     1      35.301  20.336  14.012  1.00  0.00    -0.000 C 
BRANCH  23  24
ATOM     24  C   UNL     1      34.984  19.741  15.401  1.00  0.00    -0.000 C 
BRANCH  24  25
ATOM     25  C   UNL     1      33.473  19.601  15.640  1.00  0.00    -0.003 C 
ATOM     26  C   UNL     1      33.087  20.088  17.034  1.00  0.00     0.004 C 
ENDBRANCH  24  25
ENDBRANCH  23  24
ENDBRANCH  22  23
ENDBRANCH  21  22
ENDBRANCH  20  21
ENDBRANCH  19  20
ENDBRANCH  18  19
ENDBRANCH  17  18
ENDBRANCH  16  17
ENDBRANCH  15  16
ENDBRANCH   1  15
TORSDOF 22
ENDMDL
MODEL 3
REMARK VINA RESULT:     0.139      5.669     14.404
REMARK INTER + INTRA:          -0.868
REMARK INTER:                   0.255
REMARK INTRA:                  -1.123
REMARK UNBOUND:                -1.185
REMARK SMILES CCCCCCCCCCCCCCCCCCCCCCCC(=O)[O-]
REMARK SMILES IDX 13 1 14 2 15 3 16 4 17 5 18 6 19 7 20 8 21 9 22 10 23 11
REMARK SMILES IDX 24 12 25 13 26 14 12 15 11 16 10 17 9 18 8 19 7 20 6 21 5 22
REMARK SMILES IDX 4 23 3 24 2 25 1 26
REMARK H PARENT
REMARK Flexibility Score: inf
ROOT
ATOM      1  C   UNL     1      44.971  21.337  16.253  1.00  0.00     0.000 C 
ENDROOT
BRANCH   1   2
ATOM      2  C   UNL     1      46.491  21.325  16.021  1.00  0.00     0.000 C 
BRANCH   2   3
ATOM      3  C   UNL     1      47.285  21.742  17.269  1.00  0.00     0.000 C 
BRANCH   3   4
ATOM      4  C   UNL     1      48.718  22.193  16.933  1.00  0.00     0.000 C 
BRANCH   4   5
ATOM      5  C   UNL     1      49.090  21.945  15.456  1.00  0.00     0.000 C 
BRANCH   5   6
ATOM      6  C   UNL     1      50.158  20.852  15.256  1.00  0.00     0.000 C 
BRANCH   6   7
ATOM      7  C   UNL     1      51.582  21.244  15.693  1.00  0.00     0.000 C 
BRANCH   7   8
ATOM      8  C   UNL     1      51.795  22.749  15.962  1.00  0.00     0.000 C 
BRANCH   8   9
ATOM      9  C   UNL     1      52.404  23.089  17.334  1.00  0.00     0.000 C 
BRANCH   9  10
ATOM     10  C   UNL     1      52.184  21.981  18.379  1.00  0.00     0.006 C 
BRANCH  10  11
ATOM     11  C   UNL     1      51.398  22.481  19.598  1.00  0.00     0.053 C 
BRANCH  11  12
ATOM     12  C   UNL     1      52.006  22.012  20.885  1.00  0.00     0.041 C 
ATOM     13  O   UNL     1      51.732  20.868  21.335  1.00  0.00    -0.550 OA
ATOM     14  O   UNL     1      52.902  22.825  21.568  1.00  0.00    -0.550 OA
ENDBRANCH  11  12
ENDBRANCH  10  11
ENDBRANCH   9  10
ENDBRANCH   8   9
ENDBRANCH   7   8
ENDBRANCH   6   7
ENDBRANCH   5   6
ENDBRANCH   4   5
ENDBRANCH   3   4
ENDBRANCH   2   3
ENDBRANCH   1   2
BRANCH   1  15
ATOM     15  C   UNL     1      44.388  22.760  16.354  1.00  0.00     0.000 C 
BRANCH  15  16
ATOM     16  C   UNL     1      43.355  23.125  15.271  1.00  0.00     0.000 C 
BRANCH  16  17
ATOM     17  C   UNL     1      41.907  23.110  15.789  1.00  0.00     0.000 C 
BRANCH  17  18
ATOM     18  C   UNL     1      40.866  22.993  14.660  1.00  0.00    -0.000 C 
BRANCH  18  19
ATOM     19  C   UNL     1      39.406  22.836  15.122  1.00  0.00    -0.000 C 
BRANCH  19  20
ATOM     20  C   UNL     1      38.390  23.074  13.991  1.00  0.00    -0.000 C 
BRANCH  20  21
ATOM     21  C   UNL     1      36.935  23.045  14.489  1.00  0.00    -0.000 C 
BRANCH  21  22
ATOM     22  C   UNL     1      35.986  22.322  13.518  1.00  0.00    -0.000 C 
BRANCH  22  23
ATOM     23  C   UNL     1      35.975  22.951  12.115  1.00  0.00    -0.000 C 
BRANCH  23  24
ATOM     24  C   UNL     1      35.535  21.971  11.006  1.00  0.00    -0.000 C 
BRANCH  24  25
ATOM     25  C   UNL     1      36.604  21.813   9.914  1.00  0.00    -0.003 C 
ATOM     26  C   UNL     1      36.245  22.620   8.669  1.00  0.00     0.004 C 
ENDBRANCH  24  25
ENDBRANCH  23  24
ENDBRANCH  22  23
ENDBRANCH  21  22
ENDBRANCH  20  21
ENDBRANCH  19  20
ENDBRANCH  18  19
ENDBRANCH  17  18
ENDBRANCH  16  17
ENDBRANCH  15  16
ENDBRANCH   1  15
TORSDOF 22
ENDMDL
MODEL 4
REMARK VINA RESULT:     0.389      5.492     14.387
REMARK INTER + INTRA:          -0.297
REMARK INTER:                   0.723
REMARK INTRA:                  -1.020
REMARK UNBOUND:                -1.185
REMARK SMILES CCCCCCCCCCCCCCCCCCCCCCCC(=O)[O-]
REMARK SMILES IDX 13 1 14 2 15 3 16 4 17 5 18 6 19 7 20 8 21 9 22 10 23 11
REMARK SMILES IDX 24 12 25 13 26 14 12 15 11 16 10 17 9 18 8 19 7 20 6 21 5 22
REMARK SMILES IDX 4 23 3 24 2 25 1 26
REMARK H PARENT
REMARK Flexibility Score: inf
ROOT
ATOM      1  C   UNL     1      42.077  23.077  15.897  1.00  0.00     0.000 C 
ENDROOT
BRANCH   1   2
ATOM      2  C   UNL     1      43.512  22.588  15.640  1.00  0.00     0.000 C 
BRANCH   2   3
ATOM      3  C   UNL     1      44.497  23.041  16.729  1.00  0.00     0.000 C 
BRANCH   3   4
ATOM      4  C   UNL     1      45.871  22.356  16.603  1.00  0.00     0.000 C 
BRANCH   4   5
ATOM      5  C   UNL     1      46.990  23.124  17.338  1.00  0.00     0.000 C 
BRANCH   5   6
ATOM      6  C   UNL     1      48.178  22.239  17.763  1.00  0.00     0.000 C 
BRANCH   6   7
ATOM      7  C   UNL     1      49.100  21.788  16.614  1.00  0.00     0.000 C 
BRANCH   7   8
ATOM      8  C   UNL     1      50.498  22.441  16.600  1.00  0.00     0.000 C 
BRANCH   8   9
ATOM      9  C   UNL     1      50.914  23.125  17.915  1.00  0.00     0.000 C 
BRANCH   9  10
ATOM     10  C   UNL     1      51.765  22.216  18.820  1.00  0.00     0.006 C 
BRANCH  10  11
ATOM     11  C   UNL     1      51.746  22.674  20.284  1.00  0.00     0.053 C 
BRANCH  11  12
ATOM     12  C   UNL     1      51.266  21.592  21.202  1.00  0.00     0.041 C 
ATOM     13  O   UNL     1      51.838  20.469  21.212  1.00  0.00    -0.550 OA
ATOM     14  O   UNL     1      50.211  21.835  22.073  1.00  0.00    -0.550 OA
ENDBRANCH  11  12
ENDBRANCH  10  11
ENDBRANCH   9  10
ENDBRANCH   8   9
ENDBRANCH   7   8
ENDBRANCH   6   7
ENDBRANCH   5   6
ENDBRANCH   4   5
ENDBRANCH   3   4
ENDBRANCH   2   3
ENDBRANCH   1   2
BRANCH   1  15
ATOM     15  C   UNL     1      41.200  23.060  14.631  1.00  0.00     0.000 C 
BRANCH  15  16
ATOM     16  C   UNL     1      39.893  22.252  14.747  1.00  0.00     0.000 C 
BRANCH  16  17
ATOM     17  C   UNL     1      38.632  23.114  14.573  1.00  0.00     0.000 C 
BRANCH  17  18
ATOM     18  C   UNL     1      37.416  22.564  15.342  1.00  0.00    -0.000 C 
BRANCH  18  19
ATOM     19  C   UNL     1      36.106  22.486  14.538  1.00  0.00    -0.000 C 
BRANCH  19  20
ATOM     20  C   UNL     1      35.615  21.044  14.329  1.00  0.00    -0.000 C 
BRANCH  20  21
ATOM     21  C   UNL     1      34.368  20.968  13.432  1.00  0.00    -0.000 C 
BRANCH  21  22
ATOM     22  C   UNL     1      34.009  22.321  12.794  1.00  0.00    -0.000 C 
BRANCH  22  23
ATOM     23  C   UNL     1      33.624  22.198  11.311  1.00  0.00    -0.000 C 
BRANCH  23  24
ATOM     24  C   UNL     1      34.531  21.233  10.518  1.00  0.00    -0.000 C 
BRANCH  24  25
ATOM     25  C   UNL     1      35.406  21.971   9.492  1.00  0.00    -0.003 C 
ATOM     26  C   UNL     1      36.665  21.172   9.165  1.00  0.00     0.004 C 
ENDBRANCH  24  25
ENDBRANCH  23  24
ENDBRANCH  22  23
ENDBRANCH  21  22
ENDBRANCH  20  21
ENDBRANCH  19  20
ENDBRANCH  18  19
ENDBRANCH  17  18
ENDBRANCH  16  17
ENDBRANCH  15  16
ENDBRANCH   1  15
TORSDOF 22
ENDMDL
MODEL 5
REMARK VINA RESULT:     0.487      4.956     13.959
REMARK INTER + INTRA:          -0.072
REMARK INTER:                   0.512
REMARK INTRA:                  -0.584
REMARK UNBOUND:                -1.185
REMARK SMILES CCCCCCCCCCCCCCCCCCCCCCCC(=O)[O-]
REMARK SMILES IDX 13 1 14 2 15 3 16 4 17 5 18 6 19 7 20 8 21 9 22 10 23 11
REMARK SMILES IDX 24 12 25 13 26 14 12 15 11 16 10 17 9 18 8 19 7 20 6 21 5 22
REMARK SMILES IDX 4 23 3 24 2 25 1 26
REMARK H PARENT
REMARK Flexibility Score: inf
ROOT
ATOM      1  C   UNL     1      41.427  23.125  15.906  1.00  0.00     0.000 C 
ENDROOT
BRANCH   1   2
ATOM      2  C   UNL     1      42.883  22.854  15.493  1.00  0.00     0.000 C 
BRANCH   2   3
ATOM      3  C   UNL     1      43.832  22.749  16.698  1.00  0.00     0.000 C 
BRANCH   3   4
ATOM      4  C   UNL     1      45.160  22.055  16.343  1.00  0.00     0.000 C 
BRANCH   4   5
ATOM      5  C   UNL     1      46.395  22.884  16.753  1.00  0.00     0.000 C 
BRANCH   5   6
ATOM      6  C   UNL     1      47.637  22.034  17.081  1.00  0.00     0.000 C 
BRANCH   6   7
ATOM      7  C   UNL     1      47.653  20.630  16.446  1.00  0.00     0.000 C 
BRANCH   7   8
ATOM      8  C   UNL     1      48.459  20.513  15.135  1.00  0.00     0.000 C 
BRANCH   8   9
ATOM      9  C   UNL     1      49.621  21.513  14.989  1.00  0.00     0.000 C 
BRANCH   9  10
ATOM     10  C   UNL     1      51.002  20.849  15.123  1.00  0.00     0.006 C 
BRANCH  10  11
ATOM     11  C   UNL     1      52.075  21.835  15.603  1.00  0.00     0.053 C 
BRANCH  11  12
ATOM     12  C   UNL     1      51.879  22.221  17.037  1.00  0.00     0.041 C 
ATOM     13  O   UNL     1      52.791  22.012  17.881  1.00  0.00    -0.550 OA
ATOM     14  O   UNL     1      50.702  22.844  17.435  1.00  0.00    -0.550 OA
ENDBRANCH  11  12
ENDBRANCH  10  11
ENDBRANCH   9  10
ENDBRANCH   8   9
ENDBRANCH   7   8
ENDBRANCH   6   7
ENDBRANCH   5   6
ENDBRANCH   4   5
ENDBRANCH   3   4
ENDBRANCH   2   3
ENDBRANCH   1   2
BRANCH   1  15
ATOM     15  C   UNL     1      40.449  23.102  14.716  1.00  0.00     0.000 C 
BRANCH  15  16
ATOM     16  C   UNL     1      39.115  22.377  14.975  1.00  0.00     0.000 C 
BRANCH  16  17
ATOM     17  C   UNL     1      37.913  23.068  14.308  1.00  0.00     0.000 C 
BRANCH  17  18
ATOM     18  C   UNL     1      36.574  22.371  14.613  1.00  0.00    -0.000 C 
BRANCH  18  19
ATOM     19  C   UNL     1      35.733  21.987  13.382  1.00  0.00    -0.000 C 
BRANCH  19  20
ATOM     20  C   UNL     1      34.814  23.125  12.905  1.00  0.00    -0.000 C 
BRANCH  20  21
ATOM     21  C   UNL     1      33.331  22.719  12.890  1.00  0.00    -0.000 C 
BRANCH  21  22
ATOM     22  C   UNL     1      33.059  21.422  13.671  1.00  0.00    -0.000 C 
BRANCH  22  23
ATOM     23  C   UNL     1      33.116  20.168  12.783  1.00  0.00    -0.000 C 
BRANCH  23  24
ATOM     24  C   UNL     1      33.687  18.929  13.505  1.00  0.00    -0.000 C 
BRANCH  24  25
ATOM     25  C   UNL     1      33.107  18.764  14.918  1.00  0.00    -0.003 C 
ATOM     26  C   UNL     1      34.212  18.755  15.971  1.00  0.00     0.004 C 
ENDBRANCH  24  25
ENDBRANCH  23  24
ENDBRANCH  22  23
ENDBRANCH  21  22
ENDBRANCH  20  21
ENDBRANCH  19  20
ENDBRANCH  18  19
ENDBRANCH  17  18
ENDBRANCH  16  17
ENDBRANCH  15  16
ENDBRANCH   1  15
TORSDOF 22
ENDMDL
MODEL 6
REMARK VINA RESULT:     0.510      4.999     14.004
REMARK INTER + INTRA:          -0.020
REMARK INTER:                   1.027
REMARK INTRA:                  -1.047
REMARK UNBOUND:                -1.185
REMARK SMILES CCCCCCCCCCCCCCCCCCCCCCCC(=O)[O-]
REMARK SMILES IDX 13 1 14 2 15 3 16 4 17 5 18 6 19 7 20 8 21 9 22 10 23 11
REMARK SMILES IDX 24 12 25 13 26 14 12 15 11 16 10 17 9 18 8 19 7 20 6 21 5 22
REMARK SMILES IDX 4 23 3 24 2 25 1 26
REMARK H PARENT
REMARK Flexibility Score: inf
ROOT
ATOM      1  C   UNL     1      41.417  23.101  15.859  1.00  0.00     0.000 C 
ENDROOT
BRANCH   1   2
ATOM      2  C   UNL     1      42.899  23.004  15.459  1.00  0.00     0.000 C 
BRANCH   2   3
ATOM      3  C   UNL     1      43.826  22.790  16.667  1.00  0.00     0.000 C 
BRANCH   3   4
ATOM      4  C   UNL     1      45.226  22.301  16.254  1.00  0.00     0.000 C 
BRANCH   4   5
ATOM      5  C   UNL     1      46.361  23.124  16.900  1.00  0.00     0.000 C 
BRANCH   5   6
ATOM      6  C   UNL     1      47.733  22.424  16.874  1.00  0.00     0.000 C 
BRANCH   6   7
ATOM      7  C   UNL     1      47.696  20.929  16.507  1.00  0.00     0.000 C 
BRANCH   7   8
ATOM      8  C   UNL     1      48.361  20.568  15.162  1.00  0.00     0.000 C 
BRANCH   8   9
ATOM      9  C   UNL     1      49.525  21.483  14.740  1.00  0.00     0.000 C 
BRANCH   9  10
ATOM     10  C   UNL     1      50.893  20.782  14.809  1.00  0.00     0.006 C 
BRANCH  10  11
ATOM     11  C   UNL     1      52.014  21.739  15.237  1.00  0.00     0.053 C 
BRANCH  11  12
ATOM     12  C   UNL     1      52.277  21.669  16.710  1.00  0.00     0.041 C 
ATOM     13  O   UNL     1      52.867  20.670  17.201  1.00  0.00    -0.550 OA
ATOM     14  O   UNL     1      51.903  22.723  17.534  1.00  0.00    -0.550 OA
ENDBRANCH  11  12
ENDBRANCH  10  11
ENDBRANCH   9  10
ENDBRANCH   8   9
ENDBRANCH   7   8
ENDBRANCH   6   7
ENDBRANCH   5   6
ENDBRANCH   4   5
ENDBRANCH   3   4
ENDBRANCH   2   3
ENDBRANCH   1   2
BRANCH   1  15
ATOM     15  C   UNL     1      40.467  23.122  14.647  1.00  0.00     0.000 C 
BRANCH  15  16
ATOM     16  C   UNL     1      39.107  22.431  14.866  1.00  0.00     0.000 C 
BRANCH  16  17
ATOM     17  C   UNL     1      38.002  22.966  13.940  1.00  0.00     0.000 C 
BRANCH  17  18
ATOM     18  C   UNL     1      36.637  22.296  14.183  1.00  0.00    -0.000 C 
BRANCH  18  19
ATOM     19  C   UNL     1      35.922  21.775  12.923  1.00  0.00    -0.000 C 
BRANCH  19  20
ATOM     20  C   UNL     1      34.873  22.759  12.378  1.00  0.00    -0.000 C 
BRANCH  20  21
ATOM     21  C   UNL     1      33.463  22.147  12.322  1.00  0.00    -0.000 C 
BRANCH  21  22
ATOM     22  C   UNL     1      32.926  22.017  10.886  1.00  0.00    -0.000 C 
BRANCH  22  23
ATOM     23  C   UNL     1      33.442  23.125   9.953  1.00  0.00    -0.000 C 
BRANCH  23  24
ATOM     24  C   UNL     1      33.616  22.665   8.490  1.00  0.00    -0.000 C 
BRANCH  24  25
ATOM     25  C   UNL     1      34.987  22.016   8.245  1.00  0.00    -0.003 C 
ATOM     26  C   UNL     1      36.032  22.550   9.222  1.00  0.00     0.004 C 
ENDBRANCH  24  25
ENDBRANCH  23  24
ENDBRANCH  22  23
ENDBRANCH  21  22
ENDBRANCH  20  21
ENDBRANCH  19  20
ENDBRANCH  18  19
ENDBRANCH  17  18
ENDBRANCH  16  17
ENDBRANCH  15  16
ENDBRANCH   1  15
TORSDOF 22
ENDMDL
MODEL 7
REMARK VINA RESULT:     0.654      3.372      5.507
REMARK INTER + INTRA:           0.309
REMARK INTER:                   1.407
REMARK INTRA:                  -1.098
REMARK UNBOUND:                -1.185
REMARK SMILES CCCCCCCCCCCCCCCCCCCCCCCC(=O)[O-]
REMARK SMILES IDX 13 1 14 2 15 3 16 4 17 5 18 6 19 7 20 8 21 9 22 10 23 11
REMARK SMILES IDX 24 12 25 13 26 14 12 15 11 16 10 17 9 18 8 19 7 20 6 21 5 22
REMARK SMILES IDX 4 23 3 24 2 25 1 26
REMARK H PARENT
REMARK Flexibility Score: inf
ROOT
ATOM      1  C   UNL     1      45.670  21.646  16.334  1.00  0.00     0.000 C 
ENDROOT
BRANCH   1   2
ATOM      2  C   UNL     1      45.134  23.079  16.495  1.00  0.00     0.000 C 
BRANCH   2   3
ATOM      3  C   UNL     1      43.612  23.123  16.706  1.00  0.00     0.000 C 
BRANCH   3   4
ATOM      4  C   UNL     1      42.849  22.288  15.661  1.00  0.00     0.000 C 
BRANCH   4   5
ATOM      5  C   UNL     1      41.836  23.125  14.852  1.00  0.00     0.000 C 
BRANCH   5   6
ATOM      6  C   UNL     1      40.387  23.020  15.366  1.00  0.00     0.000 C 
BRANCH   6   7
ATOM      7  C   UNL     1      39.353  22.567  14.317  1.00  0.00     0.000 C 
BRANCH   7   8
ATOM      8  C   UNL     1      37.896  22.499  14.821  1.00  0.00     0.000 C 
BRANCH   8   9
ATOM      9  C   UNL     1      37.173  21.166  14.554  1.00  0.00     0.000 C 
BRANCH   9  10
ATOM     10  C   UNL     1      36.064  20.871  15.579  1.00  0.00     0.006 C 
BRANCH  10  11
ATOM     11  C   UNL     1      35.011  19.899  15.030  1.00  0.00     0.053 C 
BRANCH  11  12
ATOM     12  C   UNL     1      34.039  19.472  16.087  1.00  0.00     0.041 C 
ATOM     13  O   UNL     1      33.725  18.258  16.206  1.00  0.00    -0.550 OA
ATOM     14  O   UNL     1      33.509  20.410  16.964  1.00  0.00    -0.550 OA
ENDBRANCH  11  12
ENDBRANCH  10  11
ENDBRANCH   9  10
ENDBRANCH   8   9
ENDBRANCH   7   8
ENDBRANCH   6   7
ENDBRANCH   5   6
ENDBRANCH   4   5
ENDBRANCH   3   4
ENDBRANCH   2   3
ENDBRANCH   1   2
BRANCH   1  15
ATOM     15  C   UNL     1      47.142  21.601  15.885  1.00  0.00     0.000 C 
BRANCH  15  16
ATOM     16  C   UNL     1      48.108  22.474  16.709  1.00  0.00     0.000 C 
BRANCH  16  17
ATOM     17  C   UNL     1      47.896  22.341  18.226  1.00  0.00     0.000 C 
BRANCH  17  18
ATOM     18  C   UNL     1      48.963  23.087  19.050  1.00  0.00    -0.000 C 
BRANCH  18  19
ATOM     19  C   UNL     1      49.818  22.205  19.977  1.00  0.00    -0.000 C 
BRANCH  19  20
ATOM     20  C   UNL     1      51.273  22.692  20.095  1.00  0.00    -0.000 C 
BRANCH  20  21
ATOM     21  C   UNL     1      52.277  21.532  20.204  1.00  0.00    -0.000 C 
BRANCH  21  22
ATOM     22  C   UNL     1      52.983  21.228  18.872  1.00  0.00    -0.000 C 
BRANCH  22  23
ATOM     23  C   UNL     1      52.450  22.077  17.706  1.00  0.00    -0.000 C 
BRANCH  23  24
ATOM     24  C   UNL     1      52.655  21.422  16.323  1.00  0.00    -0.000 C 
BRANCH  24  25
ATOM     25  C   UNL     1      51.570  21.837  15.319  1.00  0.00    -0.003 C 
ATOM     26  C   UNL     1      51.062  20.635  14.526  1.00  0.00     0.004 C 
ENDBRANCH  24  25
ENDBRANCH  23  24
ENDBRANCH  22  23
ENDBRANCH  21  22
ENDBRANCH  20  21
ENDBRANCH  19  20
ENDBRANCH  18  19
ENDBRANCH  17  18
ENDBRANCH  16  17
ENDBRANCH  15  16
ENDBRANCH   1  15
TORSDOF 22
ENDMDL
