MODEL 1
REMARK VINA RESULT:    -5.833      0.000      0.000
REMARK INTER + INTRA:         -17.728
REMARK INTER:                 -14.698
REMARK INTRA:                  -3.030
REMARK UNBOUND:                -3.030
REMARK SMILES CCCCCCCCCCCCCCCCCCCCCCCCCCCC(=O)[O-]
REMARK SMILES IDX 15 1 16 2 17 3 18 4 19 5 20 6 21 7 22 8 23 9 24 10 25 11
REMARK SMILES IDX 26 12 27 13 28 14 29 15 30 16 14 17 13 18 12 19 11 20 10 21
REMARK SMILES IDX 9 22 8 23 7 24 6 25 5 26 4 27 3 28 2 29 1 30
REMARK H PARENT
REMARK Flexibility Score: inf
ROOT
ATOM      1  C   UNL     1       0.104 -27.342   6.458  1.00  0.00     0.000 C 
ENDROOT
BRANCH   1   2
ATOM      2  C   UNL     1       0.643 -26.902   7.827  1.00  0.00     0.000 C 
BRANCH   2   3
ATOM      3  C   UNL     1      -0.479 -26.849   8.873  1.00  0.00     0.000 C 
BRANCH   3   4
ATOM      4  C   UNL     1       0.020 -26.357  10.245  1.00  0.00     0.000 C 
BRANCH   4   5
ATOM      5  C   UNL     1       0.289 -27.493  11.260  1.00  0.00     0.000 C 
BRANCH   5   6
ATOM      6  C   UNL     1       0.495 -26.988  12.699  1.00  0.00     0.000 C 
BRANCH   6   7
ATOM      7  C   UNL     1       1.160 -25.597  12.747  1.00  0.00     0.000 C 
BRANCH   7   8
ATOM      8  C   UNL     1       0.314 -24.563  13.512  1.00  0.00     0.000 C 
BRANCH   8   9
ATOM      9  C   UNL     1      -1.186 -24.915  13.554  1.00  0.00     0.000 C 
BRANCH   9  10
ATOM     10  C   UNL     1      -2.056 -23.718  13.975  1.00  0.00     0.000 C 
BRANCH  10  11
ATOM     11  C   UNL     1      -3.209 -23.467  12.991  1.00  0.00     0.000 C 
BRANCH  11  12
ATOM     12  C   UNL     1      -3.023 -24.231  11.671  1.00  0.00     0.006 C 
BRANCH  12  13
ATOM     13  C   UNL     1      -4.371 -24.475  10.983  1.00  0.00     0.053 C 
BRANCH  13  14
ATOM     14  C   UNL     1      -4.512 -25.908  10.569  1.00  0.00     0.041 C 
ATOM     15  O   UNL     1      -3.613 -26.464   9.884  1.00  0.00    -0.550 OA
ATOM     16  O   UNL     1      -5.622 -26.644  10.971  1.00  0.00    -0.550 OA
ENDBRANCH  13  14
ENDBRANCH  12  13
ENDBRANCH  11  12
ENDBRANCH  10  11
ENDBRANCH   9  10
ENDBRANCH   8   9
ENDBRANCH   7   8
ENDBRANCH   6   7
ENDBRANCH   5   6
ENDBRANCH   4   5
ENDBRANCH   3   4
ENDBRANCH   2   3
ENDBRANCH   1   2
BRANCH   1  17
ATOM     17  C   UNL     1      -0.156 -28.862   6.397  1.00  0.00     0.000 C 
BRANCH  17  18
ATOM     18  C   UNL     1      -0.053 -29.455   4.981  1.00  0.00     0.000 C 
BRANCH  18  19
ATOM     19  C   UNL     1       1.393 -29.557   4.446  1.00  0.00     0.000 C 
BRANCH  19  20
ATOM     20  C   UNL     1       1.556 -29.189   2.955  1.00  0.00     0.000 C 
BRANCH  20  21
ATOM     21  C   UNL     1       0.300 -29.391   2.083  1.00  0.00     0.000 C 
BRANCH  21  22
ATOM     22  C   UNL     1      -0.248 -28.082   1.498  1.00  0.00    -0.000 C 
BRANCH  22  23
ATOM     23  C   UNL     1      -1.602 -27.714   2.122  1.00  0.00    -0.000 C 
BRANCH  23  24
ATOM     24  C   UNL     1      -1.487 -26.540   3.108  1.00  0.00    -0.000 C 
BRANCH  24  25
ATOM     25  C   UNL     1      -0.083 -25.912   3.116  1.00  0.00    -0.000 C 
BRANCH  25  26
ATOM     26  C   UNL     1      -0.014 -24.576   2.354  1.00  0.00    -0.000 C 
BRANCH  26  27
ATOM     27  C   UNL     1      -1.255 -24.291   1.480  1.00  0.00    -0.000 C 
BRANCH  27  28
ATOM     28  C   UNL     1      -0.873 -23.875   0.047  1.00  0.00    -0.000 C 
BRANCH  28  29
ATOM     29  C   UNL     1      -1.523 -24.759  -1.025  1.00  0.00    -0.003 C 
ATOM     30  C   UNL     1      -2.829 -25.394  -0.556  1.00  0.00     0.004 C 
ENDBRANCH  28  29
ENDBRANCH  27  28
ENDBRANCH  26  27
ENDBRANCH  25  26
ENDBRANCH  24  25
ENDBRANCH  23  24
ENDBRANCH  22  23
ENDBRANCH  21  22
ENDBRANCH  20  21
ENDBRANCH  19  20
ENDBRANCH  18  19
ENDBRANCH  17  18
ENDBRANCH   1  17
TORSDOF 26
ENDMDL
MODEL 2
REMARK VINA RESULT:    -5.801      2.880      9.912
REMARK INTER + INTRA:         -17.649
REMARK INTER:                 -14.642
REMARK INTRA:                  -3.007
REMARK UNBOUND:                -3.030
REMARK SMILES CCCCCCCCCCCCCCCCCCCCCCCCCCCC(=O)[O-]
REMARK SMILES IDX 15 1 16 2 17 3 18 4 19 5 20 6 21 7 22 8 23 9 24 10 25 11
REMARK SMILES IDX 26 12 27 13 28 14 29 15 30 16 14 17 13 18 12 19 11 20 10 21
REMARK SMILES IDX 9 22 8 23 7 24 6 25 5 26 4 27 3 28 2 29 1 30
REMARK H PARENT
REMARK Flexibility Score: inf
ROOT
ATOM      1  C   UNL     1       1.211 -26.879   7.335  1.00  0.00     0.000 C 
ENDROOT
BRANCH   1   2
ATOM      2  C   UNL     1       0.390 -27.160   6.067  1.00  0.00     0.000 C 
BRANCH   2   3
ATOM      3  C   UNL     1      -0.399 -28.471   6.198  1.00  0.00     0.000 C 
BRANCH   3   4
ATOM      4  C   UNL     1      -0.133 -29.436   5.027  1.00  0.00     0.000 C 
BRANCH   4   5
ATOM      5  C   UNL     1       1.343 -29.478   4.570  1.00  0.00     0.000 C 
BRANCH   5   6
ATOM      6  C   UNL     1       1.553 -28.950   3.140  1.00  0.00     0.000 C 
BRANCH   6   7
ATOM      7  C   UNL     1       0.590 -29.598   2.123  1.00  0.00     0.000 C 
BRANCH   7   8
ATOM      8  C   UNL     1      -0.187 -28.557   1.298  1.00  0.00     0.000 C 
BRANCH   8   9
ATOM      9  C   UNL     1      -1.633 -28.349   1.788  1.00  0.00     0.000 C 
BRANCH   9  10
ATOM     10  C   UNL     1      -1.998 -26.859   1.918  1.00  0.00     0.000 C 
BRANCH  10  11
ATOM     11  C   UNL     1      -1.577 -26.278   3.277  1.00  0.00     0.000 C 
BRANCH  11  12
ATOM     12  C   UNL     1      -0.818 -24.950   3.132  1.00  0.00     0.006 C 
BRANCH  12  13
ATOM     13  C   UNL     1      -0.027 -24.911   1.819  1.00  0.00     0.053 C 
BRANCH  13  14
ATOM     14  C   UNL     1      -0.568 -23.862   0.896  1.00  0.00     0.041 C 
ATOM     15  O   UNL     1       0.214 -23.152   0.211  1.00  0.00    -0.550 OA
ATOM     16  O   UNL     1      -1.942 -23.692   0.765  1.00  0.00    -0.550 OA
ENDBRANCH  13  14
ENDBRANCH  12  13
ENDBRANCH  11  12
ENDBRANCH  10  11
ENDBRANCH   9  10
ENDBRANCH   8   9
ENDBRANCH   7   8
ENDBRANCH   6   7
ENDBRANCH   5   6
ENDBRANCH   4   5
ENDBRANCH   3   4
ENDBRANCH   2   3
ENDBRANCH   1   2
BRANCH   1  17
ATOM     17  C   UNL     1       0.555 -27.480   8.596  1.00  0.00     0.000 C 
BRANCH  17  18
ATOM     18  C   UNL     1      -0.588 -26.624   9.170  1.00  0.00     0.000 C 
BRANCH  18  19
ATOM     19  C   UNL     1      -0.860 -26.864  10.671  1.00  0.00     0.000 C 
BRANCH  19  20
ATOM     20  C   UNL     1       0.311 -26.490  11.607  1.00  0.00     0.000 C 
BRANCH  20  21
ATOM     21  C   UNL     1       0.271 -27.135  13.008  1.00  0.00     0.000 C 
BRANCH  21  22
ATOM     22  C   UNL     1      -0.215 -26.176  14.103  1.00  0.00    -0.000 C 
BRANCH  22  23
ATOM     23  C   UNL     1       0.076 -24.714  13.733  1.00  0.00    -0.000 C 
BRANCH  23  24
ATOM     24  C   UNL     1      -0.834 -23.733  14.491  1.00  0.00    -0.000 C 
BRANCH  24  25
ATOM     25  C   UNL     1      -2.323 -24.105  14.382  1.00  0.00    -0.000 C 
BRANCH  25  26
ATOM     26  C   UNL     1      -3.036 -23.411  13.207  1.00  0.00    -0.000 C 
BRANCH  26  27
ATOM     27  C   UNL     1      -2.969 -24.202  11.882  1.00  0.00    -0.000 C 
BRANCH  27  28
ATOM     28  C   UNL     1      -4.172 -23.903  10.967  1.00  0.00    -0.000 C 
BRANCH  28  29
ATOM     29  C   UNL     1      -4.453 -25.029   9.963  1.00  0.00    -0.003 C 
ATOM     30  C   UNL     1      -4.906 -26.322  10.638  1.00  0.00     0.004 C 
ENDBRANCH  28  29
ENDBRANCH  27  28
ENDBRANCH  26  27
ENDBRANCH  25  26
ENDBRANCH  24  25
ENDBRANCH  23  24
ENDBRANCH  22  23
ENDBRANCH  21  22
ENDBRANCH  20  21
ENDBRANCH  19  20
ENDBRANCH  18  19
ENDBRANCH  17  18
ENDBRANCH   1  17
TORSDOF 26
ENDMDL
MODEL 3
REMARK VINA RESULT:    -5.679      2.902      9.737
REMARK INTER + INTRA:         -17.341
REMARK INTER:                 -14.328
REMARK INTRA:                  -3.013
REMARK UNBOUND:                -3.030
REMARK SMILES CCCCCCCCCCCCCCCCCCCCCCCCCCCC(=O)[O-]
REMARK SMILES IDX 15 1 16 2 17 3 18 4 19 5 20 6 21 7 22 8 23 9 24 10 25 11
REMARK SMILES IDX 26 12 27 13 28 14 29 15 30 16 14 17 13 18 12 19 11 20 10 21
REMARK SMILES IDX 9 22 8 23 7 24 6 25 5 26 4 27 3 28 2 29 1 30
REMARK H PARENT
REMARK Flexibility Score: inf
ROOT
ATOM      1  C   UNL     1      -1.164 -28.050   8.824  1.00  0.00     0.000 C 
ENDROOT
BRANCH   1   2
ATOM      2  C   UNL     1      -0.310 -26.861   8.357  1.00  0.00     0.000 C 
BRANCH   2   3
ATOM      3  C   UNL     1       0.505 -27.222   7.107  1.00  0.00     0.000 C 
BRANCH   3   4
ATOM      4  C   UNL     1      -0.390 -27.587   5.907  1.00  0.00     0.000 C 
BRANCH   4   5
ATOM      5  C   UNL     1      -0.145 -29.008   5.350  1.00  0.00     0.000 C 
BRANCH   5   6
ATOM      6  C   UNL     1       1.343 -29.396   5.304  1.00  0.00     0.000 C 
BRANCH   6   7
ATOM      7  C   UNL     1       1.739 -30.060   3.969  1.00  0.00     0.000 C 
BRANCH   7   8
ATOM      8  C   UNL     1       1.516 -29.133   2.759  1.00  0.00     0.000 C 
BRANCH   8   9
ATOM      9  C   UNL     1       0.260 -29.490   1.942  1.00  0.00     0.000 C 
BRANCH   9  10
ATOM     10  C   UNL     1      -0.602 -28.255   1.626  1.00  0.00     0.000 C 
BRANCH  10  11
ATOM     11  C   UNL     1      -0.032 -26.976   2.258  1.00  0.00     0.000 C 
BRANCH  11  12
ATOM     12  C   UNL     1      -1.127 -25.945   2.573  1.00  0.00     0.006 C 
BRANCH  12  13
ATOM     13  C   UNL     1      -2.363 -26.172   1.695  1.00  0.00     0.053 C 
BRANCH  13  14
ATOM     14  C   UNL     1      -2.336 -25.281   0.490  1.00  0.00     0.041 C 
ATOM     15  O   UNL     1      -2.148 -24.042   0.617  1.00  0.00    -0.550 OA
ATOM     16  O   UNL     1      -2.485 -25.824  -0.782  1.00  0.00    -0.550 OA
ENDBRANCH  13  14
ENDBRANCH  12  13
ENDBRANCH  11  12
ENDBRANCH  10  11
ENDBRANCH   9  10
ENDBRANCH   8   9
ENDBRANCH   7   8
ENDBRANCH   6   7
ENDBRANCH   5   6
ENDBRANCH   4   5
ENDBRANCH   3   4
ENDBRANCH   2   3
ENDBRANCH   1   2
BRANCH   1  17
ATOM     17  C   UNL     1      -0.318 -29.323   9.039  1.00  0.00     0.000 C 
BRANCH  17  18
ATOM     18  C   UNL     1      -0.066 -29.658  10.519  1.00  0.00     0.000 C 
BRANCH  18  19
ATOM     19  C   UNL     1       0.976 -28.745  11.202  1.00  0.00     0.000 C 
BRANCH  19  20
ATOM     20  C   UNL     1       0.390 -27.760  12.238  1.00  0.00     0.000 C 
BRANCH  20  21
ATOM     21  C   UNL     1       0.607 -26.265  11.924  1.00  0.00     0.000 C 
BRANCH  21  22
ATOM     22  C   UNL     1       1.441 -25.538  12.988  1.00  0.00    -0.000 C 
BRANCH  22  23
ATOM     23  C   UNL     1       0.742 -24.256  13.467  1.00  0.00    -0.000 C 
BRANCH  23  24
ATOM     24  C   UNL     1      -0.276 -24.535  14.584  1.00  0.00    -0.000 C 
BRANCH  24  25
ATOM     25  C   UNL     1      -1.652 -23.911  14.297  1.00  0.00    -0.000 C 
BRANCH  25  26
ATOM     26  C   UNL     1      -2.197 -24.264  12.901  1.00  0.00    -0.000 C 
BRANCH  26  27
ATOM     27  C   UNL     1      -3.498 -23.517  12.532  1.00  0.00    -0.000 C 
BRANCH  27  28
ATOM     28  C   UNL     1      -3.944 -23.809  11.086  1.00  0.00    -0.000 C 
BRANCH  28  29
ATOM     29  C   UNL     1      -3.521 -25.201  10.600  1.00  0.00    -0.003 C 
ATOM     30  C   UNL     1      -4.709 -26.130  10.361  1.00  0.00     0.004 C 
ENDBRANCH  28  29
ENDBRANCH  27  28
ENDBRANCH  26  27
ENDBRANCH  25  26
ENDBRANCH  24  25
ENDBRANCH  23  24
ENDBRANCH  22  23
ENDBRANCH  21  22
ENDBRANCH  20  21
ENDBRANCH  19  20
ENDBRANCH  18  19
ENDBRANCH  17  18
ENDBRANCH   1  17
TORSDOF 26
ENDMDL
MODEL 4
REMARK VINA RESULT:    -5.545      3.410      9.660
REMARK INTER + INTRA:         -17.003
REMARK INTER:                 -13.834
REMARK INTRA:                  -3.170
REMARK UNBOUND:                -3.030
REMARK SMILES CCCCCCCCCCCCCCCCCCCCCCCCCCCC(=O)[O-]
REMARK SMILES IDX 15 1 16 2 17 3 18 4 19 5 20 6 21 7 22 8 23 9 24 10 25 11
REMARK SMILES IDX 26 12 27 13 28 14 29 15 30 16 14 17 13 18 12 19 11 20 10 21
REMARK SMILES IDX 9 22 8 23 7 24 6 25 5 26 4 27 3 28 2 29 1 30
REMARK H PARENT
REMARK Flexibility Score: inf
ROOT
ATOM      1  C   UNL     1      -0.214 -27.175   7.562  1.00  0.00     0.000 C 
ENDROOT
BRANCH   1   2
ATOM      2  C   UNL     1      -0.248 -26.977   6.039  1.00  0.00     0.000 C 
BRANCH   2   3
ATOM      3  C   UNL     1       0.936 -27.683   5.363  1.00  0.00     0.000 C 
BRANCH   3   4
ATOM      4  C   UNL     1       0.755 -29.212   5.310  1.00  0.00     0.000 C 
BRANCH   4   5
ATOM      5  C   UNL     1       0.860 -29.808   3.887  1.00  0.00     0.000 C 
BRANCH   5   6
ATOM      6  C   UNL     1       0.766 -28.750   2.774  1.00  0.00     0.000 C 
BRANCH   6   7
ATOM      7  C   UNL     1      -0.228 -29.147   1.664  1.00  0.00     0.000 C 
BRANCH   7   8
ATOM      8  C   UNL     1      -1.466 -28.233   1.625  1.00  0.00     0.000 C 
BRANCH   8   9
ATOM      9  C   UNL     1      -1.487 -27.186   2.755  1.00  0.00     0.000 C 
BRANCH   9  10
ATOM     10  C   UNL     1      -1.917 -25.795   2.256  1.00  0.00     0.000 C 
BRANCH  10  11
ATOM     11  C   UNL     1      -0.725 -24.833   2.132  1.00  0.00     0.000 C 
BRANCH  11  12
ATOM     12  C   UNL     1      -0.611 -24.228   0.724  1.00  0.00     0.006 C 
BRANCH  12  13
ATOM     13  C   UNL     1      -1.109 -25.214  -0.339  1.00  0.00     0.053 C 
BRANCH  13  14
ATOM     14  C   UNL     1      -2.186 -24.599  -1.180  1.00  0.00     0.041 C 
ATOM     15  O   UNL     1      -2.066 -23.420  -1.605  1.00  0.00    -0.550 OA
ATOM     16  O   UNL     1      -3.309 -25.342  -1.525  1.00  0.00    -0.550 OA
ENDBRANCH  13  14
ENDBRANCH  12  13
ENDBRANCH  11  12
ENDBRANCH  10  11
ENDBRANCH   9  10
ENDBRANCH   8   9
ENDBRANCH   7   8
ENDBRANCH   6   7
ENDBRANCH   5   6
ENDBRANCH   4   5
ENDBRANCH   3   4
ENDBRANCH   2   3
ENDBRANCH   1   2
BRANCH   1  17
ATOM     17  C   UNL     1       1.189 -26.917   8.150  1.00  0.00     0.000 C 
BRANCH  17  18
ATOM     18  C   UNL     1       1.831 -28.158   8.793  1.00  0.00     0.000 C 
BRANCH  18  19
ATOM     19  C   UNL     1       0.818 -29.253   9.195  1.00  0.00     0.000 C 
BRANCH  19  20
ATOM     20  C   UNL     1       1.415 -30.411  10.025  1.00  0.00     0.000 C 
BRANCH  20  21
ATOM     21  C   UNL     1       0.851 -30.560  11.453  1.00  0.00     0.000 C 
BRANCH  21  22
ATOM     22  C   UNL     1       1.666 -29.801  12.509  1.00  0.00    -0.000 C 
BRANCH  22  23
ATOM     23  C   UNL     1       0.896 -28.581  13.038  1.00  0.00    -0.000 C 
BRANCH  23  24
ATOM     24  C   UNL     1       1.228 -27.301  12.254  1.00  0.00    -0.000 C 
BRANCH  24  25
ATOM     25  C   UNL     1       0.061 -26.298  12.242  1.00  0.00    -0.000 C 
BRANCH  25  26
ATOM     26  C   UNL     1      -0.919 -26.525  11.077  1.00  0.00    -0.000 C 
BRANCH  26  27
ATOM     27  C   UNL     1      -2.269 -25.792  11.246  1.00  0.00    -0.000 C 
BRANCH  27  28
ATOM     28  C   UNL     1      -3.191 -25.986  10.027  1.00  0.00    -0.000 C 
BRANCH  28  29
ATOM     29  C   UNL     1      -4.555 -25.305  10.197  1.00  0.00    -0.003 C 
ATOM     30  C   UNL     1      -4.463 -23.974  10.939  1.00  0.00     0.004 C 
ENDBRANCH  28  29
ENDBRANCH  27  28
ENDBRANCH  26  27
ENDBRANCH  25  26
ENDBRANCH  24  25
ENDBRANCH  23  24
ENDBRANCH  22  23
ENDBRANCH  21  22
ENDBRANCH  20  21
ENDBRANCH  19  20
ENDBRANCH  18  19
ENDBRANCH  17  18
ENDBRANCH   1  17
TORSDOF 26
ENDMDL
MODEL 5
REMARK VINA RESULT:    -5.458      3.276     10.206
REMARK INTER + INTRA:         -16.783
REMARK INTER:                 -14.108
REMARK INTRA:                  -2.675
REMARK UNBOUND:                -3.030
REMARK SMILES CCCCCCCCCCCCCCCCCCCCCCCCCCCC(=O)[O-]
REMARK SMILES IDX 15 1 16 2 17 3 18 4 19 5 20 6 21 7 22 8 23 9 24 10 25 11
REMARK SMILES IDX 26 12 27 13 28 14 29 15 30 16 14 17 13 18 12 19 11 20 10 21
REMARK SMILES IDX 9 22 8 23 7 24 6 25 5 26 4 27 3 28 2 29 1 30
REMARK H PARENT
REMARK Flexibility Score: inf
ROOT
ATOM      1  C   UNL     1      -0.501 -28.866   8.064  1.00  0.00     0.000 C 
ENDROOT
BRANCH   1   2
ATOM      2  C   UNL     1      -0.497 -27.844   6.918  1.00  0.00     0.000 C 
BRANCH   2   3
ATOM      3  C   UNL     1       0.732 -28.030   6.016  1.00  0.00     0.000 C 
BRANCH   3   4
ATOM      4  C   UNL     1       0.780 -29.427   5.368  1.00  0.00     0.000 C 
BRANCH   4   5
ATOM      5  C   UNL     1       2.116 -29.745   4.658  1.00  0.00     0.000 C 
BRANCH   5   6
ATOM      6  C   UNL     1       1.993 -29.806   3.126  1.00  0.00     0.000 C 
BRANCH   6   7
ATOM      7  C   UNL     1       0.586 -30.237   2.663  1.00  0.00     0.000 C 
BRANCH   7   8
ATOM      8  C   UNL     1      -0.011 -29.279   1.616  1.00  0.00     0.000 C 
BRANCH   8   9
ATOM      9  C   UNL     1       0.004 -27.804   2.062  1.00  0.00     0.000 C 
BRANCH   9  10
ATOM     10  C   UNL     1      -1.191 -27.454   2.966  1.00  0.00     0.000 C 
BRANCH  10  11
ATOM     11  C   UNL     1      -1.748 -26.053   2.671  1.00  0.00     0.000 C 
BRANCH  11  12
ATOM     12  C   UNL     1      -2.341 -25.949   1.257  1.00  0.00     0.006 C 
BRANCH  12  13
ATOM     13  C   UNL     1      -1.958 -24.620   0.598  1.00  0.00     0.053 C 
BRANCH  13  14
ATOM     14  C   UNL     1      -2.436 -24.567  -0.822  1.00  0.00     0.041 C 
ATOM     15  O   UNL     1      -2.109 -23.607  -1.568  1.00  0.00    -0.550 OA
ATOM     16  O   UNL     1      -3.215 -25.599  -1.333  1.00  0.00    -0.550 OA
ENDBRANCH  13  14
ENDBRANCH  12  13
ENDBRANCH  11  12
ENDBRANCH  10  11
ENDBRANCH   9  10
ENDBRANCH   8   9
ENDBRANCH   7   8
ENDBRANCH   6   7
ENDBRANCH   5   6
ENDBRANCH   4   5
ENDBRANCH   3   4
ENDBRANCH   2   3
ENDBRANCH   1   2
BRANCH   1  17
ATOM     17  C   UNL     1      -1.225 -28.330   9.317  1.00  0.00     0.000 C 
BRANCH  17  18
ATOM     18  C   UNL     1      -1.644 -26.853   9.208  1.00  0.00     0.000 C 
BRANCH  18  19
ATOM     19  C   UNL     1      -2.560 -26.373  10.356  1.00  0.00     0.000 C 
BRANCH  19  20
ATOM     20  C   UNL     1      -3.795 -25.566   9.901  1.00  0.00     0.000 C 
BRANCH  20  21
ATOM     21  C   UNL     1      -3.950 -24.173  10.547  1.00  0.00     0.000 C 
BRANCH  21  22
ATOM     22  C   UNL     1      -4.067 -24.224  12.076  1.00  0.00    -0.000 C 
BRANCH  22  23
ATOM     23  C   UNL     1      -2.925 -23.448  12.749  1.00  0.00    -0.000 C 
BRANCH  23  24
ATOM     24  C   UNL     1      -2.449 -24.125  14.045  1.00  0.00    -0.000 C 
BRANCH  24  25
ATOM     25  C   UNL     1      -0.989 -23.783  14.387  1.00  0.00    -0.000 C 
BRANCH  25  26
ATOM     26  C   UNL     1      -0.013 -24.937  14.092  1.00  0.00    -0.000 C 
BRANCH  26  27
ATOM     27  C   UNL     1      -0.415 -25.796  12.871  1.00  0.00    -0.000 C 
BRANCH  27  28
ATOM     28  C   UNL     1       0.748 -26.676  12.374  1.00  0.00    -0.000 C 
BRANCH  28  29
ATOM     29  C   UNL     1       1.789 -25.889  11.567  1.00  0.00    -0.003 C 
ATOM     30  C   UNL     1       1.747 -26.210  10.075  1.00  0.00     0.004 C 
ENDBRANCH  28  29
ENDBRANCH  27  28
ENDBRANCH  26  27
ENDBRANCH  25  26
ENDBRANCH  24  25
ENDBRANCH  23  24
ENDBRANCH  22  23
ENDBRANCH  21  22
ENDBRANCH  20  21
ENDBRANCH  19  20
ENDBRANCH  18  19
ENDBRANCH  17  18
ENDBRANCH   1  17
TORSDOF 26
ENDMDL
MODEL 6
REMARK VINA RESULT:    -5.361      3.326      9.334
REMARK INTER + INTRA:         -16.538
REMARK INTER:                 -13.077
REMARK INTRA:                  -3.462
REMARK UNBOUND:                -3.030
REMARK SMILES CCCCCCCCCCCCCCCCCCCCCCCCCCCC(=O)[O-]
REMARK SMILES IDX 15 1 16 2 17 3 18 4 19 5 20 6 21 7 22 8 23 9 24 10 25 11
REMARK SMILES IDX 26 12 27 13 28 14 29 15 30 16 14 17 13 18 12 19 11 20 10 21
REMARK SMILES IDX 9 22 8 23 7 24 6 25 5 26 4 27 3 28 2 29 1 30
REMARK H PARENT
REMARK Flexibility Score: inf
ROOT
ATOM      1  C   UNL     1       0.043 -26.875   7.789  1.00  0.00     0.000 C 
ENDROOT
BRANCH   1   2
ATOM      2  C   UNL     1       1.553 -27.135   7.677  1.00  0.00     0.000 C 
BRANCH   2   3
ATOM      3  C   UNL     1       2.125 -26.524   6.390  1.00  0.00     0.000 C 
BRANCH   3   4
ATOM      4  C   UNL     1       1.507 -27.142   5.121  1.00  0.00     0.000 C 
BRANCH   4   5
ATOM      5  C   UNL     1       1.942 -28.601   4.856  1.00  0.00     0.000 C 
BRANCH   5   6
ATOM      6  C   UNL     1       0.844 -29.456   4.200  1.00  0.00     0.000 C 
BRANCH   6   7
ATOM      7  C   UNL     1       1.184 -29.839   2.745  1.00  0.00     0.000 C 
BRANCH   7   8
ATOM      8  C   UNL     1       0.047 -29.502   1.763  1.00  0.00     0.000 C 
BRANCH   8   9
ATOM      9  C   UNL     1      -0.413 -28.034   1.846  1.00  0.00     0.000 C 
BRANCH   9  10
ATOM     10  C   UNL     1      -1.938 -27.889   1.692  1.00  0.00     0.000 C 
BRANCH  10  11
ATOM     11  C   UNL     1      -2.405 -26.441   1.903  1.00  0.00     0.000 C 
BRANCH  11  12
ATOM     12  C   UNL     1      -1.267 -25.527   2.385  1.00  0.00     0.006 C 
BRANCH  12  13
ATOM     13  C   UNL     1      -1.244 -24.215   1.592  1.00  0.00     0.053 C 
BRANCH  13  14
ATOM     14  C   UNL     1      -1.431 -24.469   0.127  1.00  0.00     0.041 C 
ATOM     15  O   UNL     1      -0.692 -25.291  -0.476  1.00  0.00    -0.550 OA
ATOM     16  O   UNL     1      -2.447 -23.823  -0.567  1.00  0.00    -0.550 OA
ENDBRANCH  13  14
ENDBRANCH  12  13
ENDBRANCH  11  12
ENDBRANCH  10  11
ENDBRANCH   9  10
ENDBRANCH   8   9
ENDBRANCH   7   8
ENDBRANCH   6   7
ENDBRANCH   5   6
ENDBRANCH   4   5
ENDBRANCH   3   4
ENDBRANCH   2   3
ENDBRANCH   1   2
BRANCH   1  17
ATOM     17  C   UNL     1      -0.781 -28.173   7.649  1.00  0.00     0.000 C 
BRANCH  17  18
ATOM     18  C   UNL     1      -0.001 -29.447   8.015  1.00  0.00     0.000 C 
BRANCH  18  19
ATOM     19  C   UNL     1      -0.145 -29.870   9.494  1.00  0.00     0.000 C 
BRANCH  19  20
ATOM     20  C   UNL     1       1.179 -29.892  10.291  1.00  0.00     0.000 C 
BRANCH  20  21
ATOM     21  C   UNL     1       1.027 -29.853  11.825  1.00  0.00     0.000 C 
BRANCH  21  22
ATOM     22  C   UNL     1       1.831 -28.724  12.485  1.00  0.00    -0.000 C 
BRANCH  22  23
ATOM     23  C   UNL     1       0.936 -27.518  12.811  1.00  0.00    -0.000 C 
BRANCH  23  24
ATOM     24  C   UNL     1       1.053 -26.408  11.754  1.00  0.00    -0.000 C 
BRANCH  24  25
ATOM     25  C   UNL     1      -0.317 -25.848  11.333  1.00  0.00    -0.000 C 
BRANCH  25  26
ATOM     26  C   UNL     1      -1.383 -26.941  11.137  1.00  0.00    -0.000 C 
BRANCH  26  27
ATOM     27  C   UNL     1      -2.607 -26.478  10.318  1.00  0.00    -0.000 C 
BRANCH  27  28
ATOM     28  C   UNL     1      -3.110 -25.091  10.760  1.00  0.00    -0.000 C 
BRANCH  28  29
ATOM     29  C   UNL     1      -4.637 -24.956  10.683  1.00  0.00    -0.003 C 
ATOM     30  C   UNL     1      -5.295 -26.113   9.934  1.00  0.00     0.004 C 
ENDBRANCH  28  29
ENDBRANCH  27  28
ENDBRANCH  26  27
ENDBRANCH  25  26
ENDBRANCH  24  25
ENDBRANCH  23  24
ENDBRANCH  22  23
ENDBRANCH  21  22
ENDBRANCH  20  21
ENDBRANCH  19  20
ENDBRANCH  18  19
ENDBRANCH  17  18
ENDBRANCH   1  17
TORSDOF 26
ENDMDL
MODEL 7
REMARK VINA RESULT:    -5.350      1.591      2.651
REMARK INTER + INTRA:         -16.511
REMARK INTER:                 -12.617
REMARK INTRA:                  -3.893
REMARK UNBOUND:                -3.030
REMARK SMILES CCCCCCCCCCCCCCCCCCCCCCCCCCCC(=O)[O-]
REMARK SMILES IDX 15 1 16 2 17 3 18 4 19 5 20 6 21 7 22 8 23 9 24 10 25 11
REMARK SMILES IDX 26 12 27 13 28 14 29 15 30 16 14 17 13 18 12 19 11 20 10 21
REMARK SMILES IDX 9 22 8 23 7 24 6 25 5 26 4 27 3 28 2 29 1 30
REMARK H PARENT
REMARK Flexibility Score: inf
ROOT
ATOM      1  C   UNL     1       0.707 -26.815   7.855  1.00  0.00     0.000 C 
ENDROOT
BRANCH   1   2
ATOM      2  C   UNL     1       1.628 -27.892   8.447  1.00  0.00     0.000 C 
BRANCH   2   3
ATOM      3  C   UNL     1       0.819 -29.095   8.952  1.00  0.00     0.000 C 
BRANCH   3   4
ATOM      4  C   UNL     1       1.718 -30.281   9.353  1.00  0.00     0.000 C 
BRANCH   4   5
ATOM      5  C   UNL     1       1.521 -30.754  10.812  1.00  0.00     0.000 C 
BRANCH   5   6
ATOM      6  C   UNL     1       0.679 -29.784  11.659  1.00  0.00     0.000 C 
BRANCH   6   7
ATOM      7  C   UNL     1       1.528 -29.007  12.686  1.00  0.00     0.000 C 
BRANCH   7   8
ATOM      8  C   UNL     1       1.924 -27.606  12.187  1.00  0.00     0.000 C 
BRANCH   8   9
ATOM      9  C   UNL     1       1.295 -26.466  13.011  1.00  0.00     0.000 C 
BRANCH   9  10
ATOM     10  C   UNL     1      -0.196 -26.264  12.688  1.00  0.00     0.000 C 
BRANCH  10  11
ATOM     11  C   UNL     1      -0.456 -26.202  11.174  1.00  0.00     0.000 C 
BRANCH  11  12
ATOM     12  C   UNL     1      -1.728 -26.963  10.771  1.00  0.00     0.006 C 
BRANCH  12  13
ATOM     13  C   UNL     1      -2.590 -26.126   9.820  1.00  0.00     0.053 C 
BRANCH  13  14
ATOM     14  C   UNL     1      -3.745 -25.504  10.547  1.00  0.00     0.041 C 
ATOM     15  O   UNL     1      -3.611 -24.392  11.120  1.00  0.00    -0.550 OA
ATOM     16  O   UNL     1      -4.982 -26.140  10.560  1.00  0.00    -0.550 OA
ENDBRANCH  13  14
ENDBRANCH  12  13
ENDBRANCH  11  12
ENDBRANCH  10  11
ENDBRANCH   9  10
ENDBRANCH   8   9
ENDBRANCH   7   8
ENDBRANCH   6   7
ENDBRANCH   5   6
ENDBRANCH   4   5
ENDBRANCH   3   4
ENDBRANCH   2   3
ENDBRANCH   1   2
BRANCH   1  17
ATOM     17  C   UNL     1      -0.495 -27.428   7.105  1.00  0.00     0.000 C 
BRANCH  17  18
ATOM     18  C   UNL     1      -0.211 -27.738   5.625  1.00  0.00     0.000 C 
BRANCH  18  19
ATOM     19  C   UNL     1       0.088 -29.226   5.341  1.00  0.00     0.000 C 
BRANCH  19  20
ATOM     20  C   UNL     1       1.542 -29.520   4.909  1.00  0.00     0.000 C 
BRANCH  20  21
ATOM     21  C   UNL     1       1.772 -29.624   3.387  1.00  0.00     0.000 C 
BRANCH  21  22
ATOM     22  C   UNL     1       0.666 -30.401   2.659  1.00  0.00    -0.000 C 
BRANCH  22  23
ATOM     23  C   UNL     1       0.119 -29.606   1.464  1.00  0.00    -0.000 C 
BRANCH  23  24
ATOM     24  C   UNL     1      -0.935 -28.571   1.889  1.00  0.00    -0.000 C 
BRANCH  24  25
ATOM     25  C   UNL     1      -0.601 -27.152   1.396  1.00  0.00    -0.000 C 
BRANCH  25  26
ATOM     26  C   UNL     1       0.475 -26.454   2.247  1.00  0.00    -0.000 C 
BRANCH  26  27
ATOM     27  C   UNL     1       0.208 -24.949   2.476  1.00  0.00    -0.000 C 
BRANCH  27  28
ATOM     28  C   UNL     1      -1.267 -24.577   2.230  1.00  0.00    -0.000 C 
BRANCH  28  29
ATOM     29  C   UNL     1      -1.507 -23.976   0.839  1.00  0.00    -0.003 C 
ATOM     30  C   UNL     1      -0.254 -23.336   0.248  1.00  0.00     0.004 C 
ENDBRANCH  28  29
ENDBRANCH  27  28
ENDBRANCH  26  27
ENDBRANCH  25  26
ENDBRANCH  24  25
ENDBRANCH  23  24
ENDBRANCH  22  23
ENDBRANCH  21  22
ENDBRANCH  20  21
ENDBRANCH  19  20
ENDBRANCH  18  19
ENDBRANCH  17  18
ENDBRANCH   1  17
TORSDOF 26
ENDMDL
MODEL 8
REMARK VINA RESULT:    -5.329      1.996      5.014
REMARK INTER + INTRA:         -16.459
REMARK INTER:                 -13.173
REMARK INTRA:                  -3.286
REMARK UNBOUND:                -3.030
REMARK SMILES CCCCCCCCCCCCCCCCCCCCCCCCCCCC(=O)[O-]
REMARK SMILES IDX 15 1 16 2 17 3 18 4 19 5 20 6 21 7 22 8 23 9 24 10 25 11
REMARK SMILES IDX 26 12 27 13 28 14 29 15 30 16 14 17 13 18 12 19 11 20 10 21
REMARK SMILES IDX 9 22 8 23 7 24 6 25 5 26 4 27 3 28 2 29 1 30
REMARK H PARENT
REMARK Flexibility Score: inf
ROOT
ATOM      1  C   UNL     1      -3.442 -26.255  10.587  1.00  0.00     0.000 C 
ENDROOT
BRANCH   1   2
ATOM      2  C   UNL     1      -4.314 -25.061  10.171  1.00  0.00     0.000 C 
BRANCH   2   3
ATOM      3  C   UNL     1      -4.257 -23.942  11.221  1.00  0.00     0.000 C 
BRANCH   3   4
ATOM      4  C   UNL     1      -2.918 -23.918  11.982  1.00  0.00     0.000 C 
BRANCH   4   5
ATOM      5  C   UNL     1      -3.018 -23.337  13.411  1.00  0.00     0.000 C 
BRANCH   5   6
ATOM      6  C   UNL     1      -1.920 -23.853  14.357  1.00  0.00     0.000 C 
BRANCH   6   7
ATOM      7  C   UNL     1      -0.916 -24.784  13.646  1.00  0.00     0.000 C 
BRANCH   7   8
ATOM      8  C   UNL     1       0.545 -24.348  13.856  1.00  0.00     0.000 C 
BRANCH   8   9
ATOM      9  C   UNL     1       1.566 -25.442  13.487  1.00  0.00     0.000 C 
BRANCH   9  10
ATOM     10  C   UNL     1       0.942 -26.849  13.491  1.00  0.00     0.000 C 
BRANCH  10  11
ATOM     11  C   UNL     1       1.955 -27.931  13.085  1.00  0.00     0.000 C 
BRANCH  11  12
ATOM     12  C   UNL     1       1.271 -29.251  12.698  1.00  0.00     0.006 C 
BRANCH  12  13
ATOM     13  C   UNL     1       1.583 -29.626  11.244  1.00  0.00     0.053 C 
BRANCH  13  14
ATOM     14  C   UNL     1       0.514 -30.509  10.676  1.00  0.00     0.041 C 
ATOM     15  O   UNL     1      -0.572 -30.017  10.274  1.00  0.00    -0.550 OA
ATOM     16  O   UNL     1       0.733 -31.877  10.556  1.00  0.00    -0.550 OA
ENDBRANCH  13  14
ENDBRANCH  12  13
ENDBRANCH  11  12
ENDBRANCH  10  11
ENDBRANCH   9  10
ENDBRANCH   8   9
ENDBRANCH   7   8
ENDBRANCH   6   7
ENDBRANCH   5   6
ENDBRANCH   4   5
ENDBRANCH   3   4
ENDBRANCH   2   3
ENDBRANCH   1   2
BRANCH   1  17
ATOM     17  C   UNL     1      -2.213 -26.424   9.669  1.00  0.00     0.000 C 
BRANCH  17  18
ATOM     18  C   UNL     1      -0.898 -26.665  10.431  1.00  0.00     0.000 C 
BRANCH  18  19
ATOM     19  C   UNL     1       0.369 -26.533   9.556  1.00  0.00     0.000 C 
BRANCH  19  20
ATOM     20  C   UNL     1       0.172 -26.921   8.074  1.00  0.00     0.000 C 
BRANCH  20  21
ATOM     21  C   UNL     1       1.171 -27.961   7.525  1.00  0.00     0.000 C 
BRANCH  21  22
ATOM     22  C   UNL     1       0.509 -29.290   7.136  1.00  0.00    -0.000 C 
BRANCH  22  23
ATOM     23  C   UNL     1      -0.168 -29.196   5.760  1.00  0.00    -0.000 C 
BRANCH  23  24
ATOM     24  C   UNL     1       0.852 -29.193   4.611  1.00  0.00    -0.000 C 
BRANCH  24  25
ATOM     25  C   UNL     1       0.542 -28.123   3.550  1.00  0.00    -0.000 C 
BRANCH  25  26
ATOM     26  C   UNL     1       0.183 -26.755   4.157  1.00  0.00    -0.000 C 
BRANCH  26  27
ATOM     27  C   UNL     1      -1.211 -26.235   3.741  1.00  0.00    -0.000 C 
BRANCH  27  28
ATOM     28  C   UNL     1      -1.121 -24.970   2.867  1.00  0.00    -0.000 C 
BRANCH  28  29
ATOM     29  C   UNL     1      -1.715 -25.168   1.466  1.00  0.00    -0.003 C 
ATOM     30  C   UNL     1      -1.906 -26.640   1.108  1.00  0.00     0.004 C 
ENDBRANCH  28  29
ENDBRANCH  27  28
ENDBRANCH  26  27
ENDBRANCH  25  26
ENDBRANCH  24  25
ENDBRANCH  23  24
ENDBRANCH  22  23
ENDBRANCH  21  22
ENDBRANCH  20  21
ENDBRANCH  19  20
ENDBRANCH  18  19
ENDBRANCH  17  18
ENDBRANCH   1  17
TORSDOF 26
ENDMDL
MODEL 9
REMARK VINA RESULT:    -5.285      2.703      9.795
REMARK INTER + INTRA:         -16.347
REMARK INTER:                 -12.727
REMARK INTRA:                  -3.620
REMARK UNBOUND:                -3.030
REMARK SMILES CCCCCCCCCCCCCCCCCCCCCCCCCCCC(=O)[O-]
REMARK SMILES IDX 15 1 16 2 17 3 18 4 19 5 20 6 21 7 22 8 23 9 24 10 25 11
REMARK SMILES IDX 26 12 27 13 28 14 29 15 30 16 14 17 13 18 12 19 11 20 10 21
REMARK SMILES IDX 9 22 8 23 7 24 6 25 5 26 4 27 3 28 2 29 1 30
REMARK H PARENT
REMARK Flexibility Score: inf
ROOT
ATOM      1  C   UNL     1      -3.815 -25.843  10.232  1.00  0.00     0.000 C 
ENDROOT
BRANCH   1   2
ATOM      2  C   UNL     1      -2.421 -26.367  10.607  1.00  0.00     0.000 C 
BRANCH   2   3
ATOM      3  C   UNL     1      -1.707 -26.966   9.386  1.00  0.00     0.000 C 
BRANCH   3   4
ATOM      4  C   UNL     1      -0.241 -26.504   9.278  1.00  0.00     0.000 C 
BRANCH   4   5
ATOM      5  C   UNL     1       0.458 -26.934   7.968  1.00  0.00     0.000 C 
BRANCH   5   6
ATOM      6  C   UNL     1      -0.519 -27.453   6.898  1.00  0.00     0.000 C 
BRANCH   6   7
ATOM      7  C   UNL     1      -0.263 -28.930   6.531  1.00  0.00     0.000 C 
BRANCH   7   8
ATOM      8  C   UNL     1       1.207 -29.200   6.163  1.00  0.00     0.000 C 
BRANCH   8   9
ATOM      9  C   UNL     1       1.558 -28.794   4.718  1.00  0.00     0.000 C 
BRANCH   9  10
ATOM     10  C   UNL     1       0.421 -29.109   3.730  1.00  0.00     0.000 C 
BRANCH  10  11
ATOM     11  C   UNL     1       0.333 -28.070   2.601  1.00  0.00     0.000 C 
BRANCH  11  12
ATOM     12  C   UNL     1       0.623 -26.646   3.098  1.00  0.00     0.006 C 
BRANCH  12  13
ATOM     13  C   UNL     1      -0.661 -25.961   3.579  1.00  0.00     0.053 C 
BRANCH  13  14
ATOM     14  C   UNL     1      -1.454 -25.431   2.423  1.00  0.00     0.041 C 
ATOM     15  O   UNL     1      -1.232 -24.276   1.974  1.00  0.00    -0.550 OA
ATOM     16  O   UNL     1      -2.417 -26.230   1.815  1.00  0.00    -0.550 OA
ENDBRANCH  13  14
ENDBRANCH  12  13
ENDBRANCH  11  12
ENDBRANCH  10  11
ENDBRANCH   9  10
ENDBRANCH   8   9
ENDBRANCH   7   8
ENDBRANCH   6   7
ENDBRANCH   5   6
ENDBRANCH   4   5
ENDBRANCH   3   4
ENDBRANCH   2   3
ENDBRANCH   1   2
BRANCH   1  17
ATOM     17  C   UNL     1      -4.212 -24.604  11.061  1.00  0.00     0.000 C 
BRANCH  17  18
ATOM     18  C   UNL     1      -3.015 -23.862  11.681  1.00  0.00     0.000 C 
BRANCH  18  19
ATOM     19  C   UNL     1      -3.232 -23.434  13.150  1.00  0.00     0.000 C 
BRANCH  19  20
ATOM     20  C   UNL     1      -2.074 -23.798  14.105  1.00  0.00     0.000 C 
BRANCH  20  21
ATOM     21  C   UNL     1      -0.988 -24.717  13.509  1.00  0.00     0.000 C 
BRANCH  21  22
ATOM     22  C   UNL     1       0.387 -24.537  14.166  1.00  0.00    -0.000 C 
BRANCH  22  23
ATOM     23  C   UNL     1       1.515 -24.583  13.125  1.00  0.00    -0.000 C 
BRANCH  23  24
ATOM     24  C   UNL     1       1.659 -25.975  12.488  1.00  0.00    -0.000 C 
BRANCH  24  25
ATOM     25  C   UNL     1       2.023 -27.060  13.516  1.00  0.00    -0.000 C 
BRANCH  25  26
ATOM     26  C   UNL     1       1.273 -28.385  13.289  1.00  0.00    -0.000 C 
BRANCH  26  27
ATOM     27  C   UNL     1       0.649 -28.514  11.881  1.00  0.00    -0.000 C 
BRANCH  27  28
ATOM     28  C   UNL     1       1.596 -29.217  10.890  1.00  0.00    -0.000 C 
BRANCH  28  29
ATOM     29  C   UNL     1       0.857 -30.135   9.907  1.00  0.00    -0.003 C 
ATOM     30  C   UNL     1       0.169 -31.309  10.599  1.00  0.00     0.004 C 
ENDBRANCH  28  29
ENDBRANCH  27  28
ENDBRANCH  26  27
ENDBRANCH  25  26
ENDBRANCH  24  25
ENDBRANCH  23  24
ENDBRANCH  22  23
ENDBRANCH  21  22
ENDBRANCH  20  21
ENDBRANCH  19  20
ENDBRANCH  18  19
ENDBRANCH  17  18
ENDBRANCH   1  17
TORSDOF 26
ENDMDL
