MODEL 1
REMARK VINA RESULT:    -4.197      0.000      0.000
REMARK INTER + INTRA:         -13.010
REMARK INTER:                  -9.594
REMARK INTRA:                  -3.416
REMARK UNBOUND:                -3.416
REMARK SMILES CCCCCCCCCCCCCCCCCCCCCCCC(=O)[O-]
REMARK SMILES IDX 13 1 14 2 15 3 16 4 17 5 18 6 19 7 20 8 21 9 22 10 23 11
REMARK SMILES IDX 24 12 25 13 26 14 12 15 11 16 10 17 9 18 8 19 7 20 6 21 5 22
REMARK SMILES IDX 4 23 3 24 2 25 1 26
REMARK H PARENT
REMARK Flexibility Score: inf
ROOT
ATOM      1  C   UNL     1       2.115  -3.867   6.930  1.00  0.00     0.000 C 
ENDROOT
BRANCH   1   2
ATOM      2  C   UNL     1       3.389  -3.246   6.340  1.00  0.00     0.000 C 
BRANCH   2   3
ATOM      3  C   UNL     1       3.041  -2.155   5.317  1.00  0.00     0.000 C 
BRANCH   3   4
ATOM      4  C   UNL     1       1.533  -1.869   5.231  1.00  0.00     0.000 C 
BRANCH   4   5
ATOM      5  C   UNL     1       1.173  -0.435   5.654  1.00  0.00     0.000 C 
BRANCH   5   6
ATOM      6  C   UNL     1       1.280  -0.225   7.173  1.00  0.00     0.000 C 
BRANCH   6   7
ATOM      7  C   UNL     1       2.192   0.961   7.560  1.00  0.00     0.000 C 
BRANCH   7   8
ATOM      8  C   UNL     1       1.780   2.266   6.854  1.00  0.00     0.000 C 
BRANCH   8   9
ATOM      9  C   UNL     1       0.813   3.106   7.705  1.00  0.00     0.000 C 
BRANCH   9  10
ATOM     10  C   UNL     1       0.558   4.495   7.095  1.00  0.00     0.006 C 
BRANCH  10  11
ATOM     11  C   UNL     1       0.910   4.545   5.602  1.00  0.00     0.053 C 
BRANCH  11  12
ATOM     12  C   UNL     1       0.143   5.616   4.889  1.00  0.00     0.041 C 
ATOM     13  O   UNL     1      -1.115   5.617   4.912  1.00  0.00    -0.550 OA
ATOM     14  O   UNL     1       0.821   6.636   4.232  1.00  0.00    -0.550 OA
ENDBRANCH  11  12
ENDBRANCH  10  11
ENDBRANCH   9  10
ENDBRANCH   8   9
ENDBRANCH   7   8
ENDBRANCH   6   7
ENDBRANCH   5   6
ENDBRANCH   4   5
ENDBRANCH   3   4
ENDBRANCH   2   3
ENDBRANCH   1   2
BRANCH   1  15
ATOM     15  C   UNL     1       2.173  -4.003   8.459  1.00  0.00     0.000 C 
BRANCH  15  16
ATOM     16  C   UNL     1       0.926  -3.431   9.151  1.00  0.00     0.000 C 
BRANCH  16  17
ATOM     17  C   UNL     1      -0.355  -4.058   8.589  1.00  0.00     0.000 C 
BRANCH  17  18
ATOM     18  C   UNL     1      -1.465  -3.008   8.451  1.00  0.00    -0.000 C 
BRANCH  18  19
ATOM     19  C   UNL     1      -1.633  -2.565   6.992  1.00  0.00    -0.000 C 
BRANCH  19  20
ATOM     20  C   UNL     1      -1.716  -3.782   6.058  1.00  0.00    -0.000 C 
BRANCH  20  21
ATOM     21  C   UNL     1      -1.677  -3.395   4.571  1.00  0.00    -0.000 C 
BRANCH  21  22
ATOM     22  C   UNL     1      -2.161  -1.956   4.324  1.00  0.00    -0.000 C 
BRANCH  22  23
ATOM     23  C   UNL     1      -3.619  -1.888   3.833  1.00  0.00    -0.000 C 
BRANCH  23  24
ATOM     24  C   UNL     1      -4.428  -0.685   4.349  1.00  0.00    -0.000 C 
BRANCH  24  25
ATOM     25  C   UNL     1      -4.993  -0.901   5.761  1.00  0.00    -0.003 C 
ATOM     26  C   UNL     1      -5.261  -2.379   6.027  1.00  0.00     0.004 C 
ENDBRANCH  24  25
ENDBRANCH  23  24
ENDBRANCH  22  23
ENDBRANCH  21  22
ENDBRANCH  20  21
ENDBRANCH  19  20
ENDBRANCH  18  19
ENDBRANCH  17  18
ENDBRANCH  16  17
ENDBRANCH  15  16
ENDBRANCH   1  15
TORSDOF 22
ENDMDL
MODEL 2
REMARK VINA RESULT:    -4.170      1.382      2.560
REMARK INTER + INTRA:         -12.949
REMARK INTER:                 -10.427
REMARK INTRA:                  -2.522
REMARK UNBOUND:                -3.416
REMARK SMILES CCCCCCCCCCCCCCCCCCCCCCCC(=O)[O-]
REMARK SMILES IDX 13 1 14 2 15 3 16 4 17 5 18 6 19 7 20 8 21 9 22 10 23 11
REMARK SMILES IDX 24 12 25 13 26 14 12 15 11 16 10 17 9 18 8 19 7 20 6 21 5 22
REMARK SMILES IDX 4 23 3 24 2 25 1 26
REMARK H PARENT
REMARK Flexibility Score: inf
ROOT
ATOM      1  C   UNL     1       2.377  -2.306   5.240  1.00  0.00     0.000 C 
ENDROOT
BRANCH   1   2
ATOM      2  C   UNL     1       3.571  -1.464   5.710  1.00  0.00     0.000 C 
BRANCH   2   3
ATOM      3  C   UNL     1       4.044  -1.917   7.099  1.00  0.00     0.000 C 
BRANCH   3   4
ATOM      4  C   UNL     1       3.367  -1.148   8.245  1.00  0.00     0.000 C 
BRANCH   4   5
ATOM      5  C   UNL     1       3.123   0.333   7.907  1.00  0.00     0.000 C 
BRANCH   5   6
ATOM      6  C   UNL     1       1.657   0.748   8.106  1.00  0.00     0.000 C 
BRANCH   6   7
ATOM      7  C   UNL     1       1.384   2.221   7.725  1.00  0.00     0.000 C 
BRANCH   7   8
ATOM      8  C   UNL     1       0.493   2.933   8.758  1.00  0.00     0.000 C 
BRANCH   8   9
ATOM      9  C   UNL     1       0.249   4.408   8.395  1.00  0.00     0.000 C 
BRANCH   9  10
ATOM     10  C   UNL     1       0.194   4.630   6.873  1.00  0.00     0.006 C 
BRANCH  10  11
ATOM     11  C   UNL     1      -0.528   5.934   6.503  1.00  0.00     0.053 C 
BRANCH  11  12
ATOM     12  C   UNL     1      -0.504   6.177   5.026  1.00  0.00     0.041 C 
ATOM     13  O   UNL     1      -0.046   5.302   4.246  1.00  0.00    -0.550 OA
ATOM     14  O   UNL     1      -1.024   7.358   4.508  1.00  0.00    -0.550 OA
ENDBRANCH  11  12
ENDBRANCH  10  11
ENDBRANCH   9  10
ENDBRANCH   8   9
ENDBRANCH   7   8
ENDBRANCH   6   7
ENDBRANCH   5   6
ENDBRANCH   4   5
ENDBRANCH   3   4
ENDBRANCH   2   3
ENDBRANCH   1   2
BRANCH   1  15
ATOM     15  C   UNL     1       1.061  -1.512   5.220  1.00  0.00     0.000 C 
BRANCH  15  16
ATOM     16  C   UNL     1      -0.108  -2.289   5.844  1.00  0.00     0.000 C 
BRANCH  16  17
ATOM     17  C   UNL     1       0.222  -2.729   7.275  1.00  0.00     0.000 C 
BRANCH  17  18
ATOM     18  C   UNL     1      -1.032  -2.711   8.158  1.00  0.00    -0.000 C 
BRANCH  18  19
ATOM     19  C   UNL     1      -2.310  -2.756   7.310  1.00  0.00    -0.000 C 
BRANCH  19  20
ATOM     20  C   UNL     1      -3.552  -2.895   8.203  1.00  0.00    -0.000 C 
BRANCH  20  21
ATOM     21  C   UNL     1      -4.867  -2.728   7.425  1.00  0.00    -0.000 C 
BRANCH  21  22
ATOM     22  C   UNL     1      -5.421  -1.294   7.505  1.00  0.00    -0.000 C 
BRANCH  22  23
ATOM     23  C   UNL     1      -5.765  -0.705   6.126  1.00  0.00    -0.000 C 
BRANCH  23  24
ATOM     24  C   UNL     1      -4.566  -0.499   5.183  1.00  0.00    -0.000 C 
BRANCH  24  25
ATOM     25  C   UNL     1      -4.492  -1.550   4.065  1.00  0.00    -0.003 C 
ATOM     26  C   UNL     1      -3.044  -1.886   3.719  1.00  0.00     0.004 C 
ENDBRANCH  24  25
ENDBRANCH  23  24
ENDBRANCH  22  23
ENDBRANCH  21  22
ENDBRANCH  20  21
ENDBRANCH  19  20
ENDBRANCH  18  19
ENDBRANCH  17  18
ENDBRANCH  16  17
ENDBRANCH  15  16
ENDBRANCH   1  15
TORSDOF 22
ENDMDL
MODEL 3
REMARK VINA RESULT:    -4.127      1.399      3.173
REMARK INTER + INTRA:         -12.851
REMARK INTER:                  -9.131
REMARK INTRA:                  -3.719
REMARK UNBOUND:                -3.416
REMARK SMILES CCCCCCCCCCCCCCCCCCCCCCCC(=O)[O-]
REMARK SMILES IDX 13 1 14 2 15 3 16 4 17 5 18 6 19 7 20 8 21 9 22 10 23 11
REMARK SMILES IDX 24 12 25 13 26 14 12 15 11 16 10 17 9 18 8 19 7 20 6 21 5 22
REMARK SMILES IDX 4 23 3 24 2 25 1 26
REMARK H PARENT
REMARK Flexibility Score: inf
ROOT
ATOM      1  C   UNL     1      -1.783  -3.193   7.339  1.00  0.00     0.000 C 
ENDROOT
BRANCH   1   2
ATOM      2  C   UNL     1      -0.564  -2.264   7.245  1.00  0.00     0.000 C 
BRANCH   2   3
ATOM      3  C   UNL     1       0.577  -2.939   6.469  1.00  0.00     0.000 C 
BRANCH   3   4
ATOM      4  C   UNL     1       1.197  -2.029   5.397  1.00  0.00     0.000 C 
BRANCH   4   5
ATOM      5  C   UNL     1       1.016  -0.533   5.708  1.00  0.00     0.000 C 
BRANCH   5   6
ATOM      6  C   UNL     1       2.059  -0.010   6.709  1.00  0.00     0.000 C 
BRANCH   6   7
ATOM      7  C   UNL     1       1.451   0.896   7.804  1.00  0.00     0.000 C 
BRANCH   7   8
ATOM      8  C   UNL     1       2.399   2.041   8.204  1.00  0.00     0.000 C 
BRANCH   8   9
ATOM      9  C   UNL     1       2.550   3.087   7.085  1.00  0.00     0.000 C 
BRANCH   9  10
ATOM     10  C   UNL     1       1.191   3.510   6.499  1.00  0.00     0.006 C 
BRANCH  10  11
ATOM     11  C   UNL     1       1.112   5.023   6.255  1.00  0.00     0.053 C 
BRANCH  11  12
ATOM     12  C   UNL     1      -0.009   5.374   5.325  1.00  0.00     0.041 C 
ATOM     13  O   UNL     1       0.051   5.051   4.110  1.00  0.00    -0.550 OA
ATOM     14  O   UNL     1      -1.137   6.025   5.810  1.00  0.00    -0.550 OA
ENDBRANCH  11  12
ENDBRANCH  10  11
ENDBRANCH   9  10
ENDBRANCH   8   9
ENDBRANCH   7   8
ENDBRANCH   6   7
ENDBRANCH   5   6
ENDBRANCH   4   5
ENDBRANCH   3   4
ENDBRANCH   2   3
ENDBRANCH   1   2
BRANCH   1  15
ATOM     15  C   UNL     1      -1.624  -4.469   6.498  1.00  0.00     0.000 C 
BRANCH  15  16
ATOM     16  C   UNL     1      -2.960  -5.191   6.261  1.00  0.00     0.000 C 
BRANCH  16  17
ATOM     17  C   UNL     1      -4.142  -4.331   6.722  1.00  0.00     0.000 C 
BRANCH  17  18
ATOM     18  C   UNL     1      -5.316  -4.441   5.740  1.00  0.00    -0.000 C 
BRANCH  18  19
ATOM     19  C   UNL     1      -5.877  -3.059   5.385  1.00  0.00    -0.000 C 
BRANCH  19  20
ATOM     20  C   UNL     1      -5.183  -1.961   6.207  1.00  0.00    -0.000 C 
BRANCH  20  21
ATOM     21  C   UNL     1      -4.627  -0.825   5.334  1.00  0.00    -0.000 C 
BRANCH  21  22
ATOM     22  C   UNL     1      -4.048  -1.335   4.002  1.00  0.00    -0.000 C 
BRANCH  22  23
ATOM     23  C   UNL     1      -2.545  -1.656   4.085  1.00  0.00    -0.000 C 
BRANCH  23  24
ATOM     24  C   UNL     1      -2.106  -2.931   3.342  1.00  0.00    -0.000 C 
BRANCH  24  25
ATOM     25  C   UNL     1      -3.285  -3.718   2.750  1.00  0.00    -0.003 C 
ATOM     26  C   UNL     1      -2.920  -5.185   2.543  1.00  0.00     0.004 C 
ENDBRANCH  24  25
ENDBRANCH  23  24
ENDBRANCH  22  23
ENDBRANCH  21  22
ENDBRANCH  20  21
ENDBRANCH  19  20
ENDBRANCH  18  19
ENDBRANCH  17  18
ENDBRANCH  16  17
ENDBRANCH  15  16
ENDBRANCH   1  15
TORSDOF 22
ENDMDL
MODEL 4
REMARK VINA RESULT:    -4.077      2.947      4.856
REMARK INTER + INTRA:         -12.736
REMARK INTER:                 -11.447
REMARK INTRA:                  -1.290
REMARK UNBOUND:                -3.416
REMARK SMILES CCCCCCCCCCCCCCCCCCCCCCCC(=O)[O-]
REMARK SMILES IDX 13 1 14 2 15 3 16 4 17 5 18 6 19 7 20 8 21 9 22 10 23 11
REMARK SMILES IDX 24 12 25 13 26 14 12 15 11 16 10 17 9 18 8 19 7 20 6 21 5 22
REMARK SMILES IDX 4 23 3 24 2 25 1 26
REMARK H PARENT
REMARK Flexibility Score: inf
ROOT
ATOM      1  C   UNL     1      -1.184  -2.784   5.326  1.00  0.00     0.000 C 
ENDROOT
BRANCH   1   2
ATOM      2  C   UNL     1       0.016  -2.264   6.131  1.00  0.00     0.000 C 
BRANCH   2   3
ATOM      3  C   UNL     1       0.960  -1.448   5.235  1.00  0.00     0.000 C 
BRANCH   3   4
ATOM      4  C   UNL     1       2.057  -0.718   6.026  1.00  0.00     0.000 C 
BRANCH   4   5
ATOM      5  C   UNL     1       1.577  -0.235   7.405  1.00  0.00     0.000 C 
BRANCH   5   6
ATOM      6  C   UNL     1       2.290   1.049   7.861  1.00  0.00     0.000 C 
BRANCH   6   7
ATOM      7  C   UNL     1       1.328   2.097   8.465  1.00  0.00     0.000 C 
BRANCH   7   8
ATOM      8  C   UNL     1       0.898   3.155   7.433  1.00  0.00     0.000 C 
BRANCH   8   9
ATOM      9  C   UNL     1       0.370   4.436   8.101  1.00  0.00     0.000 C 
BRANCH   9  10
ATOM     10  C   UNL     1       0.436   5.652   7.159  1.00  0.00     0.006 C 
BRANCH  10  11
ATOM     11  C   UNL     1      -0.901   5.909   6.451  1.00  0.00     0.053 C 
BRANCH  11  12
ATOM     12  C   UNL     1      -0.712   6.153   4.985  1.00  0.00     0.041 C 
ATOM     13  O   UNL     1      -0.086   5.320   4.279  1.00  0.00    -0.550 OA
ATOM     14  O   UNL     1      -1.261   7.285   4.393  1.00  0.00    -0.550 OA
ENDBRANCH  11  12
ENDBRANCH  10  11
ENDBRANCH   9  10
ENDBRANCH   8   9
ENDBRANCH   7   8
ENDBRANCH   6   7
ENDBRANCH   5   6
ENDBRANCH   4   5
ENDBRANCH   3   4
ENDBRANCH   2   3
ENDBRANCH   1   2
BRANCH   1  15
ATOM     15  C   UNL     1      -1.848  -1.690   4.475  1.00  0.00     0.000 C 
BRANCH  15  16
ATOM     16  C   UNL     1      -3.108  -2.188   3.751  1.00  0.00     0.000 C 
BRANCH  16  17
ATOM     17  C   UNL     1      -4.318  -1.305   4.077  1.00  0.00     0.000 C 
BRANCH  17  18
ATOM     18  C   UNL     1      -4.591  -1.285   5.586  1.00  0.00    -0.000 C 
BRANCH  18  19
ATOM     19  C   UNL     1      -5.251   0.032   6.015  1.00  0.00    -0.000 C 
BRANCH  19  20
ATOM     20  C   UNL     1      -5.951  -0.126   7.374  1.00  0.00    -0.000 C 
BRANCH  20  21
ATOM     21  C   UNL     1      -7.168   0.800   7.528  1.00  0.00    -0.000 C 
BRANCH  21  22
ATOM     22  C   UNL     1      -6.935   1.908   8.570  1.00  0.00    -0.000 C 
BRANCH  22  23
ATOM     23  C   UNL     1      -8.203   2.731   8.865  1.00  0.00    -0.000 C 
BRANCH  23  24
ATOM     24  C   UNL     1      -8.078   4.242   8.598  1.00  0.00    -0.000 C 
BRANCH  24  25
ATOM     25  C   UNL     1      -6.682   4.653   8.107  1.00  0.00    -0.003 C 
ATOM     26  C   UNL     1      -6.734   5.974   7.343  1.00  0.00     0.004 C 
ENDBRANCH  24  25
ENDBRANCH  23  24
ENDBRANCH  22  23
ENDBRANCH  21  22
ENDBRANCH  20  21
ENDBRANCH  19  20
ENDBRANCH  18  19
ENDBRANCH  17  18
ENDBRANCH  16  17
ENDBRANCH  15  16
ENDBRANCH   1  15
TORSDOF 22
ENDMDL
MODEL 5
REMARK VINA RESULT:    -4.048      1.404      2.602
REMARK INTER + INTRA:         -12.671
REMARK INTER:                 -10.326
REMARK INTRA:                  -2.344
REMARK UNBOUND:                -3.416
REMARK SMILES CCCCCCCCCCCCCCCCCCCCCCCC(=O)[O-]
REMARK SMILES IDX 13 1 14 2 15 3 16 4 17 5 18 6 19 7 20 8 21 9 22 10 23 11
REMARK SMILES IDX 24 12 25 13 26 14 12 15 11 16 10 17 9 18 8 19 7 20 6 21 5 22
REMARK SMILES IDX 4 23 3 24 2 25 1 26
REMARK H PARENT
REMARK Flexibility Score: inf
ROOT
ATOM      1  C   UNL     1       2.619  -2.371   5.202  1.00  0.00     0.000 C 
ENDROOT
BRANCH   1   2
ATOM      2  C   UNL     1       3.348  -2.625   6.528  1.00  0.00     0.000 C 
BRANCH   2   3
ATOM      3  C   UNL     1       4.459  -1.587   6.747  1.00  0.00     0.000 C 
BRANCH   3   4
ATOM      4  C   UNL     1       4.276  -0.773   8.038  1.00  0.00     0.000 C 
BRANCH   4   5
ATOM      5  C   UNL     1       2.865  -0.911   8.635  1.00  0.00     0.000 C 
BRANCH   5   6
ATOM      6  C   UNL     1       2.183   0.449   8.854  1.00  0.00     0.000 C 
BRANCH   6   7
ATOM      7  C   UNL     1       1.536   1.020   7.572  1.00  0.00     0.000 C 
BRANCH   7   8
ATOM      8  C   UNL     1       1.853   2.514   7.376  1.00  0.00     0.000 C 
BRANCH   8   9
ATOM      9  C   UNL     1       0.746   3.421   7.940  1.00  0.00     0.000 C 
BRANCH   9  10
ATOM     10  C   UNL     1       0.366   4.549   6.965  1.00  0.00     0.006 C 
BRANCH  10  11
ATOM     11  C   UNL     1       1.363   4.671   5.804  1.00  0.00     0.053 C 
BRANCH  11  12
ATOM     12  C   UNL     1       0.695   5.145   4.550  1.00  0.00     0.041 C 
ATOM     13  O   UNL     1      -0.520   5.475   4.565  1.00  0.00    -0.550 OA
ATOM     14  O   UNL     1       1.426   5.258   3.373  1.00  0.00    -0.550 OA
ENDBRANCH  11  12
ENDBRANCH  10  11
ENDBRANCH   9  10
ENDBRANCH   8   9
ENDBRANCH   7   8
ENDBRANCH   6   7
ENDBRANCH   5   6
ENDBRANCH   4   5
ENDBRANCH   3   4
ENDBRANCH   2   3
ENDBRANCH   1   2
BRANCH   1  15
ATOM     15  C   UNL     1       1.206  -1.798   5.400  1.00  0.00     0.000 C 
BRANCH  15  16
ATOM     16  C   UNL     1       0.404  -2.558   6.467  1.00  0.00     0.000 C 
BRANCH  16  17
ATOM     17  C   UNL     1      -1.058  -2.734   6.040  1.00  0.00     0.000 C 
BRANCH  17  18
ATOM     18  C   UNL     1      -1.991  -2.711   7.257  1.00  0.00    -0.000 C 
BRANCH  18  19
ATOM     19  C   UNL     1      -3.396  -3.206   6.890  1.00  0.00    -0.000 C 
BRANCH  19  20
ATOM     20  C   UNL     1      -4.420  -2.065   6.989  1.00  0.00    -0.000 C 
BRANCH  20  21
ATOM     21  C   UNL     1      -5.197  -1.846   5.681  1.00  0.00    -0.000 C 
BRANCH  21  22
ATOM     22  C   UNL     1      -4.515  -0.825   4.754  1.00  0.00    -0.000 C 
BRANCH  22  23
ATOM     23  C   UNL     1      -3.408  -1.448   3.884  1.00  0.00    -0.000 C 
BRANCH  23  24
ATOM     24  C   UNL     1      -3.778  -2.783   3.212  1.00  0.00    -0.000 C 
BRANCH  24  25
ATOM     25  C   UNL     1      -2.550  -3.613   2.807  1.00  0.00    -0.003 C 
ATOM     26  C   UNL     1      -2.958  -4.839   1.995  1.00  0.00     0.004 C 
ENDBRANCH  24  25
ENDBRANCH  23  24
ENDBRANCH  22  23
ENDBRANCH  21  22
ENDBRANCH  20  21
ENDBRANCH  19  20
ENDBRANCH  18  19
ENDBRANCH  17  18
ENDBRANCH  16  17
ENDBRANCH  15  16
ENDBRANCH   1  15
TORSDOF 22
ENDMDL
MODEL 6
REMARK VINA RESULT:    -4.018      1.372      2.172
REMARK INTER + INTRA:         -12.601
REMARK INTER:                 -10.125
REMARK INTRA:                  -2.476
REMARK UNBOUND:                -3.416
REMARK SMILES CCCCCCCCCCCCCCCCCCCCCCCC(=O)[O-]
REMARK SMILES IDX 13 1 14 2 15 3 16 4 17 5 18 6 19 7 20 8 21 9 22 10 23 11
REMARK SMILES IDX 24 12 25 13 26 14 12 15 11 16 10 17 9 18 8 19 7 20 6 21 5 22
REMARK SMILES IDX 4 23 3 24 2 25 1 26
REMARK H PARENT
REMARK Flexibility Score: inf
ROOT
ATOM      1  C   UNL     1       4.137  -1.866   5.247  1.00  0.00     0.000 C 
ENDROOT
BRANCH   1   2
ATOM      2  C   UNL     1       4.840  -1.640   6.592  1.00  0.00     0.000 C 
BRANCH   2   3
ATOM      3  C   UNL     1       4.260  -2.565   7.673  1.00  0.00     0.000 C 
BRANCH   3   4
ATOM      4  C   UNL     1       3.772  -1.806   8.917  1.00  0.00     0.000 C 
BRANCH   4   5
ATOM      5  C   UNL     1       2.461  -1.041   8.672  1.00  0.00     0.000 C 
BRANCH   5   6
ATOM      6  C   UNL     1       2.701   0.402   8.200  1.00  0.00     0.000 C 
BRANCH   6   7
ATOM      7  C   UNL     1       1.520   0.981   7.387  1.00  0.00     0.000 C 
BRANCH   7   8
ATOM      8  C   UNL     1       1.731   2.463   7.030  1.00  0.00     0.000 C 
BRANCH   8   9
ATOM      9  C   UNL     1       1.030   3.405   8.024  1.00  0.00     0.000 C 
BRANCH   9  10
ATOM     10  C   UNL     1       0.207   4.492   7.311  1.00  0.00     0.006 C 
BRANCH  10  11
ATOM     11  C   UNL     1       0.961   5.104   6.122  1.00  0.00     0.053 C 
BRANCH  11  12
ATOM     12  C   UNL     1       0.053   5.341   4.955  1.00  0.00     0.041 C 
ATOM     13  O   UNL     1       0.387   4.958   3.804  1.00  0.00    -0.550 OA
ATOM     14  O   UNL     1      -1.181   5.952   5.147  1.00  0.00    -0.550 OA
ENDBRANCH  11  12
ENDBRANCH  10  11
ENDBRANCH   9  10
ENDBRANCH   8   9
ENDBRANCH   7   8
ENDBRANCH   6   7
ENDBRANCH   5   6
ENDBRANCH   4   5
ENDBRANCH   3   4
ENDBRANCH   2   3
ENDBRANCH   1   2
BRANCH   1  15
ATOM     15  C   UNL     1       2.926  -2.806   5.359  1.00  0.00     0.000 C 
BRANCH  15  16
ATOM     16  C   UNL     1       1.587  -2.060   5.257  1.00  0.00     0.000 C 
BRANCH  16  17
ATOM     17  C   UNL     1       0.601  -2.545   6.326  1.00  0.00     0.000 C 
BRANCH  17  18
ATOM     18  C   UNL     1      -0.829  -2.588   5.773  1.00  0.00    -0.000 C 
BRANCH  18  19
ATOM     19  C   UNL     1      -1.649  -3.703   6.434  1.00  0.00    -0.000 C 
BRANCH  19  20
ATOM     20  C   UNL     1      -2.585  -4.370   5.414  1.00  0.00    -0.000 C 
BRANCH  20  21
ATOM     21  C   UNL     1      -2.390  -3.834   3.987  1.00  0.00    -0.000 C 
BRANCH  21  22
ATOM     22  C   UNL     1      -3.590  -3.002   3.502  1.00  0.00    -0.000 C 
BRANCH  22  23
ATOM     23  C   UNL     1      -3.366  -1.485   3.644  1.00  0.00    -0.000 C 
BRANCH  23  24
ATOM     24  C   UNL     1      -4.414  -0.745   4.494  1.00  0.00    -0.000 C 
BRANCH  24  25
ATOM     25  C   UNL     1      -5.251  -1.688   5.372  1.00  0.00    -0.003 C 
ATOM     26  C   UNL     1      -4.772  -1.663   6.820  1.00  0.00     0.004 C 
ENDBRANCH  24  25
ENDBRANCH  23  24
ENDBRANCH  22  23
ENDBRANCH  21  22
ENDBRANCH  20  21
ENDBRANCH  19  20
ENDBRANCH  18  19
ENDBRANCH  17  18
ENDBRANCH  16  17
ENDBRANCH  15  16
ENDBRANCH   1  15
TORSDOF 22
ENDMDL
MODEL 7
REMARK VINA RESULT:    -3.984      2.016      3.976
REMARK INTER + INTRA:         -12.524
REMARK INTER:                 -10.740
REMARK INTRA:                  -1.784
REMARK UNBOUND:                -3.416
REMARK SMILES CCCCCCCCCCCCCCCCCCCCCCCC(=O)[O-]
REMARK SMILES IDX 13 1 14 2 15 3 16 4 17 5 18 6 19 7 20 8 21 9 22 10 23 11
REMARK SMILES IDX 24 12 25 13 26 14 12 15 11 16 10 17 9 18 8 19 7 20 6 21 5 22
REMARK SMILES IDX 4 23 3 24 2 25 1 26
REMARK H PARENT
REMARK Flexibility Score: inf
ROOT
ATOM      1  C   UNL     1       1.856   0.493   6.504  1.00  0.00     0.000 C 
ENDROOT
BRANCH   1   2
ATOM      2  C   UNL     1       1.429   0.899   7.922  1.00  0.00     0.000 C 
BRANCH   2   3
ATOM      3  C   UNL     1       1.429   2.427   8.075  1.00  0.00     0.000 C 
BRANCH   3   4
ATOM      4  C   UNL     1       0.324   2.938   9.013  1.00  0.00     0.000 C 
BRANCH   4   5
ATOM      5  C   UNL     1      -0.096   4.386   8.706  1.00  0.00     0.000 C 
BRANCH   5   6
ATOM      6  C   UNL     1       0.600   4.949   7.457  1.00  0.00     0.000 C 
BRANCH   6   7
ATOM      7  C   UNL     1      -0.178   6.112   6.800  1.00  0.00     0.000 C 
BRANCH   7   8
ATOM      8  C   UNL     1      -0.656   5.761   5.379  1.00  0.00     0.000 C 
BRANCH   8   9
ATOM      9  C   UNL     1       0.377   4.920   4.610  1.00  0.00     0.000 C 
BRANCH   9  10
ATOM     10  C   UNL     1       1.541   5.774   4.078  1.00  0.00     0.006 C 
BRANCH  10  11
ATOM     11  C   UNL     1       2.764   4.922   3.709  1.00  0.00     0.053 C 
BRANCH  11  12
ATOM     12  C   UNL     1       3.119   5.065   2.261  1.00  0.00     0.041 C 
ATOM     13  O   UNL     1       2.532   5.918   1.545  1.00  0.00    -0.550 OA
ATOM     14  O   UNL     1       4.128   4.282   1.713  1.00  0.00    -0.550 OA
ENDBRANCH  11  12
ENDBRANCH  10  11
ENDBRANCH   9  10
ENDBRANCH   8   9
ENDBRANCH   7   8
ENDBRANCH   6   7
ENDBRANCH   5   6
ENDBRANCH   4   5
ENDBRANCH   3   4
ENDBRANCH   2   3
ENDBRANCH   1   2
BRANCH   1  15
ATOM     15  C   UNL     1       2.509  -0.897   6.454  1.00  0.00     0.000 C 
BRANCH  15  16
ATOM     16  C   UNL     1       1.895  -1.800   5.373  1.00  0.00     0.000 C 
BRANCH  16  17
ATOM     17  C   UNL     1       0.390  -1.546   5.229  1.00  0.00     0.000 C 
BRANCH  17  18
ATOM     18  C   UNL     1      -0.402  -2.338   6.277  1.00  0.00    -0.000 C 
BRANCH  18  19
ATOM     19  C   UNL     1      -1.750  -2.808   5.717  1.00  0.00    -0.000 C 
BRANCH  19  20
ATOM     20  C   UNL     1      -1.681  -2.969   4.190  1.00  0.00    -0.000 C 
BRANCH  20  21
ATOM     21  C   UNL     1      -2.891  -2.354   3.470  1.00  0.00    -0.000 C 
BRANCH  21  22
ATOM     22  C   UNL     1      -3.608  -1.294   4.324  1.00  0.00    -0.000 C 
BRANCH  22  23
ATOM     23  C   UNL     1      -5.134  -1.494   4.374  1.00  0.00    -0.000 C 
BRANCH  23  24
ATOM     24  C   UNL     1      -5.755  -1.444   5.781  1.00  0.00    -0.000 C 
BRANCH  24  25
ATOM     25  C   UNL     1      -5.451  -0.136   6.527  1.00  0.00    -0.003 C 
ATOM     26  C   UNL     1      -6.703   0.421   7.197  1.00  0.00     0.004 C 
ENDBRANCH  24  25
ENDBRANCH  23  24
ENDBRANCH  22  23
ENDBRANCH  21  22
ENDBRANCH  20  21
ENDBRANCH  19  20
ENDBRANCH  18  19
ENDBRANCH  17  18
ENDBRANCH  16  17
ENDBRANCH  15  16
ENDBRANCH   1  15
TORSDOF 22
ENDMDL
MODEL 8
REMARK VINA RESULT:    -3.891      3.340      6.795
REMARK INTER + INTRA:         -12.311
REMARK INTER:                  -7.985
REMARK INTRA:                  -4.327
REMARK UNBOUND:                -3.416
REMARK SMILES CCCCCCCCCCCCCCCCCCCCCCCC(=O)[O-]
REMARK SMILES IDX 13 1 14 2 15 3 16 4 17 5 18 6 19 7 20 8 21 9 22 10 23 11
REMARK SMILES IDX 24 12 25 13 26 14 12 15 11 16 10 17 9 18 8 19 7 20 6 21 5 22
REMARK SMILES IDX 4 23 3 24 2 25 1 26
REMARK H PARENT
REMARK Flexibility Score: inf
ROOT
ATOM      1  C   UNL     1      -2.947  -4.556   7.348  1.00  0.00     0.000 C 
ENDROOT
BRANCH   1   2
ATOM      2  C   UNL     1      -4.324  -4.633   6.676  1.00  0.00     0.000 C 
BRANCH   2   3
ATOM      3  C   UNL     1      -4.237  -5.384   5.338  1.00  0.00     0.000 C 
BRANCH   3   4
ATOM      4  C   UNL     1      -2.847  -5.294   4.688  1.00  0.00     0.000 C 
BRANCH   4   5
ATOM      5  C   UNL     1      -2.912  -5.005   3.179  1.00  0.00     0.000 C 
BRANCH   5   6
ATOM      6  C   UNL     1      -2.433  -3.587   2.829  1.00  0.00     0.000 C 
BRANCH   6   7
ATOM      7  C   UNL     1      -1.858  -2.823   4.043  1.00  0.00     0.000 C 
BRANCH   7   8
ATOM      8  C   UNL     1      -2.626  -1.518   4.326  1.00  0.00     0.000 C 
BRANCH   8   9
ATOM      9  C   UNL     1      -3.999  -1.492   3.633  1.00  0.00     0.000 C 
BRANCH   9  10
ATOM     10  C   UNL     1      -5.158  -1.632   4.636  1.00  0.00     0.006 C 
BRANCH  10  11
ATOM     11  C   UNL     1      -4.864  -0.922   5.964  1.00  0.00     0.053 C 
BRANCH  11  12
ATOM     12  C   UNL     1      -6.124  -0.496   6.654  1.00  0.00     0.041 C 
ATOM     13  O   UNL     1      -7.013  -1.343   6.929  1.00  0.00    -0.550 OA
ATOM     14  O   UNL     1      -6.297   0.832   7.027  1.00  0.00    -0.550 OA
ENDBRANCH  11  12
ENDBRANCH  10  11
ENDBRANCH   9  10
ENDBRANCH   8   9
ENDBRANCH   7   8
ENDBRANCH   6   7
ENDBRANCH   5   6
ENDBRANCH   4   5
ENDBRANCH   3   4
ENDBRANCH   2   3
ENDBRANCH   1   2
BRANCH   1  15
ATOM     15  C   UNL     1      -2.594  -3.136   7.819  1.00  0.00     0.000 C 
BRANCH  15  16
ATOM     16  C   UNL     1      -1.124  -2.774   7.554  1.00  0.00     0.000 C 
BRANCH  16  17
ATOM     17  C   UNL     1      -0.323  -4.004   7.112  1.00  0.00     0.000 C 
BRANCH  17  18
ATOM     18  C   UNL     1       0.807  -4.307   8.105  1.00  0.00    -0.000 C 
BRANCH  18  19
ATOM     19  C   UNL     1       1.128  -3.085   8.973  1.00  0.00    -0.000 C 
BRANCH  19  20
ATOM     20  C   UNL     1       2.618  -3.057   9.347  1.00  0.00    -0.000 C 
BRANCH  20  21
ATOM     21  C   UNL     1       3.401  -1.967   8.597  1.00  0.00    -0.000 C 
BRANCH  21  22
ATOM     22  C   UNL     1       4.096  -2.506   7.334  1.00  0.00    -0.000 C 
BRANCH  22  23
ATOM     23  C   UNL     1       3.930  -1.579   6.116  1.00  0.00    -0.000 C 
BRANCH  23  24
ATOM     24  C   UNL     1       3.060  -2.143   4.978  1.00  0.00    -0.000 C 
BRANCH  24  25
ATOM     25  C   UNL     1       1.568  -1.814   5.143  1.00  0.00    -0.003 C 
ATOM     26  C   UNL     1       1.374  -0.471   5.842  1.00  0.00     0.004 C 
ENDBRANCH  24  25
ENDBRANCH  23  24
ENDBRANCH  22  23
ENDBRANCH  21  22
ENDBRANCH  20  21
ENDBRANCH  19  20
ENDBRANCH  18  19
ENDBRANCH  17  18
ENDBRANCH  16  17
ENDBRANCH  15  16
ENDBRANCH   1  15
TORSDOF 22
ENDMDL
MODEL 9
REMARK VINA RESULT:    -3.890      3.720      7.798
REMARK INTER + INTRA:         -12.310
REMARK INTER:                  -9.498
REMARK INTRA:                  -2.812
REMARK UNBOUND:                -3.416
REMARK SMILES CCCCCCCCCCCCCCCCCCCCCCCC(=O)[O-]
REMARK SMILES IDX 13 1 14 2 15 3 16 4 17 5 18 6 19 7 20 8 21 9 22 10 23 11
REMARK SMILES IDX 24 12 25 13 26 14 12 15 11 16 10 17 9 18 8 19 7 20 6 21 5 22
REMARK SMILES IDX 4 23 3 24 2 25 1 26
REMARK H PARENT
REMARK Flexibility Score: inf
ROOT
ATOM      1  C   UNL     1      -2.215  -3.993   7.055  1.00  0.00     0.000 C 
ENDROOT
BRANCH   1   2
ATOM      2  C   UNL     1      -2.794  -2.738   7.722  1.00  0.00     0.000 C 
BRANCH   2   3
ATOM      3  C   UNL     1      -4.295  -2.913   8.002  1.00  0.00     0.000 C 
BRANCH   3   4
ATOM      4  C   UNL     1      -5.174  -2.613   6.778  1.00  0.00     0.000 C 
BRANCH   4   5
ATOM      5  C   UNL     1      -5.505  -1.118   6.633  1.00  0.00     0.000 C 
BRANCH   5   6
ATOM      6  C   UNL     1      -4.820  -0.479   5.413  1.00  0.00     0.000 C 
BRANCH   6   7
ATOM      7  C   UNL     1      -4.436  -1.506   4.324  1.00  0.00     0.000 C 
BRANCH   7   8
ATOM      8  C   UNL     1      -2.936  -1.457   3.982  1.00  0.00     0.000 C 
BRANCH   8   9
ATOM      9  C   UNL     1      -2.443  -2.767   3.343  1.00  0.00     0.000 C 
BRANCH   9  10
ATOM     10  C   UNL     1      -3.472  -3.903   3.480  1.00  0.00     0.006 C 
BRANCH  10  11
ATOM     11  C   UNL     1      -3.078  -5.143   2.667  1.00  0.00     0.053 C 
BRANCH  11  12
ATOM     12  C   UNL     1      -3.401  -4.977   1.214  1.00  0.00     0.041 C 
ATOM     13  O   UNL     1      -4.594  -4.826   0.843  1.00  0.00    -0.550 OA
ATOM     14  O   UNL     1      -2.377  -4.951   0.274  1.00  0.00    -0.550 OA
ENDBRANCH  11  12
ENDBRANCH  10  11
ENDBRANCH   9  10
ENDBRANCH   8   9
ENDBRANCH   7   8
ENDBRANCH   6   7
ENDBRANCH   5   6
ENDBRANCH   4   5
ENDBRANCH   3   4
ENDBRANCH   2   3
ENDBRANCH   1   2
BRANCH   1  15
ATOM     15  C   UNL     1      -0.858  -3.735   6.380  1.00  0.00     0.000 C 
BRANCH  15  16
ATOM     16  C   UNL     1      -0.433  -2.261   6.451  1.00  0.00     0.000 C 
BRANCH  16  17
ATOM     17  C   UNL     1       0.743  -1.978   5.509  1.00  0.00     0.000 C 
BRANCH  17  18
ATOM     18  C   UNL     1       1.141  -0.497   5.558  1.00  0.00    -0.000 C 
BRANCH  18  19
ATOM     19  C   UNL     1       2.172  -0.234   6.663  1.00  0.00    -0.000 C 
BRANCH  19  20
ATOM     20  C   UNL     1       1.650   0.814   7.658  1.00  0.00    -0.000 C 
BRANCH  20  21
ATOM     21  C   UNL     1       1.808   2.254   7.145  1.00  0.00    -0.000 C 
BRANCH  21  22
ATOM     22  C   UNL     1       0.996   3.266   7.973  1.00  0.00    -0.000 C 
BRANCH  22  23
ATOM     23  C   UNL     1       0.389   4.393   7.117  1.00  0.00    -0.000 C 
BRANCH  23  24
ATOM     24  C   UNL     1       0.805   4.385   5.635  1.00  0.00    -0.000 C 
BRANCH  24  25
ATOM     25  C   UNL     1       0.474   5.699   4.911  1.00  0.00    -0.003 C 
ATOM     26  C   UNL     1      -0.996   6.069   5.084  1.00  0.00     0.004 C 
ENDBRANCH  24  25
ENDBRANCH  23  24
ENDBRANCH  22  23
ENDBRANCH  21  22
ENDBRANCH  20  21
ENDBRANCH  19  20
ENDBRANCH  18  19
ENDBRANCH  17  18
ENDBRANCH  16  17
ENDBRANCH  15  16
ENDBRANCH   1  15
TORSDOF 22
ENDMDL
