MODEL 1
REMARK VINA RESULT:    10.870      0.000      0.000
REMARK INTER + INTRA:          12.496
REMARK INTER:                  12.777
REMARK INTRA:                  -0.280
REMARK UNBOUND:                -0.280
REMARK SMILES O=c1cc(-c2ccc(O)c(O)c2)oc2cc(O)cc(O)c12
REMARK SMILES IDX 4 1 3 2 2 3 1 4 21 5 19 6 18 7 16 8 15 9 14 10 13 11 5 12
REMARK SMILES IDX 6 13 7 14 8 15 12 16 10 17 9 18 11 20 20 22 17 24
REMARK H PARENT 9 19 11 21 20 23 17 25
REMARK Flexibility Score: inf
ROOT
ATOM      1  C   UNL     1      27.071  65.466   5.040  1.00  0.00     0.138 A 
ATOM      2  C   UNL     1      26.059  64.505   4.916  1.00  0.00     0.100 A 
ATOM      3  C   UNL     1      26.395  63.174   4.668  1.00  0.00     0.197 A 
ATOM      4  O   UNL     1      25.461  62.346   4.508  1.00  0.00    -0.289 OA
ATOM      5  C   UNL     1      27.757  62.797   4.578  1.00  0.00     0.107 A 
ATOM      6  C   UNL     1      28.221  61.465   4.361  1.00  0.00     0.134 A 
ATOM      7  C   UNL     1      29.591  61.231   4.191  1.00  0.00     0.093 A 
ATOM      8  C   UNL     1      30.519  62.271   4.288  1.00  0.00     0.123 A 
ATOM      9  C   UNL     1      30.080  63.567   4.549  1.00  0.00     0.094 A 
ATOM     10  C   UNL     1      28.718  63.839   4.688  1.00  0.00     0.146 A 
ATOM     11  O   UNL     1      28.340  65.092   4.919  1.00  0.00    -0.456 OA
ENDROOT
BRANCH   1  12
ATOM     12  C   UNL     1      26.770  66.895   5.307  1.00  0.00     0.021 A 
ATOM     13  C   UNL     1      26.030  67.298   6.435  1.00  0.00     0.016 A 
ATOM     14  C   UNL     1      25.754  68.650   6.655  1.00  0.00     0.051 A 
ATOM     15  C   UNL     1      26.204  69.621   5.752  1.00  0.00     0.157 A 
ATOM     16  C   UNL     1      27.207  67.875   4.398  1.00  0.00     0.062 A 
ATOM     17  C   UNL     1      26.932  69.230   4.616  1.00  0.00     0.158 A 
BRANCH  15  18
ATOM     18  O   UNL     1      25.927  70.968   5.976  1.00  0.00    -0.504 OA
ATOM     19  H   UNL     1      26.654  71.674   5.932  1.00  0.00     0.293 HD
ENDBRANCH  15  18
BRANCH  17  20
ATOM     20  O   UNL     1      27.391  70.171   3.696  1.00  0.00    -0.504 OA
ATOM     21  H   UNL     1      28.374  70.272   3.474  1.00  0.00     0.293 HD
ENDBRANCH  17  20
ENDBRANCH   1  12
BRANCH   6  22
ATOM     22  O   UNL     1      27.390  60.342   4.327  1.00  0.00    -0.507 OA
ATOM     23  H   UNL     1      26.462  60.318   3.935  1.00  0.00     0.293 HD
ENDBRANCH   6  22
BRANCH   8  24
ATOM     24  O   UNL     1      31.881  62.026   4.133  1.00  0.00    -0.508 OA
ATOM     25  H   UNL     1      32.563  62.387   4.790  1.00  0.00     0.293 HD
ENDBRANCH   8  24
TORSDOF 5
ENDMDL
MODEL 2
REMARK VINA RESULT:    11.148      3.378      9.160
REMARK INTER + INTRA:          12.823
REMARK INTER:                  13.099
REMARK INTRA:                  -0.277
REMARK UNBOUND:                -0.280
REMARK SMILES O=c1cc(-c2ccc(O)c(O)c2)oc2cc(O)cc(O)c12
REMARK SMILES IDX 4 1 3 2 2 3 1 4 21 5 19 6 18 7 16 8 15 9 14 10 13 11 5 12
REMARK SMILES IDX 6 13 7 14 8 15 12 16 10 17 9 18 11 20 20 22 17 24
REMARK H PARENT 9 19 11 21 20 23 17 25
REMARK Flexibility Score: inf
ROOT
ATOM      1  C   UNL     1      29.129  59.479   4.148  1.00  0.00     0.138 A 
ATOM      2  C   UNL     1      30.092  60.485   3.995  1.00  0.00     0.100 A 
ATOM      3  C   UNL     1      29.717  61.825   4.109  1.00  0.00     0.197 A 
ATOM      4  O   UNL     1      30.594  62.705   3.912  1.00  0.00    -0.289 OA
ATOM      5  C   UNL     1      28.374  62.156   4.412  1.00  0.00     0.107 A 
ATOM      6  C   UNL     1      27.882  63.485   4.585  1.00  0.00     0.134 A 
ATOM      7  C   UNL     1      26.512  63.692   4.786  1.00  0.00     0.093 A 
ATOM      8  C   UNL     1      25.625  62.617   4.877  1.00  0.00     0.123 A 
ATOM      9  C   UNL     1      26.103  61.314   4.760  1.00  0.00     0.094 A 
ATOM     10  C   UNL     1      27.458  61.076   4.524  1.00  0.00     0.146 A 
ATOM     11  O   UNL     1      27.869  59.818   4.400  1.00  0.00    -0.456 OA
ENDROOT
BRANCH   1  12
ATOM     12  C   UNL     1      29.473  58.039   4.041  1.00  0.00     0.021 A 
ATOM     13  C   UNL     1      30.396  57.431   4.913  1.00  0.00     0.016 A 
ATOM     14  C   UNL     1      30.707  56.075   4.782  1.00  0.00     0.051 A 
ATOM     15  C   UNL     1      30.111  55.305   3.775  1.00  0.00     0.157 A 
ATOM     16  C   UNL     1      28.889  57.262   3.024  1.00  0.00     0.062 A 
ATOM     17  C   UNL     1      29.199  55.904   2.891  1.00  0.00     0.158 A 
BRANCH  15  18
ATOM     18  O   UNL     1      30.424  53.953   3.649  1.00  0.00    -0.504 OA
ATOM     19  H   UNL     1      29.772  53.293   3.239  1.00  0.00     0.293 HD
ENDBRANCH  15  18
BRANCH  17  20
ATOM     20  O   UNL     1      28.590  55.167   1.876  1.00  0.00    -0.504 OA
ATOM     21  H   UNL     1      27.728  54.656   2.024  1.00  0.00     0.293 HD
ENDBRANCH  17  20
ENDBRANCH   1  12
BRANCH   6  22
ATOM     22  O   UNL     1      28.691  64.625   4.593  1.00  0.00    -0.507 OA
ATOM     23  H   UNL     1      28.746  65.292   5.346  1.00  0.00     0.293 HD
ENDBRANCH   6  22
BRANCH   8  24
ATOM     24  O   UNL     1      24.266  62.833   5.091  1.00  0.00    -0.508 OA
ATOM     25  H   UNL     1      23.623  62.063   5.239  1.00  0.00     0.293 HD
ENDBRANCH   8  24
TORSDOF 5
ENDMDL
MODEL 3
REMARK VINA RESULT:    11.850      1.374      7.033
REMARK INTER + INTRA:          13.648
REMARK INTER:                  13.921
REMARK INTRA:                  -0.274
REMARK UNBOUND:                -0.280
REMARK SMILES O=c1cc(-c2ccc(O)c(O)c2)oc2cc(O)cc(O)c12
REMARK SMILES IDX 4 1 3 2 2 3 1 4 21 5 19 6 18 7 16 8 15 9 14 10 13 11 5 12
REMARK SMILES IDX 6 13 7 14 8 15 12 16 10 17 9 18 11 20 20 22 17 24
REMARK H PARENT 9 19 11 21 20 23 17 25
REMARK Flexibility Score: inf
ROOT
ATOM      1  C   UNL     1      27.101  66.013   5.270  1.00  0.00     0.138 A 
ATOM      2  C   UNL     1      26.290  66.311   6.373  1.00  0.00     0.100 A 
ATOM      3  C   UNL     1      25.990  67.641   6.672  1.00  0.00     0.197 A 
ATOM      4  O   UNL     1      25.306  67.878   7.700  1.00  0.00    -0.289 OA
ATOM      5  C   UNL     1      26.477  68.677   5.838  1.00  0.00     0.107 A 
ATOM      6  C   UNL     1      26.209  70.067   6.024  1.00  0.00     0.134 A 
ATOM      7  C   UNL     1      26.828  71.006   5.190  1.00  0.00     0.093 A 
ATOM      8  C   UNL     1      27.660  70.604   4.142  1.00  0.00     0.123 A 
ATOM      9  C   UNL     1      27.888  69.247   3.921  1.00  0.00     0.094 A 
ATOM     10  C   UNL     1      27.314  68.288   4.757  1.00  0.00     0.146 A 
ATOM     11  O   UNL     1      27.572  67.005   4.522  1.00  0.00    -0.456 OA
ENDROOT
BRANCH   1  12
ATOM     12  C   UNL     1      27.449  64.617   4.905  1.00  0.00     0.021 A 
ATOM     13  C   UNL     1      26.476  63.705   4.452  1.00  0.00     0.016 A 
ATOM     14  C   UNL     1      26.833  62.395   4.124  1.00  0.00     0.051 A 
ATOM     15  C   UNL     1      28.161  61.968   4.251  1.00  0.00     0.157 A 
ATOM     16  C   UNL     1      28.778  64.177   5.043  1.00  0.00     0.062 A 
ATOM     17  C   UNL     1      29.137  62.865   4.716  1.00  0.00     0.158 A 
BRANCH  15  18
ATOM     18  O   UNL     1      28.511  60.660   3.923  1.00  0.00    -0.504 OA
ATOM     19  H   UNL     1      27.932  59.872   4.191  1.00  0.00     0.293 HD
ENDBRANCH  15  18
BRANCH  17  20
ATOM     20  O   UNL     1      30.467  62.471   4.857  1.00  0.00    -0.504 OA
ATOM     21  H   UNL     1      30.786  61.927   5.650  1.00  0.00     0.293 HD
ENDBRANCH  17  20
ENDBRANCH   1  12
BRANCH   6  22
ATOM     22  O   UNL     1      25.332  70.573   6.987  1.00  0.00    -0.507 OA
ATOM     23  H   UNL     1      25.430  71.463   7.449  1.00  0.00     0.293 HD
ENDBRANCH   6  22
BRANCH   8  24
ATOM     24  O   UNL     1      28.260  71.545   3.309  1.00  0.00    -0.508 OA
ATOM     25  H   UNL     1      28.625  71.291   2.398  1.00  0.00     0.293 HD
ENDBRANCH   8  24
TORSDOF 5
ENDMDL
MODEL 4
REMARK VINA RESULT:    11.884      1.141      2.638
REMARK INTER + INTRA:          13.687
REMARK INTER:                  13.967
REMARK INTRA:                  -0.279
REMARK UNBOUND:                -0.280
REMARK SMILES O=c1cc(-c2ccc(O)c(O)c2)oc2cc(O)cc(O)c12
REMARK SMILES IDX 4 1 3 2 2 3 1 4 21 5 19 6 18 7 16 8 15 9 14 10 13 11 5 12
REMARK SMILES IDX 6 13 7 14 8 15 12 16 10 17 9 18 11 20 20 22 17 24
REMARK H PARENT 9 19 11 21 20 23 17 25
REMARK Flexibility Score: inf
ROOT
ATOM      1  C   UNL     1      27.644  65.570   5.118  1.00  0.00     0.138 A 
ATOM      2  C   UNL     1      28.983  65.360   4.763  1.00  0.00     0.100 A 
ATOM      3  C   UNL     1      29.436  64.065   4.508  1.00  0.00     0.197 A 
ATOM      4  O   UNL     1      30.656  63.905   4.246  1.00  0.00    -0.289 OA
ATOM      5  C   UNL     1      28.533  62.978   4.575  1.00  0.00     0.107 A 
ATOM      6  C   UNL     1      28.873  61.618   4.302  1.00  0.00     0.134 A 
ATOM      7  C   UNL     1      27.916  60.615   4.497  1.00  0.00     0.093 A 
ATOM      8  C   UNL     1      26.615  60.928   4.899  1.00  0.00     0.123 A 
ATOM      9  C   UNL     1      26.259  62.256   5.119  1.00  0.00     0.094 A 
ATOM     10  C   UNL     1      27.200  63.276   4.968  1.00  0.00     0.146 A 
ATOM     11  O   UNL     1      26.824  64.528   5.205  1.00  0.00    -0.456 OA
ENDROOT
BRANCH   1  12
ATOM     12  C   UNL     1      27.107  66.926   5.397  1.00  0.00     0.021 A 
ATOM     13  C   UNL     1      26.175  67.156   6.428  1.00  0.00     0.016 A 
ATOM     14  C   UNL     1      25.682  68.442   6.661  1.00  0.00     0.051 A 
ATOM     15  C   UNL     1      26.100  69.517   5.868  1.00  0.00     0.157 A 
ATOM     16  C   UNL     1      27.513  68.008   4.597  1.00  0.00     0.062 A 
ATOM     17  C   UNL     1      27.019  69.297   4.828  1.00  0.00     0.158 A 
BRANCH  15  18
ATOM     18  O   UNL     1      25.605  70.798   6.105  1.00  0.00    -0.504 OA
ATOM     19  H   UNL     1      24.737  71.117   5.691  1.00  0.00     0.293 HD
ENDBRANCH  15  18
BRANCH  17  20
ATOM     20  O   UNL     1      27.454  70.345   4.018  1.00  0.00    -0.504 OA
ATOM     21  H   UNL     1      27.148  71.300   4.162  1.00  0.00     0.293 HD
ENDBRANCH  17  20
ENDBRANCH   1  12
BRANCH   6  22
ATOM     22  O   UNL     1      30.117  61.204   3.820  1.00  0.00    -0.507 OA
ATOM     23  H   UNL     1      31.001  61.629   4.053  1.00  0.00     0.293 HD
ENDBRANCH   6  22
BRANCH   8  24
ATOM     24  O   UNL     1      25.665  59.924   5.076  1.00  0.00    -0.508 OA
ATOM     25  H   UNL     1      25.930  58.947   5.131  1.00  0.00     0.293 HD
ENDBRANCH   8  24
TORSDOF 5
ENDMDL
MODEL 5
REMARK VINA RESULT:    12.288      3.463      8.768
REMARK INTER + INTRA:          14.163
REMARK INTER:                  14.440
REMARK INTRA:                  -0.278
REMARK UNBOUND:                -0.280
REMARK SMILES O=c1cc(-c2ccc(O)c(O)c2)oc2cc(O)cc(O)c12
REMARK SMILES IDX 4 1 3 2 2 3 1 4 21 5 19 6 18 7 16 8 15 9 14 10 13 11 5 12
REMARK SMILES IDX 6 13 7 14 8 15 12 16 10 17 9 18 11 20 20 22 17 24
REMARK H PARENT 9 19 11 21 20 23 17 25
REMARK Flexibility Score: inf
ROOT
ATOM      1  C   UNL     1      28.594  59.321   4.343  1.00  0.00     0.138 A 
ATOM      2  C   UNL     1      27.210  59.537   4.311  1.00  0.00     0.100 A 
ATOM      3  C   UNL     1      26.710  60.834   4.442  1.00  0.00     0.197 A 
ATOM      4  O   UNL     1      25.462  60.988   4.465  1.00  0.00    -0.289 OA
ATOM      5  C   UNL     1      27.605  61.924   4.570  1.00  0.00     0.107 A 
ATOM      6  C   UNL     1      27.212  63.292   4.676  1.00  0.00     0.134 A 
ATOM      7  C   UNL     1      28.185  64.273   4.897  1.00  0.00     0.093 A 
ATOM      8  C   UNL     1      29.542  63.944   4.959  1.00  0.00     0.123 A 
ATOM      9  C   UNL     1      29.939  62.618   4.806  1.00  0.00     0.094 A 
ATOM     10  C   UNL     1      28.990  61.612   4.619  1.00  0.00     0.146 A 
ATOM     11  O   UNL     1      29.411  60.357   4.496  1.00  0.00    -0.456 OA
ENDROOT
BRANCH   1  12
ATOM     12  C   UNL     1      29.180  57.963   4.206  1.00  0.00     0.021 A 
ATOM     13  C   UNL     1      30.269  57.544   4.995  1.00  0.00     0.016 A 
ATOM     14  C   UNL     1      30.805  56.263   4.837  1.00  0.00     0.051 A 
ATOM     15  C   UNL     1      30.272  55.384   3.886  1.00  0.00     0.157 A 
ATOM     16  C   UNL     1      28.659  57.079   3.245  1.00  0.00     0.062 A 
ATOM     17  C   UNL     1      29.195  55.796   3.085  1.00  0.00     0.158 A 
BRANCH  15  18
ATOM     18  O   UNL     1      30.810  54.107   3.733  1.00  0.00    -0.504 OA
ATOM     19  H   UNL     1      31.663  53.950   3.208  1.00  0.00     0.293 HD
ENDBRANCH  15  18
BRANCH  17  20
ATOM     20  O   UNL     1      28.644  54.947   2.126  1.00  0.00    -0.504 OA
ATOM     21  H   UNL     1      28.694  53.938   2.208  1.00  0.00     0.293 HD
ENDBRANCH  17  20
ENDBRANCH   1  12
BRANCH   6  22
ATOM     22  O   UNL     1      25.894  63.741   4.549  1.00  0.00    -0.507 OA
ATOM     23  H   UNL     1      25.114  63.174   4.257  1.00  0.00     0.293 HD
ENDBRANCH   6  22
BRANCH   8  24
ATOM     24  O   UNL     1      30.504  64.930   5.164  1.00  0.00    -0.508 OA
ATOM     25  H   UNL     1      31.165  65.186   4.439  1.00  0.00     0.293 HD
ENDBRANCH   8  24
TORSDOF 5
ENDMDL
MODEL 6
REMARK VINA RESULT:    13.801      4.471      7.608
REMARK INTER + INTRA:          15.941
REMARK INTER:                  16.213
REMARK INTRA:                  -0.272
REMARK UNBOUND:                -0.280
REMARK SMILES O=c1cc(-c2ccc(O)c(O)c2)oc2cc(O)cc(O)c12
REMARK SMILES IDX 4 1 3 2 2 3 1 4 21 5 19 6 18 7 16 8 15 9 14 10 13 11 5 12
REMARK SMILES IDX 6 13 7 14 8 15 12 16 10 17 9 18 11 20 20 22 17 24
REMARK H PARENT 9 19 11 21 20 23 17 25
REMARK Flexibility Score: inf
ROOT
ATOM      1  C   UNL     1      29.052  58.817   4.203  1.00  0.00     0.138 A 
ATOM      2  C   UNL     1      30.172  58.431   4.952  1.00  0.00     0.100 A 
ATOM      3  C   UNL     1      30.584  57.097   4.942  1.00  0.00     0.197 A 
ATOM      4  O   UNL     1      31.559  56.773   5.668  1.00  0.00    -0.289 OA
ATOM      5  C   UNL     1      29.890  56.152   4.149  1.00  0.00     0.107 A 
ATOM      6  C   UNL     1      30.239  54.772   4.034  1.00  0.00     0.134 A 
ATOM      7  C   UNL     1      29.417  53.913   3.295  1.00  0.00     0.093 A 
ATOM      8  C   UNL     1      28.292  54.393   2.621  1.00  0.00     0.123 A 
ATOM      9  C   UNL     1      27.971  55.746   2.685  1.00  0.00     0.094 A 
ATOM     10  C   UNL     1      28.751  56.623   3.443  1.00  0.00     0.146 A 
ATOM     11  O   UNL     1      28.399  57.904   3.493  1.00  0.00    -0.456 OA
ENDROOT
BRANCH   1  12
ATOM     12  C   UNL     1      28.572  60.221   4.175  1.00  0.00     0.021 A 
ATOM     13  C   UNL     1      29.344  61.256   3.612  1.00  0.00     0.016 A 
ATOM     14  C   UNL     1      28.869  62.570   3.608  1.00  0.00     0.051 A 
ATOM     15  C   UNL     1      27.624  62.877   4.172  1.00  0.00     0.157 A 
ATOM     16  C   UNL     1      27.329  60.539   4.751  1.00  0.00     0.062 A 
ATOM     17  C   UNL     1      26.852  61.854   4.748  1.00  0.00     0.158 A 
BRANCH  15  18
ATOM     18  O   UNL     1      27.155  64.189   4.165  1.00  0.00    -0.504 OA
ATOM     19  H   UNL     1      27.638  64.923   3.659  1.00  0.00     0.293 HD
ENDBRANCH  15  18
BRANCH  17  20
ATOM     20  O   UNL     1      25.610  62.126   5.320  1.00  0.00    -0.504 OA
ATOM     21  H   UNL     1      25.509  62.734   6.125  1.00  0.00     0.293 HD
ENDBRANCH  17  20
ENDBRANCH   1  12
BRANCH   6  22
ATOM     22  O   UNL     1      31.383  54.204   4.600  1.00  0.00    -0.507 OA
ATOM     23  H   UNL     1      31.781  54.463   5.489  1.00  0.00     0.293 HD
ENDBRANCH   6  22
BRANCH   8  24
ATOM     24  O   UNL     1      27.488  53.532   1.876  1.00  0.00    -0.508 OA
ATOM     25  H   UNL     1      27.395  52.551   2.117  1.00  0.00     0.293 HD
ENDBRANCH   8  24
TORSDOF 5
ENDMDL
