MODEL 1
REMARK VINA RESULT:    -6.957      0.000      0.000
REMARK INTER + INTRA:          -8.441
REMARK INTER:                  -8.177
REMARK INTRA:                  -0.264
REMARK UNBOUND:                -0.264
REMARK SMILES O=c1cc(-c2ccc(O)c(O)c2)oc2cc(O)cc(O)c12
REMARK SMILES IDX 4 1 3 2 2 3 1 4 21 5 19 6 18 7 16 8 15 9 14 10 13 11 5 12
REMARK SMILES IDX 6 13 7 14 8 15 12 16 10 17 9 18 11 20 20 22 17 24
REMARK H PARENT 9 19 11 21 20 23 17 25
REMARK Flexibility Score: inf
ROOT
ATOM      1  C   UNL     1      54.152  11.307  90.267  1.00  0.00     0.138 A 
ATOM      2  C   UNL     1      54.948  12.377  90.698  1.00  0.00     0.100 A 
ATOM      3  C   UNL     1      54.984  13.555  89.949  1.00  0.00     0.197 A 
ATOM      4  O   UNL     1      55.757  14.474  90.328  1.00  0.00    -0.289 OA
ATOM      5  C   UNL     1      54.194  13.670  88.781  1.00  0.00     0.107 A 
ATOM      6  C   UNL     1      54.122  14.837  87.962  1.00  0.00     0.134 A 
ATOM      7  C   UNL     1      53.396  14.795  86.765  1.00  0.00     0.093 A 
ATOM      8  C   UNL     1      52.693  13.652  86.388  1.00  0.00     0.123 A 
ATOM      9  C   UNL     1      52.713  12.523  87.208  1.00  0.00     0.094 A 
ATOM     10  C   UNL     1      53.457  12.521  88.391  1.00  0.00     0.146 A 
ATOM     11  O   UNL     1      53.462  11.422  89.137  1.00  0.00    -0.456 OA
ENDROOT
BRANCH   1  12
ATOM     12  C   UNL     1      54.074  10.033  91.025  1.00  0.00     0.021 A 
ATOM     13  C   UNL     1      54.988   9.003  90.742  1.00  0.00     0.016 A 
ATOM     14  C   UNL     1      54.932   7.792  91.437  1.00  0.00     0.051 A 
ATOM     15  C   UNL     1      53.958   7.583  92.417  1.00  0.00     0.157 A 
ATOM     16  C   UNL     1      53.087   9.812  92.005  1.00  0.00     0.062 A 
ATOM     17  C   UNL     1      53.028   8.596  92.701  1.00  0.00     0.158 A 
BRANCH  15  18
ATOM     18  O   UNL     1      53.928   6.365  93.094  1.00  0.00    -0.504 OA
ATOM     19  H   UNL     1      54.144   5.488  92.634  1.00  0.00     0.293 HD
ENDBRANCH  15  18
BRANCH  17  20
ATOM     20  O   UNL     1      52.047   8.390  93.670  1.00  0.00    -0.504 OA
ATOM     21  H   UNL     1      51.518   7.527  93.716  1.00  0.00     0.293 HD
ENDBRANCH  17  20
ENDBRANCH   1  12
BRANCH   6  22
ATOM     22  O   UNL     1      54.716  16.059  88.288  1.00  0.00    -0.507 OA
ATOM     23  H   UNL     1      54.336  16.730  88.937  1.00  0.00     0.293 HD
ENDBRANCH   6  22
BRANCH   8  24
ATOM     24  O   UNL     1      51.968  13.652  85.197  1.00  0.00    -0.508 OA
ATOM     25  H   UNL     1      51.932  14.468  84.599  1.00  0.00     0.293 HD
ENDBRANCH   8  24
TORSDOF 5
ENDMDL
MODEL 2
REMARK VINA RESULT:    -6.643      0.813      1.395
REMARK INTER + INTRA:          -8.072
REMARK INTER:                  -7.796
REMARK INTRA:                  -0.276
REMARK UNBOUND:                -0.264
REMARK SMILES O=c1cc(-c2ccc(O)c(O)c2)oc2cc(O)cc(O)c12
REMARK SMILES IDX 4 1 3 2 2 3 1 4 21 5 19 6 18 7 16 8 15 9 14 10 13 11 5 12
REMARK SMILES IDX 6 13 7 14 8 15 12 16 10 17 9 18 11 20 20 22 17 24
REMARK H PARENT 9 19 11 21 20 23 17 25
REMARK Flexibility Score: inf
ROOT
ATOM      1  C   UNL     1      53.861  11.158  90.008  1.00  0.00     0.138 A 
ATOM      2  C   UNL     1      54.685  12.179  90.501  1.00  0.00     0.100 A 
ATOM      3  C   UNL     1      54.791  13.380  89.798  1.00  0.00     0.197 A 
ATOM      4  O   UNL     1      55.588  14.253  90.233  1.00  0.00    -0.289 OA
ATOM      5  C   UNL     1      54.043  13.570  88.613  1.00  0.00     0.107 A 
ATOM      6  C   UNL     1      54.041  14.767  87.837  1.00  0.00     0.134 A 
ATOM      7  C   UNL     1      53.351  14.799  86.618  1.00  0.00     0.093 A 
ATOM      8  C   UNL     1      52.615  13.700  86.178  1.00  0.00     0.123 A 
ATOM      9  C   UNL     1      52.566  12.542  86.956  1.00  0.00     0.094 A 
ATOM     10  C   UNL     1      53.272  12.467  88.159  1.00  0.00     0.146 A 
ATOM     11  O   UNL     1      53.211  11.342  88.863  1.00  0.00    -0.456 OA
ENDROOT
BRANCH   1  12
ATOM     12  C   UNL     1      53.710   9.861  90.715  1.00  0.00     0.021 A 
ATOM     13  C   UNL     1      52.426   9.321  90.903  1.00  0.00     0.016 A 
ATOM     14  C   UNL     1      52.257   8.106  91.571  1.00  0.00     0.051 A 
ATOM     15  C   UNL     1      53.363   7.414  92.073  1.00  0.00     0.157 A 
ATOM     16  C   UNL     1      54.820   9.166  91.233  1.00  0.00     0.062 A 
ATOM     17  C   UNL     1      54.651   7.947  91.906  1.00  0.00     0.158 A 
BRANCH  15  18
ATOM     18  O   UNL     1      53.162   6.204  92.733  1.00  0.00    -0.504 OA
ATOM     19  H   UNL     1      53.478   5.321  92.347  1.00  0.00     0.293 HD
ENDBRANCH  15  18
BRANCH  17  20
ATOM     20  O   UNL     1      55.758   7.268  92.413  1.00  0.00    -0.504 OA
ATOM     21  H   UNL     1      56.420   6.802  91.804  1.00  0.00     0.293 HD
ENDBRANCH  17  20
ENDBRANCH   1  12
BRANCH   6  22
ATOM     22  O   UNL     1      54.674  15.952  88.225  1.00  0.00    -0.507 OA
ATOM     23  H   UNL     1      55.640  16.175  88.045  1.00  0.00     0.293 HD
ENDBRANCH   6  22
BRANCH   8  24
ATOM     24  O   UNL     1      51.928  13.772  84.967  1.00  0.00    -0.508 OA
ATOM     25  H   UNL     1      52.415  13.898  84.089  1.00  0.00     0.293 HD
ENDBRANCH   8  24
TORSDOF 5
ENDMDL
MODEL 3
REMARK VINA RESULT:    -6.603      2.031      7.270
REMARK INTER + INTRA:          -8.025
REMARK INTER:                  -7.711
REMARK INTRA:                  -0.314
REMARK UNBOUND:                -0.264
REMARK SMILES O=c1cc(-c2ccc(O)c(O)c2)oc2cc(O)cc(O)c12
REMARK SMILES IDX 4 1 3 2 2 3 1 4 21 5 19 6 18 7 16 8 15 9 14 10 13 11 5 12
REMARK SMILES IDX 6 13 7 14 8 15 12 16 10 17 9 18 11 20 20 22 17 24
REMARK H PARENT 9 19 11 21 20 23 17 25
REMARK Flexibility Score: inf
ROOT
ATOM      1  C   UNL     1      53.049  12.321  88.376  1.00  0.00     0.138 A 
ATOM      2  C   UNL     1      53.651  11.100  88.039  1.00  0.00     0.100 A 
ATOM      3  C   UNL     1      53.831  10.125  89.021  1.00  0.00     0.197 A 
ATOM      4  O   UNL     1      54.432   9.066  88.702  1.00  0.00    -0.289 OA
ATOM      5  C   UNL     1      53.376  10.363  90.340  1.00  0.00     0.107 A 
ATOM      6  C   UNL     1      53.470   9.426  91.412  1.00  0.00     0.134 A 
ATOM      7  C   UNL     1      53.092   9.815  92.703  1.00  0.00     0.093 A 
ATOM      8  C   UNL     1      52.568  11.083  92.949  1.00  0.00     0.123 A 
ATOM      9  C   UNL     1      52.421  11.989  91.898  1.00  0.00     0.094 A 
ATOM     10  C   UNL     1      52.823  11.643  90.605  1.00  0.00     0.146 A 
ATOM     11  O   UNL     1      52.680  12.539  89.634  1.00  0.00    -0.456 OA
ENDROOT
BRANCH   1  12
ATOM     12  C   UNL     1      52.832  13.392  87.371  1.00  0.00     0.021 A 
ATOM     13  C   UNL     1      52.897  13.080  86.002  1.00  0.00     0.016 A 
ATOM     14  C   UNL     1      52.703  14.070  85.037  1.00  0.00     0.051 A 
ATOM     15  C   UNL     1      52.452  15.391  85.420  1.00  0.00     0.157 A 
ATOM     16  C   UNL     1      52.591  14.726  87.752  1.00  0.00     0.062 A 
ATOM     17  C   UNL     1      52.398  15.723  86.783  1.00  0.00     0.158 A 
BRANCH  15  18
ATOM     18  O   UNL     1      52.260  16.358  84.434  1.00  0.00    -0.504 OA
ATOM     19  H   UNL     1      52.799  16.365  83.575  1.00  0.00     0.293 HD
ENDBRANCH  15  18
BRANCH  17  20
ATOM     20  O   UNL     1      52.159  17.040  87.172  1.00  0.00    -0.504 OA
ATOM     21  H   UNL     1      51.837  17.738  86.512  1.00  0.00     0.293 HD
ENDBRANCH  17  20
ENDBRANCH   1  12
BRANCH   6  22
ATOM     22  O   UNL     1      53.899   8.104  91.260  1.00  0.00    -0.507 OA
ATOM     23  H   UNL     1      53.396   7.293  91.585  1.00  0.00     0.293 HD
ENDBRANCH   6  22
BRANCH   8  24
ATOM     24  O   UNL     1      52.187  11.431  94.245  1.00  0.00    -0.508 OA
ATOM     25  H   UNL     1      51.464  10.922  94.739  1.00  0.00     0.293 HD
ENDBRANCH   8  24
TORSDOF 5
ENDMDL
MODEL 4
REMARK VINA RESULT:    -6.495      1.157      2.736
REMARK INTER + INTRA:          -7.897
REMARK INTER:                  -7.633
REMARK INTRA:                  -0.264
REMARK UNBOUND:                -0.264
REMARK SMILES O=c1cc(-c2ccc(O)c(O)c2)oc2cc(O)cc(O)c12
REMARK SMILES IDX 4 1 3 2 2 3 1 4 21 5 19 6 18 7 16 8 15 9 14 10 13 11 5 12
REMARK SMILES IDX 6 13 7 14 8 15 12 16 10 17 9 18 11 20 20 22 17 24
REMARK H PARENT 9 19 11 21 20 23 17 25
REMARK Flexibility Score: inf
ROOT
ATOM      1  C   UNL     1      53.328  10.828  89.241  1.00  0.00     0.138 A 
ATOM      2  C   UNL     1      52.542  10.517  88.122  1.00  0.00     0.100 A 
ATOM      3  C   UNL     1      52.271  11.505  87.174  1.00  0.00     0.197 A 
ATOM      4  O   UNL     1      51.511  11.212  86.214  1.00  0.00    -0.289 OA
ATOM      5  C   UNL     1      52.817  12.801  87.332  1.00  0.00     0.107 A 
ATOM      6  C   UNL     1      52.641  13.874  86.408  1.00  0.00     0.134 A 
ATOM      7  C   UNL     1      53.131  15.146  86.727  1.00  0.00     0.093 A 
ATOM      8  C   UNL     1      53.842  15.370  87.905  1.00  0.00     0.123 A 
ATOM      9  C   UNL     1      54.067  14.315  88.790  1.00  0.00     0.094 A 
ATOM     10  C   UNL     1      53.560  13.042  88.517  1.00  0.00     0.146 A 
ATOM     11  O   UNL     1      53.783  12.068  89.393  1.00  0.00    -0.456 OA
ENDROOT
BRANCH   1  12
ATOM     12  C   UNL     1      53.649   9.817  90.279  1.00  0.00     0.021 A 
ATOM     13  C   UNL     1      54.769   8.984  90.112  1.00  0.00     0.016 A 
ATOM     14  C   UNL     1      55.088   8.020  91.071  1.00  0.00     0.051 A 
ATOM     15  C   UNL     1      54.290   7.862  92.208  1.00  0.00     0.157 A 
ATOM     16  C   UNL     1      52.841   9.645  91.421  1.00  0.00     0.062 A 
ATOM     17  C   UNL     1      53.160   8.676  92.383  1.00  0.00     0.158 A 
BRANCH  15  18
ATOM     18  O   UNL     1      54.635   6.893  93.148  1.00  0.00    -0.504 OA
ATOM     19  H   UNL     1      55.050   6.007  92.881  1.00  0.00     0.293 HD
ENDBRANCH  15  18
BRANCH  17  20
ATOM     20  O   UNL     1      52.354   8.516  93.510  1.00  0.00    -0.504 OA
ATOM     21  H   UNL     1      52.749   8.333  94.424  1.00  0.00     0.293 HD
ENDBRANCH  17  20
ENDBRANCH   1  12
BRANCH   6  22
ATOM     22  O   UNL     1      52.020  13.740  85.163  1.00  0.00    -0.507 OA
ATOM     23  H   UNL     1      51.504  12.928  84.860  1.00  0.00     0.293 HD
ENDBRANCH   6  22
BRANCH   8  24
ATOM     24  O   UNL     1      54.330  16.646  88.183  1.00  0.00    -0.508 OA
ATOM     25  H   UNL     1      55.321  16.822  88.295  1.00  0.00     0.293 HD
ENDBRANCH   8  24
TORSDOF 5
ENDMDL
MODEL 5
REMARK VINA RESULT:    -6.471      1.804      7.306
REMARK INTER + INTRA:          -7.870
REMARK INTER:                  -7.606
REMARK INTRA:                  -0.264
REMARK UNBOUND:                -0.264
REMARK SMILES O=c1cc(-c2ccc(O)c(O)c2)oc2cc(O)cc(O)c12
REMARK SMILES IDX 4 1 3 2 2 3 1 4 21 5 19 6 18 7 16 8 15 9 14 10 13 11 5 12
REMARK SMILES IDX 6 13 7 14 8 15 12 16 10 17 9 18 11 20 20 22 17 24
REMARK H PARENT 9 19 11 21 20 23 17 25
REMARK Flexibility Score: inf
ROOT
ATOM      1  C   UNL     1      53.235  11.157  91.851  1.00  0.00     0.138 A 
ATOM      2  C   UNL     1      52.366  11.574  92.869  1.00  0.00     0.100 A 
ATOM      3  C   UNL     1      51.796  10.627  93.721  1.00  0.00     0.197 A 
ATOM      4  O   UNL     1      50.971  11.026  94.584  1.00  0.00    -0.289 OA
ATOM      5  C   UNL     1      52.123   9.259  93.572  1.00  0.00     0.107 A 
ATOM      6  C   UNL     1      51.634   8.211  94.408  1.00  0.00     0.134 A 
ATOM      7  C   UNL     1      51.935   6.880  94.093  1.00  0.00     0.093 A 
ATOM      8  C   UNL     1      52.754   6.563  93.011  1.00  0.00     0.123 A 
ATOM      9  C   UNL     1      53.282   7.583  92.218  1.00  0.00     0.094 A 
ATOM     10  C   UNL     1      52.972   8.919  92.485  1.00  0.00     0.146 A 
ATOM     11  O   UNL     1      53.483   9.860  91.698  1.00  0.00    -0.456 OA
ENDROOT
BRANCH   1  12
ATOM     12  C   UNL     1      53.870  12.121  90.918  1.00  0.00     0.021 A 
ATOM     13  C   UNL     1      54.967  12.884  91.353  1.00  0.00     0.016 A 
ATOM     14  C   UNL     1      55.578  13.803  90.496  1.00  0.00     0.051 A 
ATOM     15  C   UNL     1      55.099  13.984  89.196  1.00  0.00     0.157 A 
ATOM     16  C   UNL     1      53.383  12.316  89.610  1.00  0.00     0.062 A 
ATOM     17  C   UNL     1      53.995  13.240  88.750  1.00  0.00     0.158 A 
BRANCH  15  18
ATOM     18  O   UNL     1      55.731  14.907  88.364  1.00  0.00    -0.504 OA
ATOM     19  H   UNL     1      56.485  15.500  88.691  1.00  0.00     0.293 HD
ENDBRANCH  15  18
BRANCH  17  20
ATOM     20  O   UNL     1      53.505  13.424  87.458  1.00  0.00    -0.504 OA
ATOM     21  H   UNL     1      52.559  13.164  87.206  1.00  0.00     0.293 HD
ENDBRANCH  17  20
ENDBRANCH   1  12
BRANCH   6  22
ATOM     22  O   UNL     1      50.878   8.422  95.564  1.00  0.00    -0.507 OA
ATOM     23  H   UNL     1      50.226   7.760  95.956  1.00  0.00     0.293 HD
ENDBRANCH   6  22
BRANCH   8  24
ATOM     24  O   UNL     1      53.045   5.227  92.736  1.00  0.00    -0.508 OA
ATOM     25  H   UNL     1      53.840   4.761  93.156  1.00  0.00     0.293 HD
ENDBRANCH   8  24
TORSDOF 5
ENDMDL
MODEL 6
REMARK VINA RESULT:    -6.213      1.563      2.374
REMARK INTER + INTRA:          -7.566
REMARK INTER:                  -7.303
REMARK INTRA:                  -0.263
REMARK UNBOUND:                -0.264
REMARK SMILES O=c1cc(-c2ccc(O)c(O)c2)oc2cc(O)cc(O)c12
REMARK SMILES IDX 4 1 3 2 2 3 1 4 21 5 19 6 18 7 16 8 15 9 14 10 13 11 5 12
REMARK SMILES IDX 6 13 7 14 8 15 12 16 10 17 9 18 11 20 20 22 17 24
REMARK H PARENT 9 19 11 21 20 23 17 25
REMARK Flexibility Score: inf
ROOT
ATOM      1  C   UNL     1      53.007  10.423  91.389  1.00  0.00     0.138 A 
ATOM      2  C   UNL     1      54.229  11.099  91.503  1.00  0.00     0.100 A 
ATOM      3  C   UNL     1      54.589  12.042  90.539  1.00  0.00     0.197 A 
ATOM      4  O   UNL     1      55.720  12.587  90.635  1.00  0.00    -0.289 OA
ATOM      5  C   UNL     1      53.705  12.330  89.472  1.00  0.00     0.107 A 
ATOM      6  C   UNL     1      53.949  13.300  88.454  1.00  0.00     0.134 A 
ATOM      7  C   UNL     1      53.055  13.416  87.383  1.00  0.00     0.093 A 
ATOM      8  C   UNL     1      51.897  12.642  87.324  1.00  0.00     0.123 A 
ATOM      9  C   UNL     1      51.621  11.728  88.342  1.00  0.00     0.094 A 
ATOM     10  C   UNL     1      52.511  11.563  89.406  1.00  0.00     0.146 A 
ATOM     11  O   UNL     1      52.220  10.672  90.347  1.00  0.00    -0.456 OA
ENDROOT
BRANCH   1  12
ATOM     12  C   UNL     1      52.574   9.412  92.386  1.00  0.00     0.021 A 
ATOM     13  C   UNL     1      51.777   9.811  93.474  1.00  0.00     0.016 A 
ATOM     14  C   UNL     1      51.362   8.881  94.429  1.00  0.00     0.051 A 
ATOM     15  C   UNL     1      51.743   7.540  94.324  1.00  0.00     0.157 A 
ATOM     16  C   UNL     1      52.965   8.062  92.291  1.00  0.00     0.062 A 
ATOM     17  C   UNL     1      52.550   7.128  93.252  1.00  0.00     0.158 A 
BRANCH  15  18
ATOM     18  O   UNL     1      51.311   6.635  95.292  1.00  0.00    -0.504 OA
ATOM     19  H   UNL     1      51.849   5.811  95.537  1.00  0.00     0.293 HD
ENDBRANCH  15  18
BRANCH  17  20
ATOM     20  O   UNL     1      52.943   5.794  93.146  1.00  0.00    -0.504 OA
ATOM     21  H   UNL     1      53.889   5.537  92.890  1.00  0.00     0.293 HD
ENDBRANCH  17  20
ENDBRANCH   1  12
BRANCH   6  22
ATOM     22  O   UNL     1      55.031  14.185  88.461  1.00  0.00    -0.507 OA
ATOM     23  H   UNL     1      55.746  14.216  89.172  1.00  0.00     0.293 HD
ENDBRANCH   6  22
BRANCH   8  24
ATOM     24  O   UNL     1      51.021  12.795  86.250  1.00  0.00    -0.508 OA
ATOM     25  H   UNL     1      51.057  12.181  85.445  1.00  0.00     0.293 HD
ENDBRANCH   8  24
TORSDOF 5
ENDMDL
MODEL 7
REMARK VINA RESULT:    -6.144      1.832      2.715
REMARK INTER + INTRA:          -7.486
REMARK INTER:                  -7.169
REMARK INTRA:                  -0.316
REMARK UNBOUND:                -0.264
REMARK SMILES O=c1cc(-c2ccc(O)c(O)c2)oc2cc(O)cc(O)c12
REMARK SMILES IDX 4 1 3 2 2 3 1 4 21 5 19 6 18 7 16 8 15 9 14 10 13 11 5 12
REMARK SMILES IDX 6 13 7 14 8 15 12 16 10 17 9 18 11 20 20 22 17 24
REMARK H PARENT 9 19 11 21 20 23 17 25
REMARK Flexibility Score: inf
ROOT
ATOM      1  C   UNL     1      53.399  12.421  88.865  1.00  0.00     0.138 A 
ATOM      2  C   UNL     1      53.151  13.585  89.606  1.00  0.00     0.100 A 
ATOM      3  C   UNL     1      52.843  14.773  88.942  1.00  0.00     0.197 A 
ATOM      4  O   UNL     1      52.688  15.815  89.632  1.00  0.00    -0.289 OA
ATOM      5  C   UNL     1      52.751  14.787  87.530  1.00  0.00     0.107 A 
ATOM      6  C   UNL     1      52.404  15.930  86.750  1.00  0.00     0.134 A 
ATOM      7  C   UNL     1      52.459  15.854  85.353  1.00  0.00     0.093 A 
ATOM      8  C   UNL     1      52.787  14.663  84.708  1.00  0.00     0.123 A 
ATOM      9  C   UNL     1      53.076  13.524  85.460  1.00  0.00     0.094 A 
ATOM     10  C   UNL     1      53.065  13.577  86.857  1.00  0.00     0.146 A 
ATOM     11  O   UNL     1      53.360  12.474  87.537  1.00  0.00    -0.456 OA
ENDROOT
BRANCH   1  12
ATOM     12  C   UNL     1      53.730  11.131  89.519  1.00  0.00     0.021 A 
ATOM     13  C   UNL     1      53.610  11.012  90.915  1.00  0.00     0.016 A 
ATOM     14  C   UNL     1      53.921   9.810  91.555  1.00  0.00     0.051 A 
ATOM     15  C   UNL     1      54.368   8.710  90.818  1.00  0.00     0.157 A 
ATOM     16  C   UNL     1      54.192  10.023  88.782  1.00  0.00     0.062 A 
ATOM     17  C   UNL     1      54.507   8.817  89.424  1.00  0.00     0.158 A 
BRANCH  15  18
ATOM     18  O   UNL     1      54.669   7.524  91.485  1.00  0.00    -0.504 OA
ATOM     19  H   UNL     1      54.003   7.066  92.095  1.00  0.00     0.293 HD
ENDBRANCH  15  18
BRANCH  17  20
ATOM     20  O   UNL     1      54.963   7.727  88.684  1.00  0.00    -0.504 OA
ATOM     21  H   UNL     1      55.135   7.796  87.688  1.00  0.00     0.293 HD
ENDBRANCH  17  20
ENDBRANCH   1  12
BRANCH   6  22
ATOM     22  O   UNL     1      51.978  17.146  87.292  1.00  0.00    -0.507 OA
ATOM     23  H   UNL     1      52.553  17.970  87.383  1.00  0.00     0.293 HD
ENDBRANCH   6  22
BRANCH   8  24
ATOM     24  O   UNL     1      52.817  14.619  83.315  1.00  0.00    -0.508 OA
ATOM     25  H   UNL     1      53.661  14.377  82.810  1.00  0.00     0.293 HD
ENDBRANCH   8  24
TORSDOF 5
ENDMDL
MODEL 8
REMARK VINA RESULT:    -6.142      2.157      7.026
REMARK INTER + INTRA:          -7.483
REMARK INTER:                  -7.213
REMARK INTRA:                  -0.270
REMARK UNBOUND:                -0.264
REMARK SMILES O=c1cc(-c2ccc(O)c(O)c2)oc2cc(O)cc(O)c12
REMARK SMILES IDX 4 1 3 2 2 3 1 4 21 5 19 6 18 7 16 8 15 9 14 10 13 11 5 12
REMARK SMILES IDX 6 13 7 14 8 15 12 16 10 17 9 18 11 20 20 22 17 24
REMARK H PARENT 9 19 11 21 20 23 17 25
REMARK Flexibility Score: inf
ROOT
ATOM      1  C   UNL     1      53.227  12.270  88.224  1.00  0.00     0.138 A 
ATOM      2  C   UNL     1      54.254  12.369  89.172  1.00  0.00     0.100 A 
ATOM      3  C   UNL     1      54.482  11.312  90.055  1.00  0.00     0.197 A 
ATOM      4  O   UNL     1      55.370  11.457  90.936  1.00  0.00    -0.289 OA
ATOM      5  C   UNL     1      53.697  10.139  89.965  1.00  0.00     0.107 A 
ATOM      6  C   UNL     1      53.867   8.984  90.786  1.00  0.00     0.134 A 
ATOM      7  C   UNL     1      52.955   7.926  90.685  1.00  0.00     0.093 A 
ATOM      8  C   UNL     1      51.918   7.954  89.753  1.00  0.00     0.123 A 
ATOM      9  C   UNL     1      51.775   9.056  88.908  1.00  0.00     0.094 A 
ATOM     10  C   UNL     1      52.647  10.143  89.009  1.00  0.00     0.146 A 
ATOM     11  O   UNL     1      52.468  11.179  88.197  1.00  0.00    -0.456 OA
ENDROOT
BRANCH   1  12
ATOM     12  C   UNL     1      52.941  13.363  87.260  1.00  0.00     0.021 A 
ATOM     13  C   UNL     1      52.950  13.089  85.881  1.00  0.00     0.016 A 
ATOM     14  C   UNL     1      52.691  14.101  84.954  1.00  0.00     0.051 A 
ATOM     15  C   UNL     1      52.431  15.405  85.384  1.00  0.00     0.157 A 
ATOM     16  C   UNL     1      52.690  14.681  87.687  1.00  0.00     0.062 A 
ATOM     17  C   UNL     1      52.432  15.699  86.757  1.00  0.00     0.158 A 
BRANCH  15  18
ATOM     18  O   UNL     1      52.174  16.393  84.435  1.00  0.00    -0.504 OA
ATOM     19  H   UNL     1      52.314  17.377  84.631  1.00  0.00     0.293 HD
ENDBRANCH  15  18
BRANCH  17  20
ATOM     20  O   UNL     1      52.183  16.999  87.192  1.00  0.00    -0.504 OA
ATOM     21  H   UNL     1      52.578  17.803  86.718  1.00  0.00     0.293 HD
ENDBRANCH  17  20
ENDBRANCH   1  12
BRANCH   6  22
ATOM     22  O   UNL     1      54.920   8.815  91.689  1.00  0.00    -0.507 OA
ATOM     23  H   UNL     1      55.697   8.187  91.558  1.00  0.00     0.293 HD
ENDBRANCH   6  22
BRANCH   8  24
ATOM     24  O   UNL     1      51.038   6.877  89.670  1.00  0.00    -0.508 OA
ATOM     25  H   UNL     1      50.971   6.311  88.833  1.00  0.00     0.293 HD
ENDBRANCH   8  24
TORSDOF 5
ENDMDL
