MODEL 1
REMARK VINA RESULT:    -6.076      0.000      0.000
REMARK INTER + INTRA:          -6.674
REMARK INTER:                  -6.609
REMARK INTRA:                  -0.065
REMARK UNBOUND:                -0.065
REMARK SMILES COc1cc2ccc(=O)oc2cc1O
REMARK SMILES IDX 3 1 13 2 12 3 11 4 5 5 4 6 6 7 7 8 8 9 9 10 10 11 2 12 1 13
REMARK SMILES IDX 14 14
REMARK H PARENT 14 15
REMARK Flexibility Score: inf
ROOT
ATOM      1  C   UNL     1      -8.741 -67.395 -30.349  1.00  0.00     0.161 A 
ATOM      2  C   UNL     1     -10.016 -67.554 -30.927  1.00  0.00     0.161 A 
ATOM      3  C   UNL     1     -10.366 -66.832 -32.073  1.00  0.00     0.098 A 
ATOM      4  C   UNL     1      -9.457 -65.947 -32.657  1.00  0.00     0.142 A 
ATOM      5  C   UNL     1      -8.178 -65.780 -32.087  1.00  0.00     0.022 A 
ATOM      6  C   UNL     1      -7.823 -66.502 -30.939  1.00  0.00     0.062 A 
ATOM      7  C   UNL     1      -7.289 -64.887 -32.693  1.00  0.00     0.019 A 
ATOM      8  C   UNL     1      -7.689 -64.193 -33.834  1.00  0.00     0.094 A 
ATOM      9  C   UNL     1      -8.973 -64.409 -34.344  1.00  0.00     0.336 A 
ATOM     10  O   UNL     1      -9.353 -63.792 -35.373  1.00  0.00    -0.246 OA
ATOM     11  O   UNL     1      -9.799 -65.265 -33.747  1.00  0.00    -0.423 OA
ENDROOT
BRANCH   1  12
ATOM     12  O   UNL     1      -8.423 -68.135 -29.199  1.00  0.00    -0.493 OA
ATOM     13  C   UNL     1      -8.515 -67.639 -27.867  1.00  0.00     0.278 C 
ENDBRANCH   1  12
BRANCH   2  14
ATOM     14  O   UNL     1     -10.952 -68.428 -30.374  1.00  0.00    -0.504 OA
ATOM     15  H   UNL     1     -10.776 -68.935 -29.514  1.00  0.00     0.293 HD
ENDBRANCH   2  14
TORSDOF 2
ENDMDL
MODEL 2
REMARK VINA RESULT:    -5.956      1.747      5.381
REMARK INTER + INTRA:          -6.543
REMARK INTER:                  -6.496
REMARK INTRA:                  -0.047
REMARK UNBOUND:                -0.065
REMARK SMILES COc1cc2ccc(=O)oc2cc1O
REMARK SMILES IDX 3 1 13 2 12 3 11 4 5 5 4 6 6 7 7 8 8 9 9 10 10 11 2 12 1 13
REMARK SMILES IDX 14 14
REMARK H PARENT 14 15
REMARK Flexibility Score: inf
ROOT
ATOM      1  C   UNL     1      -8.164 -64.231 -34.254  1.00  0.00     0.161 A 
ATOM      2  C   UNL     1      -7.185 -64.742 -33.379  1.00  0.00     0.161 A 
ATOM      3  C   UNL     1      -7.538 -65.662 -32.385  1.00  0.00     0.098 A 
ATOM      4  C   UNL     1      -8.863 -66.083 -32.250  1.00  0.00     0.142 A 
ATOM      5  C   UNL     1      -9.850 -65.579 -33.121  1.00  0.00     0.022 A 
ATOM      6  C   UNL     1      -9.501 -64.658 -34.118  1.00  0.00     0.062 A 
ATOM      7  C   UNL     1     -11.168 -66.019 -32.961  1.00  0.00     0.019 A 
ATOM      8  C   UNL     1     -11.465 -66.937 -31.955  1.00  0.00     0.094 A 
ATOM      9  C   UNL     1     -10.433 -67.394 -31.128  1.00  0.00     0.336 A 
ATOM     10  O   UNL     1     -10.681 -68.223 -30.213  1.00  0.00    -0.246 OA
ATOM     11  O   UNL     1      -9.188 -66.958 -31.302  1.00  0.00    -0.423 OA
ENDROOT
BRANCH   1  12
ATOM     12  O   UNL     1      -7.775 -63.311 -35.239  1.00  0.00    -0.493 OA
ATOM     13  C   UNL     1      -8.307 -63.266 -36.560  1.00  0.00     0.278 C 
ENDBRANCH   1  12
BRANCH   2  14
ATOM     14  O   UNL     1      -5.851 -64.345 -33.482  1.00  0.00    -0.504 OA
ATOM     15  H   UNL     1      -5.322 -64.016 -32.683  1.00  0.00     0.293 HD
ENDBRANCH   2  14
TORSDOF 2
ENDMDL
MODEL 3
REMARK VINA RESULT:    -5.909      1.299      2.434
REMARK INTER + INTRA:          -6.492
REMARK INTER:                  -6.445
REMARK INTRA:                  -0.047
REMARK UNBOUND:                -0.065
REMARK SMILES COc1cc2ccc(=O)oc2cc1O
REMARK SMILES IDX 3 1 13 2 12 3 11 4 5 5 4 6 6 7 7 8 8 9 9 10 10 11 2 12 1 13
REMARK SMILES IDX 14 14
REMARK H PARENT 14 15
REMARK Flexibility Score: inf
ROOT
ATOM      1  C   UNL     1      -8.768 -67.663 -29.933  1.00  0.00     0.161 A 
ATOM      2  C   UNL     1      -7.646 -66.831 -30.121  1.00  0.00     0.161 A 
ATOM      3  C   UNL     1      -7.592 -65.956 -31.211  1.00  0.00     0.098 A 
ATOM      4  C   UNL     1      -8.646 -65.898 -32.125  1.00  0.00     0.142 A 
ATOM      5  C   UNL     1      -9.774 -66.725 -31.946  1.00  0.00     0.022 A 
ATOM      6  C   UNL     1      -9.833 -67.603 -30.856  1.00  0.00     0.062 A 
ATOM      7  C   UNL     1     -10.815 -66.644 -32.878  1.00  0.00     0.019 A 
ATOM      8  C   UNL     1     -10.708 -65.755 -33.946  1.00  0.00     0.094 A 
ATOM      9  C   UNL     1      -9.560 -64.965 -34.059  1.00  0.00     0.336 A 
ATOM     10  O   UNL     1      -9.445 -64.155 -35.017  1.00  0.00    -0.246 OA
ATOM     11  O   UNL     1      -8.585 -65.062 -33.159  1.00  0.00    -0.423 OA
ENDROOT
BRANCH   1  12
ATOM     12  O   UNL     1      -8.790 -68.529 -28.829  1.00  0.00    -0.493 OA
ATOM     13  C   UNL     1      -9.961 -68.872 -28.094  1.00  0.00     0.278 C 
ENDBRANCH   1  12
BRANCH   2  14
ATOM     14  O   UNL     1      -6.573 -66.861 -29.231  1.00  0.00    -0.504 OA
ATOM     15  H   UNL     1      -6.070 -66.023 -28.963  1.00  0.00     0.293 HD
ENDBRANCH   2  14
TORSDOF 2
ENDMDL
MODEL 4
REMARK VINA RESULT:    -5.866      6.826      7.975
REMARK INTER + INTRA:          -6.446
REMARK INTER:                  -6.399
REMARK INTRA:                  -0.046
REMARK UNBOUND:                -0.065
REMARK SMILES COc1cc2ccc(=O)oc2cc1O
REMARK SMILES IDX 3 1 13 2 12 3 11 4 5 5 4 6 6 7 7 8 8 9 9 10 10 11 2 12 1 13
REMARK SMILES IDX 14 14
REMARK H PARENT 14 15
REMARK Flexibility Score: inf
ROOT
ATOM      1  C   UNL     1     -15.777 -66.658 -34.608  1.00  0.00     0.161 A 
ATOM      2  C   UNL     1     -16.791 -66.364 -35.542  1.00  0.00     0.161 A 
ATOM      3  C   UNL     1     -16.553 -66.515 -36.912  1.00  0.00     0.098 A 
ATOM      4  C   UNL     1     -15.310 -66.958 -37.370  1.00  0.00     0.142 A 
ATOM      5  C   UNL     1     -14.288 -67.256 -36.445  1.00  0.00     0.022 A 
ATOM      6  C   UNL     1     -14.522 -67.106 -35.071  1.00  0.00     0.062 A 
ATOM      7  C   UNL     1     -13.054 -67.697 -36.933  1.00  0.00     0.019 A 
ATOM      8  C   UNL     1     -12.871 -67.829 -38.309  1.00  0.00     0.094 A 
ATOM      9  C   UNL     1     -13.930 -67.516 -39.167  1.00  0.00     0.336 A 
ATOM     10  O   UNL     1     -13.784 -67.629 -40.413  1.00  0.00    -0.246 OA
ATOM     11  O   UNL     1     -15.093 -67.098 -38.676  1.00  0.00    -0.423 OA
ENDROOT
BRANCH   1  12
ATOM     12  O   UNL     1     -16.049 -66.497 -33.241  1.00  0.00    -0.493 OA
ATOM     13  C   UNL     1     -15.089 -66.100 -32.267  1.00  0.00     0.278 C 
ENDBRANCH   1  12
BRANCH   2  14
ATOM     14  O   UNL     1     -18.045 -65.919 -35.124  1.00  0.00    -0.504 OA
ATOM     15  H   UNL     1     -18.877 -66.041 -35.689  1.00  0.00     0.293 HD
ENDBRANCH   2  14
TORSDOF 2
ENDMDL
MODEL 5
REMARK VINA RESULT:    -5.737      1.144      5.000
REMARK INTER + INTRA:          -6.305
REMARK INTER:                  -6.244
REMARK INTRA:                  -0.062
REMARK UNBOUND:                -0.065
REMARK SMILES COc1cc2ccc(=O)oc2cc1O
REMARK SMILES IDX 3 1 13 2 12 3 11 4 5 5 4 6 6 7 7 8 8 9 9 10 10 11 2 12 1 13
REMARK SMILES IDX 14 14
REMARK H PARENT 14 15
REMARK Flexibility Score: inf
ROOT
ATOM      1  C   UNL     1      -7.929 -64.349 -33.983  1.00  0.00     0.161 A 
ATOM      2  C   UNL     1      -9.263 -64.610 -34.352  1.00  0.00     0.161 A 
ATOM      3  C   UNL     1     -10.045 -65.492 -33.597  1.00  0.00     0.098 A 
ATOM      4  C   UNL     1      -9.511 -66.122 -32.470  1.00  0.00     0.142 A 
ATOM      5  C   UNL     1      -8.177 -65.867 -32.091  1.00  0.00     0.022 A 
ATOM      6  C   UNL     1      -7.391 -64.985 -32.845  1.00  0.00     0.062 A 
ATOM      7  C   UNL     1      -7.671 -66.513 -30.958  1.00  0.00     0.019 A 
ATOM      8  C   UNL     1      -8.493 -67.382 -30.242  1.00  0.00     0.094 A 
ATOM      9  C   UNL     1      -9.806 -67.586 -30.677  1.00  0.00     0.336 A 
ATOM     10  O   UNL     1     -10.565 -68.367 -30.044  1.00  0.00    -0.246 OA
ATOM     11  O   UNL     1     -10.262 -66.959 -31.759  1.00  0.00    -0.423 OA
ENDROOT
BRANCH   1  12
ATOM     12  O   UNL     1      -7.174 -63.459 -34.762  1.00  0.00    -0.493 OA
ATOM     13  C   UNL     1      -6.313 -63.848 -35.829  1.00  0.00     0.278 C 
ENDBRANCH   1  12
BRANCH   2  14
ATOM     14  O   UNL     1      -9.832 -64.001 -35.471  1.00  0.00    -0.504 OA
ATOM     15  H   UNL     1      -9.282 -63.468 -36.134  1.00  0.00     0.293 HD
ENDBRANCH   2  14
TORSDOF 2
ENDMDL
MODEL 6
REMARK VINA RESULT:    -5.620      1.742      5.313
REMARK INTER + INTRA:          -6.178
REMARK INTER:                  -6.134
REMARK INTRA:                  -0.044
REMARK UNBOUND:                -0.065
REMARK SMILES COc1cc2ccc(=O)oc2cc1O
REMARK SMILES IDX 3 1 13 2 12 3 11 4 5 5 4 6 6 7 7 8 8 9 9 10 10 11 2 12 1 13
REMARK SMILES IDX 14 14
REMARK H PARENT 14 15
REMARK Flexibility Score: inf
ROOT
ATOM      1  C   UNL     1      -7.506 -64.997 -32.937  1.00  0.00     0.161 A 
ATOM      2  C   UNL     1      -6.545 -65.222 -31.932  1.00  0.00     0.161 A 
ATOM      3  C   UNL     1      -6.829 -66.079 -30.863  1.00  0.00     0.098 A 
ATOM      4  C   UNL     1      -8.067 -66.720 -30.780  1.00  0.00     0.142 A 
ATOM      5  C   UNL     1      -9.037 -66.503 -31.781  1.00  0.00     0.022 A 
ATOM      6  C   UNL     1      -8.756 -65.645 -32.854  1.00  0.00     0.062 A 
ATOM      7  C   UNL     1     -10.267 -67.158 -31.671  1.00  0.00     0.019 A 
ATOM      8  C   UNL     1     -10.498 -68.002 -30.585  1.00  0.00     0.094 A 
ATOM      9  C   UNL     1      -9.489 -68.170 -29.631  1.00  0.00     0.336 A 
ATOM     10  O   UNL     1      -9.679 -68.927 -28.643  1.00  0.00    -0.246 OA
ATOM     11  O   UNL     1      -8.328 -67.533 -29.760  1.00  0.00    -0.423 OA
ENDROOT
BRANCH   1  12
ATOM     12  O   UNL     1      -7.188 -64.131 -33.995  1.00  0.00    -0.493 OA
ATOM     13  C   UNL     1      -8.140 -63.561 -34.888  1.00  0.00     0.278 C 
ENDBRANCH   1  12
BRANCH   2  14
ATOM     14  O   UNL     1      -5.297 -64.600 -31.979  1.00  0.00    -0.504 OA
ATOM     15  H   UNL     1      -5.121 -63.708 -31.532  1.00  0.00     0.293 HD
ENDBRANCH   2  14
TORSDOF 2
ENDMDL
MODEL 7
REMARK VINA RESULT:    -5.504      5.931      7.890
REMARK INTER + INTRA:          -6.051
REMARK INTER:                  -6.005
REMARK INTRA:                  -0.047
REMARK UNBOUND:                -0.065
REMARK SMILES COc1cc2ccc(=O)oc2cc1O
REMARK SMILES IDX 3 1 13 2 12 3 11 4 5 5 4 6 6 7 7 8 8 9 9 10 10 11 2 12 1 13
REMARK SMILES IDX 14 14
REMARK H PARENT 14 15
REMARK Flexibility Score: inf
ROOT
ATOM      1  C   UNL     1     -16.105 -66.888 -36.435  1.00  0.00     0.161 A 
ATOM      2  C   UNL     1     -16.562 -66.369 -35.207  1.00  0.00     0.161 A 
ATOM      3  C   UNL     1     -15.681 -66.226 -34.129  1.00  0.00     0.098 A 
ATOM      4  C   UNL     1     -14.340 -66.596 -34.257  1.00  0.00     0.142 A 
ATOM      5  C   UNL     1     -13.872 -67.116 -35.482  1.00  0.00     0.022 A 
ATOM      6  C   UNL     1     -14.750 -67.260 -36.564  1.00  0.00     0.062 A 
ATOM      7  C   UNL     1     -12.524 -67.477 -35.580  1.00  0.00     0.019 A 
ATOM      8  C   UNL     1     -11.690 -67.314 -34.475  1.00  0.00     0.094 A 
ATOM      9  C   UNL     1     -12.225 -66.792 -33.293  1.00  0.00     0.336 A 
ATOM     10  O   UNL     1     -11.487 -66.638 -32.284  1.00  0.00    -0.246 OA
ATOM     11  O   UNL     1     -13.511 -66.457 -33.227  1.00  0.00    -0.423 OA
ENDROOT
BRANCH   1  12
ATOM     12  O   UNL     1     -17.015 -67.017 -37.495  1.00  0.00    -0.493 OA
ATOM     13  C   UNL     1     -16.688 -66.829 -38.868  1.00  0.00     0.278 C 
ENDBRANCH   1  12
BRANCH   2  14
ATOM     14  O   UNL     1     -17.894 -65.989 -35.039  1.00  0.00    -0.504 OA
ATOM     15  H   UNL     1     -18.643 -66.666 -34.959  1.00  0.00     0.293 HD
ENDBRANCH   2  14
TORSDOF 2
ENDMDL
MODEL 8
REMARK VINA RESULT:    -5.389      2.754      3.380
REMARK INTER + INTRA:          -5.927
REMARK INTER:                  -5.879
REMARK INTRA:                  -0.048
REMARK UNBOUND:                -0.065
REMARK SMILES COc1cc2ccc(=O)oc2cc1O
REMARK SMILES IDX 3 1 13 2 12 3 11 4 5 5 4 6 6 7 7 8 8 9 9 10 10 11 2 12 1 13
REMARK SMILES IDX 14 14
REMARK H PARENT 14 15
REMARK Flexibility Score: inf
ROOT
ATOM      1  C   UNL     1      -9.174 -67.823 -28.195  1.00  0.00     0.161 A 
ATOM      2  C   UNL     1      -9.517 -68.078 -29.538  1.00  0.00     0.161 A 
ATOM      3  C   UNL     1      -8.771 -67.512 -30.577  1.00  0.00     0.098 A 
ATOM      4  C   UNL     1      -7.679 -66.687 -30.296  1.00  0.00     0.142 A 
ATOM      5  C   UNL     1      -7.325 -66.426 -28.956  1.00  0.00     0.022 A 
ATOM      6  C   UNL     1      -8.070 -66.991 -27.912  1.00  0.00     0.062 A 
ATOM      7  C   UNL     1      -6.227 -65.597 -28.705  1.00  0.00     0.019 A 
ATOM      8  C   UNL     1      -5.518 -65.059 -29.779  1.00  0.00     0.094 A 
ATOM      9  C   UNL     1      -5.926 -65.362 -31.081  1.00  0.00     0.336 A 
ATOM     10  O   UNL     1      -5.299 -64.886 -32.064  1.00  0.00    -0.246 OA
ATOM     11  O   UNL     1      -6.975 -66.153 -31.291  1.00  0.00    -0.423 OA
ENDROOT
BRANCH   1  12
ATOM     12  O   UNL     1      -9.944 -68.407 -27.178  1.00  0.00    -0.493 OA
ATOM     13  C   UNL     1     -10.301 -67.759 -25.961  1.00  0.00     0.278 C 
ENDBRANCH   1  12
BRANCH   2  14
ATOM     14  O   UNL     1     -10.601 -68.895 -29.859  1.00  0.00    -0.504 OA
ATOM     15  H   UNL     1     -10.526 -69.655 -30.526  1.00  0.00     0.293 HD
ENDBRANCH   2  14
TORSDOF 2
ENDMDL
MODEL 9
REMARK VINA RESULT:    -5.385      2.922      5.833
REMARK INTER + INTRA:          -5.922
REMARK INTER:                  -5.857
REMARK INTRA:                  -0.065
REMARK UNBOUND:                -0.065
REMARK SMILES COc1cc2ccc(=O)oc2cc1O
REMARK SMILES IDX 3 1 13 2 12 3 11 4 5 5 4 6 6 7 7 8 8 9 9 10 10 11 2 12 1 13
REMARK SMILES IDX 14 14
REMARK H PARENT 14 15
REMARK Flexibility Score: inf
ROOT
ATOM      1  C   UNL     1      -6.367 -65.511 -30.894  1.00  0.00     0.161 A 
ATOM      2  C   UNL     1      -5.998 -65.093 -29.599  1.00  0.00     0.161 A 
ATOM      3  C   UNL     1      -6.649 -65.616 -28.477  1.00  0.00     0.098 A 
ATOM      4  C   UNL     1      -7.670 -66.557 -28.626  1.00  0.00     0.142 A 
ATOM      5  C   UNL     1      -8.046 -66.984 -29.916  1.00  0.00     0.022 A 
ATOM      6  C   UNL     1      -7.397 -66.463 -31.043  1.00  0.00     0.062 A 
ATOM      7  C   UNL     1      -9.072 -67.927 -30.034  1.00  0.00     0.019 A 
ATOM      8  C   UNL     1      -9.687 -68.416 -28.882  1.00  0.00     0.094 A 
ATOM      9  C   UNL     1      -9.262 -67.947 -27.635  1.00  0.00     0.336 A 
ATOM     10  O   UNL     1      -9.805 -68.376 -26.583  1.00  0.00    -0.246 OA
ATOM     11  O   UNL     1      -8.283 -67.048 -27.552  1.00  0.00    -0.423 OA
ENDROOT
BRANCH   1  12
ATOM     12  O   UNL     1      -5.693 -64.967 -31.998  1.00  0.00    -0.493 OA
ATOM     13  C   UNL     1      -4.608 -65.595 -32.673  1.00  0.00     0.278 C 
ENDBRANCH   1  12
BRANCH   2  14
ATOM     14  O   UNL     1      -4.984 -64.154 -29.410  1.00  0.00    -0.504 OA
ATOM     15  H   UNL     1      -5.064 -63.199 -29.737  1.00  0.00     0.293 HD
ENDBRANCH   2  14
TORSDOF 2
ENDMDL
