MODEL 1
REMARK VINA RESULT:    -6.241      0.000      0.000
REMARK INTER + INTRA:          -7.701
REMARK INTER:                  -7.518
REMARK INTRA:                  -0.183
REMARK UNBOUND:                -0.183
REMARK SMILES O=c1c(O)c(-c2ccc(O)c(O)c2)oc2cc(O)cc(O)c12
REMARK SMILES IDX 5 1 3 2 2 3 1 4 22 5 20 6 19 7 17 8 16 9 15 10 14 11 6 12
REMARK SMILES IDX 7 13 8 14 9 15 13 16 11 17 10 18 12 20 4 22 21 24 18 26
REMARK H PARENT 10 19 12 21 4 23 21 25 18 27
REMARK Flexibility Score: inf
ROOT
ATOM      1  C   UNL     1     -16.755  -1.536 -16.624  1.00  0.00     0.180 A 
ATOM      2  C   UNL     1     -17.791  -2.449 -16.889  1.00  0.00     0.208 A 
ATOM      3  C   UNL     1     -17.466  -3.786 -17.165  1.00  0.00     0.238 A 
ATOM      4  O   UNL     1     -18.401  -4.610 -17.347  1.00  0.00    -0.285 OA
ATOM      5  C   UNL     1     -16.110  -4.192 -17.187  1.00  0.00     0.111 A 
ATOM      6  C   UNL     1     -15.665  -5.513 -17.494  1.00  0.00     0.134 A 
ATOM      7  C   UNL     1     -14.308  -5.833 -17.360  1.00  0.00     0.093 A 
ATOM      8  C   UNL     1     -13.372  -4.863 -16.992  1.00  0.00     0.123 A 
ATOM      9  C   UNL     1     -13.790  -3.557 -16.747  1.00  0.00     0.094 A 
ATOM     10  C   UNL     1     -15.141  -3.216 -16.839  1.00  0.00     0.146 A 
ATOM     11  O   UNL     1     -15.497  -1.961 -16.588  1.00  0.00    -0.452 OA
ENDROOT
BRANCH   1  12
ATOM     12  C   UNL     1     -17.016  -0.105 -16.350  1.00  0.00     0.025 A 
ATOM     13  C   UNL     1     -17.686   0.307 -15.184  1.00  0.00     0.016 A 
ATOM     14  C   UNL     1     -17.943   1.662 -14.959  1.00  0.00     0.051 A 
ATOM     15  C   UNL     1     -17.549   2.623 -15.898  1.00  0.00     0.157 A 
ATOM     16  C   UNL     1     -16.641   0.860 -17.299  1.00  0.00     0.062 A 
ATOM     17  C   UNL     1     -16.897   2.218 -17.076  1.00  0.00     0.158 A 
BRANCH  15  18
ATOM     18  O   UNL     1     -17.805   3.974 -15.669  1.00  0.00    -0.504 OA
ATOM     19  H   UNL     1     -18.439   4.501 -16.257  1.00  0.00     0.293 HD
ENDBRANCH  15  18
BRANCH  17  20
ATOM     20  O   UNL     1     -16.497   3.150 -18.034  1.00  0.00    -0.504 OA
ATOM     21  H   UNL     1     -16.210   4.088 -17.785  1.00  0.00     0.293 HD
ENDBRANCH  17  20
ENDBRANCH   1  12
BRANCH   2  22
ATOM     22  O   UNL     1     -19.125  -2.031 -16.840  1.00  0.00    -0.502 OA
ATOM     23  H   UNL     1     -19.899  -2.676 -16.932  1.00  0.00     0.293 HD
ENDBRANCH   2  22
BRANCH   6  24
ATOM     24  O   UNL     1     -16.503  -6.531 -17.959  1.00  0.00    -0.507 OA
ATOM     25  H   UNL     1     -17.501  -6.443 -18.081  1.00  0.00     0.293 HD
ENDBRANCH   6  24
BRANCH   8  26
ATOM     26  O   UNL     1     -12.023  -5.186 -16.875  1.00  0.00    -0.508 OA
ATOM     27  H   UNL     1     -11.546  -5.735 -17.580  1.00  0.00     0.293 HD
ENDBRANCH   8  26
TORSDOF 6
ENDMDL
MODEL 2
REMARK VINA RESULT:    -5.906      3.524      5.201
REMARK INTER + INTRA:          -7.298
REMARK INTER:                  -7.046
REMARK INTRA:                  -0.252
REMARK UNBOUND:                -0.183
REMARK SMILES O=c1c(O)c(-c2ccc(O)c(O)c2)oc2cc(O)cc(O)c12
REMARK SMILES IDX 5 1 3 2 2 3 1 4 22 5 20 6 19 7 17 8 16 9 15 10 14 11 6 12
REMARK SMILES IDX 7 13 8 14 9 15 13 16 11 17 10 18 12 20 4 22 21 24 18 26
REMARK H PARENT 10 19 12 21 4 23 21 25 18 27
REMARK Flexibility Score: inf
ROOT
ATOM      1  C   UNL     1     -14.029  -2.706 -18.467  1.00  0.00     0.180 A 
ATOM      2  C   UNL     1     -13.965  -3.980 -19.058  1.00  0.00     0.208 A 
ATOM      3  C   UNL     1     -12.848  -4.310 -19.842  1.00  0.00     0.238 A 
ATOM      4  O   UNL     1     -12.770  -5.471 -20.323  1.00  0.00    -0.285 OA
ATOM      5  C   UNL     1     -11.819  -3.359 -20.038  1.00  0.00     0.111 A 
ATOM      6  C   UNL     1     -10.662  -3.573 -20.847  1.00  0.00     0.134 A 
ATOM      7  C   UNL     1      -9.645  -2.610 -20.865  1.00  0.00     0.093 A 
ATOM      8  C   UNL     1      -9.773  -1.412 -20.156  1.00  0.00     0.123 A 
ATOM      9  C   UNL     1     -10.925  -1.170 -19.412  1.00  0.00     0.094 A 
ATOM     10  C   UNL     1     -11.940  -2.127 -19.345  1.00  0.00     0.146 A 
ATOM     11  O   UNL     1     -13.018  -1.859 -18.616  1.00  0.00    -0.452 OA
ENDROOT
BRANCH   1  12
ATOM     12  C   UNL     1     -15.186  -2.275 -17.647  1.00  0.00     0.025 A 
ATOM     13  C   UNL     1     -16.119  -1.342 -18.131  1.00  0.00     0.016 A 
ATOM     14  C   UNL     1     -17.188  -0.932 -17.331  1.00  0.00     0.051 A 
ATOM     15  C   UNL     1     -17.334  -1.437 -16.032  1.00  0.00     0.157 A 
ATOM     16  C   UNL     1     -15.324  -2.763 -16.338  1.00  0.00     0.062 A 
ATOM     17  C   UNL     1     -16.395  -2.355 -15.533  1.00  0.00     0.158 A 
BRANCH  15  18
ATOM     18  O   UNL     1     -18.404  -1.028 -15.237  1.00  0.00    -0.504 OA
ATOM     19  H   UNL     1     -19.067  -0.332 -15.557  1.00  0.00     0.293 HD
ENDBRANCH  15  18
BRANCH  17  20
ATOM     20  O   UNL     1     -16.508  -2.872 -14.243  1.00  0.00    -0.504 OA
ATOM     21  H   UNL     1     -16.659  -2.278 -13.436  1.00  0.00     0.293 HD
ENDBRANCH  17  20
ENDBRANCH   1  12
BRANCH   2  22
ATOM     22  O   UNL     1     -14.982  -4.912 -18.832  1.00  0.00    -0.502 OA
ATOM     23  H   UNL     1     -14.899  -5.883 -19.105  1.00  0.00     0.293 HD
ENDBRANCH   2  22
BRANCH   6  24
ATOM     24  O   UNL     1     -10.477  -4.691 -21.665  1.00  0.00    -0.507 OA
ATOM     25  H   UNL     1     -10.438  -4.666 -22.673  1.00  0.00     0.293 HD
ENDBRANCH   6  24
BRANCH   8  26
ATOM     26  O   UNL     1      -8.764  -0.454 -20.192  1.00  0.00    -0.508 OA
ATOM     27  H   UNL     1      -7.996  -0.516 -20.851  1.00  0.00     0.293 HD
ENDBRANCH   8  26
TORSDOF 6
ENDMDL
MODEL 3
REMARK VINA RESULT:    -5.807      3.550      5.754
REMARK INTER + INTRA:          -7.178
REMARK INTER:                  -6.885
REMARK INTRA:                  -0.293
REMARK UNBOUND:                -0.183
REMARK SMILES O=c1c(O)c(-c2ccc(O)c(O)c2)oc2cc(O)cc(O)c12
REMARK SMILES IDX 5 1 3 2 2 3 1 4 22 5 20 6 19 7 17 8 16 9 15 10 14 11 6 12
REMARK SMILES IDX 7 13 8 14 9 15 13 16 11 17 10 18 12 20 4 22 21 24 18 26
REMARK H PARENT 10 19 12 21 4 23 21 25 18 27
REMARK Flexibility Score: inf
ROOT
ATOM      1  C   UNL     1     -14.028  -2.859 -18.377  1.00  0.00     0.180 A 
ATOM      2  C   UNL     1     -13.313  -4.055 -18.567  1.00  0.00     0.208 A 
ATOM      3  C   UNL     1     -12.098  -4.017 -19.268  1.00  0.00     0.238 A 
ATOM      4  O   UNL     1     -11.435  -5.081 -19.387  1.00  0.00    -0.285 OA
ATOM      5  C   UNL     1     -11.620  -2.788 -19.784  1.00  0.00     0.111 A 
ATOM      6  C   UNL     1     -10.421  -2.641 -20.544  1.00  0.00     0.134 A 
ATOM      7  C   UNL     1      -9.978  -1.359 -20.893  1.00  0.00     0.093 A 
ATOM      8  C   UNL     1     -10.725  -0.224 -20.565  1.00  0.00     0.123 A 
ATOM      9  C   UNL     1     -11.926  -0.364 -19.875  1.00  0.00     0.094 A 
ATOM     10  C   UNL     1     -12.376  -1.626 -19.482  1.00  0.00     0.146 A 
ATOM     11  O   UNL     1     -13.522  -1.713 -18.816  1.00  0.00    -0.452 OA
ENDROOT
BRANCH   1  12
ATOM     12  C   UNL     1     -15.329  -2.823 -17.671  1.00  0.00     0.025 A 
ATOM     13  C   UNL     1     -16.543  -2.746 -18.375  1.00  0.00     0.016 A 
ATOM     14  C   UNL     1     -17.757  -2.689 -17.686  1.00  0.00     0.051 A 
ATOM     15  C   UNL     1     -17.777  -2.693 -16.285  1.00  0.00     0.157 A 
ATOM     16  C   UNL     1     -15.353  -2.807 -16.266  1.00  0.00     0.062 A 
ATOM     17  C   UNL     1     -16.567  -2.750 -15.573  1.00  0.00     0.158 A 
BRANCH  15  18
ATOM     18  O   UNL     1     -18.990  -2.638 -15.601  1.00  0.00    -0.504 OA
ATOM     19  H   UNL     1     -19.703  -1.959 -15.839  1.00  0.00     0.293 HD
ENDBRANCH  15  18
BRANCH  17  20
ATOM     20  O   UNL     1     -16.552  -2.750 -14.178  1.00  0.00    -0.504 OA
ATOM     21  H   UNL     1     -16.810  -3.566 -13.637  1.00  0.00     0.293 HD
ENDBRANCH  17  20
ENDBRANCH   1  12
BRANCH   2  22
ATOM     22  O   UNL     1     -13.792  -5.253 -18.030  1.00  0.00    -0.502 OA
ATOM     23  H   UNL     1     -13.305  -6.133 -18.143  1.00  0.00     0.293 HD
ENDBRANCH   2  22
BRANCH   6  24
ATOM     24  O   UNL     1      -9.649  -3.713 -21.002  1.00  0.00    -0.507 OA
ATOM     25  H   UNL     1      -9.982  -4.438 -21.620  1.00  0.00     0.293 HD
ENDBRANCH   6  24
BRANCH   8  26
ATOM     26  O   UNL     1     -10.285   1.046 -20.930  1.00  0.00    -0.508 OA
ATOM     27  H   UNL     1      -9.630   1.182 -21.690  1.00  0.00     0.293 HD
ENDBRANCH   8  26
TORSDOF 6
ENDMDL
MODEL 4
REMARK VINA RESULT:    -5.760      1.530      2.792
REMARK INTER + INTRA:          -7.121
REMARK INTER:                  -7.528
REMARK INTRA:                   0.406
REMARK UNBOUND:                -0.183
REMARK SMILES O=c1c(O)c(-c2ccc(O)c(O)c2)oc2cc(O)cc(O)c12
REMARK SMILES IDX 5 1 3 2 2 3 1 4 22 5 20 6 19 7 17 8 16 9 15 10 14 11 6 12
REMARK SMILES IDX 7 13 8 14 9 15 13 16 11 17 10 18 12 20 4 22 21 24 18 26
REMARK H PARENT 10 19 12 21 4 23 21 25 18 27
REMARK Flexibility Score: inf
ROOT
ATOM      1  C   UNL     1     -16.769  -1.304 -16.745  1.00  0.00     0.180 A 
ATOM      2  C   UNL     1     -15.767  -1.701 -17.648  1.00  0.00     0.208 A 
ATOM      3  C   UNL     1     -15.579  -3.069 -17.898  1.00  0.00     0.238 A 
ATOM      4  O   UNL     1     -14.718  -3.416 -18.749  1.00  0.00    -0.285 OA
ATOM      5  C   UNL     1     -16.384  -4.024 -17.231  1.00  0.00     0.111 A 
ATOM      6  C   UNL     1     -16.253  -5.438 -17.378  1.00  0.00     0.134 A 
ATOM      7  C   UNL     1     -17.187  -6.285 -16.769  1.00  0.00     0.093 A 
ATOM      8  C   UNL     1     -18.209  -5.772 -15.966  1.00  0.00     0.123 A 
ATOM      9  C   UNL     1     -18.308  -4.397 -15.769  1.00  0.00     0.094 A 
ATOM     10  C   UNL     1     -17.413  -3.525 -16.392  1.00  0.00     0.146 A 
ATOM     11  O   UNL     1     -17.550  -2.220 -16.185  1.00  0.00    -0.452 OA
ENDROOT
BRANCH   1  12
ATOM     12  C   UNL     1     -17.010   0.118 -16.411  1.00  0.00     0.025 A 
ATOM     13  C   UNL     1     -17.652   0.492 -15.218  1.00  0.00     0.016 A 
ATOM     14  C   UNL     1     -17.890   1.840 -14.936  1.00  0.00     0.051 A 
ATOM     15  C   UNL     1     -17.504   2.832 -15.846  1.00  0.00     0.157 A 
ATOM     16  C   UNL     1     -16.643   1.116 -17.330  1.00  0.00     0.062 A 
ATOM     17  C   UNL     1     -16.880   2.466 -17.050  1.00  0.00     0.158 A 
BRANCH  15  18
ATOM     18  O   UNL     1     -17.741   4.176 -15.560  1.00  0.00    -0.504 OA
ATOM     19  H   UNL     1     -18.662   4.509 -15.302  1.00  0.00     0.293 HD
ENDBRANCH  15  18
BRANCH  17  20
ATOM     20  O   UNL     1     -16.489   3.430 -17.980  1.00  0.00    -0.504 OA
ATOM     21  H   UNL     1     -17.044   3.643 -18.800  1.00  0.00     0.293 HD
ENDBRANCH  17  20
ENDBRANCH   1  12
BRANCH   2  22
ATOM     22  O   UNL     1     -14.999  -0.740 -18.313  1.00  0.00    -0.502 OA
ATOM     23  H   UNL     1     -14.893   0.205 -17.966  1.00  0.00     0.293 HD
ENDBRANCH   2  22
BRANCH   6  24
ATOM     24  O   UNL     1     -15.216  -6.057 -18.082  1.00  0.00    -0.507 OA
ATOM     25  H   UNL     1     -14.990  -5.876 -19.049  1.00  0.00     0.293 HD
ENDBRANCH   6  24
BRANCH   8  26
ATOM     26  O   UNL     1     -19.125  -6.622 -15.352  1.00  0.00    -0.508 OA
ATOM     27  H   UNL     1     -19.201  -6.681 -14.343  1.00  0.00     0.293 HD
ENDBRANCH   8  26
TORSDOF 6
ENDMDL
MODEL 5
REMARK VINA RESULT:    -5.735      3.195      5.673
REMARK INTER + INTRA:          -7.092
REMARK INTER:                  -6.759
REMARK INTRA:                  -0.333
REMARK UNBOUND:                -0.183
REMARK SMILES O=c1c(O)c(-c2ccc(O)c(O)c2)oc2cc(O)cc(O)c12
REMARK SMILES IDX 5 1 3 2 2 3 1 4 22 5 20 6 19 7 17 8 16 9 15 10 14 11 6 12
REMARK SMILES IDX 7 13 8 14 9 15 13 16 11 17 10 18 12 20 4 22 21 24 18 26
REMARK H PARENT 10 19 12 21 4 23 21 25 18 27
REMARK Flexibility Score: inf
ROOT
ATOM      1  C   UNL     1     -13.727  -3.277 -18.093  1.00  0.00     0.180 A 
ATOM      2  C   UNL     1     -14.134  -4.499 -18.656  1.00  0.00     0.208 A 
ATOM      3  C   UNL     1     -15.307  -5.108 -18.184  1.00  0.00     0.238 A 
ATOM      4  O   UNL     1     -15.697  -6.174 -18.730  1.00  0.00    -0.285 OA
ATOM      5  C   UNL     1     -16.050  -4.496 -17.146  1.00  0.00     0.111 A 
ATOM      6  C   UNL     1     -17.233  -5.045 -16.564  1.00  0.00     0.134 A 
ATOM      7  C   UNL     1     -17.958  -4.291 -15.633  1.00  0.00     0.093 A 
ATOM      8  C   UNL     1     -17.508  -3.036 -15.215  1.00  0.00     0.123 A 
ATOM      9  C   UNL     1     -16.324  -2.518 -15.734  1.00  0.00     0.094 A 
ATOM     10  C   UNL     1     -15.598  -3.231 -16.691  1.00  0.00     0.146 A 
ATOM     11  O   UNL     1     -14.479  -2.695 -17.167  1.00  0.00    -0.452 OA
ENDROOT
BRANCH   1  12
ATOM     12  C   UNL     1     -12.488  -2.587 -18.520  1.00  0.00     0.025 A 
ATOM     13  C   UNL     1     -11.244  -2.886 -17.937  1.00  0.00     0.016 A 
ATOM     14  C   UNL     1     -10.093  -2.205 -18.339  1.00  0.00     0.051 A 
ATOM     15  C   UNL     1     -10.167  -1.206 -19.319  1.00  0.00     0.157 A 
ATOM     16  C   UNL     1     -12.561  -1.571 -19.488  1.00  0.00     0.062 A 
ATOM     17  C   UNL     1     -11.409  -0.887 -19.894  1.00  0.00     0.158 A 
BRANCH  15  18
ATOM     18  O   UNL     1      -9.016  -0.531 -19.720  1.00  0.00    -0.504 OA
ATOM     19  H   UNL     1      -9.043   0.187 -20.434  1.00  0.00     0.293 HD
ENDBRANCH  15  18
BRANCH  17  20
ATOM     20  O   UNL     1     -11.518   0.106 -20.867  1.00  0.00    -0.504 OA
ATOM     21  H   UNL     1     -11.202   1.054 -20.707  1.00  0.00     0.293 HD
ENDBRANCH  17  20
ENDBRANCH   1  12
BRANCH   2  22
ATOM     22  O   UNL     1     -13.397  -5.074 -19.696  1.00  0.00    -0.502 OA
ATOM     23  H   UNL     1     -12.403  -5.250 -19.624  1.00  0.00     0.293 HD
ENDBRANCH   2  22
BRANCH   6  24
ATOM     24  O   UNL     1     -17.718  -6.326 -16.843  1.00  0.00    -0.507 OA
ATOM     25  H   UNL     1     -17.188  -7.178 -16.732  1.00  0.00     0.293 HD
ENDBRANCH   6  24
BRANCH   8  26
ATOM     26  O   UNL     1     -18.228  -2.299 -14.278  1.00  0.00    -0.508 OA
ATOM     27  H   UNL     1     -19.240  -2.262 -14.296  1.00  0.00     0.293 HD
ENDBRANCH   8  26
TORSDOF 6
ENDMDL
MODEL 6
REMARK VINA RESULT:    -5.719      3.231      5.234
REMARK INTER + INTRA:          -7.073
REMARK INTER:                  -6.795
REMARK INTRA:                  -0.278
REMARK UNBOUND:                -0.183
REMARK SMILES O=c1c(O)c(-c2ccc(O)c(O)c2)oc2cc(O)cc(O)c12
REMARK SMILES IDX 5 1 3 2 2 3 1 4 22 5 20 6 19 7 17 8 16 9 15 10 14 11 6 12
REMARK SMILES IDX 7 13 8 14 9 15 13 16 11 17 10 18 12 20 4 22 21 24 18 26
REMARK H PARENT 10 19 12 21 4 23 21 25 18 27
REMARK Flexibility Score: inf
ROOT
ATOM      1  C   UNL     1     -14.222  -3.026 -18.250  1.00  0.00     0.180 A 
ATOM      2  C   UNL     1     -13.546  -1.930 -18.813  1.00  0.00     0.208 A 
ATOM      3  C   UNL     1     -12.317  -2.146 -19.456  1.00  0.00     0.238 A 
ATOM      4  O   UNL     1     -11.744  -1.169 -20.006  1.00  0.00    -0.285 OA
ATOM      5  C   UNL     1     -11.773  -3.451 -19.515  1.00  0.00     0.111 A 
ATOM      6  C   UNL     1     -10.515  -3.777 -20.107  1.00  0.00     0.134 A 
ATOM      7  C   UNL     1     -10.135  -5.120 -20.223  1.00  0.00     0.093 A 
ATOM      8  C   UNL     1     -10.937  -6.143 -19.711  1.00  0.00     0.123 A 
ATOM      9  C   UNL     1     -12.138  -5.829 -19.080  1.00  0.00     0.094 A 
ATOM     10  C   UNL     1     -12.561  -4.502 -18.980  1.00  0.00     0.146 A 
ATOM     11  O   UNL     1     -13.718  -4.248 -18.378  1.00  0.00    -0.452 OA
ENDROOT
BRANCH   1  12
ATOM     12  C   UNL     1     -15.510  -2.875 -17.534  1.00  0.00     0.025 A 
ATOM     13  C   UNL     1     -16.718  -2.696 -18.229  1.00  0.00     0.016 A 
ATOM     14  C   UNL     1     -17.917  -2.530 -17.532  1.00  0.00     0.051 A 
ATOM     15  C   UNL     1     -17.926  -2.527 -16.131  1.00  0.00     0.157 A 
ATOM     16  C   UNL     1     -15.521  -2.850 -16.129  1.00  0.00     0.062 A 
ATOM     17  C   UNL     1     -16.720  -2.686 -15.427  1.00  0.00     0.158 A 
BRANCH  15  18
ATOM     18  O   UNL     1     -19.125  -2.365 -15.438  1.00  0.00    -0.504 OA
ATOM     19  H   UNL     1     -19.449  -1.450 -15.146  1.00  0.00     0.293 HD
ENDBRANCH  15  18
BRANCH  17  20
ATOM     20  O   UNL     1     -16.695  -2.681 -14.033  1.00  0.00    -0.504 OA
ATOM     21  H   UNL     1     -16.945  -1.862 -13.492  1.00  0.00     0.293 HD
ENDBRANCH  17  20
ENDBRANCH   1  12
BRANCH   2  22
ATOM     22  O   UNL     1     -14.113  -0.653 -18.763  1.00  0.00    -0.502 OA
ATOM     23  H   UNL     1     -14.110  -0.090 -17.921  1.00  0.00     0.293 HD
ENDBRANCH   2  22
BRANCH   6  24
ATOM     24  O   UNL     1      -9.598  -2.828 -20.567  1.00  0.00    -0.507 OA
ATOM     25  H   UNL     1      -8.598  -2.891 -20.449  1.00  0.00     0.293 HD
ENDBRANCH   6  24
BRANCH   8  26
ATOM     26  O   UNL     1     -10.545  -7.475 -19.818  1.00  0.00    -0.508 OA
ATOM     27  H   UNL     1     -10.725  -8.016 -20.655  1.00  0.00     0.293 HD
ENDBRANCH   8  26
TORSDOF 6
ENDMDL
MODEL 7
REMARK VINA RESULT:    -5.713      4.129      6.397
REMARK INTER + INTRA:          -7.065
REMARK INTER:                  -6.758
REMARK INTRA:                  -0.308
REMARK UNBOUND:                -0.183
REMARK SMILES O=c1c(O)c(-c2ccc(O)c(O)c2)oc2cc(O)cc(O)c12
REMARK SMILES IDX 5 1 3 2 2 3 1 4 22 5 20 6 19 7 17 8 16 9 15 10 14 11 6 12
REMARK SMILES IDX 7 13 8 14 9 15 13 16 11 17 10 18 12 20 4 22 21 24 18 26
REMARK H PARENT 10 19 12 21 4 23 21 25 18 27
REMARK Flexibility Score: inf
ROOT
ATOM      1  C   UNL     1     -12.918  -1.994 -19.183  1.00  0.00     0.180 A 
ATOM      2  C   UNL     1     -12.833  -3.383 -18.979  1.00  0.00     0.208 A 
ATOM      3  C   UNL     1     -13.866  -4.033 -18.285  1.00  0.00     0.238 A 
ATOM      4  O   UNL     1     -13.811  -5.284 -18.154  1.00  0.00    -0.285 OA
ATOM      5  C   UNL     1     -14.962  -3.286 -17.791  1.00  0.00     0.111 A 
ATOM      6  C   UNL     1     -16.044  -3.837 -17.039  1.00  0.00     0.134 A 
ATOM      7  C   UNL     1     -17.139  -3.028 -16.712  1.00  0.00     0.093 A 
ATOM      8  C   UNL     1     -17.161  -1.673 -17.053  1.00  0.00     0.123 A 
ATOM      9  C   UNL     1     -16.083  -1.114 -17.735  1.00  0.00     0.094 A 
ATOM     10  C   UNL     1     -14.993  -1.903 -18.106  1.00  0.00     0.146 A 
ATOM     11  O   UNL     1     -13.990  -1.332 -18.764  1.00  0.00    -0.452 OA
ENDROOT
BRANCH   1  12
ATOM     12  C   UNL     1     -11.857  -1.234 -19.882  1.00  0.00     0.025 A 
ATOM     13  C   UNL     1     -11.946  -0.947 -21.255  1.00  0.00     0.016 A 
ATOM     14  C   UNL     1     -10.921  -0.250 -21.899  1.00  0.00     0.051 A 
ATOM     15  C   UNL     1      -9.787   0.159 -21.186  1.00  0.00     0.157 A 
ATOM     16  C   UNL     1     -10.708  -0.841 -19.176  1.00  0.00     0.062 A 
ATOM     17  C   UNL     1      -9.680  -0.142 -19.818  1.00  0.00     0.158 A 
BRANCH  15  18
ATOM     18  O   UNL     1      -8.767   0.857 -21.831  1.00  0.00    -0.504 OA
ATOM     19  H   UNL     1      -8.915   1.305 -22.727  1.00  0.00     0.293 HD
ENDBRANCH  15  18
BRANCH  17  20
ATOM     20  O   UNL     1      -8.561   0.246 -19.081  1.00  0.00    -0.504 OA
ATOM     21  H   UNL     1      -7.721  -0.319 -19.041  1.00  0.00     0.293 HD
ENDBRANCH  17  20
ENDBRANCH   1  12
BRANCH   2  22
ATOM     22  O   UNL     1     -11.752  -4.104 -19.495  1.00  0.00    -0.502 OA
ATOM     23  H   UNL     1     -11.869  -4.843 -20.177  1.00  0.00     0.293 HD
ENDBRANCH   2  22
BRANCH   6  24
ATOM     24  O   UNL     1     -16.078  -5.153 -16.570  1.00  0.00    -0.507 OA
ATOM     25  H   UNL     1     -16.874  -5.770 -16.646  1.00  0.00     0.293 HD
ENDBRANCH   6  24
BRANCH   8  26
ATOM     26  O   UNL     1     -18.248  -0.872 -16.711  1.00  0.00    -0.508 OA
ATOM     27  H   UNL     1     -18.556  -0.777 -15.750  1.00  0.00     0.293 HD
ENDBRANCH   8  26
TORSDOF 6
ENDMDL
MODEL 8
REMARK VINA RESULT:    -5.594      2.127      7.012
REMARK INTER + INTRA:          -6.922
REMARK INTER:                  -6.598
REMARK INTRA:                  -0.323
REMARK UNBOUND:                -0.183
REMARK SMILES O=c1c(O)c(-c2ccc(O)c(O)c2)oc2cc(O)cc(O)c12
REMARK SMILES IDX 5 1 3 2 2 3 1 4 22 5 20 6 19 7 17 8 16 9 15 10 14 11 6 12
REMARK SMILES IDX 7 13 8 14 9 15 13 16 11 17 10 18 12 20 4 22 21 24 18 26
REMARK H PARENT 10 19 12 21 4 23 21 25 18 27
REMARK Flexibility Score: inf
ROOT
ATOM      1  C   UNL     1     -15.306  -4.407 -18.000  1.00  0.00     0.180 A 
ATOM      2  C   UNL     1     -16.222  -5.153 -17.236  1.00  0.00     0.208 A 
ATOM      3  C   UNL     1     -17.185  -4.473 -16.474  1.00  0.00     0.238 A 
ATOM      4  O   UNL     1     -18.036  -5.147 -15.836  1.00  0.00    -0.285 OA
ATOM      5  C   UNL     1     -17.211  -3.058 -16.472  1.00  0.00     0.111 A 
ATOM      6  C   UNL     1     -18.118  -2.266 -15.705  1.00  0.00     0.134 A 
ATOM      7  C   UNL     1     -18.139  -0.877 -15.880  1.00  0.00     0.093 A 
ATOM      8  C   UNL     1     -17.243  -0.245 -16.746  1.00  0.00     0.123 A 
ATOM      9  C   UNL     1     -16.315  -1.005 -17.454  1.00  0.00     0.094 A 
ATOM     10  C   UNL     1     -16.293  -2.396 -17.328  1.00  0.00     0.146 A 
ATOM     11  O   UNL     1     -15.398  -3.083 -18.029  1.00  0.00    -0.452 OA
ENDROOT
BRANCH   1  12
ATOM     12  C   UNL     1     -14.247  -5.051 -18.809  1.00  0.00     0.025 A 
ATOM     13  C   UNL     1     -14.464  -5.406 -20.152  1.00  0.00     0.016 A 
ATOM     14  C   UNL     1     -13.457  -6.035 -20.888  1.00  0.00     0.051 A 
ATOM     15  C   UNL     1     -12.224  -6.332 -20.292  1.00  0.00     0.157 A 
ATOM     16  C   UNL     1     -13.017  -5.369 -18.210  1.00  0.00     0.062 A 
ATOM     17  C   UNL     1     -12.005  -5.999 -18.945  1.00  0.00     0.158 A 
BRANCH  15  18
ATOM     18  O   UNL     1     -11.221  -6.957 -21.030  1.00  0.00    -0.504 OA
ATOM     19  H   UNL     1     -11.312  -7.109 -22.028  1.00  0.00     0.293 HD
ENDBRANCH  15  18
BRANCH  17  20
ATOM     20  O   UNL     1     -10.792  -6.286 -18.320  1.00  0.00    -0.504 OA
ATOM     21  H   UNL     1     -10.591  -5.990 -17.373  1.00  0.00     0.293 HD
ENDBRANCH  17  20
ENDBRANCH   1  12
BRANCH   2  22
ATOM     22  O   UNL     1     -16.191  -6.550 -17.270  1.00  0.00    -0.502 OA
ATOM     23  H   UNL     1     -15.931  -7.108 -16.467  1.00  0.00     0.293 HD
ENDBRANCH   2  22
BRANCH   6  24
ATOM     24  O   UNL     1     -18.992  -2.787 -14.746  1.00  0.00    -0.507 OA
ATOM     25  H   UNL     1     -19.273  -3.755 -14.691  1.00  0.00     0.293 HD
ENDBRANCH   6  24
BRANCH   8  26
ATOM     26  O   UNL     1     -17.261   1.138 -16.902  1.00  0.00    -0.508 OA
ATOM     27  H   UNL     1     -17.705   1.576 -17.701  1.00  0.00     0.293 HD
ENDBRANCH   8  26
TORSDOF 6
ENDMDL
MODEL 9
REMARK VINA RESULT:    -5.460      5.184      6.632
REMARK INTER + INTRA:          -6.761
REMARK INTER:                  -6.472
REMARK INTRA:                  -0.289
REMARK UNBOUND:                -0.183
REMARK SMILES O=c1c(O)c(-c2ccc(O)c(O)c2)oc2cc(O)cc(O)c12
REMARK SMILES IDX 5 1 3 2 2 3 1 4 22 5 20 6 19 7 17 8 16 9 15 10 14 11 6 12
REMARK SMILES IDX 7 13 8 14 9 15 13 16 11 17 10 18 12 20 4 22 21 24 18 26
REMARK H PARENT 10 19 12 21 4 23 21 25 18 27
REMARK Flexibility Score: inf
ROOT
ATOM      1  C   UNL     1     -11.823  -2.620 -19.324  1.00  0.00     0.180 A 
ATOM      2  C   UNL     1     -11.961  -3.046 -17.992  1.00  0.00     0.208 A 
ATOM      3  C   UNL     1     -12.780  -4.152 -17.713  1.00  0.00     0.238 A 
ATOM      4  O   UNL     1     -12.856  -4.563 -16.525  1.00  0.00    -0.285 OA
ATOM      5  C   UNL     1     -13.462  -4.807 -18.766  1.00  0.00     0.111 A 
ATOM      6  C   UNL     1     -14.349  -5.912 -18.592  1.00  0.00     0.134 A 
ATOM      7  C   UNL     1     -14.867  -6.564 -19.718  1.00  0.00     0.093 A 
ATOM      8  C   UNL     1     -14.582  -6.111 -21.009  1.00  0.00     0.123 A 
ATOM      9  C   UNL     1     -13.765  -4.997 -21.185  1.00  0.00     0.094 A 
ATOM     10  C   UNL     1     -13.205  -4.348 -20.083  1.00  0.00     0.146 A 
ATOM     11  O   UNL     1     -12.423  -3.295 -20.297  1.00  0.00    -0.452 OA
ENDROOT
BRANCH   1  12
ATOM     12  C   UNL     1     -10.998  -1.447 -19.694  1.00  0.00     0.025 A 
ATOM     13  C   UNL     1     -11.452  -0.134 -19.480  1.00  0.00     0.016 A 
ATOM     14  C   UNL     1     -10.666   0.957 -19.859  1.00  0.00     0.051 A 
ATOM     15  C   UNL     1      -9.422   0.754 -20.471  1.00  0.00     0.157 A 
ATOM     16  C   UNL     1      -9.759  -1.646 -20.326  1.00  0.00     0.062 A 
ATOM     17  C   UNL     1      -8.969  -0.555 -20.707  1.00  0.00     0.158 A 
BRANCH  15  18
ATOM     18  O   UNL     1      -8.640   1.845 -20.846  1.00  0.00    -0.504 OA
ATOM     19  H   UNL     1      -8.794   2.767 -20.457  1.00  0.00     0.293 HD
ENDBRANCH  15  18
BRANCH  17  20
ATOM     20  O   UNL     1      -7.738  -0.790 -21.320  1.00  0.00    -0.504 OA
ATOM     21  H   UNL     1      -7.608  -1.526 -22.003  1.00  0.00     0.293 HD
ENDBRANCH  17  20
ENDBRANCH   1  12
BRANCH   2  22
ATOM     22  O   UNL     1     -11.261  -2.398 -16.970  1.00  0.00    -0.502 OA
ATOM     23  H   UNL     1     -10.389  -2.753 -16.599  1.00  0.00     0.293 HD
ENDBRANCH   2  22
BRANCH   6  24
ATOM     24  O   UNL     1     -14.770  -6.387 -17.347  1.00  0.00    -0.507 OA
ATOM     25  H   UNL     1     -14.632  -5.905 -16.471  1.00  0.00     0.293 HD
ENDBRANCH   6  24
BRANCH   8  26
ATOM     26  O   UNL     1     -15.114  -6.756 -22.122  1.00  0.00    -0.508 OA
ATOM     27  H   UNL     1     -14.665  -7.567 -22.531  1.00  0.00     0.293 HD
ENDBRANCH   8  26
TORSDOF 6
ENDMDL
