MODEL 1
REMARK VINA RESULT:    -5.309      0.000      0.000
REMARK INTER + INTRA:          -8.067
REMARK INTER:                  -7.015
REMARK INTRA:                  -1.052
REMARK UNBOUND:                -1.052
REMARK SMILES CC[C@H](C=C[C@H](C)[C@@H]1CC[C@@H]2C3=CC[C@@H]4C[C@@H](O)CC[C@]4(C)[C@@H]3CC[C@@]21C)C(C)C
REMARK SMILES IDX 6 1 7 2 5 3 4 4 3 5 2 6 1 7 28 8 29 9 30 10 8 11 9 12 26 13
REMARK SMILES IDX 10 14 11 15 25 16 27 17 12 18 24 19 23 20 13 21 21 22 14 23
REMARK SMILES IDX 15 24 20 25 22 26 16 27 19 28 17 29 18 30
REMARK H PARENT 18 31
REMARK Flexibility Score: inf
ROOT
ATOM      1  C   UNL     1       7.643   0.770   1.586  1.00  0.00     0.012 C 
ATOM      2  C   UNL     1       8.245  -0.550   2.087  1.00  0.00     0.012 C 
ENDROOT
BRANCH   1   3
ATOM      3  C   UNL     1       7.870   1.857   2.614  1.00  0.00    -0.028 C 
ATOM      4  C   UNL     1       7.899   1.586   3.931  1.00  0.00    -0.027 C 
BRANCH   4   5
ATOM      5  C   UNL     1       8.210   2.663   4.954  1.00  0.00     0.014 C 
BRANCH   5   6
ATOM      6  C   UNL     1       7.046   2.859   5.963  1.00  0.00     0.004 C 
ATOM      7  C   UNL     1       6.559   1.588   6.667  1.00  0.00     0.004 C 
ENDBRANCH   5   6
BRANCH   5   8
ATOM      8  C   UNL     1       9.635   2.490   5.572  1.00  0.00    -0.011 C 
ATOM      9  C   UNL     1      10.098   1.036   5.776  1.00  0.00     0.008 C 
ATOM     10  C   UNL     1       9.794   3.282   6.880  1.00  0.00     0.008 C 
ENDBRANCH   5   8
ENDBRANCH   4   5
ENDBRANCH   1   3
BRANCH   1  11
ATOM     11  C   UNL     1       8.043   1.239   0.144  1.00  0.00     0.002 C 
ATOM     12  C   UNL     1       9.029   2.412   0.108  1.00  0.00     0.005 C 
ATOM     13  C   UNL     1       6.986   1.572  -0.956  1.00  0.00    -0.023 C 
ATOM     14  C   UNL     1       8.984   2.944  -1.329  1.00  0.00     0.009 C 
ATOM     15  C   UNL     1       7.917   2.120  -2.067  1.00  0.00     0.021 C 
ATOM     16  C   UNL     1       5.934   2.651  -0.510  1.00  0.00     0.008 C 
ATOM     17  C   UNL     1       6.273   0.283  -1.432  1.00  0.00     0.012 C 
ATOM     18  C   UNL     1       7.233   2.914  -3.170  1.00  0.00    -0.067 C 
ATOM     19  C   UNL     1       5.590   3.755  -1.534  1.00  0.00     0.009 C 
ATOM     20  C   UNL     1       5.784   3.330  -3.002  1.00  0.00     0.021 C 
ATOM     21  C   UNL     1       7.907   3.115  -4.315  1.00  0.00    -0.027 C 
ATOM     22  C   UNL     1       5.250   4.386  -4.053  1.00  0.00    -0.023 C 
ATOM     23  C   UNL     1       7.392   3.959  -5.434  1.00  0.00     0.031 C 
ATOM     24  C   UNL     1       5.851   4.067  -5.464  1.00  0.00     0.002 C 
ATOM     25  C   UNL     1       5.615   5.853  -3.662  1.00  0.00     0.010 C 
ATOM     26  C   UNL     1       3.699   4.236  -4.110  1.00  0.00     0.012 C 
ATOM     27  C   UNL     1       5.423   5.098  -6.537  1.00  0.00     0.036 C 
ATOM     28  C   UNL     1       5.190   6.890  -4.719  1.00  0.00     0.032 C 
ATOM     29  C   UNL     1       5.724   6.557  -6.124  1.00  0.00     0.114 C 
BRANCH  29  30
ATOM     30  O   UNL     1       5.200   7.454  -7.071  1.00  0.00    -0.393 OA
ATOM     31  H   UNL     1       5.953   8.000  -7.420  1.00  0.00     0.210 HD
ENDBRANCH  29  30
ENDBRANCH   1  11
TORSDOF 6
ENDMDL
MODEL 2
REMARK VINA RESULT:    -5.219      9.874     14.174
REMARK INTER + INTRA:          -7.949
REMARK INTER:                  -6.382
REMARK INTRA:                  -1.567
REMARK UNBOUND:                -1.052
REMARK SMILES CC[C@H](C=C[C@H](C)[C@@H]1CC[C@@H]2C3=CC[C@@H]4C[C@@H](O)CC[C@]4(C)[C@@H]3CC[C@@]21C)C(C)C
REMARK SMILES IDX 6 1 7 2 5 3 4 4 3 5 2 6 1 7 28 8 29 9 30 10 8 11 9 12 26 13
REMARK SMILES IDX 10 14 11 15 25 16 27 17 12 18 24 19 23 20 13 21 21 22 14 23
REMARK SMILES IDX 15 24 20 25 22 26 16 27 19 28 17 29 18 30
REMARK H PARENT 18 31
REMARK Flexibility Score: inf
ROOT
ATOM      1  C   UNL     1      -2.157  -5.470  -8.768  1.00  0.00     0.012 C 
ATOM      2  C   UNL     1      -2.746  -6.315  -9.905  1.00  0.00     0.012 C 
ENDROOT
BRANCH   1   3
ATOM      3  C   UNL     1      -3.193  -4.484  -8.274  1.00  0.00    -0.028 C 
ATOM      4  C   UNL     1      -2.876  -3.207  -7.999  1.00  0.00    -0.027 C 
BRANCH   4   5
ATOM      5  C   UNL     1      -3.933  -2.200  -7.585  1.00  0.00     0.014 C 
BRANCH   5   6
ATOM      6  C   UNL     1      -5.370  -2.716  -7.869  1.00  0.00     0.004 C 
ATOM      7  C   UNL     1      -6.432  -2.319  -6.838  1.00  0.00     0.004 C 
ENDBRANCH   5   6
BRANCH   5   8
ATOM      8  C   UNL     1      -3.676  -1.634  -6.151  1.00  0.00    -0.011 C 
ATOM      9  C   UNL     1      -3.113  -0.202  -6.095  1.00  0.00     0.008 C 
ATOM     10  C   UNL     1      -2.801  -2.577  -5.310  1.00  0.00     0.008 C 
ENDBRANCH   5   8
ENDBRANCH   4   5
ENDBRANCH   1   3
BRANCH   1  11
ATOM     11  C   UNL     1      -1.473  -6.239  -7.584  1.00  0.00     0.002 C 
ATOM     12  C   UNL     1      -2.298  -6.282  -6.294  1.00  0.00     0.005 C 
ATOM     13  C   UNL     1      -0.014  -5.935  -7.115  1.00  0.00    -0.023 C 
ATOM     14  C   UNL     1      -1.322  -6.719  -5.195  1.00  0.00     0.009 C 
ATOM     15  C   UNL     1       0.059  -6.840  -5.859  1.00  0.00     0.021 C 
ATOM     16  C   UNL     1       0.226  -4.426  -6.746  1.00  0.00     0.008 C 
ATOM     17  C   UNL     1       1.008  -6.402  -8.181  1.00  0.00     0.012 C 
ATOM     18  C   UNL     1       1.194  -6.538  -4.892  1.00  0.00    -0.067 C 
ATOM     19  C   UNL     1       1.026  -4.143  -5.456  1.00  0.00     0.009 C 
ATOM     20  C   UNL     1       2.003  -5.267  -5.065  1.00  0.00     0.021 C 
ATOM     21  C   UNL     1       1.519  -7.476  -3.987  1.00  0.00    -0.027 C 
ATOM     22  C   UNL     1       2.961  -4.898  -3.859  1.00  0.00    -0.023 C 
ATOM     23  C   UNL     1       2.544  -7.269  -2.921  1.00  0.00     0.031 C 
ATOM     24  C   UNL     1       3.603  -6.205  -3.285  1.00  0.00     0.002 C 
ATOM     25  C   UNL     1       2.212  -4.149  -2.713  1.00  0.00     0.010 C 
ATOM     26  C   UNL     1       4.086  -3.980  -4.429  1.00  0.00     0.012 C 
ATOM     27  C   UNL     1       4.507  -5.930  -2.057  1.00  0.00     0.036 C 
ATOM     28  C   UNL     1       3.100  -3.865  -1.486  1.00  0.00     0.032 C 
ATOM     29  C   UNL     1       3.787  -5.132  -0.947  1.00  0.00     0.114 C 
BRANCH  29  30
ATOM     30  O   UNL     1       4.686  -4.800   0.082  1.00  0.00    -0.393 OA
ATOM     31  H   UNL     1       4.803  -5.604   0.654  1.00  0.00     0.210 HD
ENDBRANCH  29  30
ENDBRANCH   1  11
TORSDOF 6
ENDMDL
MODEL 3
REMARK VINA RESULT:    -5.123      6.081      9.918
REMARK INTER + INTRA:          -7.822
REMARK INTER:                  -6.653
REMARK INTRA:                  -1.169
REMARK UNBOUND:                -1.052
REMARK SMILES CC[C@H](C=C[C@H](C)[C@@H]1CC[C@@H]2C3=CC[C@@H]4C[C@@H](O)CC[C@]4(C)[C@@H]3CC[C@@]21C)C(C)C
REMARK SMILES IDX 6 1 7 2 5 3 4 4 3 5 2 6 1 7 28 8 29 9 30 10 8 11 9 12 26 13
REMARK SMILES IDX 10 14 11 15 25 16 27 17 12 18 24 19 23 20 13 21 21 22 14 23
REMARK SMILES IDX 15 24 20 25 22 26 16 27 19 28 17 29 18 30
REMARK H PARENT 18 31
REMARK Flexibility Score: inf
ROOT
ATOM      1  C   UNL     1       3.075  -5.977  -3.050  1.00  0.00     0.012 C 
ATOM      2  C   UNL     1       2.597  -7.271  -2.376  1.00  0.00     0.012 C 
ENDROOT
BRANCH   1   3
ATOM      3  C   UNL     1       2.106  -5.582  -4.143  1.00  0.00    -0.028 C 
ATOM      4  C   UNL     1       1.008  -6.311  -4.408  1.00  0.00    -0.027 C 
BRANCH   4   5
ATOM      5  C   UNL     1      -0.005  -5.868  -5.446  1.00  0.00     0.014 C 
BRANCH   5   6
ATOM      6  C   UNL     1      -1.416  -6.453  -5.168  1.00  0.00     0.004 C 
ATOM      7  C   UNL     1      -2.177  -6.962  -6.397  1.00  0.00     0.004 C 
ENDBRANCH   5   6
BRANCH   5   8
ATOM      8  C   UNL     1       0.062  -4.329  -5.713  1.00  0.00    -0.011 C 
ATOM      9  C   UNL     1      -0.973  -3.479  -4.952  1.00  0.00     0.008 C 
ATOM     10  C   UNL     1       0.010  -4.003  -7.213  1.00  0.00     0.008 C 
ENDBRANCH   5   8
ENDBRANCH   4   5
ENDBRANCH   1   3
BRANCH   1  11
ATOM     11  C   UNL     1       3.423  -4.768  -2.113  1.00  0.00     0.002 C 
ATOM     12  C   UNL     1       2.249  -3.822  -1.837  1.00  0.00     0.005 C 
ATOM     13  C   UNL     1       4.642  -3.826  -2.372  1.00  0.00    -0.023 C 
ATOM     14  C   UNL     1       2.875  -2.551  -1.249  1.00  0.00     0.009 C 
ATOM     15  C   UNL     1       4.397  -2.761  -1.274  1.00  0.00     0.021 C 
ATOM     16  C   UNL     1       4.644  -3.180  -3.804  1.00  0.00     0.008 C 
ATOM     17  C   UNL     1       5.972  -4.577  -2.113  1.00  0.00     0.012 C 
ATOM     18  C   UNL     1       5.158  -1.454  -1.440  1.00  0.00    -0.067 C 
ATOM     19  C   UNL     1       4.990  -1.678  -3.891  1.00  0.00     0.009 C 
ATOM     20  C   UNL     1       5.884  -1.174  -2.742  1.00  0.00     0.021 C 
ATOM     21  C   UNL     1       5.262  -0.643  -0.374  1.00  0.00    -0.027 C 
ATOM     22  C   UNL     1       6.398   0.312  -2.931  1.00  0.00    -0.023 C 
ATOM     23  C   UNL     1       5.895   0.708  -0.428  1.00  0.00     0.031 C 
ATOM     24  C   UNL     1       6.931   0.857  -1.563  1.00  0.00     0.002 C 
ATOM     25  C   UNL     1       5.282   1.265  -3.461  1.00  0.00     0.010 C 
ATOM     26  C   UNL     1       7.571   0.266  -3.959  1.00  0.00     0.012 C 
ATOM     27  C   UNL     1       7.395   2.332  -1.654  1.00  0.00     0.036 C 
ATOM     28  C   UNL     1       5.731   2.736  -3.561  1.00  0.00     0.032 C 
ATOM     29  C   UNL     1       6.314   3.268  -2.240  1.00  0.00     0.114 C 
BRANCH  29  30
ATOM     30  O   UNL     1       6.830   4.563  -2.420  1.00  0.00    -0.393 OA
ATOM     31  H   UNL     1       7.432   4.758  -1.655  1.00  0.00     0.210 HD
ENDBRANCH  29  30
ENDBRANCH   1  11
TORSDOF 6
ENDMDL
MODEL 4
REMARK VINA RESULT:    -5.120      3.830      6.181
REMARK INTER + INTRA:          -7.819
REMARK INTER:                  -6.680
REMARK INTRA:                  -1.139
REMARK UNBOUND:                -1.052
REMARK SMILES CC[C@H](C=C[C@H](C)[C@@H]1CC[C@@H]2C3=CC[C@@H]4C[C@@H](O)CC[C@]4(C)[C@@H]3CC[C@@]21C)C(C)C
REMARK SMILES IDX 6 1 7 2 5 3 4 4 3 5 2 6 1 7 28 8 29 9 30 10 8 11 9 12 26 13
REMARK SMILES IDX 10 14 11 15 25 16 27 17 12 18 24 19 23 20 13 21 21 22 14 23
REMARK SMILES IDX 15 24 20 25 22 26 16 27 19 28 17 29 18 30
REMARK H PARENT 18 31
REMARK Flexibility Score: inf
ROOT
ATOM      1  C   UNL     1       6.412  -1.885  -1.147  1.00  0.00     0.012 C 
ATOM      2  C   UNL     1       7.191  -2.637  -0.059  1.00  0.00     0.012 C 
ENDROOT
BRANCH   1   3
ATOM      3  C   UNL     1       4.966  -2.330  -1.139  1.00  0.00    -0.028 C 
ATOM      4  C   UNL     1       4.411  -2.938  -2.201  1.00  0.00    -0.027 C 
BRANCH   4   5
ATOM      5  C   UNL     1       2.986  -3.459  -2.160  1.00  0.00     0.014 C 
BRANCH   5   6
ATOM      6  C   UNL     1       2.784  -4.672  -3.109  1.00  0.00     0.004 C 
ATOM      7  C   UNL     1       1.615  -4.554  -4.094  1.00  0.00     0.004 C 
ENDBRANCH   5   6
BRANCH   5   8
ATOM      8  C   UNL     1       2.467  -3.635  -0.696  1.00  0.00    -0.011 C 
ATOM      9  C   UNL     1       2.253  -5.090  -0.239  1.00  0.00     0.008 C 
ATOM     10  C   UNL     1       1.198  -2.809  -0.433  1.00  0.00     0.008 C 
ENDBRANCH   5   8
ENDBRANCH   4   5
ENDBRANCH   1   3
BRANCH   1  11
ATOM     11  C   UNL     1       6.542  -0.322  -1.169  1.00  0.00     0.002 C 
ATOM     12  C   UNL     1       5.511   0.413  -0.305  1.00  0.00     0.005 C 
ATOM     13  C   UNL     1       6.606   0.498  -2.497  1.00  0.00    -0.023 C 
ATOM     14  C   UNL     1       5.562   1.877  -0.759  1.00  0.00     0.009 C 
ATOM     15  C   UNL     1       6.558   1.938  -1.927  1.00  0.00     0.021 C 
ATOM     16  C   UNL     1       5.395   0.226  -3.462  1.00  0.00     0.008 C 
ATOM     17  C   UNL     1       7.949   0.247  -3.226  1.00  0.00     0.012 C 
ATOM     18  C   UNL     1       6.213   3.033  -2.925  1.00  0.00    -0.067 C 
ATOM     19  C   UNL     1       4.748   1.458  -4.133  1.00  0.00     0.009 C 
ATOM     20  C   UNL     1       5.705   2.653  -4.303  1.00  0.00     0.021 C 
ATOM     21  C   UNL     1       6.489   4.305  -2.590  1.00  0.00    -0.027 C 
ATOM     22  C   UNL     1       5.104   3.841  -5.161  1.00  0.00    -0.023 C 
ATOM     23  C   UNL     1       6.111   5.477  -3.434  1.00  0.00     0.031 C 
ATOM     24  C   UNL     1       5.958   5.133  -4.932  1.00  0.00     0.002 C 
ATOM     25  C   UNL     1       3.615   4.141  -4.802  1.00  0.00     0.010 C 
ATOM     26  C   UNL     1       5.200   3.421  -6.660  1.00  0.00     0.012 C 
ATOM     27  C   UNL     1       5.393   6.359  -5.691  1.00  0.00     0.036 C 
ATOM     28  C   UNL     1       3.039   5.356  -5.554  1.00  0.00     0.032 C 
ATOM     29  C   UNL     1       3.901   6.620  -5.387  1.00  0.00     0.114 C 
BRANCH  29  30
ATOM     30  O   UNL     1       3.408   7.658  -6.197  1.00  0.00    -0.393 OA
ATOM     31  H   UNL     1       4.121   8.344  -6.278  1.00  0.00     0.210 HD
ENDBRANCH  29  30
ENDBRANCH   1  11
TORSDOF 6
ENDMDL
MODEL 5
REMARK VINA RESULT:    -5.037      2.456      5.082
REMARK INTER + INTRA:          -7.709
REMARK INTER:                  -6.164
REMARK INTRA:                  -1.545
REMARK UNBOUND:                -1.052
REMARK SMILES CC[C@H](C=C[C@H](C)[C@@H]1CC[C@@H]2C3=CC[C@@H]4C[C@@H](O)CC[C@]4(C)[C@@H]3CC[C@@]21C)C(C)C
REMARK SMILES IDX 6 1 7 2 5 3 4 4 3 5 2 6 1 7 28 8 29 9 30 10 8 11 9 12 26 13
REMARK SMILES IDX 10 14 11 15 25 16 27 17 12 18 24 19 23 20 13 21 21 22 14 23
REMARK SMILES IDX 15 24 20 25 22 26 16 27 19 28 17 29 18 30
REMARK H PARENT 18 31
REMARK Flexibility Score: inf
ROOT
ATOM      1  C   UNL     1       8.099   0.861   0.310  1.00  0.00     0.012 C 
ATOM      2  C   UNL     1       8.601   0.893   1.760  1.00  0.00     0.012 C 
ENDROOT
BRANCH   1   3
ATOM      3  C   UNL     1       7.342  -0.425   0.060  1.00  0.00    -0.028 C 
ATOM      4  C   UNL     1       7.487  -1.117  -1.084  1.00  0.00    -0.027 C 
BRANCH   4   5
ATOM      5  C   UNL     1       6.792  -2.449  -1.298  1.00  0.00     0.014 C 
BRANCH   5   6
ATOM      6  C   UNL     1       6.769  -3.306  -0.003  1.00  0.00     0.004 C 
ATOM      7  C   UNL     1       6.895  -4.820  -0.209  1.00  0.00     0.004 C 
ENDBRANCH   5   6
BRANCH   5   8
ATOM      8  C   UNL     1       5.427  -2.287  -2.040  1.00  0.00    -0.011 C 
ATOM      9  C   UNL     1       5.349  -1.114  -3.036  1.00  0.00     0.008 C 
ATOM     10  C   UNL     1       4.244  -2.226  -1.062  1.00  0.00     0.008 C 
ENDBRANCH   5   8
ENDBRANCH   4   5
ENDBRANCH   1   3
BRANCH   1  11
ATOM     11  C   UNL     1       7.306   2.113  -0.201  1.00  0.00     0.002 C 
ATOM     12  C   UNL     1       5.784   1.935  -0.224  1.00  0.00     0.005 C 
ATOM     13  C   UNL     1       7.643   2.831  -1.547  1.00  0.00    -0.023 C 
ATOM     14  C   UNL     1       5.247   3.082  -1.089  1.00  0.00     0.009 C 
ATOM     15  C   UNL     1       6.474   3.846  -1.611  1.00  0.00     0.021 C 
ATOM     16  C   UNL     1       7.633   1.871  -2.791  1.00  0.00     0.008 C 
ATOM     17  C   UNL     1       8.999   3.571  -1.443  1.00  0.00     0.012 C 
ATOM     18  C   UNL     1       6.224   4.481  -2.971  1.00  0.00    -0.067 C 
ATOM     19  C   UNL     1       6.939   2.391  -4.069  1.00  0.00     0.009 C 
ATOM     20  C   UNL     1       6.929   3.927  -4.194  1.00  0.00     0.021 C 
ATOM     21  C   UNL     1       5.476   5.597  -3.020  1.00  0.00    -0.027 C 
ATOM     22  C   UNL     1       6.394   4.454  -5.588  1.00  0.00    -0.023 C 
ATOM     23  C   UNL     1       5.075   6.261  -4.296  1.00  0.00     0.031 C 
ATOM     24  C   UNL     1       6.039   5.975  -5.468  1.00  0.00     0.002 C 
ATOM     25  C   UNL     1       5.136   3.672  -6.078  1.00  0.00     0.010 C 
ATOM     26  C   UNL     1       7.549   4.277  -6.621  1.00  0.00     0.012 C 
ATOM     27  C   UNL     1       5.447   6.550  -6.779  1.00  0.00     0.036 C 
ATOM     28  C   UNL     1       4.540   4.231  -7.385  1.00  0.00     0.032 C 
ATOM     29  C   UNL     1       4.241   5.738  -7.302  1.00  0.00     0.114 C 
BRANCH  29  30
ATOM     30  O   UNL     1       3.827   6.224  -8.555  1.00  0.00    -0.393 OA
ATOM     31  H   UNL     1       4.641   6.479  -9.064  1.00  0.00     0.210 HD
ENDBRANCH  29  30
ENDBRANCH   1  11
TORSDOF 6
ENDMDL
MODEL 6
REMARK VINA RESULT:    -4.949      1.238      2.600
REMARK INTER + INTRA:          -7.593
REMARK INTER:                  -6.945
REMARK INTRA:                  -0.648
REMARK UNBOUND:                -1.052
REMARK SMILES CC[C@H](C=C[C@H](C)[C@@H]1CC[C@@H]2C3=CC[C@@H]4C[C@@H](O)CC[C@]4(C)[C@@H]3CC[C@@]21C)C(C)C
REMARK SMILES IDX 6 1 7 2 5 3 4 4 3 5 2 6 1 7 28 8 29 9 30 10 8 11 9 12 26 13
REMARK SMILES IDX 10 14 11 15 25 16 27 17 12 18 24 19 23 20 13 21 21 22 14 23
REMARK SMILES IDX 15 24 20 25 22 26 16 27 19 28 17 29 18 30
REMARK H PARENT 18 31
REMARK Flexibility Score: inf
ROOT
ATOM      1  C   UNL     1       8.033   0.769   1.034  1.00  0.00     0.012 C 
ATOM      2  C   UNL     1       9.492   0.571   0.602  1.00  0.00     0.012 C 
ENDROOT
BRANCH   1   3
ATOM      3  C   UNL     1       7.940   0.743   2.544  1.00  0.00    -0.028 C 
ATOM      4  C   UNL     1       7.981   1.872   3.273  1.00  0.00    -0.027 C 
BRANCH   4   5
ATOM      5  C   UNL     1       7.803   1.850   4.779  1.00  0.00     0.014 C 
BRANCH   5   6
ATOM      6  C   UNL     1       8.746   0.821   5.461  1.00  0.00     0.004 C 
ATOM      7  C   UNL     1       8.059  -0.212   6.360  1.00  0.00     0.004 C 
ENDBRANCH   5   6
BRANCH   5   8
ATOM      8  C   UNL     1       7.795   3.288   5.391  1.00  0.00    -0.011 C 
ATOM      9  C   UNL     1       9.107   3.728   6.068  1.00  0.00     0.008 C 
ATOM     10  C   UNL     1       6.612   3.499   6.348  1.00  0.00     0.008 C 
ENDBRANCH   5   8
ENDBRANCH   4   5
ENDBRANCH   1   3
BRANCH   1  11
ATOM     11  C   UNL     1       7.265   1.993   0.424  1.00  0.00     0.002 C 
ATOM     12  C   UNL     1       5.739   1.856   0.436  1.00  0.00     0.005 C 
ATOM     13  C   UNL     1       7.600   2.581  -0.984  1.00  0.00    -0.023 C 
ATOM     14  C   UNL     1       5.220   2.936  -0.520  1.00  0.00     0.009 C 
ATOM     15  C   UNL     1       6.458   3.617  -1.123  1.00  0.00     0.021 C 
ATOM     16  C   UNL     1       7.547   1.515  -2.138  1.00  0.00     0.008 C 
ATOM     17  C   UNL     1       8.977   3.289  -0.962  1.00  0.00     0.012 C 
ATOM     18  C   UNL     1       6.205   4.137  -2.530  1.00  0.00    -0.067 C 
ATOM     19  C   UNL     1       6.848   1.939  -3.448  1.00  0.00     0.009 C 
ATOM     20  C   UNL     1       6.876   3.457  -3.709  1.00  0.00     0.021 C 
ATOM     21  C   UNL     1       5.486   5.264  -2.669  1.00  0.00    -0.027 C 
ATOM     22  C   UNL     1       6.335   3.875  -5.137  1.00  0.00    -0.023 C 
ATOM     23  C   UNL     1       5.083   5.824  -3.993  1.00  0.00     0.031 C 
ATOM     24  C   UNL     1       6.021   5.409  -5.147  1.00  0.00     0.002 C 
ATOM     25  C   UNL     1       5.050   3.087  -5.540  1.00  0.00     0.010 C 
ATOM     26  C   UNL     1       7.469   3.575  -6.165  1.00  0.00     0.012 C 
ATOM     27  C   UNL     1       5.426   5.882  -6.497  1.00  0.00     0.036 C 
ATOM     28  C   UNL     1       4.449   3.545  -6.883  1.00  0.00     0.032 C 
ATOM     29  C   UNL     1       4.191   5.061  -6.930  1.00  0.00     0.114 C 
BRANCH  29  30
ATOM     30  O   UNL     1       3.771   5.445  -8.216  1.00  0.00    -0.393 OA
ATOM     31  H   UNL     1       4.528   5.919  -8.652  1.00  0.00     0.210 HD
ENDBRANCH  29  30
ENDBRANCH   1  11
TORSDOF 6
ENDMDL
MODEL 7
REMARK VINA RESULT:    -4.913      5.994      9.629
REMARK INTER + INTRA:          -7.544
REMARK INTER:                  -6.524
REMARK INTRA:                  -1.021
REMARK UNBOUND:                -1.052
REMARK SMILES CC[C@H](C=C[C@H](C)[C@@H]1CC[C@@H]2C3=CC[C@@H]4C[C@@H](O)CC[C@]4(C)[C@@H]3CC[C@@]21C)C(C)C
REMARK SMILES IDX 6 1 7 2 5 3 4 4 3 5 2 6 1 7 28 8 29 9 30 10 8 11 9 12 26 13
REMARK SMILES IDX 10 14 11 15 25 16 27 17 12 18 24 19 23 20 13 21 21 22 14 23
REMARK SMILES IDX 15 24 20 25 22 26 16 27 19 28 17 29 18 30
REMARK H PARENT 18 31
REMARK Flexibility Score: inf
ROOT
ATOM      1  C   UNL     1       3.920  -5.739  -2.715  1.00  0.00     0.012 C 
ATOM      2  C   UNL     1       4.665  -6.997  -2.250  1.00  0.00     0.012 C 
ENDROOT
BRANCH   1   3
ATOM      3  C   UNL     1       2.467  -6.073  -2.974  1.00  0.00    -0.028 C 
ATOM      4  C   UNL     1       1.995  -6.242  -4.221  1.00  0.00    -0.027 C 
BRANCH   4   5
ATOM      5  C   UNL     1       0.558  -6.660  -4.474  1.00  0.00     0.014 C 
BRANCH   5   6
ATOM      6  C   UNL     1      -0.243  -5.560  -5.223  1.00  0.00     0.004 C 
ATOM      7  C   UNL     1      -1.721  -5.875  -5.477  1.00  0.00     0.004 C 
ENDBRANCH   5   6
BRANCH   5   8
ATOM      8  C   UNL     1       0.461  -8.105  -5.062  1.00  0.00    -0.011 C 
ATOM      9  C   UNL     1       0.780  -9.244  -4.077  1.00  0.00     0.008 C 
ATOM     10  C   UNL     1       1.301  -8.262  -6.339  1.00  0.00     0.008 C 
ENDBRANCH   5   8
ENDBRANCH   4   5
ENDBRANCH   1   3
BRANCH   1  11
ATOM     11  C   UNL     1       4.075  -4.449  -1.837  1.00  0.00     0.002 C 
ATOM     12  C   UNL     1       2.773  -3.671  -1.616  1.00  0.00     0.005 C 
ATOM     13  C   UNL     1       5.148  -3.353  -2.133  1.00  0.00    -0.023 C 
ATOM     14  C   UNL     1       3.199  -2.297  -1.086  1.00  0.00     0.009 C 
ATOM     15  C   UNL     1       4.735  -2.283  -1.091  1.00  0.00     0.021 C 
ATOM     16  C   UNL     1       5.077  -2.783  -3.595  1.00  0.00     0.008 C 
ATOM     17  C   UNL     1       6.569  -3.889  -1.828  1.00  0.00     0.012 C 
ATOM     18  C   UNL     1       5.301  -0.889  -1.316  1.00  0.00    -0.067 C 
ATOM     19  C   UNL     1       5.202  -1.252  -3.754  1.00  0.00     0.009 C 
ATOM     20  C   UNL     1       5.997  -0.568  -2.625  1.00  0.00     0.021 C 
ATOM     21  C   UNL     1       5.271  -0.021  -0.290  1.00  0.00    -0.027 C 
ATOM     22  C   UNL     1       6.293   0.965  -2.883  1.00  0.00    -0.023 C 
ATOM     23  C   UNL     1       5.702   1.404  -0.406  1.00  0.00     0.031 C 
ATOM     24  C   UNL     1       6.722   1.647  -1.540  1.00  0.00     0.002 C 
ATOM     25  C   UNL     1       5.058   1.720  -3.467  1.00  0.00     0.010 C 
ATOM     26  C   UNL     1       7.474   1.042  -3.899  1.00  0.00     0.012 C 
ATOM     27  C   UNL     1       6.968   3.168  -1.700  1.00  0.00     0.036 C 
ATOM     28  C   UNL     1       5.290   3.234  -3.636  1.00  0.00     0.032 C 
ATOM     29  C   UNL     1       5.771   3.907  -2.339  1.00  0.00     0.114 C 
BRANCH  29  30
ATOM     30  O   UNL     1       6.096   5.254  -2.579  1.00  0.00    -0.393 OA
ATOM     31  H   UNL     1       6.239   5.692  -1.699  1.00  0.00     0.210 HD
ENDBRANCH  29  30
ENDBRANCH   1  11
TORSDOF 6
ENDMDL
MODEL 8
REMARK VINA RESULT:    -4.846      3.352      9.456
REMARK INTER + INTRA:          -7.456
REMARK INTER:                  -6.751
REMARK INTRA:                  -0.705
REMARK UNBOUND:                -1.052
REMARK SMILES CC[C@H](C=C[C@H](C)[C@@H]1CC[C@@H]2C3=CC[C@@H]4C[C@@H](O)CC[C@]4(C)[C@@H]3CC[C@@]21C)C(C)C
REMARK SMILES IDX 6 1 7 2 5 3 4 4 3 5 2 6 1 7 28 8 29 9 30 10 8 11 9 12 26 13
REMARK SMILES IDX 10 14 11 15 25 16 27 17 12 18 24 19 23 20 13 21 21 22 14 23
REMARK SMILES IDX 15 24 20 25 22 26 16 27 19 28 17 29 18 30
REMARK H PARENT 18 31
REMARK Flexibility Score: inf
ROOT
ATOM      1  C   UNL     1       5.538   5.360  -6.936  1.00  0.00     0.012 C 
ATOM      2  C   UNL     1       4.072   5.368  -6.482  1.00  0.00     0.012 C 
ENDROOT
BRANCH   1   3
ATOM      3  C   UNL     1       5.857   6.655  -7.652  1.00  0.00    -0.028 C 
ATOM      4  C   UNL     1       6.645   7.591  -7.095  1.00  0.00    -0.027 C 
BRANCH   4   5
ATOM      5  C   UNL     1       7.032   8.850  -7.849  1.00  0.00     0.014 C 
BRANCH   5   6
ATOM      6  C   UNL     1       6.423  10.124  -7.203  1.00  0.00     0.004 C 
ATOM      7  C   UNL     1       4.937  10.035  -6.837  1.00  0.00     0.004 C 
ENDBRANCH   5   6
BRANCH   5   8
ATOM      8  C   UNL     1       8.563   8.901  -8.161  1.00  0.00    -0.011 C 
ATOM      9  C   UNL     1       9.340   7.601  -7.878  1.00  0.00     0.008 C 
ATOM     10  C   UNL     1       9.252  10.087  -7.468  1.00  0.00     0.008 C 
ENDBRANCH   5   8
ENDBRANCH   4   5
ENDBRANCH   1   3
BRANCH   1  11
ATOM     11  C   UNL     1       6.620   5.009  -5.856  1.00  0.00     0.002 C 
ATOM     12  C   UNL     1       7.560   3.864  -6.249  1.00  0.00     0.005 C 
ATOM     13  C   UNL     1       6.259   4.733  -4.362  1.00  0.00    -0.023 C 
ATOM     14  C   UNL     1       8.256   3.439  -4.950  1.00  0.00     0.009 C 
ATOM     15  C   UNL     1       7.644   4.290  -3.827  1.00  0.00     0.021 C 
ATOM     16  C   UNL     1       5.185   3.601  -4.173  1.00  0.00     0.008 C 
ATOM     17  C   UNL     1       5.800   6.038  -3.665  1.00  0.00     0.012 C 
ATOM     18  C   UNL     1       7.635   3.564  -2.490  1.00  0.00    -0.067 C 
ATOM     19  C   UNL     1       5.450   2.569  -3.056  1.00  0.00     0.009 C 
ATOM     20  C   UNL     1       6.315   3.105  -1.900  1.00  0.00     0.021 C 
ATOM     21  C   UNL     1       8.794   3.464  -1.817  1.00  0.00    -0.027 C 
ATOM     22  C   UNL     1       6.426   2.117  -0.667  1.00  0.00    -0.023 C 
ATOM     23  C   UNL     1       8.942   2.694  -0.546  1.00  0.00     0.031 C 
ATOM     24  C   UNL     1       7.622   2.554   0.244  1.00  0.00     0.002 C 
ATOM     25  C   UNL     1       6.633   0.635  -1.108  1.00  0.00     0.010 C 
ATOM     26  C   UNL     1       5.096   2.236   0.139  1.00  0.00     0.012 C 
ATOM     27  C   UNL     1       7.834   1.595   1.442  1.00  0.00     0.036 C 
ATOM     28  C   UNL     1       6.841  -0.331   0.074  1.00  0.00     0.032 C 
ATOM     29  C   UNL     1       7.975   0.117   1.013  1.00  0.00     0.114 C 
BRANCH  29  30
ATOM     30  O   UNL     1       8.034  -0.719   2.141  1.00  0.00    -0.393 OA
ATOM     31  H   UNL     1       8.873  -0.509   2.631  1.00  0.00     0.210 HD
ENDBRANCH  29  30
ENDBRANCH   1  11
TORSDOF 6
ENDMDL
MODEL 9
REMARK VINA RESULT:    -4.820      3.443      9.588
REMARK INTER + INTRA:          -7.422
REMARK INTER:                  -5.860
REMARK INTRA:                  -1.562
REMARK UNBOUND:                -1.052
REMARK SMILES CC[C@H](C=C[C@H](C)[C@@H]1CC[C@@H]2C3=CC[C@@H]4C[C@@H](O)CC[C@]4(C)[C@@H]3CC[C@@]21C)C(C)C
REMARK SMILES IDX 6 1 7 2 5 3 4 4 3 5 2 6 1 7 28 8 29 9 30 10 8 11 9 12 26 13
REMARK SMILES IDX 10 14 11 15 25 16 27 17 12 18 24 19 23 20 13 21 21 22 14 23
REMARK SMILES IDX 15 24 20 25 22 26 16 27 19 28 17 29 18 30
REMARK H PARENT 18 31
REMARK Flexibility Score: inf
ROOT
ATOM      1  C   UNL     1       4.767   5.581  -7.223  1.00  0.00     0.012 C 
ATOM      2  C   UNL     1       5.041   6.745  -8.185  1.00  0.00     0.012 C 
ENDROOT
BRANCH   1   3
ATOM      3  C   UNL     1       4.143   4.429  -7.980  1.00  0.00    -0.028 C 
ATOM      4  C   UNL     1       3.064   3.779  -7.510  1.00  0.00    -0.027 C 
BRANCH   4   5
ATOM      5  C   UNL     1       2.390   2.680  -8.311  1.00  0.00     0.014 C 
BRANCH   5   6
ATOM      6  C   UNL     1       3.058   2.480  -9.698  1.00  0.00     0.004 C 
ATOM      7  C   UNL     1       3.836   1.171  -9.875  1.00  0.00     0.004 C 
ENDBRANCH   5   6
BRANCH   5   8
ATOM      8  C   UNL     1       2.165   1.388  -7.461  1.00  0.00    -0.011 C 
ATOM      9  C   UNL     1       0.713   1.132  -7.015  1.00  0.00     0.008 C 
ATOM     10  C   UNL     1       3.107   1.326  -6.248  1.00  0.00     0.008 C 
ENDBRANCH   5   8
ENDBRANCH   4   5
ENDBRANCH   1   3
BRANCH   1  11
ATOM     11  C   UNL     1       5.955   5.107  -6.315  1.00  0.00     0.002 C 
ATOM     12  C   UNL     1       6.624   3.806  -6.772  1.00  0.00     0.005 C 
ATOM     13  C   UNL     1       5.824   4.965  -4.765  1.00  0.00    -0.023 C 
ATOM     14  C   UNL     1       7.463   3.334  -5.580  1.00  0.00     0.009 C 
ATOM     15  C   UNL     1       7.197   4.325  -4.436  1.00  0.00     0.021 C 
ATOM     16  C   UNL     1       4.639   4.034  -4.317  1.00  0.00     0.008 C 
ATOM     17  C   UNL     1       5.701   6.358  -4.100  1.00  0.00     0.012 C 
ATOM     18  C   UNL     1       7.311   3.674  -3.067  1.00  0.00    -0.067 C 
ATOM     19  C   UNL     1       4.934   3.025  -3.186  1.00  0.00     0.009 C 
ATOM     20  C   UNL     1       6.062   3.465  -2.233  1.00  0.00     0.021 C 
ATOM     21  C   UNL     1       8.541   3.416  -2.590  1.00  0.00    -0.027 C 
ATOM     22  C   UNL     1       6.234   2.532  -0.965  1.00  0.00    -0.023 C 
ATOM     23  C   UNL     1       8.790   2.692  -1.308  1.00  0.00     0.031 C 
ATOM     24  C   UNL     1       7.625   2.807  -0.301  1.00  0.00     0.002 C 
ATOM     25  C   UNL     1       6.130   1.016  -1.324  1.00  0.00     0.010 C 
ATOM     26  C   UNL     1       5.101   2.905   0.039  1.00  0.00     0.012 C 
ATOM     27  C   UNL     1       7.894   1.883   0.913  1.00  0.00     0.036 C 
ATOM     28  C   UNL     1       6.391   0.085  -0.124  1.00  0.00     0.032 C 
ATOM     29  C   UNL     1       7.728   0.384   0.577  1.00  0.00     0.114 C 
BRANCH  29  30
ATOM     30  O   UNL     1       7.856  -0.397   1.739  1.00  0.00    -0.393 OA
ATOM     31  H   UNL     1       8.817  -0.418   1.986  1.00  0.00     0.210 HD
ENDBRANCH  29  30
ENDBRANCH   1  11
TORSDOF 6
ENDMDL
