MODEL 1
REMARK VINA RESULT:    -3.818      0.000      0.000
REMARK INTER + INTRA:         -13.667
REMARK INTER:                  -9.620
REMARK INTRA:                  -4.046
REMARK UNBOUND:                -4.046
REMARK SMILES CCCCCCCCCCCCCCCCCCCCCCCCCCCC(=O)[O-]
REMARK SMILES IDX 15 1 16 2 17 3 18 4 19 5 20 6 21 7 22 8 23 9 24 10 25 11
REMARK SMILES IDX 26 12 27 13 28 14 29 15 30 16 14 17 13 18 12 19 11 20 10 21
REMARK SMILES IDX 9 22 8 23 7 24 6 25 5 26 4 27 3 28 2 29 1 30
REMARK H PARENT
REMARK Flexibility Score: inf
ROOT
ATOM      1  C   UNL     1      -7.758 -66.581  -0.369  1.00  0.00     0.000 C 
ENDROOT
BRANCH   1   2
ATOM      2  C   UNL     1      -9.168 -66.198   0.107  1.00  0.00     0.000 C 
BRANCH   2   3
ATOM      3  C   UNL     1      -9.208 -65.801   1.593  1.00  0.00     0.000 C 
BRANCH   3   4
ATOM      4  C   UNL     1      -8.432 -66.781   2.498  1.00  0.00     0.000 C 
BRANCH   4   5
ATOM      5  C   UNL     1      -7.668 -66.105   3.652  1.00  0.00     0.000 C 
BRANCH   5   6
ATOM      6  C   UNL     1      -8.256 -66.335   5.057  1.00  0.00     0.000 C 
BRANCH   6   7
ATOM      7  C   UNL     1      -9.782 -66.165   5.167  1.00  0.00     0.000 C 
BRANCH   7   8
ATOM      8  C   UNL     1     -10.432 -66.818   6.401  1.00  0.00     0.000 C 
BRANCH   8   9
ATOM      9  C   UNL     1      -9.670 -68.045   6.945  1.00  0.00     0.000 C 
BRANCH   9  10
ATOM     10  C   UNL     1     -10.319 -69.382   6.536  1.00  0.00     0.000 C 
BRANCH  10  11
ATOM     11  C   UNL     1      -9.290 -70.430   6.077  1.00  0.00     0.000 C 
BRANCH  11  12
ATOM     12  C   UNL     1      -8.368 -69.982   4.925  1.00  0.00     0.006 C 
BRANCH  12  13
ATOM     13  C   UNL     1      -7.124 -70.869   4.738  1.00  0.00     0.053 C 
BRANCH  13  14
ATOM     14  C   UNL     1      -7.456 -72.250   4.262  1.00  0.00     0.041 C 
ATOM     15  O   UNL     1      -8.197 -72.418   3.258  1.00  0.00    -0.550 OA
ATOM     16  O   UNL     1      -6.908 -73.355   4.903  1.00  0.00    -0.550 OA
ENDBRANCH  13  14
ENDBRANCH  12  13
ENDBRANCH  11  12
ENDBRANCH  10  11
ENDBRANCH   9  10
ENDBRANCH   8   9
ENDBRANCH   7   8
ENDBRANCH   6   7
ENDBRANCH   5   6
ENDBRANCH   4   5
ENDBRANCH   3   4
ENDBRANCH   2   3
ENDBRANCH   1   2
BRANCH   1  17
ATOM     17  C   UNL     1      -7.096 -65.485  -1.219  1.00  0.00     0.000 C 
BRANCH  17  18
ATOM     18  C   UNL     1      -8.052 -64.301  -1.424  1.00  0.00     0.000 C 
BRANCH  18  19
ATOM     19  C   UNL     1      -7.333 -63.021  -1.887  1.00  0.00     0.000 C 
BRANCH  19  20
ATOM     20  C   UNL     1      -6.983 -62.031  -0.759  1.00  0.00     0.000 C 
BRANCH  20  21
ATOM     21  C   UNL     1      -7.383 -62.486   0.661  1.00  0.00     0.000 C 
BRANCH  21  22
ATOM     22  C   UNL     1      -6.215 -62.658   1.649  1.00  0.00    -0.000 C 
BRANCH  22  23
ATOM     23  C   UNL     1      -5.458 -63.982   1.460  1.00  0.00    -0.000 C 
BRANCH  23  24
ATOM     24  C   UNL     1      -4.079 -63.788   0.802  1.00  0.00    -0.000 C 
BRANCH  24  25
ATOM     25  C   UNL     1      -3.938 -64.385  -0.613  1.00  0.00    -0.000 C 
BRANCH  25  26
ATOM     26  C   UNL     1      -3.637 -63.364  -1.727  1.00  0.00    -0.000 C 
BRANCH  26  27
ATOM     27  C   UNL     1      -3.228 -64.027  -3.052  1.00  0.00    -0.000 C 
BRANCH  27  28
ATOM     28  C   UNL     1      -4.392 -64.834  -3.646  1.00  0.00    -0.000 C 
BRANCH  28  29
ATOM     29  C   UNL     1      -4.007 -66.293  -3.943  1.00  0.00    -0.003 C 
ATOM     30  C   UNL     1      -4.681 -67.286  -2.998  1.00  0.00     0.004 C 
ENDBRANCH  28  29
ENDBRANCH  27  28
ENDBRANCH  26  27
ENDBRANCH  25  26
ENDBRANCH  24  25
ENDBRANCH  23  24
ENDBRANCH  22  23
ENDBRANCH  21  22
ENDBRANCH  20  21
ENDBRANCH  19  20
ENDBRANCH  18  19
ENDBRANCH  17  18
ENDBRANCH   1  17
TORSDOF 26
ENDMDL
MODEL 2
REMARK VINA RESULT:    -3.741      4.719      9.521
REMARK INTER + INTRA:         -13.475
REMARK INTER:                  -8.947
REMARK INTRA:                  -4.528
REMARK UNBOUND:                -4.046
REMARK SMILES CCCCCCCCCCCCCCCCCCCCCCCCCCCC(=O)[O-]
REMARK SMILES IDX 15 1 16 2 17 3 18 4 19 5 20 6 21 7 22 8 23 9 24 10 25 11
REMARK SMILES IDX 26 12 27 13 28 14 29 15 30 16 14 17 13 18 12 19 11 20 10 21
REMARK SMILES IDX 9 22 8 23 7 24 6 25 5 26 4 27 3 28 2 29 1 30
REMARK H PARENT
REMARK Flexibility Score: inf
ROOT
ATOM      1  C   UNL     1      -4.488 -62.620  -0.437  1.00  0.00     0.000 C 
ENDROOT
BRANCH   1   2
ATOM      2  C   UNL     1      -4.025 -63.873   0.323  1.00  0.00     0.000 C 
BRANCH   2   3
ATOM      3  C   UNL     1      -4.014 -65.135  -0.558  1.00  0.00     0.000 C 
BRANCH   3   4
ATOM      4  C   UNL     1      -3.693 -64.832  -2.037  1.00  0.00     0.000 C 
BRANCH   4   5
ATOM      5  C   UNL     1      -4.573 -65.597  -3.043  1.00  0.00     0.000 C 
BRANCH   5   6
ATOM      6  C   UNL     1      -4.781 -67.092  -2.734  1.00  0.00     0.000 C 
BRANCH   6   7
ATOM      7  C   UNL     1      -4.549 -68.046  -3.919  1.00  0.00     0.000 C 
BRANCH   7   8
ATOM      8  C   UNL     1      -3.823 -67.430  -5.130  1.00  0.00     0.000 C 
BRANCH   8   9
ATOM      9  C   UNL     1      -4.385 -67.872  -6.499  1.00  0.00     0.000 C 
BRANCH   9  10
ATOM     10  C   UNL     1      -4.656 -66.686  -7.445  1.00  0.00     0.000 C 
BRANCH  10  11
ATOM     11  C   UNL     1      -5.091 -65.413  -6.699  1.00  0.00     0.000 C 
BRANCH  11  12
ATOM     12  C   UNL     1      -4.455 -64.104  -7.210  1.00  0.00     0.006 C 
BRANCH  12  13
ATOM     13  C   UNL     1      -2.932 -64.026  -7.004  1.00  0.00     0.053 C 
BRANCH  13  14
ATOM     14  C   UNL     1      -2.533 -63.024  -5.965  1.00  0.00     0.041 C 
ATOM     15  O   UNL     1      -2.680 -61.792  -6.177  1.00  0.00    -0.550 OA
ATOM     16  O   UNL     1      -2.039 -63.456  -4.739  1.00  0.00    -0.550 OA
ENDBRANCH  13  14
ENDBRANCH  12  13
ENDBRANCH  11  12
ENDBRANCH  10  11
ENDBRANCH   9  10
ENDBRANCH   8   9
ENDBRANCH   7   8
ENDBRANCH   6   7
ENDBRANCH   5   6
ENDBRANCH   4   5
ENDBRANCH   3   4
ENDBRANCH   2   3
ENDBRANCH   1   2
BRANCH   1  17
ATOM     17  C   UNL     1      -6.003 -62.383  -0.331  1.00  0.00     0.000 C 
BRANCH  17  18
ATOM     18  C   UNL     1      -6.635 -62.265  -1.725  1.00  0.00     0.000 C 
BRANCH  18  19
ATOM     19  C   UNL     1      -7.458 -63.504  -2.120  1.00  0.00     0.000 C 
BRANCH  19  20
ATOM     20  C   UNL     1      -8.052 -64.291  -0.935  1.00  0.00     0.000 C 
BRANCH  20  21
ATOM     21  C   UNL     1      -7.621 -65.770  -0.848  1.00  0.00     0.000 C 
BRANCH  21  22
ATOM     22  C   UNL     1      -7.996 -66.488   0.462  1.00  0.00    -0.000 C 
BRANCH  22  23
ATOM     23  C   UNL     1      -8.809 -65.604   1.420  1.00  0.00    -0.000 C 
BRANCH  23  24
ATOM     24  C   UNL     1      -8.094 -65.372   2.765  1.00  0.00    -0.000 C 
BRANCH  24  25
ATOM     25  C   UNL     1      -6.626 -64.913   2.656  1.00  0.00    -0.000 C 
BRANCH  25  26
ATOM     26  C   UNL     1      -6.327 -63.527   3.258  1.00  0.00    -0.000 C 
BRANCH  26  27
ATOM     27  C   UNL     1      -7.599 -62.716   3.555  1.00  0.00    -0.000 C 
BRANCH  27  28
ATOM     28  C   UNL     1      -7.495 -61.297   2.978  1.00  0.00    -0.000 C 
BRANCH  28  29
ATOM     29  C   UNL     1      -8.412 -61.085   1.763  1.00  0.00    -0.003 C 
ATOM     30  C   UNL     1      -9.533 -60.083   2.035  1.00  0.00     0.004 C 
ENDBRANCH  28  29
ENDBRANCH  27  28
ENDBRANCH  26  27
ENDBRANCH  25  26
ENDBRANCH  24  25
ENDBRANCH  23  24
ENDBRANCH  22  23
ENDBRANCH  21  22
ENDBRANCH  20  21
ENDBRANCH  19  20
ENDBRANCH  18  19
ENDBRANCH  17  18
ENDBRANCH   1  17
TORSDOF 26
ENDMDL
MODEL 3
REMARK VINA RESULT:    -3.705      4.410      8.544
REMARK INTER + INTRA:         -13.382
REMARK INTER:                  -8.716
REMARK INTRA:                  -4.666
REMARK UNBOUND:                -4.046
REMARK SMILES CCCCCCCCCCCCCCCCCCCCCCCCCCCC(=O)[O-]
REMARK SMILES IDX 15 1 16 2 17 3 18 4 19 5 20 6 21 7 22 8 23 9 24 10 25 11
REMARK SMILES IDX 26 12 27 13 28 14 29 15 30 16 14 17 13 18 12 19 11 20 10 21
REMARK SMILES IDX 9 22 8 23 7 24 6 25 5 26 4 27 3 28 2 29 1 30
REMARK H PARENT
REMARK Flexibility Score: inf
ROOT
ATOM      1  C   UNL     1      -8.530 -64.601  -0.757  1.00  0.00     0.000 C 
ENDROOT
BRANCH   1   2
ATOM      2  C   UNL     1      -7.610 -63.657  -1.547  1.00  0.00     0.000 C 
BRANCH   2   3
ATOM      3  C   UNL     1      -7.012 -62.540  -0.674  1.00  0.00     0.000 C 
BRANCH   3   4
ATOM      4  C   UNL     1      -5.484 -62.665  -0.501  1.00  0.00     0.000 C 
BRANCH   4   5
ATOM      5  C   UNL     1      -5.053 -63.600   0.644  1.00  0.00     0.000 C 
BRANCH   5   6
ATOM      6  C   UNL     1      -4.696 -65.038   0.222  1.00  0.00     0.000 C 
BRANCH   6   7
ATOM      7  C   UNL     1      -3.943 -65.163  -1.115  1.00  0.00     0.000 C 
BRANCH   7   8
ATOM      8  C   UNL     1      -4.727 -65.843  -2.253  1.00  0.00     0.000 C 
BRANCH   8   9
ATOM      9  C   UNL     1      -4.731 -65.055  -3.580  1.00  0.00     0.000 C 
BRANCH   9  10
ATOM     10  C   UNL     1      -3.841 -65.697  -4.661  1.00  0.00     0.000 C 
BRANCH  10  11
ATOM     11  C   UNL     1      -3.861 -67.235  -4.615  1.00  0.00     0.000 C 
BRANCH  11  12
ATOM     12  C   UNL     1      -4.315 -67.923  -5.918  1.00  0.00     0.006 C 
BRANCH  12  13
ATOM     13  C   UNL     1      -4.054 -67.094  -7.189  1.00  0.00     0.053 C 
BRANCH  13  14
ATOM     14  C   UNL     1      -4.432 -67.814  -8.446  1.00  0.00     0.041 C 
ATOM     15  O   UNL     1      -3.897 -67.505  -9.543  1.00  0.00    -0.550 OA
ATOM     16  O   UNL     1      -5.345 -68.861  -8.398  1.00  0.00    -0.550 OA
ENDBRANCH  13  14
ENDBRANCH  12  13
ENDBRANCH  11  12
ENDBRANCH  10  11
ENDBRANCH   9  10
ENDBRANCH   8   9
ENDBRANCH   7   8
ENDBRANCH   6   7
ENDBRANCH   5   6
ENDBRANCH   4   5
ENDBRANCH   3   4
ENDBRANCH   2   3
ENDBRANCH   1   2
BRANCH   1  17
ATOM     17  C   UNL     1      -8.087 -66.071  -0.833  1.00  0.00     0.000 C 
BRANCH  17  18
ATOM     18  C   UNL     1      -8.586 -66.855   0.389  1.00  0.00     0.000 C 
BRANCH  18  19
ATOM     19  C   UNL     1      -8.875 -65.956   1.604  1.00  0.00     0.000 C 
BRANCH  19  20
ATOM     20  C   UNL     1      -7.943 -66.179   2.812  1.00  0.00     0.000 C 
BRANCH  20  21
ATOM     21  C   UNL     1      -7.172 -64.929   3.285  1.00  0.00     0.000 C 
BRANCH  21  22
ATOM     22  C   UNL     1      -7.772 -63.581   2.846  1.00  0.00    -0.000 C 
BRANCH  22  23
ATOM     23  C   UNL     1      -7.610 -62.478   3.904  1.00  0.00    -0.000 C 
BRANCH  23  24
ATOM     24  C   UNL     1      -6.139 -62.079   4.126  1.00  0.00    -0.000 C 
BRANCH  24  25
ATOM     25  C   UNL     1      -5.802 -60.608   3.805  1.00  0.00    -0.000 C 
BRANCH  25  26
ATOM     26  C   UNL     1      -5.146 -60.371   2.433  1.00  0.00    -0.000 C 
BRANCH  26  27
ATOM     27  C   UNL     1      -5.869 -59.300   1.600  1.00  0.00    -0.000 C 
BRANCH  27  28
ATOM     28  C   UNL     1      -7.295 -59.068   2.121  1.00  0.00    -0.000 C 
BRANCH  28  29
ATOM     29  C   UNL     1      -8.368 -59.645   1.184  1.00  0.00    -0.003 C 
ATOM     30  C   UNL     1      -9.626 -60.091   1.929  1.00  0.00     0.004 C 
ENDBRANCH  28  29
ENDBRANCH  27  28
ENDBRANCH  26  27
ENDBRANCH  25  26
ENDBRANCH  24  25
ENDBRANCH  23  24
ENDBRANCH  22  23
ENDBRANCH  21  22
ENDBRANCH  20  21
ENDBRANCH  19  20
ENDBRANCH  18  19
ENDBRANCH  17  18
ENDBRANCH   1  17
TORSDOF 26
ENDMDL
MODEL 4
REMARK VINA RESULT:    -3.693      4.621      8.392
REMARK INTER + INTRA:         -13.353
REMARK INTER:                  -8.446
REMARK INTRA:                  -4.907
REMARK UNBOUND:                -4.046
REMARK SMILES CCCCCCCCCCCCCCCCCCCCCCCCCCCC(=O)[O-]
REMARK SMILES IDX 15 1 16 2 17 3 18 4 19 5 20 6 21 7 22 8 23 9 24 10 25 11
REMARK SMILES IDX 26 12 27 13 28 14 29 15 30 16 14 17 13 18 12 19 11 20 10 21
REMARK SMILES IDX 9 22 8 23 7 24 6 25 5 26 4 27 3 28 2 29 1 30
REMARK H PARENT
REMARK Flexibility Score: inf
ROOT
ATOM      1  C   UNL     1      -9.010 -65.157   0.172  1.00  0.00     0.000 C 
ENDROOT
BRANCH   1   2
ATOM      2  C   UNL     1      -8.563 -64.695  -1.225  1.00  0.00     0.000 C 
BRANCH   2   3
ATOM      3  C   UNL     1      -7.539 -63.547  -1.172  1.00  0.00     0.000 C 
BRANCH   3   4
ATOM      4  C   UNL     1      -6.121 -63.987  -1.593  1.00  0.00     0.000 C 
BRANCH   4   5
ATOM      5  C   UNL     1      -5.307 -64.652  -0.467  1.00  0.00     0.000 C 
BRANCH   5   6
ATOM      6  C   UNL     1      -4.672 -66.009  -0.823  1.00  0.00     0.000 C 
BRANCH   6   7
ATOM      7  C   UNL     1      -5.464 -66.860  -1.833  1.00  0.00     0.000 C 
BRANCH   7   8
ATOM      8  C   UNL     1      -4.673 -67.319  -3.073  1.00  0.00     0.000 C 
BRANCH   8   9
ATOM      9  C   UNL     1      -3.960 -66.177  -3.829  1.00  0.00     0.000 C 
BRANCH   9  10
ATOM     10  C   UNL     1      -4.312 -66.140  -5.328  1.00  0.00     0.000 C 
BRANCH  10  11
ATOM     11  C   UNL     1      -5.008 -64.834  -5.747  1.00  0.00     0.000 C 
BRANCH  11  12
ATOM     12  C   UNL     1      -5.259 -64.680  -7.260  1.00  0.00     0.006 C 
BRANCH  12  13
ATOM     13  C   UNL     1      -6.662 -65.128  -7.711  1.00  0.00     0.053 C 
BRANCH  13  14
ATOM     14  C   UNL     1      -7.670 -64.021  -7.669  1.00  0.00     0.041 C 
ATOM     15  O   UNL     1      -8.396 -63.859  -6.653  1.00  0.00    -0.550 OA
ATOM     16  O   UNL     1      -7.777 -63.139  -8.737  1.00  0.00    -0.550 OA
ENDBRANCH  13  14
ENDBRANCH  12  13
ENDBRANCH  11  12
ENDBRANCH  10  11
ENDBRANCH   9  10
ENDBRANCH   8   9
ENDBRANCH   7   8
ENDBRANCH   6   7
ENDBRANCH   5   6
ENDBRANCH   4   5
ENDBRANCH   3   4
ENDBRANCH   2   3
ENDBRANCH   1   2
BRANCH   1  17
ATOM     17  C   UNL     1      -8.422 -66.521   0.567  1.00  0.00     0.000 C 
BRANCH  17  18
ATOM     18  C   UNL     1      -8.247 -66.619   2.089  1.00  0.00     0.000 C 
BRANCH  18  19
ATOM     19  C   UNL     1      -8.046 -65.248   2.761  1.00  0.00     0.000 C 
BRANCH  19  20
ATOM     20  C   UNL     1      -6.580 -64.887   3.069  1.00  0.00     0.000 C 
BRANCH  20  21
ATOM     21  C   UNL     1      -6.196 -63.417   2.796  1.00  0.00     0.000 C 
BRANCH  21  22
ATOM     22  C   UNL     1      -7.377 -62.466   2.538  1.00  0.00    -0.000 C 
BRANCH  22  23
ATOM     23  C   UNL     1      -6.998 -61.260   1.663  1.00  0.00    -0.000 C 
BRANCH  23  24
ATOM     24  C   UNL     1      -5.554 -61.343   1.132  1.00  0.00    -0.000 C 
BRANCH  24  25
ATOM     25  C   UNL     1      -4.824 -59.990   1.003  1.00  0.00    -0.000 C 
BRANCH  25  26
ATOM     26  C   UNL     1      -4.130 -59.747  -0.350  1.00  0.00    -0.000 C 
BRANCH  26  27
ATOM     27  C   UNL     1      -4.859 -60.417  -1.526  1.00  0.00    -0.000 C 
BRANCH  27  28
ATOM     28  C   UNL     1      -3.883 -61.239  -2.382  1.00  0.00    -0.000 C 
BRANCH  28  29
ATOM     29  C   UNL     1      -2.878 -62.034  -1.533  1.00  0.00    -0.003 C 
ATOM     30  C   UNL     1      -2.315 -63.250  -2.268  1.00  0.00     0.004 C 
ENDBRANCH  28  29
ENDBRANCH  27  28
ENDBRANCH  26  27
ENDBRANCH  25  26
ENDBRANCH  24  25
ENDBRANCH  23  24
ENDBRANCH  22  23
ENDBRANCH  21  22
ENDBRANCH  20  21
ENDBRANCH  19  20
ENDBRANCH  18  19
ENDBRANCH  17  18
ENDBRANCH   1  17
TORSDOF 26
ENDMDL
MODEL 5
REMARK VINA RESULT:    -3.685      5.021     10.416
REMARK INTER + INTRA:         -13.331
REMARK INTER:                  -9.153
REMARK INTRA:                  -4.178
REMARK UNBOUND:                -4.046
REMARK SMILES CCCCCCCCCCCCCCCCCCCCCCCCCCCC(=O)[O-]
REMARK SMILES IDX 15 1 16 2 17 3 18 4 19 5 20 6 21 7 22 8 23 9 24 10 25 11
REMARK SMILES IDX 26 12 27 13 28 14 29 15 30 16 14 17 13 18 12 19 11 20 10 21
REMARK SMILES IDX 9 22 8 23 7 24 6 25 5 26 4 27 3 28 2 29 1 30
REMARK H PARENT
REMARK Flexibility Score: inf
ROOT
ATOM      1  C   UNL     1      -4.204 -66.787  -3.941  1.00  0.00     0.000 C 
ENDROOT
BRANCH   1   2
ATOM      2  C   UNL     1      -4.342 -67.736  -5.142  1.00  0.00     0.000 C 
BRANCH   2   3
ATOM      3  C   UNL     1      -3.636 -67.206  -6.403  1.00  0.00     0.000 C 
BRANCH   3   4
ATOM      4  C   UNL     1      -4.546 -67.218  -7.650  1.00  0.00     0.000 C 
BRANCH   4   5
ATOM      5  C   UNL     1      -4.305 -66.044  -8.617  1.00  0.00     0.000 C 
BRANCH   5   6
ATOM      6  C   UNL     1      -4.051 -64.680  -7.949  1.00  0.00     0.000 C 
BRANCH   6   7
ATOM      7  C   UNL     1      -5.284 -63.763  -7.839  1.00  0.00     0.000 C 
BRANCH   7   8
ATOM      8  C   UNL     1      -6.400 -64.267  -6.905  1.00  0.00     0.000 C 
BRANCH   8   9
ATOM      9  C   UNL     1      -7.685 -64.713  -7.635  1.00  0.00     0.000 C 
BRANCH   9  10
ATOM     10  C   UNL     1      -7.744 -64.226  -9.095  1.00  0.00     0.000 C 
BRANCH  10  11
ATOM     11  C   UNL     1      -7.771 -65.383 -10.110  1.00  0.00     0.000 C 
BRANCH  11  12
ATOM     12  C   UNL     1      -7.800 -66.796  -9.494  1.00  0.00     0.006 C 
BRANCH  12  13
ATOM     13  C   UNL     1      -7.961 -67.926 -10.527  1.00  0.00     0.053 C 
BRANCH  13  14
ATOM     14  C   UNL     1      -7.987 -69.288  -9.904  1.00  0.00     0.041 C 
ATOM     15  O   UNL     1      -7.058 -70.108 -10.127  1.00  0.00    -0.550 OA
ATOM     16  O   UNL     1      -9.017 -69.635  -9.038  1.00  0.00    -0.550 OA
ENDBRANCH  13  14
ENDBRANCH  12  13
ENDBRANCH  11  12
ENDBRANCH  10  11
ENDBRANCH   9  10
ENDBRANCH   8   9
ENDBRANCH   7   8
ENDBRANCH   6   7
ENDBRANCH   5   6
ENDBRANCH   4   5
ENDBRANCH   3   4
ENDBRANCH   2   3
ENDBRANCH   1   2
BRANCH   1  17
ATOM     17  C   UNL     1      -3.760 -65.372  -4.344  1.00  0.00     0.000 C 
BRANCH  17  18
ATOM     18  C   UNL     1      -4.752 -64.320  -3.828  1.00  0.00     0.000 C 
BRANCH  18  19
ATOM     19  C   UNL     1      -4.060 -63.071  -3.255  1.00  0.00     0.000 C 
BRANCH  19  20
ATOM     20  C   UNL     1      -4.280 -62.842  -1.746  1.00  0.00     0.000 C 
BRANCH  20  21
ATOM     21  C   UNL     1      -3.681 -63.925  -0.825  1.00  0.00     0.000 C 
BRANCH  21  22
ATOM     22  C   UNL     1      -4.706 -64.748  -0.024  1.00  0.00    -0.000 C 
BRANCH  22  23
ATOM     23  C   UNL     1      -5.055 -66.087  -0.694  1.00  0.00    -0.000 C 
BRANCH  23  24
ATOM     24  C   UNL     1      -6.551 -66.204  -1.042  1.00  0.00    -0.000 C 
BRANCH  24  25
ATOM     25  C   UNL     1      -7.317 -64.866  -1.102  1.00  0.00    -0.000 C 
BRANCH  25  26
ATOM     26  C   UNL     1      -8.443 -64.709  -0.063  1.00  0.00    -0.000 C 
BRANCH  26  27
ATOM     27  C   UNL     1      -8.090 -63.719   1.058  1.00  0.00    -0.000 C 
BRANCH  27  28
ATOM     28  C   UNL     1      -7.742 -64.460   2.358  1.00  0.00    -0.000 C 
BRANCH  28  29
ATOM     29  C   UNL     1      -7.959 -65.977   2.249  1.00  0.00    -0.003 C 
ATOM     30  C   UNL     1      -8.529 -66.587   3.529  1.00  0.00     0.004 C 
ENDBRANCH  28  29
ENDBRANCH  27  28
ENDBRANCH  26  27
ENDBRANCH  25  26
ENDBRANCH  24  25
ENDBRANCH  23  24
ENDBRANCH  22  23
ENDBRANCH  21  22
ENDBRANCH  20  21
ENDBRANCH  19  20
ENDBRANCH  18  19
ENDBRANCH  17  18
ENDBRANCH   1  17
TORSDOF 26
ENDMDL
MODEL 6
REMARK VINA RESULT:    -3.646      5.873     11.173
REMARK INTER + INTRA:         -13.235
REMARK INTER:                  -8.620
REMARK INTRA:                  -4.615
REMARK UNBOUND:                -4.046
REMARK SMILES CCCCCCCCCCCCCCCCCCCCCCCCCCCC(=O)[O-]
REMARK SMILES IDX 15 1 16 2 17 3 18 4 19 5 20 6 21 7 22 8 23 9 24 10 25 11
REMARK SMILES IDX 26 12 27 13 28 14 29 15 30 16 14 17 13 18 12 19 11 20 10 21
REMARK SMILES IDX 9 22 8 23 7 24 6 25 5 26 4 27 3 28 2 29 1 30
REMARK H PARENT
REMARK Flexibility Score: inf
ROOT
ATOM      1  C   UNL     1      -4.369 -67.859  -4.994  1.00  0.00     0.000 C 
ENDROOT
BRANCH   1   2
ATOM      2  C   UNL     1      -4.282 -67.288  -6.419  1.00  0.00     0.000 C 
BRANCH   2   3
ATOM      3  C   UNL     1      -4.368 -68.378  -7.502  1.00  0.00     0.000 C 
BRANCH   3   4
ATOM      4  C   UNL     1      -5.193 -67.939  -8.730  1.00  0.00     0.000 C 
BRANCH   4   5
ATOM      5  C   UNL     1      -4.543 -68.287 -10.083  1.00  0.00     0.000 C 
BRANCH   5   6
ATOM      6  C   UNL     1      -3.628 -67.198 -10.675  1.00  0.00     0.000 C 
BRANCH   6   7
ATOM      7  C   UNL     1      -3.786 -65.799 -10.053  1.00  0.00     0.000 C 
BRANCH   7   8
ATOM      8  C   UNL     1      -2.469 -65.071  -9.723  1.00  0.00     0.000 C 
BRANCH   8   9
ATOM      9  C   UNL     1      -2.249 -64.809  -8.217  1.00  0.00     0.000 C 
BRANCH   9  10
ATOM     10  C   UNL     1      -3.058 -63.606  -7.695  1.00  0.00     0.000 C 
BRANCH  10  11
ATOM     11  C   UNL     1      -2.294 -62.784  -6.642  1.00  0.00     0.000 C 
BRANCH  11  12
ATOM     12  C   UNL     1      -0.897 -63.324  -6.276  1.00  0.00     0.006 C 
BRANCH  12  13
ATOM     13  C   UNL     1       0.078 -62.246  -5.767  1.00  0.00     0.053 C 
BRANCH  13  14
ATOM     14  C   UNL     1       0.986 -62.743  -4.685  1.00  0.00     0.041 C 
ATOM     15  O   UNL     1       0.744 -62.477  -3.478  1.00  0.00    -0.550 OA
ATOM     16  O   UNL     1       2.078 -63.540  -5.007  1.00  0.00    -0.550 OA
ENDBRANCH  13  14
ENDBRANCH  12  13
ENDBRANCH  11  12
ENDBRANCH  10  11
ENDBRANCH   9  10
ENDBRANCH   8   9
ENDBRANCH   7   8
ENDBRANCH   6   7
ENDBRANCH   5   6
ENDBRANCH   4   5
ENDBRANCH   3   4
ENDBRANCH   2   3
ENDBRANCH   1   2
BRANCH   1  17
ATOM     17  C   UNL     1      -4.002 -66.830  -3.914  1.00  0.00     0.000 C 
BRANCH  17  18
ATOM     18  C   UNL     1      -3.640 -65.479  -4.548  1.00  0.00     0.000 C 
BRANCH  18  19
ATOM     19  C   UNL     1      -4.563 -64.334  -4.092  1.00  0.00     0.000 C 
BRANCH  19  20
ATOM     20  C   UNL     1      -3.878 -63.254  -3.231  1.00  0.00     0.000 C 
BRANCH  20  21
ATOM     21  C   UNL     1      -2.500 -63.648  -2.659  1.00  0.00     0.000 C 
BRANCH  21  22
ATOM     22  C   UNL     1      -2.478 -63.955  -1.151  1.00  0.00    -0.000 C 
BRANCH  22  23
ATOM     23  C   UNL     1      -3.686 -63.371  -0.401  1.00  0.00    -0.000 C 
BRANCH  23  24
ATOM     24  C   UNL     1      -4.535 -64.453   0.291  1.00  0.00    -0.000 C 
BRANCH  24  25
ATOM     25  C   UNL     1      -4.738 -65.747  -0.523  1.00  0.00    -0.000 C 
BRANCH  25  26
ATOM     26  C   UNL     1      -6.144 -65.928  -1.125  1.00  0.00    -0.000 C 
BRANCH  26  27
ATOM     27  C   UNL     1      -7.257 -65.357  -0.232  1.00  0.00    -0.000 C 
BRANCH  27  28
ATOM     28  C   UNL     1      -8.165 -64.405  -1.025  1.00  0.00    -0.000 C 
BRANCH  28  29
ATOM     29  C   UNL     1      -7.376 -63.500  -1.985  1.00  0.00    -0.003 C 
ATOM     30  C   UNL     1      -6.999 -62.159  -1.357  1.00  0.00     0.004 C 
ENDBRANCH  28  29
ENDBRANCH  27  28
ENDBRANCH  26  27
ENDBRANCH  25  26
ENDBRANCH  24  25
ENDBRANCH  23  24
ENDBRANCH  22  23
ENDBRANCH  21  22
ENDBRANCH  20  21
ENDBRANCH  19  20
ENDBRANCH  18  19
ENDBRANCH  17  18
ENDBRANCH   1  17
TORSDOF 26
ENDMDL
MODEL 7
REMARK VINA RESULT:    -3.634      5.825     11.670
REMARK INTER + INTRA:         -13.204
REMARK INTER:                  -9.410
REMARK INTRA:                  -3.794
REMARK UNBOUND:                -4.046
REMARK SMILES CCCCCCCCCCCCCCCCCCCCCCCCCCCC(=O)[O-]
REMARK SMILES IDX 15 1 16 2 17 3 18 4 19 5 20 6 21 7 22 8 23 9 24 10 25 11
REMARK SMILES IDX 26 12 27 13 28 14 29 15 30 16 14 17 13 18 12 19 11 20 10 21
REMARK SMILES IDX 9 22 8 23 7 24 6 25 5 26 4 27 3 28 2 29 1 30
REMARK H PARENT
REMARK Flexibility Score: inf
ROOT
ATOM      1  C   UNL     1      -5.494 -65.447  -6.883  1.00  0.00     0.000 C 
ENDROOT
BRANCH   1   2
ATOM      2  C   UNL     1      -6.493 -64.414  -7.428  1.00  0.00     0.000 C 
BRANCH   2   3
ATOM      3  C   UNL     1      -7.359 -64.970  -8.572  1.00  0.00     0.000 C 
BRANCH   3   4
ATOM      4  C   UNL     1      -7.098 -64.265  -9.920  1.00  0.00     0.000 C 
BRANCH   4   5
ATOM      5  C   UNL     1      -5.702 -63.626 -10.036  1.00  0.00     0.000 C 
BRANCH   5   6
ATOM      6  C   UNL     1      -4.669 -64.436 -10.843  1.00  0.00     0.000 C 
BRANCH   6   7
ATOM      7  C   UNL     1      -3.217 -64.331 -10.343  1.00  0.00     0.000 C 
BRANCH   7   8
ATOM      8  C   UNL     1      -3.037 -63.649  -8.974  1.00  0.00     0.000 C 
BRANCH   8   9
ATOM      9  C   UNL     1      -2.152 -64.436  -7.984  1.00  0.00     0.000 C 
BRANCH   9  10
ATOM     10  C   UNL     1      -2.225 -63.885  -6.547  1.00  0.00     0.000 C 
BRANCH  10  11
ATOM     11  C   UNL     1      -0.859 -63.414  -6.017  1.00  0.00     0.000 C 
BRANCH  11  12
ATOM     12  C   UNL     1       0.029 -62.689  -7.048  1.00  0.00     0.006 C 
BRANCH  12  13
ATOM     13  C   UNL     1       1.534 -62.978  -6.891  1.00  0.00     0.053 C 
BRANCH  13  14
ATOM     14  C   UNL     1       1.981 -62.985  -5.461  1.00  0.00     0.041 C 
ATOM     15  O   UNL     1       2.405 -64.046  -4.932  1.00  0.00    -0.550 OA
ATOM     16  O   UNL     1       1.974 -61.806  -4.726  1.00  0.00    -0.550 OA
ENDBRANCH  13  14
ENDBRANCH  12  13
ENDBRANCH  11  12
ENDBRANCH  10  11
ENDBRANCH   9  10
ENDBRANCH   8   9
ENDBRANCH   7   8
ENDBRANCH   6   7
ENDBRANCH   5   6
ENDBRANCH   4   5
ENDBRANCH   3   4
ENDBRANCH   2   3
ENDBRANCH   1   2
BRANCH   1  17
ATOM     17  C   UNL     1      -5.242 -66.608  -7.859  1.00  0.00     0.000 C 
BRANCH  17  18
ATOM     18  C   UNL     1      -4.249 -67.616  -7.263  1.00  0.00     0.000 C 
BRANCH  18  19
ATOM     19  C   UNL     1      -3.728 -67.199  -5.876  1.00  0.00     0.000 C 
BRANCH  19  20
ATOM     20  C   UNL     1      -4.327 -67.988  -4.695  1.00  0.00     0.000 C 
BRANCH  20  21
ATOM     21  C   UNL     1      -4.681 -67.142  -3.454  1.00  0.00     0.000 C 
BRANCH  21  22
ATOM     22  C   UNL     1      -3.941 -65.796  -3.342  1.00  0.00    -0.000 C 
BRANCH  22  23
ATOM     23  C   UNL     1      -4.889 -64.606  -3.125  1.00  0.00    -0.000 C 
BRANCH  23  24
ATOM     24  C   UNL     1      -4.616 -63.863  -1.804  1.00  0.00    -0.000 C 
BRANCH  24  25
ATOM     25  C   UNL     1      -4.827 -64.701  -0.526  1.00  0.00    -0.000 C 
BRANCH  25  26
ATOM     26  C   UNL     1      -6.293 -64.857  -0.079  1.00  0.00    -0.000 C 
BRANCH  26  27
ATOM     27  C   UNL     1      -6.881 -66.234  -0.422  1.00  0.00    -0.000 C 
BRANCH  27  28
ATOM     28  C   UNL     1      -8.346 -66.112  -0.866  1.00  0.00    -0.000 C 
BRANCH  28  29
ATOM     29  C   UNL     1      -9.217 -67.270  -0.352  1.00  0.00    -0.003 C 
ATOM     30  C   UNL     1      -9.121 -68.517  -1.230  1.00  0.00     0.004 C 
ENDBRANCH  28  29
ENDBRANCH  27  28
ENDBRANCH  26  27
ENDBRANCH  25  26
ENDBRANCH  24  25
ENDBRANCH  23  24
ENDBRANCH  22  23
ENDBRANCH  21  22
ENDBRANCH  20  21
ENDBRANCH  19  20
ENDBRANCH  18  19
ENDBRANCH  17  18
ENDBRANCH   1  17
TORSDOF 26
ENDMDL
MODEL 8
REMARK VINA RESULT:    -3.616      5.071     10.884
REMARK INTER + INTRA:         -13.159
REMARK INTER:                  -8.488
REMARK INTRA:                  -4.671
REMARK UNBOUND:                -4.046
REMARK SMILES CCCCCCCCCCCCCCCCCCCCCCCCCCCC(=O)[O-]
REMARK SMILES IDX 15 1 16 2 17 3 18 4 19 5 20 6 21 7 22 8 23 9 24 10 25 11
REMARK SMILES IDX 26 12 27 13 28 14 29 15 30 16 14 17 13 18 12 19 11 20 10 21
REMARK SMILES IDX 9 22 8 23 7 24 6 25 5 26 4 27 3 28 2 29 1 30
REMARK H PARENT
REMARK Flexibility Score: inf
ROOT
ATOM      1  C   UNL     1      -3.611 -65.632  -4.024  1.00  0.00     0.000 C 
ENDROOT
BRANCH   1   2
ATOM      2  C   UNL     1      -4.359 -66.837  -4.616  1.00  0.00     0.000 C 
BRANCH   2   3
ATOM      3  C   UNL     1      -3.580 -67.520  -5.754  1.00  0.00     0.000 C 
BRANCH   3   4
ATOM      4  C   UNL     1      -4.212 -67.285  -7.141  1.00  0.00     0.000 C 
BRANCH   4   5
ATOM      5  C   UNL     1      -5.392 -66.295  -7.137  1.00  0.00     0.000 C 
BRANCH   5   6
ATOM      6  C   UNL     1      -5.885 -65.848  -8.526  1.00  0.00     0.000 C 
BRANCH   6   7
ATOM      7  C   UNL     1      -6.116 -64.334  -8.686  1.00  0.00     0.000 C 
BRANCH   7   8
ATOM      8  C   UNL     1      -5.159 -63.433  -7.883  1.00  0.00     0.000 C 
BRANCH   8   9
ATOM      9  C   UNL     1      -4.261 -62.526  -8.753  1.00  0.00     0.000 C 
BRANCH   9  10
ATOM     10  C   UNL     1      -2.758 -62.784  -8.532  1.00  0.00     0.000 C 
BRANCH  10  11
ATOM     11  C   UNL     1      -2.435 -64.270  -8.297  1.00  0.00     0.000 C 
BRANCH  11  12
ATOM     12  C   UNL     1      -1.610 -64.569  -7.030  1.00  0.00     0.006 C 
BRANCH  12  13
ATOM     13  C   UNL     1      -1.093 -63.312  -6.308  1.00  0.00     0.053 C 
BRANCH  13  14
ATOM     14  C   UNL     1       0.362 -63.394  -5.960  1.00  0.00     0.041 C 
ATOM     15  O   UNL     1       0.811 -62.786  -4.952  1.00  0.00    -0.550 OA
ATOM     16  O   UNL     1       1.214 -64.181  -6.724  1.00  0.00    -0.550 OA
ENDBRANCH  13  14
ENDBRANCH  12  13
ENDBRANCH  11  12
ENDBRANCH  10  11
ENDBRANCH   9  10
ENDBRANCH   8   9
ENDBRANCH   7   8
ENDBRANCH   6   7
ENDBRANCH   5   6
ENDBRANCH   4   5
ENDBRANCH   3   4
ENDBRANCH   2   3
ENDBRANCH   1   2
BRANCH   1  17
ATOM     17  C   UNL     1      -4.376 -64.310  -4.195  1.00  0.00     0.000 C 
BRANCH  17  18
ATOM     18  C   UNL     1      -3.570 -63.135  -3.622  1.00  0.00     0.000 C 
BRANCH  18  19
ATOM     19  C   UNL     1      -3.226 -63.312  -2.132  1.00  0.00     0.000 C 
BRANCH  19  20
ATOM     20  C   UNL     1      -4.330 -62.864  -1.155  1.00  0.00     0.000 C 
BRANCH  20  21
ATOM     21  C   UNL     1      -4.700 -63.893  -0.066  1.00  0.00     0.000 C 
BRANCH  21  22
ATOM     22  C   UNL     1      -4.657 -65.366  -0.513  1.00  0.00    -0.000 C 
BRANCH  22  23
ATOM     23  C   UNL     1      -6.040 -65.920  -0.889  1.00  0.00    -0.000 C 
BRANCH  23  24
ATOM     24  C   UNL     1      -6.921 -64.881  -1.608  1.00  0.00    -0.000 C 
BRANCH  24  25
ATOM     25  C   UNL     1      -8.369 -64.776  -1.087  1.00  0.00    -0.000 C 
BRANCH  25  26
ATOM     26  C   UNL     1      -8.897 -66.029  -0.363  1.00  0.00    -0.000 C 
BRANCH  26  27
ATOM     27  C   UNL     1      -9.244 -65.767   1.111  1.00  0.00    -0.000 C 
BRANCH  27  28
ATOM     28  C   UNL     1      -8.262 -66.491   2.045  1.00  0.00    -0.000 C 
BRANCH  28  29
ATOM     29  C   UNL     1      -7.222 -65.541   2.660  1.00  0.00    -0.003 C 
ATOM     30  C   UNL     1      -7.550 -64.068   2.418  1.00  0.00     0.004 C 
ENDBRANCH  28  29
ENDBRANCH  27  28
ENDBRANCH  26  27
ENDBRANCH  25  26
ENDBRANCH  24  25
ENDBRANCH  23  24
ENDBRANCH  22  23
ENDBRANCH  21  22
ENDBRANCH  20  21
ENDBRANCH  19  20
ENDBRANCH  18  19
ENDBRANCH  17  18
ENDBRANCH   1  17
TORSDOF 26
ENDMDL
MODEL 9
REMARK VINA RESULT:    -3.616      4.986      9.555
REMARK INTER + INTRA:         -13.158
REMARK INTER:                  -8.494
REMARK INTRA:                  -4.664
REMARK UNBOUND:                -4.046
REMARK SMILES CCCCCCCCCCCCCCCCCCCCCCCCCCCC(=O)[O-]
REMARK SMILES IDX 15 1 16 2 17 3 18 4 19 5 20 6 21 7 22 8 23 9 24 10 25 11
REMARK SMILES IDX 26 12 27 13 28 14 29 15 30 16 14 17 13 18 12 19 11 20 10 21
REMARK SMILES IDX 9 22 8 23 7 24 6 25 5 26 4 27 3 28 2 29 1 30
REMARK H PARENT
REMARK Flexibility Score: inf
ROOT
ATOM      1  C   UNL     1      -6.794 -63.940  -7.543  1.00  0.00     0.000 C 
ENDROOT
BRANCH   1   2
ATOM      2  C   UNL     1      -7.364 -65.323  -7.895  1.00  0.00     0.000 C 
BRANCH   2   3
ATOM      3  C   UNL     1      -6.822 -65.868  -9.229  1.00  0.00     0.000 C 
BRANCH   3   4
ATOM      4  C   UNL     1      -6.282 -67.309  -9.113  1.00  0.00     0.000 C 
BRANCH   4   5
ATOM      5  C   UNL     1      -4.779 -67.394  -8.786  1.00  0.00     0.000 C 
BRANCH   5   6
ATOM      6  C   UNL     1      -4.409 -68.339  -7.627  1.00  0.00     0.000 C 
BRANCH   6   7
ATOM      7  C   UNL     1      -3.745 -67.661  -6.415  1.00  0.00     0.000 C 
BRANCH   7   8
ATOM      8  C   UNL     1      -4.425 -66.367  -5.928  1.00  0.00     0.000 C 
BRANCH   8   9
ATOM      9  C   UNL     1      -3.707 -65.678  -4.747  1.00  0.00     0.000 C 
BRANCH   9  10
ATOM     10  C   UNL     1      -4.007 -66.346  -3.392  1.00  0.00     0.000 C 
BRANCH  10  11
ATOM     11  C   UNL     1      -5.100 -65.613  -2.593  1.00  0.00     0.000 C 
BRANCH  11  12
ATOM     12  C   UNL     1      -5.522 -66.299  -1.278  1.00  0.00     0.006 C 
BRANCH  12  13
ATOM     13  C   UNL     1      -6.566 -65.510  -0.468  1.00  0.00     0.053 C 
BRANCH  13  14
ATOM     14  C   UNL     1      -7.973 -65.926  -0.764  1.00  0.00     0.041 C 
ATOM     15  O   UNL     1      -8.865 -65.060  -0.967  1.00  0.00    -0.550 OA
ATOM     16  O   UNL     1      -8.292 -67.275  -0.861  1.00  0.00    -0.550 OA
ENDBRANCH  13  14
ENDBRANCH  12  13
ENDBRANCH  11  12
ENDBRANCH  10  11
ENDBRANCH   9  10
ENDBRANCH   8   9
ENDBRANCH   7   8
ENDBRANCH   6   7
ENDBRANCH   5   6
ENDBRANCH   4   5
ENDBRANCH   3   4
ENDBRANCH   2   3
ENDBRANCH   1   2
BRANCH   1  17
ATOM     17  C   UNL     1      -6.508 -63.077  -8.782  1.00  0.00     0.000 C 
BRANCH  17  18
ATOM     18  C   UNL     1      -5.120 -62.427  -8.686  1.00  0.00     0.000 C 
BRANCH  18  19
ATOM     19  C   UNL     1      -4.033 -63.400  -8.196  1.00  0.00     0.000 C 
BRANCH  19  20
ATOM     20  C   UNL     1      -3.423 -64.296  -9.293  1.00  0.00     0.000 C 
BRANCH  20  21
ATOM     21  C   UNL     1      -1.979 -64.769  -9.026  1.00  0.00     0.000 C 
BRANCH  21  22
ATOM     22  C   UNL     1      -1.481 -64.580  -7.581  1.00  0.00    -0.000 C 
BRANCH  22  23
ATOM     23  C   UNL     1       0.048 -64.672  -7.456  1.00  0.00    -0.000 C 
BRANCH  23  24
ATOM     24  C   UNL     1       0.689 -63.339  -7.025  1.00  0.00    -0.000 C 
BRANCH  24  25
ATOM     25  C   UNL     1      -0.149 -62.080  -7.330  1.00  0.00    -0.000 C 
BRANCH  25  26
ATOM     26  C   UNL     1      -0.487 -61.208  -6.106  1.00  0.00    -0.000 C 
BRANCH  26  27
ATOM     27  C   UNL     1      -1.999 -61.092  -5.853  1.00  0.00    -0.000 C 
BRANCH  27  28
ATOM     28  C   UNL     1      -2.508 -62.272  -5.012  1.00  0.00    -0.000 C 
BRANCH  28  29
ATOM     29  C   UNL     1      -1.484 -62.735  -3.963  1.00  0.00    -0.003 C 
ATOM     30  C   UNL     1      -2.124 -63.048  -2.610  1.00  0.00     0.004 C 
ENDBRANCH  28  29
ENDBRANCH  27  28
ENDBRANCH  26  27
ENDBRANCH  25  26
ENDBRANCH  24  25
ENDBRANCH  23  24
ENDBRANCH  22  23
ENDBRANCH  21  22
ENDBRANCH  20  21
ENDBRANCH  19  20
ENDBRANCH  18  19
ENDBRANCH  17  18
ENDBRANCH   1  17
TORSDOF 26
ENDMDL
