MODEL 1
REMARK VINA RESULT:    -4.482      0.000      0.000
REMARK INTER + INTRA:          -5.443
REMARK INTER:                  -5.268
REMARK INTRA:                  -0.175
REMARK UNBOUND:                -0.175
REMARK SMILES O=c1c(O)c(-c2ccc(O)cc2)oc2cc(O)cc(O)c12
REMARK SMILES IDX 5 1 3 2 2 3 1 4 21 5 19 6 18 7 16 8 15 9 14 10 13 11 6 12
REMARK SMILES IDX 7 13 8 14 9 15 12 16 11 17 10 18 4 20 20 22 17 24
REMARK H PARENT 10 19 4 21 20 23 17 25
REMARK Flexibility Score: inf
ROOT
ATOM      1  C   UNL     1     157.418 159.679 156.659  1.00  0.00     0.180 A 
ATOM      2  C   UNL     1     156.944 158.994 155.527  1.00  0.00     0.208 A 
ATOM      3  C   UNL     1     156.547 157.653 155.661  1.00  0.00     0.238 A 
ATOM      4  O   UNL     1     156.175 157.029 154.633  1.00  0.00    -0.285 OA
ATOM      5  C   UNL     1     156.614 157.022 156.926  1.00  0.00     0.111 A 
ATOM      6  C   UNL     1     156.200 155.680 157.184  1.00  0.00     0.134 A 
ATOM      7  C   UNL     1     156.433 155.116 158.445  1.00  0.00     0.093 A 
ATOM      8  C   UNL     1     157.003 155.864 159.474  1.00  0.00     0.123 A 
ATOM      9  C   UNL     1     157.357 157.195 159.249  1.00  0.00     0.094 A 
ATOM     10  C   UNL     1     157.171 157.774 157.992  1.00  0.00     0.146 A 
ATOM     11  O   UNL     1     157.530 159.040 157.817  1.00  0.00    -0.452 OA
ENDROOT
BRANCH   1  12
ATOM     12  C   UNL     1     157.831 161.101 156.603  1.00  0.00     0.021 A 
ATOM     13  C   UNL     1     156.862 162.094 156.381  1.00  0.00     0.016 A 
ATOM     14  C   UNL     1     157.233 163.440 156.302  1.00  0.00     0.047 A 
ATOM     15  C   UNL     1     158.580 163.807 156.427  1.00  0.00     0.115 A 
ATOM     16  C   UNL     1     159.184 161.476 156.707  1.00  0.00     0.016 A 
ATOM     17  C   UNL     1     159.552 162.823 156.627  1.00  0.00     0.047 A 
BRANCH  15  18
ATOM     18  O   UNL     1     158.961 165.146 156.351  1.00  0.00    -0.508 OA
ATOM     19  H   UNL     1     159.592 165.476 155.631  1.00  0.00     0.293 HD
ENDBRANCH  15  18
ENDBRANCH   1  12
BRANCH   2  20
ATOM     20  O   UNL     1     156.908 159.629 154.284  1.00  0.00    -0.502 OA
ATOM     21  H   UNL     1     157.008 160.632 154.181  1.00  0.00     0.293 HD
ENDBRANCH   2  20
BRANCH   6  22
ATOM     22  O   UNL     1     155.537 154.875 156.253  1.00  0.00    -0.507 OA
ATOM     23  H   UNL     1     154.912 154.119 156.489  1.00  0.00     0.293 HD
ENDBRANCH   6  22
BRANCH   8  24
ATOM     24  O   UNL     1     157.205 155.276 160.720  1.00  0.00    -0.508 OA
ATOM     25  H   UNL     1     156.529 154.636 161.120  1.00  0.00     0.293 HD
ENDBRANCH   8  24
TORSDOF 5
ENDMDL
MODEL 2
REMARK VINA RESULT:    -4.323      3.156      6.433
REMARK INTER + INTRA:          -5.256
REMARK INTER:                  -5.160
REMARK INTRA:                  -0.096
REMARK UNBOUND:                -0.175
REMARK SMILES O=c1c(O)c(-c2ccc(O)cc2)oc2cc(O)cc(O)c12
REMARK SMILES IDX 5 1 3 2 2 3 1 4 21 5 19 6 18 7 16 8 15 9 14 10 13 11 6 12
REMARK SMILES IDX 7 13 8 14 9 15 12 16 11 17 10 18 4 20 20 22 17 24
REMARK H PARENT 10 19 4 21 20 23 17 25
REMARK Flexibility Score: inf
ROOT
ATOM      1  C   UNL     1     156.419 157.413 156.171  1.00  0.00     0.180 A 
ATOM      2  C   UNL     1     155.687 158.605 156.025  1.00  0.00     0.208 A 
ATOM      3  C   UNL     1     155.484 159.124 154.736  1.00  0.00     0.238 A 
ATOM      4  O   UNL     1     154.875 160.220 154.616  1.00  0.00    -0.285 OA
ATOM      5  C   UNL     1     156.000 158.439 153.611  1.00  0.00     0.111 A 
ATOM      6  C   UNL     1     155.820 158.854 152.256  1.00  0.00     0.134 A 
ATOM      7  C   UNL     1     156.485 158.171 151.231  1.00  0.00     0.093 A 
ATOM      8  C   UNL     1     157.270 157.051 151.502  1.00  0.00     0.123 A 
ATOM      9  C   UNL     1     157.405 156.602 152.816  1.00  0.00     0.094 A 
ATOM     10  C   UNL     1     156.784 157.284 153.864  1.00  0.00     0.146 A 
ATOM     11  O   UNL     1     156.945 156.829 155.101  1.00  0.00    -0.452 OA
ENDROOT
BRANCH   1  12
ATOM     12  C   UNL     1     156.653 156.790 157.494  1.00  0.00     0.021 A 
ATOM     13  C   UNL     1     157.414 157.476 158.456  1.00  0.00     0.016 A 
ATOM     14  C   UNL     1     157.667 156.897 159.704  1.00  0.00     0.047 A 
ATOM     15  C   UNL     1     157.175 155.618 159.998  1.00  0.00     0.115 A 
ATOM     16  C   UNL     1     156.180 155.499 157.790  1.00  0.00     0.016 A 
ATOM     17  C   UNL     1     156.435 154.922 159.039  1.00  0.00     0.047 A 
BRANCH  15  18
ATOM     18  O   UNL     1     157.420 155.032 161.238  1.00  0.00    -0.508 OA
ATOM     19  H   UNL     1     157.012 154.140 161.491  1.00  0.00     0.293 HD
ENDBRANCH  15  18
ENDBRANCH   1  12
BRANCH   2  20
ATOM     20  O   UNL     1     155.206 159.277 157.151  1.00  0.00    -0.502 OA
ATOM     21  H   UNL     1     154.599 158.836 157.831  1.00  0.00     0.293 HD
ENDBRANCH   2  20
BRANCH   6  22
ATOM     22  O   UNL     1     154.983 159.904 151.867  1.00  0.00    -0.507 OA
ATOM     23  H   UNL     1     154.603 160.023 150.940  1.00  0.00     0.293 HD
ENDBRANCH   6  22
BRANCH   8  24
ATOM     24  O   UNL     1     157.904 156.387 150.455  1.00  0.00    -0.508 OA
ATOM     25  H   UNL     1     158.016 156.817 149.545  1.00  0.00     0.293 HD
ENDBRANCH   8  24
TORSDOF 5
ENDMDL
MODEL 3
REMARK VINA RESULT:    -4.266      2.304      2.769
REMARK INTER + INTRA:          -5.189
REMARK INTER:                  -4.894
REMARK INTRA:                  -0.296
REMARK UNBOUND:                -0.175
REMARK SMILES O=c1c(O)c(-c2ccc(O)cc2)oc2cc(O)cc(O)c12
REMARK SMILES IDX 5 1 3 2 2 3 1 4 21 5 19 6 18 7 16 8 15 9 14 10 13 11 6 12
REMARK SMILES IDX 7 13 8 14 9 15 12 16 11 17 10 18 4 20 20 22 17 24
REMARK H PARENT 10 19 4 21 20 23 17 25
REMARK Flexibility Score: inf
ROOT
ATOM      1  C   UNL     1     156.067 159.984 154.747  1.00  0.00     0.180 A 
ATOM      2  C   UNL     1     155.736 158.857 153.976  1.00  0.00     0.208 A 
ATOM      3  C   UNL     1     155.711 157.595 154.592  1.00  0.00     0.238 A 
ATOM      4  O   UNL     1     155.467 156.583 153.885  1.00  0.00    -0.285 OA
ATOM      5  C   UNL     1     156.000 157.479 155.973  1.00  0.00     0.111 A 
ATOM      6  C   UNL     1     155.965 156.256 156.708  1.00  0.00     0.134 A 
ATOM      7  C   UNL     1     156.396 156.239 158.041  1.00  0.00     0.093 A 
ATOM      8  C   UNL     1     156.799 157.409 158.682  1.00  0.00     0.123 A 
ATOM      9  C   UNL     1     156.781 158.621 157.989  1.00  0.00     0.094 A 
ATOM     10  C   UNL     1     156.391 158.663 156.649  1.00  0.00     0.146 A 
ATOM     11  O   UNL     1     156.397 159.834 156.024  1.00  0.00    -0.452 OA
ENDROOT
BRANCH   1  12
ATOM     12  C   UNL     1     156.090 161.350 154.175  1.00  0.00     0.021 A 
ATOM     13  C   UNL     1     157.291 161.860 153.651  1.00  0.00     0.016 A 
ATOM     14  C   UNL     1     157.341 163.156 153.126  1.00  0.00     0.047 A 
ATOM     15  C   UNL     1     156.195 163.962 153.134  1.00  0.00     0.115 A 
ATOM     16  C   UNL     1     154.950 162.174 154.197  1.00  0.00     0.016 A 
ATOM     17  C   UNL     1     155.003 163.469 153.672  1.00  0.00     0.047 A 
BRANCH  15  18
ATOM     18  O   UNL     1     156.233 165.254 152.613  1.00  0.00    -0.508 OA
ATOM     19  H   UNL     1     155.403 165.699 152.240  1.00  0.00     0.293 HD
ENDBRANCH  15  18
ENDBRANCH   1  12
BRANCH   2  20
ATOM     20  O   UNL     1     155.476 158.990 152.610  1.00  0.00    -0.502 OA
ATOM     21  H   UNL     1     154.645 158.609 152.173  1.00  0.00     0.293 HD
ENDBRANCH   2  20
BRANCH   6  22
ATOM     22  O   UNL     1     155.492 155.047 156.189  1.00  0.00    -0.507 OA
ATOM     23  H   UNL     1     156.077 154.305 155.838  1.00  0.00     0.293 HD
ENDBRANCH   6  22
BRANCH   8  24
ATOM     24  O   UNL     1     157.207 157.357 160.013  1.00  0.00    -0.508 OA
ATOM     25  H   UNL     1     157.184 158.178 160.606  1.00  0.00     0.293 HD
ENDBRANCH   8  24
TORSDOF 5
ENDMDL
MODEL 4
REMARK VINA RESULT:    -4.229      1.942      3.459
REMARK INTER + INTRA:          -5.147
REMARK INTER:                  -4.851
REMARK INTRA:                  -0.295
REMARK UNBOUND:                -0.175
REMARK SMILES O=c1c(O)c(-c2ccc(O)cc2)oc2cc(O)cc(O)c12
REMARK SMILES IDX 5 1 3 2 2 3 1 4 21 5 19 6 18 7 16 8 15 9 14 10 13 11 6 12
REMARK SMILES IDX 7 13 8 14 9 15 12 16 11 17 10 18 4 20 20 22 17 24
REMARK H PARENT 10 19 4 21 20 23 17 25
REMARK Flexibility Score: inf
ROOT
ATOM      1  C   UNL     1     157.159 160.202 156.114  1.00  0.00     0.180 A 
ATOM      2  C   UNL     1     156.400 159.445 157.024  1.00  0.00     0.208 A 
ATOM      3  C   UNL     1     156.046 158.129 156.683  1.00  0.00     0.238 A 
ATOM      4  O   UNL     1     155.320 157.474 157.477  1.00  0.00    -0.285 OA
ATOM      5  C   UNL     1     156.468 157.582 155.448  1.00  0.00     0.111 A 
ATOM      6  C   UNL     1     156.200 156.247 155.018  1.00  0.00     0.134 A 
ATOM      7  C   UNL     1     156.555 155.856 153.721  1.00  0.00     0.093 A 
ATOM      8  C   UNL     1     157.223 156.727 152.863  1.00  0.00     0.123 A 
ATOM      9  C   UNL     1     157.542 158.015 153.294  1.00  0.00     0.094 A 
ATOM     10  C   UNL     1     157.170 158.447 154.568  1.00  0.00     0.146 A 
ATOM     11  O   UNL     1     157.484 159.683 154.936  1.00  0.00    -0.452 OA
ENDROOT
BRANCH   1  12
ATOM     12  C   UNL     1     157.591 161.587 156.412  1.00  0.00     0.021 A 
ATOM     13  C   UNL     1     156.848 162.667 155.908  1.00  0.00     0.016 A 
ATOM     14  C   UNL     1     157.252 163.983 156.157  1.00  0.00     0.047 A 
ATOM     15  C   UNL     1     158.412 164.233 156.901  1.00  0.00     0.115 A 
ATOM     16  C   UNL     1     158.767 161.847 157.141  1.00  0.00     0.016 A 
ATOM     17  C   UNL     1     159.168 163.163 157.389  1.00  0.00     0.047 A 
BRANCH  15  18
ATOM     18  O   UNL     1     158.823 165.540 157.158  1.00  0.00    -0.508 OA
ATOM     19  H   UNL     1     159.800 165.805 157.115  1.00  0.00     0.293 HD
ENDBRANCH  15  18
ENDBRANCH   1  12
BRANCH   2  20
ATOM     20  O   UNL     1     155.974 160.011 158.228  1.00  0.00    -0.502 OA
ATOM     21  H   UNL     1     156.488 159.901 159.093  1.00  0.00     0.293 HD
ENDBRANCH   2  20
BRANCH   6  22
ATOM     22  O   UNL     1     155.619 155.269 155.830  1.00  0.00    -0.507 OA
ATOM     23  H   UNL     1     156.003 154.947 156.705  1.00  0.00     0.293 HD
ENDBRANCH   6  22
BRANCH   8  24
ATOM     24  O   UNL     1     157.574 156.298 151.585  1.00  0.00    -0.508 OA
ATOM     25  H   UNL     1     157.960 155.375 151.423  1.00  0.00     0.293 HD
ENDBRANCH   8  24
TORSDOF 5
ENDMDL
MODEL 5
REMARK VINA RESULT:    -4.183      7.018      9.362
REMARK INTER + INTRA:          -5.092
REMARK INTER:                  -4.808
REMARK INTRA:                  -0.284
REMARK UNBOUND:                -0.175
REMARK SMILES O=c1c(O)c(-c2ccc(O)cc2)oc2cc(O)cc(O)c12
REMARK SMILES IDX 5 1 3 2 2 3 1 4 21 5 19 6 18 7 16 8 15 9 14 10 13 11 6 12
REMARK SMILES IDX 7 13 8 14 9 15 12 16 11 17 10 18 4 20 20 22 17 24
REMARK H PARENT 10 19 4 21 20 23 17 25
REMARK Flexibility Score: inf
ROOT
ATOM      1  C   UNL     1     160.072 165.893 159.000  1.00  0.00     0.180 A 
ATOM      2  C   UNL     1     160.178 164.553 158.589  1.00  0.00     0.208 A 
ATOM      3  C   UNL     1     161.427 164.069 158.167  1.00  0.00     0.238 A 
ATOM      4  O   UNL     1     161.505 162.884 157.748  1.00  0.00    -0.285 OA
ATOM      5  C   UNL     1     162.555 164.924 158.177  1.00  0.00     0.111 A 
ATOM      6  C   UNL     1     163.876 164.528 157.807  1.00  0.00     0.134 A 
ATOM      7  C   UNL     1     164.889 165.492 157.731  1.00  0.00     0.093 A 
ATOM      8  C   UNL     1     164.646 166.822 158.071  1.00  0.00     0.123 A 
ATOM      9  C   UNL     1     163.372 167.208 158.489  1.00  0.00     0.094 A 
ATOM     10  C   UNL     1     162.332 166.277 158.541  1.00  0.00     0.146 A 
ATOM     11  O   UNL     1     161.133 166.688 158.936  1.00  0.00    -0.452 OA
ENDROOT
BRANCH   1  12
ATOM     12  C   UNL     1     158.795 166.469 159.482  1.00  0.00     0.021 A 
ATOM     13  C   UNL     1     158.497 166.437 160.855  1.00  0.00     0.016 A 
ATOM     14  C   UNL     1     157.287 166.955 161.329  1.00  0.00     0.047 A 
ATOM     15  C   UNL     1     156.355 167.496 160.434  1.00  0.00     0.115 A 
ATOM     16  C   UNL     1     157.845 166.996 158.588  1.00  0.00     0.016 A 
ATOM     17  C   UNL     1     156.636 167.513 159.065  1.00  0.00     0.047 A 
BRANCH  15  18
ATOM     18  O   UNL     1     155.147 168.016 160.895  1.00  0.00    -0.508 OA
ATOM     19  H   UNL     1     154.302 167.964 160.339  1.00  0.00     0.293 HD
ENDBRANCH  15  18
ENDBRANCH   1  12
BRANCH   2  20
ATOM     20  O   UNL     1     159.048 163.732 158.565  1.00  0.00    -0.502 OA
ATOM     21  H   UNL     1     158.233 163.943 158.002  1.00  0.00     0.293 HD
ENDBRANCH   2  20
BRANCH   6  22
ATOM     22  O   UNL     1     164.247 163.208 157.537  1.00  0.00    -0.507 OA
ATOM     23  H   UNL     1     164.367 162.822 156.613  1.00  0.00     0.293 HD
ENDBRANCH   6  22
BRANCH   8  24
ATOM     24  O   UNL     1     165.682 167.750 157.997  1.00  0.00    -0.508 OA
ATOM     25  H   UNL     1     165.848 168.418 158.740  1.00  0.00     0.293 HD
ENDBRANCH   8  24
TORSDOF 5
ENDMDL
MODEL 6
REMARK VINA RESULT:    -4.169      3.516      5.806
REMARK INTER + INTRA:          -5.075
REMARK INTER:                  -4.776
REMARK INTRA:                  -0.299
REMARK UNBOUND:                -0.175
REMARK SMILES O=c1c(O)c(-c2ccc(O)cc2)oc2cc(O)cc(O)c12
REMARK SMILES IDX 5 1 3 2 2 3 1 4 21 5 19 6 18 7 16 8 15 9 14 10 13 11 6 12
REMARK SMILES IDX 7 13 8 14 9 15 12 16 11 17 10 18 4 20 20 22 17 24
REMARK H PARENT 10 19 4 21 20 23 17 25
REMARK Flexibility Score: inf
ROOT
ATOM      1  C   UNL     1     156.191 158.004 153.192  1.00  0.00     0.180 A 
ATOM      2  C   UNL     1     156.439 159.279 153.730  1.00  0.00     0.208 A 
ATOM      3  C   UNL     1     156.476 159.432 155.126  1.00  0.00     0.238 A 
ATOM      4  O   UNL     1     156.644 160.585 155.602  1.00  0.00    -0.285 OA
ATOM      5  C   UNL     1     156.283 158.308 155.963  1.00  0.00     0.111 A 
ATOM      6  C   UNL     1     156.340 158.340 157.390  1.00  0.00     0.134 A 
ATOM      7  C   UNL     1     156.004 157.194 158.120  1.00  0.00     0.093 A 
ATOM      8  C   UNL     1     155.677 156.000 157.478  1.00  0.00     0.123 A 
ATOM      9  C   UNL     1     155.676 155.942 156.084  1.00  0.00     0.094 A 
ATOM     10  C   UNL     1     155.971 157.078 155.328  1.00  0.00     0.146 A 
ATOM     11  O   UNL     1     155.949 156.982 154.004  1.00  0.00    -0.452 OA
ENDROOT
BRANCH   1  12
ATOM     12  C   UNL     1     156.161 157.759 151.731  1.00  0.00     0.021 A 
ATOM     13  C   UNL     1     154.931 157.777 151.052  1.00  0.00     0.016 A 
ATOM     14  C   UNL     1     154.877 157.525 149.678  1.00  0.00     0.047 A 
ATOM     15  C   UNL     1     156.051 157.237 148.969  1.00  0.00     0.115 A 
ATOM     16  C   UNL     1     157.332 157.449 151.016  1.00  0.00     0.016 A 
ATOM     17  C   UNL     1     157.276 157.198 149.641  1.00  0.00     0.047 A 
BRANCH  15  18
ATOM     18  O   UNL     1     156.009 156.986 147.599  1.00  0.00    -0.508 OA
ATOM     19  H   UNL     1     156.339 156.110 147.211  1.00  0.00     0.293 HD
ENDBRANCH  15  18
ENDBRANCH   1  12
BRANCH   2  20
ATOM     20  O   UNL     1     156.604 160.380 152.886  1.00  0.00    -0.502 OA
ATOM     21  H   UNL     1     156.753 160.283 151.889  1.00  0.00     0.293 HD
ENDBRANCH   2  20
BRANCH   6  22
ATOM     22  O   UNL     1     156.744 159.456 158.129  1.00  0.00    -0.507 OA
ATOM     23  H   UNL     1     157.700 159.674 158.362  1.00  0.00     0.293 HD
ENDBRANCH   6  22
BRANCH   8  24
ATOM     24  O   UNL     1     155.364 154.875 158.237  1.00  0.00    -0.508 OA
ATOM     25  H   UNL     1     155.842 154.673 159.107  1.00  0.00     0.293 HD
ENDBRANCH   8  24
TORSDOF 5
ENDMDL
MODEL 7
REMARK VINA RESULT:    -4.169     10.101     13.347
REMARK INTER + INTRA:          -5.075
REMARK INTER:                  -4.799
REMARK INTRA:                  -0.276
REMARK UNBOUND:                -0.175
REMARK SMILES O=c1c(O)c(-c2ccc(O)cc2)oc2cc(O)cc(O)c12
REMARK SMILES IDX 5 1 3 2 2 3 1 4 21 5 19 6 18 7 16 8 15 9 14 10 13 11 6 12
REMARK SMILES IDX 7 13 8 14 9 15 12 16 11 17 10 18 4 20 20 22 17 24
REMARK H PARENT 10 19 4 21 20 23 17 25
REMARK Flexibility Score: inf
ROOT
ATOM      1  C   UNL     1     158.593 170.607 164.151  1.00  0.00     0.180 A 
ATOM      2  C   UNL     1     157.255 170.505 164.570  1.00  0.00     0.208 A 
ATOM      3  C   UNL     1     156.470 169.445 164.086  1.00  0.00     0.238 A 
ATOM      4  O   UNL     1     155.258 169.390 164.421  1.00  0.00    -0.285 OA
ATOM      5  C   UNL     1     157.037 168.494 163.205  1.00  0.00     0.111 A 
ATOM      6  C   UNL     1     156.345 167.358 162.684  1.00  0.00     0.134 A 
ATOM      7  C   UNL     1     156.965 166.556 161.718  1.00  0.00     0.093 A 
ATOM      8  C   UNL     1     158.271 166.809 161.301  1.00  0.00     0.123 A 
ATOM      9  C   UNL     1     158.976 167.882 161.847  1.00  0.00     0.094 A 
ATOM     10  C   UNL     1     158.373 168.722 162.785  1.00  0.00     0.146 A 
ATOM     11  O   UNL     1     159.076 169.737 163.272  1.00  0.00    -0.452 OA
ENDROOT
BRANCH   1  12
ATOM     12  C   UNL     1     159.490 171.681 164.636  1.00  0.00     0.021 A 
ATOM     13  C   UNL     1     159.492 172.927 163.986  1.00  0.00     0.016 A 
ATOM     14  C   UNL     1     160.347 173.948 164.413  1.00  0.00     0.047 A 
ATOM     15  C   UNL     1     161.222 173.730 165.486  1.00  0.00     0.115 A 
ATOM     16  C   UNL     1     160.385 171.464 165.700  1.00  0.00     0.016 A 
ATOM     17  C   UNL     1     161.240 172.486 166.125  1.00  0.00     0.047 A 
BRANCH  15  18
ATOM     18  O   UNL     1     162.077 174.740 165.922  1.00  0.00    -0.508 OA
ATOM     19  H   UNL     1     163.044 174.780 165.622  1.00  0.00     0.293 HD
ENDBRANCH  15  18
ENDBRANCH   1  12
BRANCH   2  20
ATOM     20  O   UNL     1     156.709 171.468 165.422  1.00  0.00    -0.502 OA
ATOM     21  H   UNL     1     155.734 171.738 165.384  1.00  0.00     0.293 HD
ENDBRANCH   2  20
BRANCH   6  22
ATOM     22  O   UNL     1     155.071 166.963 163.101  1.00  0.00    -0.507 OA
ATOM     23  H   UNL     1     154.210 167.407 162.820  1.00  0.00     0.293 HD
ENDBRANCH   6  22
BRANCH   8  24
ATOM     24  O   UNL     1     158.860 165.981 160.349  1.00  0.00    -0.508 OA
ATOM     25  H   UNL     1     159.635 165.372 160.584  1.00  0.00     0.293 HD
ENDBRANCH   8  24
TORSDOF 5
ENDMDL
MODEL 8
REMARK VINA RESULT:    -4.013      6.079      8.957
REMARK INTER + INTRA:          -4.892
REMARK INTER:                  -4.607
REMARK INTRA:                  -0.285
REMARK UNBOUND:                -0.175
REMARK SMILES O=c1c(O)c(-c2ccc(O)cc2)oc2cc(O)cc(O)c12
REMARK SMILES IDX 5 1 3 2 2 3 1 4 21 5 19 6 18 7 16 8 15 9 14 10 13 11 6 12
REMARK SMILES IDX 7 13 8 14 9 15 12 16 11 17 10 18 4 20 20 22 17 24
REMARK H PARENT 10 19 4 21 20 23 17 25
REMARK Flexibility Score: inf
ROOT
ATOM      1  C   UNL     1     159.490 166.233 159.525  1.00  0.00     0.180 A 
ATOM      2  C   UNL     1     160.622 167.051 159.361  1.00  0.00     0.208 A 
ATOM      3  C   UNL     1     161.713 166.562 158.624  1.00  0.00     0.238 A 
ATOM      4  O   UNL     1     162.744 167.278 158.527  1.00  0.00    -0.285 OA
ATOM      5  C   UNL     1     161.653 165.272 158.048  1.00  0.00     0.111 A 
ATOM      6  C   UNL     1     162.684 164.692 157.249  1.00  0.00     0.134 A 
ATOM      7  C   UNL     1     162.572 163.357 156.839  1.00  0.00     0.093 A 
ATOM      8  C   UNL     1     161.440 162.603 157.144  1.00  0.00     0.123 A 
ATOM      9  C   UNL     1     160.400 163.179 157.875  1.00  0.00     0.094 A 
ATOM     10  C   UNL     1     160.498 164.495 158.328  1.00  0.00     0.146 A 
ATOM     11  O   UNL     1     159.491 165.002 159.028  1.00  0.00    -0.452 OA
ENDROOT
BRANCH   1  12
ATOM     12  C   UNL     1     158.292 166.687 160.267  1.00  0.00     0.021 A 
ATOM     13  C   UNL     1     158.227 166.500 161.658  1.00  0.00     0.016 A 
ATOM     14  C   UNL     1     157.095 166.900 162.375  1.00  0.00     0.047 A 
ATOM     15  C   UNL     1     156.008 167.478 161.707  1.00  0.00     0.115 A 
ATOM     16  C   UNL     1     157.187 167.250 159.602  1.00  0.00     0.016 A 
ATOM     17  C   UNL     1     156.056 167.650 160.321  1.00  0.00     0.047 A 
BRANCH  15  18
ATOM     18  O   UNL     1     154.875 167.883 162.412  1.00  0.00    -0.508 OA
ATOM     19  H   UNL     1     154.777 168.830 162.757  1.00  0.00     0.293 HD
ENDBRANCH  15  18
ENDBRANCH   1  12
BRANCH   2  20
ATOM     20  O   UNL     1     160.670 168.314 159.957  1.00  0.00    -0.502 OA
ATOM     21  H   UNL     1     161.186 168.494 160.810  1.00  0.00     0.293 HD
ENDBRANCH   2  20
BRANCH   6  22
ATOM     22  O   UNL     1     163.815 165.386 156.811  1.00  0.00    -0.507 OA
ATOM     23  H   UNL     1     164.384 165.119 156.023  1.00  0.00     0.293 HD
ENDBRANCH   6  22
BRANCH   8  24
ATOM     24  O   UNL     1     161.356 161.283 156.706  1.00  0.00    -0.508 OA
ATOM     25  H   UNL     1     160.527 160.724 156.867  1.00  0.00     0.293 HD
ENDBRANCH   8  24
TORSDOF 5
ENDMDL
MODEL 9
REMARK VINA RESULT:    -2.055      0.475      1.146
REMARK INTER + INTRA:          -2.591
REMARK INTER:                  -2.518
REMARK INTRA:                  -0.073
REMARK UNBOUND:                -0.175
REMARK SMILES O=c1c(O)c(-c2ccc(O)cc2)oc2cc(O)cc(O)c12
REMARK SMILES IDX 5 1 3 2 2 3 1 4 21 5 19 6 18 7 16 8 15 9 14 10 13 11 6 12
REMARK SMILES IDX 7 13 8 14 9 15 12 16 11 17 10 18 4 20 20 22 17 24
REMARK H PARENT 10 19 4 21 20 23 17 25
REMARK Flexibility Score: inf
ROOT
ATOM      1  C   UNL     1     157.013 159.826 156.589  1.00  0.00     0.180 A 
ATOM      2  C   UNL     1     156.569 159.096 155.472  1.00  0.00     0.208 A 
ATOM      3  C   UNL     1     156.293 157.727 155.621  1.00  0.00     0.238 A 
ATOM      4  O   UNL     1     155.949 157.067 154.606  1.00  0.00    -0.285 OA
ATOM      5  C   UNL     1     156.449 157.110 156.885  1.00  0.00     0.111 A 
ATOM      6  C   UNL     1     156.160 155.739 157.158  1.00  0.00     0.134 A 
ATOM      7  C   UNL     1     156.475 155.204 158.414  1.00  0.00     0.093 A 
ATOM      8  C   UNL     1     157.007 156.004 159.425  1.00  0.00     0.123 A 
ATOM      9  C   UNL     1     157.238 157.359 159.186  1.00  0.00     0.094 A 
ATOM     10  C   UNL     1     156.968 157.913 157.933  1.00  0.00     0.146 A 
ATOM     11  O   UNL     1     157.211 159.204 157.745  1.00  0.00    -0.452 OA
ENDROOT
BRANCH   1  12
ATOM     12  C   UNL     1     157.300 161.277 156.517  1.00  0.00     0.021 A 
ATOM     13  C   UNL     1     158.552 161.756 156.939  1.00  0.00     0.016 A 
ATOM     14  C   UNL     1     158.835 163.126 156.902  1.00  0.00     0.047 A 
ATOM     15  C   UNL     1     157.865 164.033 156.457  1.00  0.00     0.115 A 
ATOM     16  C   UNL     1     156.324 162.198 156.091  1.00  0.00     0.016 A 
ATOM     17  C   UNL     1     156.611 163.566 156.054  1.00  0.00     0.047 A 
BRANCH  15  18
ATOM     18  O   UNL     1     158.137 165.399 156.413  1.00  0.00    -0.508 OA
ATOM     19  H   UNL     1     158.427 165.854 155.556  1.00  0.00     0.293 HD
ENDBRANCH  15  18
ENDBRANCH   1  12
BRANCH   2  20
ATOM     20  O   UNL     1     156.444 159.720 154.229  1.00  0.00    -0.502 OA
ATOM     21  H   UNL     1     156.197 159.213 153.388  1.00  0.00     0.293 HD
ENDBRANCH   2  20
BRANCH   6  22
ATOM     22  O   UNL     1     155.544 154.875 156.249  1.00  0.00    -0.507 OA
ATOM     23  H   UNL     1     155.833 153.925 156.073  1.00  0.00     0.293 HD
ENDBRANCH   6  22
BRANCH   8  24
ATOM     24  O   UNL     1     157.294 155.441 160.667  1.00  0.00    -0.508 OA
ATOM     25  H   UNL     1     156.614 154.876 161.161  1.00  0.00     0.293 HD
ENDBRANCH   8  24
TORSDOF 5
ENDMDL
