MODEL 1
REMARK VINA RESULT:    -4.716      0.000      0.000
REMARK INTER + INTRA:         -14.421
REMARK INTER:                 -10.782
REMARK INTRA:                  -3.639
REMARK UNBOUND:                -3.639
REMARK SMILES CCCCCCCCCCCCCCCCCCCCCCCC(=O)[O-]
REMARK SMILES IDX 13 1 14 2 15 3 16 4 17 5 18 6 19 7 20 8 21 9 22 10 23 11
REMARK SMILES IDX 24 12 25 13 26 14 12 15 11 16 10 17 9 18 8 19 7 20 6 21 5 22
REMARK SMILES IDX 4 23 3 24 2 25 1 26
REMARK H PARENT
REMARK Flexibility Score: inf
ROOT
ATOM      1  C   UNL     1     -50.127  14.610 -30.993  1.00  0.00     0.000 C 
ENDROOT
BRANCH   1   2
ATOM      2  C   UNL     1     -51.555  14.643 -31.570  1.00  0.00     0.000 C 
BRANCH   2   3
ATOM      3  C   UNL     1     -52.196  13.249 -31.675  1.00  0.00     0.000 C 
BRANCH   3   4
ATOM      4  C   UNL     1     -53.504  13.132 -30.871  1.00  0.00     0.000 C 
BRANCH   4   5
ATOM      5  C   UNL     1     -53.444  12.172 -29.668  1.00  0.00     0.000 C 
BRANCH   5   6
ATOM      6  C   UNL     1     -53.347  12.912 -28.323  1.00  0.00     0.000 C 
BRANCH   6   7
ATOM      7  C   UNL     1     -53.841  14.367 -28.419  1.00  0.00     0.000 C 
BRANCH   7   8
ATOM      8  C   UNL     1     -52.748  15.412 -28.099  1.00  0.00     0.000 C 
BRANCH   8   9
ATOM      9  C   UNL     1     -53.301  16.763 -27.609  1.00  0.00     0.000 C 
BRANCH   9  10
ATOM     10  C   UNL     1     -52.878  17.978 -28.451  1.00  0.00     0.006 C 
BRANCH  10  11
ATOM     11  C   UNL     1     -53.002  17.725 -29.961  1.00  0.00     0.053 C 
BRANCH  11  12
ATOM     12  C   UNL     1     -51.884  18.391 -30.699  1.00  0.00     0.041 C 
ATOM     13  O   UNL     1     -50.697  18.001 -30.537  1.00  0.00    -0.550 OA
ATOM     14  O   UNL     1     -52.153  19.430 -31.584  1.00  0.00    -0.550 OA
ENDBRANCH  11  12
ENDBRANCH  10  11
ENDBRANCH   9  10
ENDBRANCH   8   9
ENDBRANCH   7   8
ENDBRANCH   6   7
ENDBRANCH   5   6
ENDBRANCH   4   5
ENDBRANCH   3   4
ENDBRANCH   2   3
ENDBRANCH   1   2
BRANCH   1  15
ATOM     15  C   UNL     1     -49.553  13.203 -30.735  1.00  0.00     0.000 C 
BRANCH  15  16
ATOM     16  C   UNL     1     -49.650  12.772 -29.264  1.00  0.00     0.000 C 
BRANCH  16  17
ATOM     17  C   UNL     1     -49.816  11.249 -29.146  1.00  0.00     0.000 C 
BRANCH  17  18
ATOM     18  C   UNL     1     -49.799  10.538 -30.512  1.00  0.00    -0.000 C 
BRANCH  18  19
ATOM     19  C   UNL     1     -51.064   9.722 -30.833  1.00  0.00    -0.000 C 
BRANCH  19  20
ATOM     20  C   UNL     1     -50.759   8.260 -31.186  1.00  0.00    -0.000 C 
BRANCH  20  21
ATOM     21  C   UNL     1     -50.602   8.083 -32.703  1.00  0.00    -0.000 C 
BRANCH  21  22
ATOM     22  C   UNL     1     -49.363   7.253 -33.084  1.00  0.00    -0.000 C 
BRANCH  22  23
ATOM     23  C   UNL     1     -48.008   7.917 -32.763  1.00  0.00    -0.000 C 
BRANCH  23  24
ATOM     24  C   UNL     1     -47.149   7.175 -31.723  1.00  0.00    -0.000 C 
BRANCH  24  25
ATOM     25  C   UNL     1     -47.324   7.730 -30.302  1.00  0.00    -0.003 C 
ATOM     26  C   UNL     1     -46.590   9.058 -30.136  1.00  0.00     0.004 C 
ENDBRANCH  24  25
ENDBRANCH  23  24
ENDBRANCH  22  23
ENDBRANCH  21  22
ENDBRANCH  20  21
ENDBRANCH  19  20
ENDBRANCH  18  19
ENDBRANCH  17  18
ENDBRANCH  16  17
ENDBRANCH  15  16
ENDBRANCH   1  15
TORSDOF 22
ENDMDL
MODEL 2
REMARK VINA RESULT:    -4.561      3.257      8.739
REMARK INTER + INTRA:         -14.065
REMARK INTER:                 -10.418
REMARK INTRA:                  -3.647
REMARK UNBOUND:                -3.639
REMARK SMILES CCCCCCCCCCCCCCCCCCCCCCCC(=O)[O-]
REMARK SMILES IDX 13 1 14 2 15 3 16 4 17 5 18 6 19 7 20 8 21 9 22 10 23 11
REMARK SMILES IDX 24 12 25 13 26 14 12 15 11 16 10 17 9 18 8 19 7 20 6 21 5 22
REMARK SMILES IDX 4 23 3 24 2 25 1 26
REMARK H PARENT
REMARK Flexibility Score: inf
ROOT
ATOM      1  C   UNL     1     -49.600  13.667 -30.456  1.00  0.00     0.000 C 
ENDROOT
BRANCH   1   2
ATOM      2  C   UNL     1     -49.824  12.713 -29.267  1.00  0.00     0.000 C 
BRANCH   2   3
ATOM      3  C   UNL     1     -48.725  11.646 -29.133  1.00  0.00     0.000 C 
BRANCH   3   4
ATOM      4  C   UNL     1     -49.198  10.246 -29.564  1.00  0.00     0.000 C 
BRANCH   4   5
ATOM      5  C   UNL     1     -50.671  10.163 -30.005  1.00  0.00     0.000 C 
BRANCH   5   6
ATOM      6  C   UNL     1     -50.826   9.788 -31.489  1.00  0.00     0.000 C 
BRANCH   6   7
ATOM      7  C   UNL     1     -49.605  10.206 -32.328  1.00  0.00     0.000 C 
BRANCH   7   8
ATOM      8  C   UNL     1     -49.104   9.098 -33.282  1.00  0.00     0.000 C 
BRANCH   8   9
ATOM      9  C   UNL     1     -48.766   7.772 -32.574  1.00  0.00     0.000 C 
BRANCH   9  10
ATOM     10  C   UNL     1     -47.393   7.743 -31.882  1.00  0.00     0.006 C 
BRANCH  10  11
ATOM     11  C   UNL     1     -47.435   7.054 -30.510  1.00  0.00     0.053 C 
BRANCH  11  12
ATOM     12  C   UNL     1     -46.422   7.655 -29.588  1.00  0.00     0.041 C 
ATOM     13  O   UNL     1     -46.121   8.874 -29.687  1.00  0.00    -0.550 OA
ATOM     14  O   UNL     1     -45.824   6.875 -28.604  1.00  0.00    -0.550 OA
ENDBRANCH  11  12
ENDBRANCH  10  11
ENDBRANCH   9  10
ENDBRANCH   8   9
ENDBRANCH   7   8
ENDBRANCH   6   7
ENDBRANCH   5   6
ENDBRANCH   4   5
ENDBRANCH   3   4
ENDBRANCH   2   3
ENDBRANCH   1   2
BRANCH   1  15
ATOM     15  C   UNL     1     -50.871  14.330 -31.019  1.00  0.00     0.000 C 
BRANCH  15  16
ATOM     16  C   UNL     1     -51.883  13.319 -31.579  1.00  0.00     0.000 C 
BRANCH  16  17
ATOM     17  C   UNL     1     -53.256  13.486 -30.911  1.00  0.00     0.000 C 
BRANCH  17  18
ATOM     18  C   UNL     1     -53.563  12.377 -29.888  1.00  0.00    -0.000 C 
BRANCH  18  19
ATOM     19  C   UNL     1     -53.360  12.779 -28.416  1.00  0.00    -0.000 C 
BRANCH  19  20
ATOM     20  C   UNL     1     -53.959  14.153 -28.085  1.00  0.00    -0.000 C 
BRANCH  20  21
ATOM     21  C   UNL     1     -52.861  15.222 -27.992  1.00  0.00    -0.000 C 
BRANCH  21  22
ATOM     22  C   UNL     1     -53.396  16.593 -27.542  1.00  0.00    -0.000 C 
BRANCH  22  23
ATOM     23  C   UNL     1     -52.674  17.810 -28.156  1.00  0.00    -0.000 C 
BRANCH  23  24
ATOM     24  C   UNL     1     -52.055  17.568 -29.544  1.00  0.00    -0.000 C 
BRANCH  24  25
ATOM     25  C   UNL     1     -52.929  18.104 -30.687  1.00  0.00    -0.003 C 
ATOM     26  C   UNL     1     -54.077  17.147 -30.996  1.00  0.00     0.004 C 
ENDBRANCH  24  25
ENDBRANCH  23  24
ENDBRANCH  22  23
ENDBRANCH  21  22
ENDBRANCH  20  21
ENDBRANCH  19  20
ENDBRANCH  18  19
ENDBRANCH  17  18
ENDBRANCH  16  17
ENDBRANCH  15  16
ENDBRANCH   1  15
TORSDOF 22
ENDMDL
MODEL 3
REMARK VINA RESULT:    -4.549      1.428      3.394
REMARK INTER + INTRA:         -14.037
REMARK INTER:                 -10.582
REMARK INTRA:                  -3.456
REMARK UNBOUND:                -3.639
REMARK SMILES CCCCCCCCCCCCCCCCCCCCCCCC(=O)[O-]
REMARK SMILES IDX 13 1 14 2 15 3 16 4 17 5 18 6 19 7 20 8 21 9 22 10 23 11
REMARK SMILES IDX 24 12 25 13 26 14 12 15 11 16 10 17 9 18 8 19 7 20 6 21 5 22
REMARK SMILES IDX 4 23 3 24 2 25 1 26
REMARK H PARENT
REMARK Flexibility Score: inf
ROOT
ATOM      1  C   UNL     1     -48.519  12.185 -29.211  1.00  0.00     0.000 C 
ENDROOT
BRANCH   1   2
ATOM      2  C   UNL     1     -49.836  12.971 -29.357  1.00  0.00     0.000 C 
BRANCH   2   3
ATOM      3  C   UNL     1     -50.082  13.475 -30.789  1.00  0.00     0.000 C 
BRANCH   3   4
ATOM      4  C   UNL     1     -51.454  13.053 -31.343  1.00  0.00     0.000 C 
BRANCH   4   5
ATOM      5  C   UNL     1     -51.820  11.574 -31.121  1.00  0.00     0.000 C 
BRANCH   5   6
ATOM      6  C   UNL     1     -53.040  11.395 -30.201  1.00  0.00     0.000 C 
BRANCH   6   7
ATOM      7  C   UNL     1     -53.826  12.705 -30.013  1.00  0.00     0.000 C 
BRANCH   7   8
ATOM      8  C   UNL     1     -53.827  13.219 -28.555  1.00  0.00     0.000 C 
BRANCH   8   9
ATOM      9  C   UNL     1     -53.102  14.566 -28.369  1.00  0.00     0.000 C 
BRANCH   9  10
ATOM     10  C   UNL     1     -53.738  15.750 -29.117  1.00  0.00     0.006 C 
BRANCH  10  11
ATOM     11  C   UNL     1     -52.820  16.328 -30.204  1.00  0.00     0.053 C 
BRANCH  11  12
ATOM     12  C   UNL     1     -52.018  17.469 -29.663  1.00  0.00     0.041 C 
ATOM     13  O   UNL     1     -52.259  17.924 -28.514  1.00  0.00    -0.550 OA
ATOM     14  O   UNL     1     -50.990  18.020 -30.421  1.00  0.00    -0.550 OA
ENDBRANCH  11  12
ENDBRANCH  10  11
ENDBRANCH   9  10
ENDBRANCH   8   9
ENDBRANCH   7   8
ENDBRANCH   6   7
ENDBRANCH   5   6
ENDBRANCH   4   5
ENDBRANCH   3   4
ENDBRANCH   2   3
ENDBRANCH   1   2
BRANCH   1  15
ATOM     15  C   UNL     1     -48.659  10.770 -28.615  1.00  0.00     0.000 C 
BRANCH  15  16
ATOM     16  C   UNL     1     -49.108   9.723 -29.644  1.00  0.00     0.000 C 
BRANCH  16  17
ATOM     17  C   UNL     1     -48.288   9.835 -30.938  1.00  0.00     0.000 C 
BRANCH  17  18
ATOM     18  C   UNL     1     -47.108   8.846 -30.986  1.00  0.00    -0.000 C 
BRANCH  18  19
ATOM     19  C   UNL     1     -47.270   7.694 -31.993  1.00  0.00    -0.000 C 
BRANCH  19  20
ATOM     20  C   UNL     1     -48.308   7.994 -33.083  1.00  0.00    -0.000 C 
BRANCH  20  21
ATOM     21  C   UNL     1     -49.427   6.942 -33.079  1.00  0.00    -0.000 C 
BRANCH  21  22
ATOM     22  C   UNL     1     -49.895   6.571 -31.660  1.00  0.00    -0.000 C 
BRANCH  22  23
ATOM     23  C   UNL     1     -51.250   7.175 -31.241  1.00  0.00    -0.000 C 
BRANCH  23  24
ATOM     24  C   UNL     1     -52.002   7.926 -32.355  1.00  0.00    -0.000 C 
BRANCH  24  25
ATOM     25  C   UNL     1     -53.136   7.094 -32.972  1.00  0.00    -0.003 C 
ATOM     26  C   UNL     1     -53.108   7.174 -34.496  1.00  0.00     0.004 C 
ENDBRANCH  24  25
ENDBRANCH  23  24
ENDBRANCH  22  23
ENDBRANCH  21  22
ENDBRANCH  20  21
ENDBRANCH  19  20
ENDBRANCH  18  19
ENDBRANCH  17  18
ENDBRANCH  16  17
ENDBRANCH  15  16
ENDBRANCH   1  15
TORSDOF 22
ENDMDL
MODEL 4
REMARK VINA RESULT:    -4.476      3.196      7.891
REMARK INTER + INTRA:         -13.871
REMARK INTER:                 -10.285
REMARK INTRA:                  -3.586
REMARK UNBOUND:                -3.639
REMARK SMILES CCCCCCCCCCCCCCCCCCCCCCCC(=O)[O-]
REMARK SMILES IDX 13 1 14 2 15 3 16 4 17 5 18 6 19 7 20 8 21 9 22 10 23 11
REMARK SMILES IDX 24 12 25 13 26 14 12 15 11 16 10 17 9 18 8 19 7 20 6 21 5 22
REMARK SMILES IDX 4 23 3 24 2 25 1 26
REMARK H PARENT
REMARK Flexibility Score: inf
ROOT
ATOM      1  C   UNL     1     -53.741  13.783 -30.088  1.00  0.00     0.000 C 
ENDROOT
BRANCH   1   2
ATOM      2  C   UNL     1     -53.034  12.595 -30.768  1.00  0.00     0.000 C 
BRANCH   2   3
ATOM      3  C   UNL     1     -52.951  11.349 -29.871  1.00  0.00     0.000 C 
BRANCH   3   4
ATOM      4  C   UNL     1     -52.084  10.232 -30.479  1.00  0.00     0.000 C 
BRANCH   4   5
ATOM      5  C   UNL     1     -51.386  10.598 -31.803  1.00  0.00     0.000 C 
BRANCH   5   6
ATOM      6  C   UNL     1     -50.845   9.366 -32.549  1.00  0.00     0.000 C 
BRANCH   6   7
ATOM      7  C   UNL     1     -51.138   8.054 -31.800  1.00  0.00     0.000 C 
BRANCH   7   8
ATOM      8  C   UNL     1     -50.389   6.832 -32.379  1.00  0.00     0.000 C 
BRANCH   8   9
ATOM      9  C   UNL     1     -49.162   7.202 -33.234  1.00  0.00     0.000 C 
BRANCH   9  10
ATOM     10  C   UNL     1     -47.805   6.992 -32.541  1.00  0.00     0.006 C 
BRANCH  10  11
ATOM     11  C   UNL     1     -47.184   8.304 -32.041  1.00  0.00     0.053 C 
BRANCH  11  12
ATOM     12  C   UNL     1     -47.200   8.358 -30.546  1.00  0.00     0.041 C 
ATOM     13  O   UNL     1     -48.057   7.702 -29.898  1.00  0.00    -0.550 OA
ATOM     14  O   UNL     1     -46.254   9.118 -29.866  1.00  0.00    -0.550 OA
ENDBRANCH  11  12
ENDBRANCH  10  11
ENDBRANCH   9  10
ENDBRANCH   8   9
ENDBRANCH   7   8
ENDBRANCH   6   7
ENDBRANCH   5   6
ENDBRANCH   4   5
ENDBRANCH   3   4
ENDBRANCH   2   3
ENDBRANCH   1   2
BRANCH   1  15
ATOM     15  C   UNL     1     -53.976  13.632 -28.573  1.00  0.00     0.000 C 
BRANCH  15  16
ATOM     16  C   UNL     1     -53.642  14.904 -27.780  1.00  0.00     0.000 C 
BRANCH  16  17
ATOM     17  C   UNL     1     -52.545  15.719 -28.482  1.00  0.00     0.000 C 
BRANCH  17  18
ATOM     18  C   UNL     1     -52.882  17.218 -28.579  1.00  0.00    -0.000 C 
BRANCH  18  19
ATOM     19  C   UNL     1     -52.400  17.908 -29.867  1.00  0.00    -0.000 C 
BRANCH  19  20
ATOM     20  C   UNL     1     -51.186  17.212 -30.499  1.00  0.00    -0.000 C 
BRANCH  20  21
ATOM     21  C   UNL     1     -51.596  16.430 -31.756  1.00  0.00    -0.000 C 
BRANCH  21  22
ATOM     22  C   UNL     1     -50.739  15.172 -31.984  1.00  0.00    -0.000 C 
BRANCH  22  23
ATOM     23  C   UNL     1     -49.740  14.849 -30.854  1.00  0.00    -0.000 C 
BRANCH  23  24
ATOM     24  C   UNL     1     -49.395  13.356 -30.697  1.00  0.00    -0.000 C 
BRANCH  24  25
ATOM     25  C   UNL     1     -49.608  12.844 -29.265  1.00  0.00    -0.003 C 
ATOM     26  C   UNL     1     -48.773  11.595 -28.999  1.00  0.00     0.004 C 
ENDBRANCH  24  25
ENDBRANCH  23  24
ENDBRANCH  22  23
ENDBRANCH  21  22
ENDBRANCH  20  21
ENDBRANCH  19  20
ENDBRANCH  18  19
ENDBRANCH  17  18
ENDBRANCH  16  17
ENDBRANCH  15  16
ENDBRANCH   1  15
TORSDOF 22
ENDMDL
MODEL 5
REMARK VINA RESULT:    -4.379      3.854      7.111
REMARK INTER + INTRA:         -13.649
REMARK INTER:                 -10.615
REMARK INTRA:                  -3.034
REMARK UNBOUND:                -3.639
REMARK SMILES CCCCCCCCCCCCCCCCCCCCCCCC(=O)[O-]
REMARK SMILES IDX 13 1 14 2 15 3 16 4 17 5 18 6 19 7 20 8 21 9 22 10 23 11
REMARK SMILES IDX 24 12 25 13 26 14 12 15 11 16 10 17 9 18 8 19 7 20 6 21 5 22
REMARK SMILES IDX 4 23 3 24 2 25 1 26
REMARK H PARENT
REMARK Flexibility Score: inf
ROOT
ATOM      1  C   UNL     1     -51.493  17.685 -30.367  1.00  0.00     0.000 C 
ENDROOT
BRANCH   1   2
ATOM      2  C   UNL     1     -51.726  16.371 -31.138  1.00  0.00     0.000 C 
BRANCH   2   3
ATOM      3  C   UNL     1     -50.421  15.633 -31.479  1.00  0.00     0.000 C 
BRANCH   3   4
ATOM      4  C   UNL     1     -50.479  14.132 -31.142  1.00  0.00     0.000 C 
BRANCH   4   5
ATOM      5  C   UNL     1     -49.223  13.572 -30.446  1.00  0.00     0.000 C 
BRANCH   5   6
ATOM      6  C   UNL     1     -49.562  12.656 -29.258  1.00  0.00     0.000 C 
BRANCH   6   7
ATOM      7  C   UNL     1     -48.452  11.626 -28.979  1.00  0.00     0.000 C 
BRANCH   7   8
ATOM      8  C   UNL     1     -48.764  10.218 -29.537  1.00  0.00     0.000 C 
BRANCH   8   9
ATOM      9  C   UNL     1     -48.875  10.167 -31.073  1.00  0.00     0.000 C 
BRANCH   9  10
ATOM     10  C   UNL     1     -48.777   8.758 -31.680  1.00  0.00     0.006 C 
BRANCH  10  11
ATOM     11  C   UNL     1     -48.797   7.650 -30.616  1.00  0.00     0.053 C 
BRANCH  11  12
ATOM     12  C   UNL     1     -47.542   6.839 -30.678  1.00  0.00     0.041 C 
ATOM     13  O   UNL     1     -46.934   6.531 -29.618  1.00  0.00    -0.550 OA
ATOM     14  O   UNL     1     -47.052   6.403 -31.904  1.00  0.00    -0.550 OA
ENDBRANCH  11  12
ENDBRANCH  10  11
ENDBRANCH   9  10
ENDBRANCH   8   9
ENDBRANCH   7   8
ENDBRANCH   6   7
ENDBRANCH   5   6
ENDBRANCH   4   5
ENDBRANCH   3   4
ENDBRANCH   2   3
ENDBRANCH   1   2
BRANCH   1  15
ATOM     15  C   UNL     1     -52.235  17.800 -29.022  1.00  0.00     0.000 C 
BRANCH  15  16
ATOM     16  C   UNL     1     -53.394  16.803 -28.884  1.00  0.00     0.000 C 
BRANCH  16  17
ATOM     17  C   UNL     1     -53.015  15.642 -27.952  1.00  0.00     0.000 C 
BRANCH  17  18
ATOM     18  C   UNL     1     -53.935  14.418 -28.116  1.00  0.00    -0.000 C 
BRANCH  18  19
ATOM     19  C   UNL     1     -53.707  13.604 -29.402  1.00  0.00    -0.000 C 
BRANCH  19  20
ATOM     20  C   UNL     1     -53.142  12.203 -29.130  1.00  0.00    -0.000 C 
BRANCH  20  21
ATOM     21  C   UNL     1     -52.943  11.428 -30.441  1.00  0.00    -0.000 C 
BRANCH  21  22
ATOM     22  C   UNL     1     -52.390  10.009 -30.220  1.00  0.00    -0.000 C 
BRANCH  22  23
ATOM     23  C   UNL     1     -52.893   8.948 -31.220  1.00  0.00    -0.000 C 
BRANCH  23  24
ATOM     24  C   UNL     1     -52.186   8.956 -32.588  1.00  0.00    -0.000 C 
BRANCH  24  25
ATOM     25  C   UNL     1     -52.576   7.757 -33.466  1.00  0.00    -0.003 C 
ATOM     26  C   UNL     1     -51.468   6.708 -33.486  1.00  0.00     0.004 C 
ENDBRANCH  24  25
ENDBRANCH  23  24
ENDBRANCH  22  23
ENDBRANCH  21  22
ENDBRANCH  20  21
ENDBRANCH  19  20
ENDBRANCH  18  19
ENDBRANCH  17  18
ENDBRANCH  16  17
ENDBRANCH  15  16
ENDBRANCH   1  15
TORSDOF 22
ENDMDL
MODEL 6
REMARK VINA RESULT:    -4.374      1.127      4.983
REMARK INTER + INTRA:         -13.637
REMARK INTER:                  -9.979
REMARK INTRA:                  -3.658
REMARK UNBOUND:                -3.639
REMARK SMILES CCCCCCCCCCCCCCCCCCCCCCCC(=O)[O-]
REMARK SMILES IDX 13 1 14 2 15 3 16 4 17 5 18 6 19 7 20 8 21 9 22 10 23 11
REMARK SMILES IDX 24 12 25 13 26 14 12 15 11 16 10 17 9 18 8 19 7 20 6 21 5 22
REMARK SMILES IDX 4 23 3 24 2 25 1 26
REMARK H PARENT
REMARK Flexibility Score: inf
ROOT
ATOM      1  C   UNL     1     -49.789   7.708 -32.919  1.00  0.00     0.000 C 
ENDROOT
BRANCH   1   2
ATOM      2  C   UNL     1     -50.667   7.482 -31.673  1.00  0.00     0.000 C 
BRANCH   2   3
ATOM      3  C   UNL     1     -51.397   8.754 -31.211  1.00  0.00     0.000 C 
BRANCH   3   4
ATOM      4  C   UNL     1     -51.101   9.970 -32.107  1.00  0.00     0.000 C 
BRANCH   4   5
ATOM      5  C   UNL     1     -51.919  11.234 -31.779  1.00  0.00     0.000 C 
BRANCH   5   6
ATOM      6  C   UNL     1     -52.557  11.182 -30.380  1.00  0.00     0.000 C 
BRANCH   6   7
ATOM      7  C   UNL     1     -53.819  12.058 -30.280  1.00  0.00     0.000 C 
BRANCH   7   8
ATOM      8  C   UNL     1     -53.514  13.571 -30.198  1.00  0.00     0.000 C 
BRANCH   8   9
ATOM      9  C   UNL     1     -52.762  13.987 -28.919  1.00  0.00     0.000 C 
BRANCH   9  10
ATOM     10  C   UNL     1     -52.815  15.490 -28.600  1.00  0.00     0.006 C 
BRANCH  10  11
ATOM     11  C   UNL     1     -53.501  16.308 -29.704  1.00  0.00     0.053 C 
BRANCH  11  12
ATOM     12  C   UNL     1     -52.760  17.584 -29.951  1.00  0.00     0.041 C 
ATOM     13  O   UNL     1     -51.665  17.803 -29.370  1.00  0.00    -0.550 OA
ATOM     14  O   UNL     1     -53.268  18.524 -30.841  1.00  0.00    -0.550 OA
ENDBRANCH  11  12
ENDBRANCH  10  11
ENDBRANCH   9  10
ENDBRANCH   8   9
ENDBRANCH   7   8
ENDBRANCH   6   7
ENDBRANCH   5   6
ENDBRANCH   4   5
ENDBRANCH   3   4
ENDBRANCH   2   3
ENDBRANCH   1   2
BRANCH   1  15
ATOM     15  C   UNL     1     -48.632   6.706 -33.102  1.00  0.00     0.000 C 
BRANCH  15  16
ATOM     16  C   UNL     1     -47.366   7.099 -32.327  1.00  0.00     0.000 C 
BRANCH  16  17
ATOM     17  C   UNL     1     -47.179   6.211 -31.088  1.00  0.00     0.000 C 
BRANCH  17  18
ATOM     18  C   UNL     1     -46.968   7.022 -29.797  1.00  0.00    -0.000 C 
BRANCH  18  19
ATOM     19  C   UNL     1     -46.878   8.546 -29.997  1.00  0.00    -0.000 C 
BRANCH  19  20
ATOM     20  C   UNL     1     -48.191   9.271 -29.673  1.00  0.00    -0.000 C 
BRANCH  20  21
ATOM     21  C   UNL     1     -47.947  10.767 -29.431  1.00  0.00    -0.000 C 
BRANCH  21  22
ATOM     22  C   UNL     1     -49.235  11.537 -29.090  1.00  0.00    -0.000 C 
BRANCH  22  23
ATOM     23  C   UNL     1     -49.186  13.052 -29.374  1.00  0.00    -0.000 C 
BRANCH  23  24
ATOM     24  C   UNL     1     -49.595  13.461 -30.801  1.00  0.00    -0.000 C 
BRANCH  24  25
ATOM     25  C   UNL     1     -49.798  14.976 -30.951  1.00  0.00    -0.003 C 
ATOM     26  C   UNL     1     -50.751  15.291 -32.101  1.00  0.00     0.004 C 
ENDBRANCH  24  25
ENDBRANCH  23  24
ENDBRANCH  22  23
ENDBRANCH  21  22
ENDBRANCH  20  21
ENDBRANCH  19  20
ENDBRANCH  18  19
ENDBRANCH  17  18
ENDBRANCH  16  17
ENDBRANCH  15  16
ENDBRANCH   1  15
TORSDOF 22
ENDMDL
MODEL 7
REMARK VINA RESULT:    -4.369      3.717      7.366
REMARK INTER + INTRA:         -13.627
REMARK INTER:                 -10.135
REMARK INTRA:                  -3.492
REMARK UNBOUND:                -3.639
REMARK SMILES CCCCCCCCCCCCCCCCCCCCCCCC(=O)[O-]
REMARK SMILES IDX 13 1 14 2 15 3 16 4 17 5 18 6 19 7 20 8 21 9 22 10 23 11
REMARK SMILES IDX 24 12 25 13 26 14 12 15 11 16 10 17 9 18 8 19 7 20 6 21 5 22
REMARK SMILES IDX 4 23 3 24 2 25 1 26
REMARK H PARENT
REMARK Flexibility Score: inf
ROOT
ATOM      1  C   UNL     1     -53.265  15.953 -27.435  1.00  0.00     0.000 C 
ENDROOT
BRANCH   1   2
ATOM      2  C   UNL     1     -54.087  14.925 -28.235  1.00  0.00     0.000 C 
BRANCH   2   3
ATOM      3  C   UNL     1     -53.279  13.673 -28.617  1.00  0.00     0.000 C 
BRANCH   3   4
ATOM      4  C   UNL     1     -53.689  13.092 -29.982  1.00  0.00     0.000 C 
BRANCH   4   5
ATOM      5  C   UNL     1     -53.809  11.558 -30.028  1.00  0.00     0.000 C 
BRANCH   5   6
ATOM      6  C   UNL     1     -52.441  10.857 -30.107  1.00  0.00     0.000 C 
BRANCH   6   7
ATOM      7  C   UNL     1     -51.886  10.820 -31.543  1.00  0.00     0.000 C 
BRANCH   7   8
ATOM      8  C   UNL     1     -51.790   9.393 -32.129  1.00  0.00     0.000 C 
BRANCH   8   9
ATOM      9  C   UNL     1     -51.660   8.288 -31.062  1.00  0.00     0.000 C 
BRANCH   9  10
ATOM     10  C   UNL     1     -50.449   7.358 -31.242  1.00  0.00     0.006 C 
BRANCH  10  11
ATOM     11  C   UNL     1     -49.620   7.695 -32.489  1.00  0.00     0.053 C 
BRANCH  11  12
ATOM     12  C   UNL     1     -48.359   6.892 -32.517  1.00  0.00     0.041 C 
ATOM     13  O   UNL     1     -47.777   6.663 -33.610  1.00  0.00    -0.550 OA
ATOM     14  O   UNL     1     -47.812   6.412 -31.331  1.00  0.00    -0.550 OA
ENDBRANCH  11  12
ENDBRANCH  10  11
ENDBRANCH   9  10
ENDBRANCH   8   9
ENDBRANCH   7   8
ENDBRANCH   6   7
ENDBRANCH   5   6
ENDBRANCH   4   5
ENDBRANCH   3   4
ENDBRANCH   2   3
ENDBRANCH   1   2
BRANCH   1  15
ATOM     15  C   UNL     1     -53.692  17.423 -27.615  1.00  0.00     0.000 C 
BRANCH  15  16
ATOM     16  C   UNL     1     -53.331  17.992 -28.995  1.00  0.00     0.000 C 
BRANCH  16  17
ATOM     17  C   UNL     1     -51.825  17.861 -29.268  1.00  0.00     0.000 C 
BRANCH  17  18
ATOM     18  C   UNL     1     -51.514  17.459 -30.722  1.00  0.00    -0.000 C 
BRANCH  18  19
ATOM     19  C   UNL     1     -52.157  16.138 -31.180  1.00  0.00    -0.000 C 
BRANCH  19  20
ATOM     20  C   UNL     1     -51.161  15.197 -31.873  1.00  0.00    -0.000 C 
BRANCH  20  21
ATOM     21  C   UNL     1     -49.915  14.980 -31.001  1.00  0.00    -0.000 C 
BRANCH  21  22
ATOM     22  C   UNL     1     -49.569  13.492 -30.812  1.00  0.00    -0.000 C 
BRANCH  22  23
ATOM     23  C   UNL     1     -49.688  12.972 -29.364  1.00  0.00    -0.000 C 
BRANCH  23  24
ATOM     24  C   UNL     1     -48.751  11.802 -29.013  1.00  0.00    -0.000 C 
BRANCH  24  25
ATOM     25  C   UNL     1     -48.683  10.741 -30.121  1.00  0.00    -0.003 C 
ATOM     26  C   UNL     1     -47.854   9.538 -29.679  1.00  0.00     0.004 C 
ENDBRANCH  24  25
ENDBRANCH  23  24
ENDBRANCH  22  23
ENDBRANCH  21  22
ENDBRANCH  20  21
ENDBRANCH  19  20
ENDBRANCH  18  19
ENDBRANCH  17  18
ENDBRANCH  16  17
ENDBRANCH  15  16
ENDBRANCH   1  15
TORSDOF 22
ENDMDL
MODEL 8
REMARK VINA RESULT:    -4.363      1.499      4.423
REMARK INTER + INTRA:         -13.612
REMARK INTER:                 -10.095
REMARK INTRA:                  -3.518
REMARK UNBOUND:                -3.639
REMARK SMILES CCCCCCCCCCCCCCCCCCCCCCCC(=O)[O-]
REMARK SMILES IDX 13 1 14 2 15 3 16 4 17 5 18 6 19 7 20 8 21 9 22 10 23 11
REMARK SMILES IDX 24 12 25 13 26 14 12 15 11 16 10 17 9 18 8 19 7 20 6 21 5 22
REMARK SMILES IDX 4 23 3 24 2 25 1 26
REMARK H PARENT
REMARK Flexibility Score: inf
ROOT
ATOM      1  C   UNL     1     -48.207   9.355 -30.485  1.00  0.00     0.000 C 
ENDROOT
BRANCH   1   2
ATOM      2  C   UNL     1     -47.853  10.421 -29.430  1.00  0.00     0.000 C 
BRANCH   2   3
ATOM      3  C   UNL     1     -49.087  11.148 -28.870  1.00  0.00     0.000 C 
BRANCH   3   4
ATOM      4  C   UNL     1     -49.170  12.617 -29.322  1.00  0.00     0.000 C 
BRANCH   4   5
ATOM      5  C   UNL     1     -49.619  12.825 -30.780  1.00  0.00     0.000 C 
BRANCH   5   6
ATOM      6  C   UNL     1     -49.762  14.311 -31.152  1.00  0.00     0.000 C 
BRANCH   6   7
ATOM      7  C   UNL     1     -51.191  14.667 -31.599  1.00  0.00     0.000 C 
BRANCH   7   8
ATOM      8  C   UNL     1     -52.231  13.571 -31.271  1.00  0.00     0.000 C 
BRANCH   8   9
ATOM      9  C   UNL     1     -53.231  13.971 -30.169  1.00  0.00     0.000 C 
BRANCH   9  10
ATOM     10  C   UNL     1     -52.603  14.657 -28.945  1.00  0.00     0.006 C 
BRANCH  10  11
ATOM     11  C   UNL     1     -53.384  15.899 -28.493  1.00  0.00     0.053 C 
BRANCH  11  12
ATOM     12  C   UNL     1     -52.854  17.127 -29.163  1.00  0.00     0.041 C 
ATOM     13  O   UNL     1     -52.079  17.902 -28.544  1.00  0.00    -0.550 OA
ATOM     14  O   UNL     1     -53.200  17.406 -30.481  1.00  0.00    -0.550 OA
ENDBRANCH  11  12
ENDBRANCH  10  11
ENDBRANCH   9  10
ENDBRANCH   8   9
ENDBRANCH   7   8
ENDBRANCH   6   7
ENDBRANCH   5   6
ENDBRANCH   4   5
ENDBRANCH   3   4
ENDBRANCH   2   3
ENDBRANCH   1   2
BRANCH   1  15
ATOM     15  C   UNL     1     -48.773   8.035 -29.926  1.00  0.00     0.000 C 
BRANCH  15  16
ATOM     16  C   UNL     1     -48.063   6.792 -30.480  1.00  0.00     0.000 C 
BRANCH  16  17
ATOM     17  C   UNL     1     -47.371   7.102 -31.816  1.00  0.00     0.000 C 
BRANCH  17  18
ATOM     18  C   UNL     1     -48.174   6.610 -33.035  1.00  0.00    -0.000 C 
BRANCH  18  19
ATOM     19  C   UNL     1     -49.423   7.446 -33.367  1.00  0.00    -0.000 C 
BRANCH  19  20
ATOM     20  C   UNL     1     -50.658   6.584 -33.661  1.00  0.00    -0.000 C 
BRANCH  20  21
ATOM     21  C   UNL     1     -51.434   6.279 -32.371  1.00  0.00    -0.000 C 
BRANCH  21  22
ATOM     22  C   UNL     1     -52.929   6.627 -32.475  1.00  0.00    -0.000 C 
BRANCH  22  23
ATOM     23  C   UNL     1     -53.348   7.932 -31.766  1.00  0.00    -0.000 C 
BRANCH  23  24
ATOM     24  C   UNL     1     -52.390   8.407 -30.659  1.00  0.00    -0.000 C 
BRANCH  24  25
ATOM     25  C   UNL     1     -51.919   9.855 -30.860  1.00  0.00    -0.003 C 
ATOM     26  C   UNL     1     -51.514  10.104 -32.311  1.00  0.00     0.004 C 
ENDBRANCH  24  25
ENDBRANCH  23  24
ENDBRANCH  22  23
ENDBRANCH  21  22
ENDBRANCH  20  21
ENDBRANCH  19  20
ENDBRANCH  18  19
ENDBRANCH  17  18
ENDBRANCH  16  17
ENDBRANCH  15  16
ENDBRANCH   1  15
TORSDOF 22
ENDMDL
MODEL 9
REMARK VINA RESULT:    -4.336      3.033      8.154
REMARK INTER + INTRA:         -13.551
REMARK INTER:                  -9.897
REMARK INTRA:                  -3.654
REMARK UNBOUND:                -3.639
REMARK SMILES CCCCCCCCCCCCCCCCCCCCCCCC(=O)[O-]
REMARK SMILES IDX 13 1 14 2 15 3 16 4 17 5 18 6 19 7 20 8 21 9 22 10 23 11
REMARK SMILES IDX 24 12 25 13 26 14 12 15 11 16 10 17 9 18 8 19 7 20 6 21 5 22
REMARK SMILES IDX 4 23 3 24 2 25 1 26
REMARK H PARENT
REMARK Flexibility Score: inf
ROOT
ATOM      1  C   UNL     1     -53.012   9.461 -30.952  1.00  0.00     0.000 C 
ENDROOT
BRANCH   1   2
ATOM      2  C   UNL     1     -53.937   8.232 -30.866  1.00  0.00     0.000 C 
BRANCH   2   3
ATOM      3  C   UNL     1     -53.167   6.907 -30.736  1.00  0.00     0.000 C 
BRANCH   3   4
ATOM      4  C   UNL     1     -53.229   6.053 -32.016  1.00  0.00     0.000 C 
BRANCH   4   5
ATOM      5  C   UNL     1     -53.623   6.820 -33.292  1.00  0.00     0.000 C 
BRANCH   5   6
ATOM      6  C   UNL     1     -52.404   7.241 -34.131  1.00  0.00     0.000 C 
BRANCH   6   7
ATOM      7  C   UNL     1     -51.143   6.433 -33.776  1.00  0.00     0.000 C 
BRANCH   7   8
ATOM      8  C   UNL     1     -50.006   7.296 -33.182  1.00  0.00     0.000 C 
BRANCH   8   9
ATOM      9  C   UNL     1     -50.377   8.781 -33.005  1.00  0.00     0.000 C 
BRANCH   9  10
ATOM     10  C   UNL     1     -49.440   9.574 -32.079  1.00  0.00     0.006 C 
BRANCH  10  11
ATOM     11  C   UNL     1     -48.618   8.669 -31.149  1.00  0.00     0.053 C 
BRANCH  11  12
ATOM     12  C   UNL     1     -47.828   9.490 -30.180  1.00  0.00     0.041 C 
ATOM     13  O   UNL     1     -46.587   9.307 -30.060  1.00  0.00    -0.550 OA
ATOM     14  O   UNL     1     -48.457  10.472 -29.423  1.00  0.00    -0.550 OA
ENDBRANCH  11  12
ENDBRANCH  10  11
ENDBRANCH   9  10
ENDBRANCH   8   9
ENDBRANCH   7   8
ENDBRANCH   6   7
ENDBRANCH   5   6
ENDBRANCH   4   5
ENDBRANCH   3   4
ENDBRANCH   2   3
ENDBRANCH   1   2
BRANCH   1  15
ATOM     15  C   UNL     1     -52.285   9.833 -29.645  1.00  0.00     0.000 C 
BRANCH  15  16
ATOM     16  C   UNL     1     -52.063  11.344 -29.485  1.00  0.00     0.000 C 
BRANCH  16  17
ATOM     17  C   UNL     1     -52.689  12.119 -30.655  1.00  0.00     0.000 C 
BRANCH  17  18
ATOM     18  C   UNL     1     -51.654  12.924 -31.462  1.00  0.00    -0.000 C 
BRANCH  18  19
ATOM     19  C   UNL     1     -50.328  13.194 -30.727  1.00  0.00    -0.000 C 
BRANCH  19  20
ATOM     20  C   UNL     1     -49.704  14.546 -31.099  1.00  0.00    -0.000 C 
BRANCH  20  21
ATOM     21  C   UNL     1     -50.717  15.434 -31.836  1.00  0.00    -0.000 C 
BRANCH  21  22
ATOM     22  C   UNL     1     -51.100  16.695 -31.041  1.00  0.00    -0.000 C 
BRANCH  22  23
ATOM     23  C   UNL     1     -52.614  16.968 -30.937  1.00  0.00    -0.000 C 
BRANCH  23  24
ATOM     24  C   UNL     1     -53.416  15.907 -30.161  1.00  0.00    -0.000 C 
BRANCH  24  25
ATOM     25  C   UNL     1     -52.942  15.747 -28.709  1.00  0.00    -0.003 C 
ATOM     26  C   UNL     1     -53.567  14.515 -28.060  1.00  0.00     0.004 C 
ENDBRANCH  24  25
ENDBRANCH  23  24
ENDBRANCH  22  23
ENDBRANCH  21  22
ENDBRANCH  20  21
ENDBRANCH  19  20
ENDBRANCH  18  19
ENDBRANCH  17  18
ENDBRANCH  16  17
ENDBRANCH  15  16
ENDBRANCH   1  15
TORSDOF 22
ENDMDL
