MODEL 1
REMARK VINA RESULT:    -7.299      0.000      0.000
REMARK INTER + INTRA:          -8.843
REMARK INTER:                  -8.579
REMARK INTRA:                  -0.263
REMARK UNBOUND:                -0.263
REMARK SMILES O=c1cc(-c2ccc(O)c(O)c2)oc2cc(O)cc(O)c12
REMARK SMILES IDX 4 1 3 2 2 3 1 4 21 5 19 6 18 7 16 8 15 9 14 10 13 11 5 12
REMARK SMILES IDX 6 13 7 14 8 15 12 16 10 17 9 18 11 20 20 22 17 24
REMARK H PARENT 9 19 11 21 20 23 17 25
REMARK Flexibility Score: inf
ROOT
ATOM      1  C   UNL     1      31.561 -92.075  37.645  1.00  0.00     0.138 A 
ATOM      2  C   UNL     1      30.324 -92.679  37.369  1.00  0.00     0.100 A 
ATOM      3  C   UNL     1      30.174 -94.054  37.551  1.00  0.00     0.197 A 
ATOM      4  O   UNL     1      29.059 -94.588  37.303  1.00  0.00    -0.289 OA
ATOM      5  C   UNL     1      31.265 -94.817  38.015  1.00  0.00     0.107 A 
ATOM      6  C   UNL     1      31.200 -96.215  38.226  1.00  0.00     0.134 A 
ATOM      7  C   UNL     1      32.330 -96.900  38.694  1.00  0.00     0.093 A 
ATOM      8  C   UNL     1      33.521 -96.217  38.954  1.00  0.00     0.123 A 
ATOM      9  C   UNL     1      33.592 -94.835  38.747  1.00  0.00     0.094 A 
ATOM     10  C   UNL     1      32.477 -94.134  38.280  1.00  0.00     0.146 A 
ATOM     11  O   UNL     1      32.569 -92.821  38.090  1.00  0.00    -0.456 OA
ENDROOT
BRANCH   1  12
ATOM     12  C   UNL     1      31.777 -90.616  37.469  1.00  0.00     0.021 A 
ATOM     13  C   UNL     1      32.719 -90.113  36.553  1.00  0.00     0.016 A 
ATOM     14  C   UNL     1      32.907 -88.735  36.415  1.00  0.00     0.051 A 
ATOM     15  C   UNL     1      32.165 -87.838  37.193  1.00  0.00     0.157 A 
ATOM     16  C   UNL     1      31.045 -89.709  38.255  1.00  0.00     0.062 A 
ATOM     17  C   UNL     1      31.231 -88.328  38.118  1.00  0.00     0.158 A 
BRANCH  15  18
ATOM     18  O   UNL     1      32.355 -86.464  37.052  1.00  0.00    -0.504 OA
ATOM     19  H   UNL     1      32.755 -86.067  36.208  1.00  0.00     0.293 HD
ENDBRANCH  15  18
BRANCH  17  20
ATOM     20  O   UNL     1      30.479 -87.462  38.912  1.00  0.00    -0.504 OA
ATOM     21  H   UNL     1      30.284 -86.508  38.631  1.00  0.00     0.293 HD
ENDBRANCH  17  20
ENDBRANCH   1  12
BRANCH   6  22
ATOM     22  O   UNL     1      30.025 -96.923  37.975  1.00  0.00    -0.507 OA
ATOM     23  H   UNL     1      29.159 -96.707  38.457  1.00  0.00     0.293 HD
ENDBRANCH   6  22
BRANCH   8  24
ATOM     24  O   UNL     1      34.630 -96.923  39.419  1.00  0.00    -0.508 OA
ATOM     25  H   UNL     1      34.768 -97.901  39.192  1.00  0.00     0.293 HD
ENDBRANCH   8  24
TORSDOF 5
ENDMDL
MODEL 2
REMARK VINA RESULT:    -7.091      1.251      2.813
REMARK INTER + INTRA:          -8.598
REMARK INTER:                  -8.328
REMARK INTRA:                  -0.270
REMARK UNBOUND:                -0.263
REMARK SMILES O=c1cc(-c2ccc(O)c(O)c2)oc2cc(O)cc(O)c12
REMARK SMILES IDX 4 1 3 2 2 3 1 4 21 5 19 6 18 7 16 8 15 9 14 10 13 11 5 12
REMARK SMILES IDX 6 13 7 14 8 15 12 16 10 17 9 18 11 20 20 22 17 24
REMARK H PARENT 9 19 11 21 20 23 17 25
REMARK Flexibility Score: inf
ROOT
ATOM      1  C   UNL     1      31.593 -92.145  37.717  1.00  0.00     0.138 A 
ATOM      2  C   UNL     1      32.623 -92.944  38.241  1.00  0.00     0.100 A 
ATOM      3  C   UNL     1      32.403 -94.308  38.435  1.00  0.00     0.197 A 
ATOM      4  O   UNL     1      33.334 -95.018  38.903  1.00  0.00    -0.289 OA
ATOM      5  C   UNL     1      31.154 -94.866  38.098  1.00  0.00     0.107 A 
ATOM      6  C   UNL     1      30.847 -96.238  38.264  1.00  0.00     0.134 A 
ATOM      7  C   UNL     1      29.580 -96.716  37.899  1.00  0.00     0.093 A 
ATOM      8  C   UNL     1      28.616 -95.852  37.374  1.00  0.00     0.123 A 
ATOM      9  C   UNL     1      28.913 -94.494  37.209  1.00  0.00     0.094 A 
ATOM     10  C   UNL     1      30.170 -93.998  37.567  1.00  0.00     0.146 A 
ATOM     11  O   UNL     1      30.427 -92.704  37.401  1.00  0.00    -0.456 OA
ENDROOT
BRANCH   1  12
ATOM     12  C   UNL     1      31.770 -90.688  37.490  1.00  0.00     0.021 A 
ATOM     13  C   UNL     1      32.628 -90.193  36.491  1.00  0.00     0.016 A 
ATOM     14  C   UNL     1      32.782 -88.817  36.307  1.00  0.00     0.051 A 
ATOM     15  C   UNL     1      32.090 -87.912  37.121  1.00  0.00     0.157 A 
ATOM     16  C   UNL     1      31.088 -89.773  38.312  1.00  0.00     0.062 A 
ATOM     17  C   UNL     1      31.240 -88.393  38.129  1.00  0.00     0.158 A 
BRANCH  15  18
ATOM     18  O   UNL     1      32.246 -86.539  36.933  1.00  0.00    -0.504 OA
ATOM     19  H   UNL     1      32.269 -86.129  36.006  1.00  0.00     0.293 HD
ENDBRANCH  15  18
BRANCH  17  20
ATOM     20  O   UNL     1      30.539 -87.519  38.960  1.00  0.00    -0.504 OA
ATOM     21  H   UNL     1      30.521 -86.519  38.795  1.00  0.00     0.293 HD
ENDBRANCH  17  20
ENDBRANCH   1  12
BRANCH   6  22
ATOM     22  O   UNL     1      31.790 -97.125  38.785  1.00  0.00    -0.507 OA
ATOM     23  H   UNL     1      31.604 -97.670  39.620  1.00  0.00     0.293 HD
ENDBRANCH   6  22
BRANCH   8  24
ATOM     24  O   UNL     1      27.365 -96.352  37.021  1.00  0.00    -0.508 OA
ATOM     25  H   UNL     1      26.961 -97.153  37.494  1.00  0.00     0.293 HD
ENDBRANCH   8  24
TORSDOF 5
ENDMDL
MODEL 3
REMARK VINA RESULT:    -5.652      8.810     10.999
REMARK INTER + INTRA:          -6.907
REMARK INTER:                  -6.590
REMARK INTRA:                  -0.317
REMARK UNBOUND:                -0.263
REMARK SMILES O=c1cc(-c2ccc(O)c(O)c2)oc2cc(O)cc(O)c12
REMARK SMILES IDX 4 1 3 2 2 3 1 4 21 5 19 6 18 7 16 8 15 9 14 10 13 11 5 12
REMARK SMILES IDX 6 13 7 14 8 15 12 16 10 17 9 18 11 20 20 22 17 24
REMARK H PARENT 9 19 11 21 20 23 17 25
REMARK Flexibility Score: inf
ROOT
ATOM      1  C   UNL     1      41.093 -94.980  35.757  1.00  0.00     0.138 A 
ATOM      2  C   UNL     1      42.212 -95.197  34.935  1.00  0.00     0.100 A 
ATOM      3  C   UNL     1      42.052 -95.229  33.550  1.00  0.00     0.197 A 
ATOM      4  O   UNL     1      43.062 -95.423  32.821  1.00  0.00    -0.289 OA
ATOM      5  C   UNL     1      40.771 -95.039  32.994  1.00  0.00     0.107 A 
ATOM      6  C   UNL     1      40.520 -95.057  31.601  1.00  0.00     0.134 A 
ATOM      7  C   UNL     1      39.217 -94.854  31.126  1.00  0.00     0.093 A 
ATOM      8  C   UNL     1      38.161 -94.633  32.015  1.00  0.00     0.123 A 
ATOM      9  C   UNL     1      38.403 -94.614  33.393  1.00  0.00     0.094 A 
ATOM     10  C   UNL     1      39.695 -94.815  33.886  1.00  0.00     0.146 A 
ATOM     11  O   UNL     1      39.899 -94.794  35.200  1.00  0.00    -0.456 OA
ENDROOT
BRANCH   1  12
ATOM     12  C   UNL     1      41.205 -94.936  37.237  1.00  0.00     0.021 A 
ATOM     13  C   UNL     1      42.369 -95.358  37.904  1.00  0.00     0.016 A 
ATOM     14  C   UNL     1      42.442 -95.314  39.299  1.00  0.00     0.051 A 
ATOM     15  C   UNL     1      41.353 -94.857  40.051  1.00  0.00     0.157 A 
ATOM     16  C   UNL     1      40.111 -94.490  38.000  1.00  0.00     0.062 A 
ATOM     17  C   UNL     1      40.182 -94.444  39.397  1.00  0.00     0.158 A 
BRANCH  15  18
ATOM     18  O   UNL     1      41.430 -94.814  41.443  1.00  0.00    -0.504 OA
ATOM     19  H   UNL     1      41.227 -93.965  41.959  1.00  0.00     0.293 HD
ENDBRANCH  15  18
BRANCH  17  20
ATOM     20  O   UNL     1      39.077 -93.986  40.116  1.00  0.00    -0.504 OA
ATOM     21  H   UNL     1      39.029 -93.043  40.484  1.00  0.00     0.293 HD
ENDBRANCH  17  20
ENDBRANCH   1  12
BRANCH   6  22
ATOM     22  O   UNL     1      41.554 -95.275  30.689  1.00  0.00    -0.507 OA
ATOM     23  H   UNL     1      41.730 -96.191  30.291  1.00  0.00     0.293 HD
ENDBRANCH   6  22
BRANCH   8  24
ATOM     24  O   UNL     1      36.875 -94.434  31.518  1.00  0.00    -0.508 OA
ATOM     25  H   UNL     1      36.682 -94.457  30.523  1.00  0.00     0.293 HD
ENDBRANCH   8  24
TORSDOF 5
ENDMDL
MODEL 4
REMARK VINA RESULT:    -5.647      9.193     10.819
REMARK INTER + INTRA:          -6.900
REMARK INTER:                  -6.622
REMARK INTRA:                  -0.278
REMARK UNBOUND:                -0.263
REMARK SMILES O=c1cc(-c2ccc(O)c(O)c2)oc2cc(O)cc(O)c12
REMARK SMILES IDX 4 1 3 2 2 3 1 4 21 5 19 6 18 7 16 8 15 9 14 10 13 11 5 12
REMARK SMILES IDX 6 13 7 14 8 15 12 16 10 17 9 18 11 20 20 22 17 24
REMARK H PARENT 9 19 11 21 20 23 17 25
REMARK Flexibility Score: inf
ROOT
ATOM      1  C   UNL     1      38.015 -95.142  31.139  1.00  0.00     0.138 A 
ATOM      2  C   UNL     1      38.625 -95.841  30.083  1.00  0.00     0.100 A 
ATOM      3  C   UNL     1      37.934 -96.011  28.883  1.00  0.00     0.197 A 
ATOM      4  O   UNL     1      38.490 -96.638  27.940  1.00  0.00    -0.289 OA
ATOM      5  C   UNL     1      36.638 -95.477  28.745  1.00  0.00     0.107 A 
ATOM      6  C   UNL     1      35.868 -95.605  27.564  1.00  0.00     0.134 A 
ATOM      7  C   UNL     1      34.586 -95.039  27.504  1.00  0.00     0.093 A 
ATOM      8  C   UNL     1      34.060 -94.350  28.600  1.00  0.00     0.123 A 
ATOM      9  C   UNL     1      34.816 -94.220  29.770  1.00  0.00     0.094 A 
ATOM     10  C   UNL     1      36.095 -94.777  29.849  1.00  0.00     0.146 A 
ATOM     11  O   UNL     1      36.793 -94.642  30.973  1.00  0.00    -0.456 OA
ENDROOT
BRANCH   1  12
ATOM     12  C   UNL     1      38.703 -94.931  32.438  1.00  0.00     0.021 A 
ATOM     13  C   UNL     1      39.926 -94.241  32.525  1.00  0.00     0.016 A 
ATOM     14  C   UNL     1      40.555 -94.065  33.760  1.00  0.00     0.051 A 
ATOM     15  C   UNL     1      39.978 -94.581  34.927  1.00  0.00     0.157 A 
ATOM     16  C   UNL     1      38.137 -95.456  33.613  1.00  0.00     0.062 A 
ATOM     17  C   UNL     1      38.764 -95.281  34.852  1.00  0.00     0.158 A 
BRANCH  15  18
ATOM     18  O   UNL     1      40.608 -94.403  36.159  1.00  0.00    -0.504 OA
ATOM     19  H   UNL     1      40.959 -93.497  36.449  1.00  0.00     0.293 HD
ENDBRANCH  15  18
BRANCH  17  20
ATOM     20  O   UNL     1      38.165 -95.811  35.995  1.00  0.00    -0.504 OA
ATOM     21  H   UNL     1      38.708 -96.212  36.750  1.00  0.00     0.293 HD
ENDBRANCH  17  20
ENDBRANCH   1  12
BRANCH   6  22
ATOM     22  O   UNL     1      36.367 -96.288  26.454  1.00  0.00    -0.507 OA
ATOM     23  H   UNL     1      37.338 -96.208  26.172  1.00  0.00     0.293 HD
ENDBRANCH   6  22
BRANCH   8  24
ATOM     24  O   UNL     1      32.784 -93.797  28.515  1.00  0.00    -0.508 OA
ATOM     25  H   UNL     1      32.618 -92.814  28.698  1.00  0.00     0.293 HD
ENDBRANCH   8  24
TORSDOF 5
ENDMDL
MODEL 5
REMARK VINA RESULT:    -5.531      9.868     11.378
REMARK INTER + INTRA:          -6.764
REMARK INTER:                  -6.454
REMARK INTRA:                  -0.310
REMARK UNBOUND:                -0.263
REMARK SMILES O=c1cc(-c2ccc(O)c(O)c2)oc2cc(O)cc(O)c12
REMARK SMILES IDX 4 1 3 2 2 3 1 4 21 5 19 6 18 7 16 8 15 9 14 10 13 11 5 12
REMARK SMILES IDX 6 13 7 14 8 15 12 16 10 17 9 18 11 20 20 22 17 24
REMARK H PARENT 9 19 11 21 20 23 17 25
REMARK Flexibility Score: inf
ROOT
ATOM      1  C   UNL     1      39.601 -95.272  31.272  1.00  0.00     0.138 A 
ATOM      2  C   UNL     1      39.988 -95.555  29.952  1.00  0.00     0.100 A 
ATOM      3  C   UNL     1      39.011 -95.728  28.971  1.00  0.00     0.197 A 
ATOM      4  O   UNL     1      39.369 -95.980  27.788  1.00  0.00    -0.289 OA
ATOM      5  C   UNL     1      37.650 -95.612  29.317  1.00  0.00     0.107 A 
ATOM      6  C   UNL     1      36.597 -95.774  28.386  1.00  0.00     0.134 A 
ATOM      7  C   UNL     1      35.267 -95.637  28.809  1.00  0.00     0.093 A 
ATOM      8  C   UNL     1      34.971 -95.343  30.143  1.00  0.00     0.123 A 
ATOM      9  C   UNL     1      36.008 -95.183  31.068  1.00  0.00     0.094 A 
ATOM     10  C   UNL     1      37.339 -95.316  30.666  1.00  0.00     0.146 A 
ATOM     11  O   UNL     1      38.307 -95.160  31.564  1.00  0.00    -0.456 OA
ENDROOT
BRANCH   1  12
ATOM     12  C   UNL     1      40.597 -95.079  32.357  1.00  0.00     0.021 A 
ATOM     13  C   UNL     1      41.878 -95.657  32.296  1.00  0.00     0.016 A 
ATOM     14  C   UNL     1      42.791 -95.465  33.336  1.00  0.00     0.051 A 
ATOM     15  C   UNL     1      42.439 -94.701  34.456  1.00  0.00     0.157 A 
ATOM     16  C   UNL     1      40.247 -94.323  33.490  1.00  0.00     0.062 A 
ATOM     17  C   UNL     1      41.160 -94.129  34.533  1.00  0.00     0.158 A 
BRANCH  15  18
ATOM     18  O   UNL     1      43.354 -94.511  35.491  1.00  0.00    -0.504 OA
ATOM     19  H   UNL     1      44.312 -94.233  35.309  1.00  0.00     0.293 HD
ENDBRANCH  15  18
BRANCH  17  20
ATOM     20  O   UNL     1      40.776 -93.366  35.635  1.00  0.00    -0.504 OA
ATOM     21  H   UNL     1      39.848 -92.967  35.716  1.00  0.00     0.293 HD
ENDBRANCH  17  20
ENDBRANCH   1  12
BRANCH   6  22
ATOM     22  O   UNL     1      36.862 -96.068  27.048  1.00  0.00    -0.507 OA
ATOM     23  H   UNL     1      37.289 -95.388  26.427  1.00  0.00     0.293 HD
ENDBRANCH   6  22
BRANCH   8  24
ATOM     24  O   UNL     1      33.641 -95.213  30.538  1.00  0.00    -0.508 OA
ATOM     25  H   UNL     1      33.327 -94.423  31.090  1.00  0.00     0.293 HD
ENDBRANCH   8  24
TORSDOF 5
ENDMDL
MODEL 6
REMARK VINA RESULT:    -5.507     15.597     18.041
REMARK INTER + INTRA:          -6.736
REMARK INTER:                  -6.444
REMARK INTRA:                  -0.291
REMARK UNBOUND:                -0.263
REMARK SMILES O=c1cc(-c2ccc(O)c(O)c2)oc2cc(O)cc(O)c12
REMARK SMILES IDX 4 1 3 2 2 3 1 4 21 5 19 6 18 7 16 8 15 9 14 10 13 11 5 12
REMARK SMILES IDX 6 13 7 14 8 15 12 16 10 17 9 18 11 20 20 22 17 24
REMARK H PARENT 9 19 11 21 20 23 17 25
REMARK Flexibility Score: inf
ROOT
ATOM      1  C   UNL     1      38.454 -77.210  35.044  1.00  0.00     0.138 A 
ATOM      2  C   UNL     1      39.715 -77.172  35.662  1.00  0.00     0.100 A 
ATOM      3  C   UNL     1      40.864 -77.086  34.876  1.00  0.00     0.197 A 
ATOM      4  O   UNL     1      41.991 -77.049  35.439  1.00  0.00    -0.289 OA
ATOM      5  C   UNL     1      40.743 -77.034  33.472  1.00  0.00     0.107 A 
ATOM      6  C   UNL     1      41.856 -76.948  32.601  1.00  0.00     0.134 A 
ATOM      7  C   UNL     1      41.651 -76.895  31.215  1.00  0.00     0.093 A 
ATOM      8  C   UNL     1      40.359 -76.928  30.684  1.00  0.00     0.123 A 
ATOM      9  C   UNL     1      39.255 -77.015  31.540  1.00  0.00     0.094 A 
ATOM     10  C   UNL     1      39.439 -77.068  32.924  1.00  0.00     0.146 A 
ATOM     11  O   UNL     1      38.374 -77.151  33.717  1.00  0.00    -0.456 OA
ENDROOT
BRANCH   1  12
ATOM     12  C   UNL     1      37.198 -77.302  35.831  1.00  0.00     0.021 A 
ATOM     13  C   UNL     1      35.952 -76.949  35.280  1.00  0.00     0.016 A 
ATOM     14  C   UNL     1      34.788 -77.037  36.048  1.00  0.00     0.051 A 
ATOM     15  C   UNL     1      34.848 -77.470  37.378  1.00  0.00     0.157 A 
ATOM     16  C   UNL     1      37.251 -77.724  37.171  1.00  0.00     0.062 A 
ATOM     17  C   UNL     1      36.086 -77.814  37.942  1.00  0.00     0.158 A 
BRANCH  15  18
ATOM     18  O   UNL     1      33.683 -77.557  38.141  1.00  0.00    -0.504 OA
ATOM     19  H   UNL     1      33.282 -76.743  38.592  1.00  0.00     0.293 HD
ENDBRANCH  15  18
BRANCH  17  20
ATOM     20  O   UNL     1      36.182 -78.245  39.265  1.00  0.00    -0.504 OA
ATOM     21  H   UNL     1      37.045 -78.175  39.792  1.00  0.00     0.293 HD
ENDBRANCH  17  20
ENDBRANCH   1  12
BRANCH   6  22
ATOM     22  O   UNL     1      43.157 -76.913  33.103  1.00  0.00    -0.507 OA
ATOM     23  H   UNL     1      43.749 -77.736  33.107  1.00  0.00     0.293 HD
ENDBRANCH   6  22
BRANCH   8  24
ATOM     24  O   UNL     1      40.183 -76.876  29.302  1.00  0.00    -0.508 OA
ATOM     25  H   UNL     1      39.365 -77.276  28.857  1.00  0.00     0.293 HD
ENDBRANCH   8  24
TORSDOF 5
ENDMDL
MODEL 7
REMARK VINA RESULT:    -5.491      9.437     10.811
REMARK INTER + INTRA:          -6.717
REMARK INTER:                  -6.412
REMARK INTRA:                  -0.305
REMARK UNBOUND:                -0.263
REMARK SMILES O=c1cc(-c2ccc(O)c(O)c2)oc2cc(O)cc(O)c12
REMARK SMILES IDX 4 1 3 2 2 3 1 4 21 5 19 6 18 7 16 8 15 9 14 10 13 11 5 12
REMARK SMILES IDX 6 13 7 14 8 15 12 16 10 17 9 18 11 20 20 22 17 24
REMARK H PARENT 9 19 11 21 20 23 17 25
REMARK Flexibility Score: inf
ROOT
ATOM      1  C   UNL     1      37.009 -95.162  29.872  1.00  0.00     0.138 A 
ATOM      2  C   UNL     1      38.133 -95.573  29.137  1.00  0.00     0.100 A 
ATOM      3  C   UNL     1      39.387 -95.588  29.749  1.00  0.00     0.197 A 
ATOM      4  O   UNL     1      40.390 -95.960  29.082  1.00  0.00    -0.289 OA
ATOM      5  C   UNL     1      39.507 -95.196  31.097  1.00  0.00     0.107 A 
ATOM      6  C   UNL     1      40.739 -95.181  31.793  1.00  0.00     0.134 A 
ATOM      7  C   UNL     1      40.774 -94.782  33.137  1.00  0.00     0.093 A 
ATOM      8  C   UNL     1      39.603 -94.398  33.797  1.00  0.00     0.123 A 
ATOM      9  C   UNL     1      38.382 -94.410  33.113  1.00  0.00     0.094 A 
ATOM     10  C   UNL     1      38.327 -94.805  31.774  1.00  0.00     0.146 A 
ATOM     11  O   UNL     1      37.155 -94.806  31.146  1.00  0.00    -0.456 OA
ENDROOT
BRANCH   1  12
ATOM     12  C   UNL     1      35.651 -95.126  29.272  1.00  0.00     0.021 A 
ATOM     13  C   UNL     1      35.450 -94.818  27.913  1.00  0.00     0.016 A 
ATOM     14  C   UNL     1      34.160 -94.783  27.379  1.00  0.00     0.051 A 
ATOM     15  C   UNL     1      33.049 -95.044  28.190  1.00  0.00     0.157 A 
ATOM     16  C   UNL     1      34.530 -95.375  30.083  1.00  0.00     0.062 A 
ATOM     17  C   UNL     1      33.236 -95.341  29.549  1.00  0.00     0.158 A 
BRANCH  15  18
ATOM     18  O   UNL     1      31.763 -95.009  27.652  1.00  0.00    -0.504 OA
ATOM     19  H   UNL     1      31.402 -94.179  27.195  1.00  0.00     0.293 HD
ENDBRANCH  15  18
BRANCH  17  20
ATOM     20  O   UNL     1      32.152 -95.603  30.387  1.00  0.00    -0.504 OA
ATOM     21  H   UNL     1      31.213 -95.729  30.027  1.00  0.00     0.293 HD
ENDBRANCH  17  20
ENDBRANCH   1  12
BRANCH   6  22
ATOM     22  O   UNL     1      41.924 -95.559  31.161  1.00  0.00    -0.507 OA
ATOM     23  H   UNL     1      42.248 -95.099  30.317  1.00  0.00     0.293 HD
ENDBRANCH   6  22
BRANCH   8  24
ATOM     24  O   UNL     1      39.665 -94.005  35.132  1.00  0.00    -0.508 OA
ATOM     25  H   UNL     1      40.475 -94.209  35.707  1.00  0.00     0.293 HD
ENDBRANCH   8  24
TORSDOF 5
ENDMDL
MODEL 8
REMARK VINA RESULT:    -5.453     15.008     16.320
REMARK INTER + INTRA:          -6.673
REMARK INTER:                  -6.358
REMARK INTRA:                  -0.315
REMARK UNBOUND:                -0.263
REMARK SMILES O=c1cc(-c2ccc(O)c(O)c2)oc2cc(O)cc(O)c12
REMARK SMILES IDX 4 1 3 2 2 3 1 4 21 5 19 6 18 7 16 8 15 9 14 10 13 11 5 12
REMARK SMILES IDX 6 13 7 14 8 15 12 16 10 17 9 18 11 20 20 22 17 24
REMARK H PARENT 9 19 11 21 20 23 17 25
REMARK Flexibility Score: inf
ROOT
ATOM      1  C   UNL     1      37.576 -77.852  37.411  1.00  0.00     0.138 A 
ATOM      2  C   UNL     1      38.733 -77.344  36.798  1.00  0.00     0.100 A 
ATOM      3  C   UNL     1      39.959 -77.440  37.457  1.00  0.00     0.197 A 
ATOM      4  O   UNL     1      40.993 -76.983  36.899  1.00  0.00    -0.289 OA
ATOM      5  C   UNL     1      40.019 -78.049  38.727  1.00  0.00     0.107 A 
ATOM      6  C   UNL     1      41.220 -78.186  39.465  1.00  0.00     0.134 A 
ATOM      7  C   UNL     1      41.196 -78.810  40.720  1.00  0.00     0.093 A 
ATOM      8  C   UNL     1      40.000 -79.298  41.252  1.00  0.00     0.123 A 
ATOM      9  C   UNL     1      38.810 -79.164  40.528  1.00  0.00     0.094 A 
ATOM     10  C   UNL     1      38.812 -78.545  39.274  1.00  0.00     0.146 A 
ATOM     11  O   UNL     1      37.668 -78.429  38.606  1.00  0.00    -0.456 OA
ENDROOT
BRANCH   1  12
ATOM     12  C   UNL     1      36.245 -77.777  36.755  1.00  0.00     0.021 A 
ATOM     13  C   UNL     1      36.110 -77.485  35.386  1.00  0.00     0.016 A 
ATOM     14  C   UNL     1      34.844 -77.412  34.798  1.00  0.00     0.051 A 
ATOM     15  C   UNL     1      33.694 -77.621  35.568  1.00  0.00     0.157 A 
ATOM     16  C   UNL     1      35.084 -77.974  37.524  1.00  0.00     0.062 A 
ATOM     17  C   UNL     1      33.815 -77.902  36.938  1.00  0.00     0.158 A 
BRANCH  15  18
ATOM     18  O   UNL     1      32.432 -77.548  34.978  1.00  0.00    -0.504 OA
ATOM     19  H   UNL     1      32.297 -77.129  34.065  1.00  0.00     0.293 HD
ENDBRANCH  15  18
BRANCH  17  20
ATOM     20  O   UNL     1      32.689 -78.112  37.734  1.00  0.00    -0.504 OA
ATOM     21  H   UNL     1      32.570 -77.651  38.629  1.00  0.00     0.293 HD
ENDBRANCH  17  20
ENDBRANCH   1  12
BRANCH   6  22
ATOM     22  O   UNL     1      42.429 -77.710  38.960  1.00  0.00    -0.507 OA
ATOM     23  H   UNL     1      43.238 -78.313  38.853  1.00  0.00     0.293 HD
ENDBRANCH   6  22
BRANCH   8  24
ATOM     24  O   UNL     1      40.004 -79.913  42.502  1.00  0.00    -0.508 OA
ATOM     25  H   UNL     1      40.815 -80.416  42.842  1.00  0.00     0.293 HD
ENDBRANCH   8  24
TORSDOF 5
ENDMDL
MODEL 9
REMARK VINA RESULT:    -5.446      8.245     10.323
REMARK INTER + INTRA:          -6.665
REMARK INTER:                  -6.348
REMARK INTRA:                  -0.317
REMARK UNBOUND:                -0.263
REMARK SMILES O=c1cc(-c2ccc(O)c(O)c2)oc2cc(O)cc(O)c12
REMARK SMILES IDX 4 1 3 2 2 3 1 4 21 5 19 6 18 7 16 8 15 9 14 10 13 11 5 12
REMARK SMILES IDX 6 13 7 14 8 15 12 16 10 17 9 18 11 20 20 22 17 24
REMARK H PARENT 9 19 11 21 20 23 17 25
REMARK Flexibility Score: inf
ROOT
ATOM      1  C   UNL     1      39.943 -94.950  33.986  1.00  0.00     0.138 A 
ATOM      2  C   UNL     1      41.320 -94.725  34.145  1.00  0.00     0.100 A 
ATOM      3  C   UNL     1      41.855 -94.619  35.429  1.00  0.00     0.197 A 
ATOM      4  O   UNL     1      43.093 -94.419  35.562  1.00  0.00    -0.289 OA
ATOM      5  C   UNL     1      41.008 -94.745  36.548  1.00  0.00     0.107 A 
ATOM      6  C   UNL     1      41.468 -94.650  37.883  1.00  0.00     0.134 A 
ATOM      7  C   UNL     1      40.560 -94.792  38.943  1.00  0.00     0.093 A 
ATOM      8  C   UNL     1      39.205 -95.026  38.694  1.00  0.00     0.123 A 
ATOM      9  C   UNL     1      38.744 -95.120  37.376  1.00  0.00     0.094 A 
ATOM     10  C   UNL     1      39.633 -94.981  36.306  1.00  0.00     0.146 A 
ATOM     11  O   UNL     1      39.171 -95.073  35.063  1.00  0.00    -0.456 OA
ENDROOT
BRANCH   1  12
ATOM     12  C   UNL     1      39.319 -95.070  32.643  1.00  0.00     0.021 A 
ATOM     13  C   UNL     1      40.094 -95.181  31.474  1.00  0.00     0.016 A 
ATOM     14  C   UNL     1      39.478 -95.283  30.224  1.00  0.00     0.051 A 
ATOM     15  C   UNL     1      38.082 -95.269  30.118  1.00  0.00     0.157 A 
ATOM     16  C   UNL     1      37.918 -95.044  32.528  1.00  0.00     0.062 A 
ATOM     17  C   UNL     1      37.299 -95.147  31.276  1.00  0.00     0.158 A 
BRANCH  15  18
ATOM     18  O   UNL     1      37.472 -95.372  28.868  1.00  0.00    -0.504 OA
ATOM     19  H   UNL     1      37.961 -95.762  28.070  1.00  0.00     0.293 HD
ENDBRANCH  15  18
BRANCH  17  20
ATOM     20  O   UNL     1      35.906 -95.126  31.206  1.00  0.00    -0.504 OA
ATOM     21  H   UNL     1      35.332 -95.788  31.715  1.00  0.00     0.293 HD
ENDBRANCH  17  20
ENDBRANCH   1  12
BRANCH   6  22
ATOM     22  O   UNL     1      42.814 -94.418  38.163  1.00  0.00    -0.507 OA
ATOM     23  H   UNL     1      43.553 -94.911  37.673  1.00  0.00     0.293 HD
ENDBRANCH   6  22
BRANCH   8  24
ATOM     24  O   UNL     1      38.324 -95.163  39.765  1.00  0.00    -0.508 OA
ATOM     25  H   UNL     1      37.700 -95.958  39.839  1.00  0.00     0.293 HD
ENDBRANCH   8  24
TORSDOF 5
ENDMDL
