MODEL 1
REMARK VINA RESULT:    -5.576      0.000      0.000
REMARK INTER + INTRA:          -5.739
REMARK INTER:                  -5.739
REMARK INTRA:                   0.000
REMARK UNBOUND:                 0.000
REMARK SMILES O=c1ccc2ccc(O)cc2o1
REMARK SMILES IDX 6 1 7 2 8 3 10 4 11 5 5 6 4 7 3 8 2 9 1 10 12 11 9 12
REMARK H PARENT 9 13
REMARK Flexibility Score: inf
ROOT
ATOM      1  C   UNL     1      21.496  -0.497 -22.549  1.00  0.00     0.016 A 
ATOM      2  C   UNL     1      21.886   0.716 -23.125  1.00  0.00     0.047 A 
ATOM      3  C   UNL     1      21.875   1.894 -22.368  1.00  0.00     0.119 A 
ATOM      4  C   UNL     1      21.473   1.859 -21.025  1.00  0.00     0.094 A 
ATOM      5  C   UNL     1      21.081   0.649 -20.440  1.00  0.00     0.142 A 
ATOM      6  C   UNL     1      21.093  -0.537 -21.207  1.00  0.00     0.018 A 
ATOM      7  C   UNL     1      20.697  -1.730 -20.596  1.00  0.00     0.019 A 
ATOM      8  C   UNL     1      20.304  -1.716 -19.257  1.00  0.00     0.094 A 
ATOM      9  C   UNL     1      20.317  -0.503 -18.560  1.00  0.00     0.336 A 
ATOM     10  O   UNL     1      19.967  -0.470 -17.351  1.00  0.00    -0.246 OA
ATOM     11  O   UNL     1      20.699   0.618 -19.165  1.00  0.00    -0.423 OA
ENDROOT
BRANCH   3  12
ATOM     12  O   UNL     1      22.267   3.093 -22.959  1.00  0.00    -0.508 OA
ATOM     13  H   UNL     1      22.691   3.117 -23.879  1.00  0.00     0.293 HD
ENDBRANCH   3  12
TORSDOF 1
ENDMDL
MODEL 2
REMARK VINA RESULT:    -5.326      0.917      4.224
REMARK INTER + INTRA:          -5.482
REMARK INTER:                  -5.482
REMARK INTRA:                   0.000
REMARK UNBOUND:                 0.000
REMARK SMILES O=c1ccc2ccc(O)cc2o1
REMARK SMILES IDX 6 1 7 2 8 3 10 4 11 5 5 6 4 7 3 8 2 9 1 10 12 11 9 12
REMARK H PARENT 9 13
REMARK Flexibility Score: inf
ROOT
ATOM      1  C   UNL     1      20.246  -1.836 -20.441  1.00  0.00     0.016 A 
ATOM      2  C   UNL     1      19.844  -1.664 -19.112  1.00  0.00     0.047 A 
ATOM      3  C   UNL     1      20.011  -0.427 -18.477  1.00  0.00     0.119 A 
ATOM      4  C   UNL     1      20.584   0.646 -19.175  1.00  0.00     0.094 A 
ATOM      5  C   UNL     1      20.988   0.483 -20.505  1.00  0.00     0.142 A 
ATOM      6  C   UNL     1      20.818  -0.766 -21.142  1.00  0.00     0.018 A 
ATOM      7  C   UNL     1      21.231  -0.898 -22.471  1.00  0.00     0.019 A 
ATOM      8  C   UNL     1      21.795   0.198 -23.124  1.00  0.00     0.094 A 
ATOM      9  C   UNL     1      21.933   1.404 -22.430  1.00  0.00     0.336 A 
ATOM     10  O   UNL     1      22.440   2.404 -23.002  1.00  0.00    -0.246 OA
ATOM     11  O   UNL     1      21.531   1.503 -21.165  1.00  0.00    -0.423 OA
ENDROOT
BRANCH   3  12
ATOM     12  O   UNL     1      19.605  -0.275 -17.153  1.00  0.00    -0.508 OA
ATOM     13  H   UNL     1      18.777   0.257 -16.910  1.00  0.00     0.293 HD
ENDBRANCH   3  12
TORSDOF 1
ENDMDL
MODEL 3
REMARK VINA RESULT:    -5.150     18.709     20.481
REMARK INTER + INTRA:          -5.300
REMARK INTER:                  -5.300
REMARK INTRA:                   0.000
REMARK UNBOUND:                 0.000
REMARK SMILES O=c1ccc2ccc(O)cc2o1
REMARK SMILES IDX 6 1 7 2 8 3 10 4 11 5 5 6 4 7 3 8 2 9 1 10 12 11 9 12
REMARK H PARENT 9 13
REMARK Flexibility Score: inf
ROOT
ATOM      1  C   UNL     1       4.935   3.765  -7.174  1.00  0.00     0.016 A 
ATOM      2  C   UNL     1       5.984   2.840  -7.151  1.00  0.00     0.047 A 
ATOM      3  C   UNL     1       7.008   2.908  -8.104  1.00  0.00     0.119 A 
ATOM      4  C   UNL     1       6.983   3.909  -9.087  1.00  0.00     0.094 A 
ATOM      5  C   UNL     1       5.938   4.838  -9.118  1.00  0.00     0.142 A 
ATOM      6  C   UNL     1       4.907   4.767  -8.154  1.00  0.00     0.018 A 
ATOM      7  C   UNL     1       3.876   5.709  -8.210  1.00  0.00     0.019 A 
ATOM      8  C   UNL     1       3.894   6.685  -9.206  1.00  0.00     0.094 A 
ATOM      9  C   UNL     1       4.947   6.695 -10.126  1.00  0.00     0.336 A 
ATOM     10  O   UNL     1       4.982   7.568 -11.032  1.00  0.00    -0.246 OA
ATOM     11  O   UNL     1       5.916   5.787 -10.051  1.00  0.00    -0.423 OA
ENDROOT
BRANCH   3  12
ATOM     12  O   UNL     1       8.045   1.979  -8.065  1.00  0.00    -0.508 OA
ATOM     13  H   UNL     1       9.013   2.261  -8.163  1.00  0.00     0.293 HD
ENDBRANCH   3  12
TORSDOF 1
ENDMDL
MODEL 4
REMARK VINA RESULT:    -5.015     16.644     19.374
REMARK INTER + INTRA:          -5.162
REMARK INTER:                  -5.162
REMARK INTRA:                   0.000
REMARK UNBOUND:                 0.000
REMARK SMILES O=c1ccc2ccc(O)cc2o1
REMARK SMILES IDX 6 1 7 2 8 3 10 4 11 5 5 6 4 7 3 8 2 9 1 10 12 11 9 12
REMARK H PARENT 9 13
REMARK Flexibility Score: inf
ROOT
ATOM      1  C   UNL     1       8.164  -7.970  -6.628  1.00  0.00     0.016 A 
ATOM      2  C   UNL     1       7.629  -7.061  -5.710  1.00  0.00     0.047 A 
ATOM      3  C   UNL     1       8.149  -5.764  -5.614  1.00  0.00     0.119 A 
ATOM      4  C   UNL     1       9.212  -5.374  -6.442  1.00  0.00     0.094 A 
ATOM      5  C   UNL     1       9.754  -6.277  -7.364  1.00  0.00     0.142 A 
ATOM      6  C   UNL     1       9.226  -7.584  -7.458  1.00  0.00     0.018 A 
ATOM      7  C   UNL     1       9.788  -8.465  -8.387  1.00  0.00     0.019 A 
ATOM      8  C   UNL     1      10.843  -8.031  -9.189  1.00  0.00     0.094 A 
ATOM      9  C   UNL     1      11.315  -6.723  -9.041  1.00  0.00     0.336 A 
ATOM     10  O   UNL     1      12.266  -6.312  -9.755  1.00  0.00    -0.246 OA
ATOM     11  O   UNL     1      10.762  -5.905  -8.148  1.00  0.00    -0.423 OA
ENDROOT
BRANCH   3  12
ATOM     12  O   UNL     1       7.603  -4.872  -4.694  1.00  0.00    -0.508 OA
ATOM     13  H   UNL     1       8.180  -4.397  -4.010  1.00  0.00     0.293 HD
ENDBRANCH   3  12
TORSDOF 1
ENDMDL
MODEL 5
REMARK VINA RESULT:    -4.877      1.874      2.696
REMARK INTER + INTRA:          -5.019
REMARK INTER:                  -5.019
REMARK INTRA:                   0.000
REMARK UNBOUND:                 0.000
REMARK SMILES O=c1ccc2ccc(O)cc2o1
REMARK SMILES IDX 6 1 7 2 8 3 10 4 11 5 5 6 4 7 3 8 2 9 1 10 12 11 9 12
REMARK H PARENT 9 13
REMARK Flexibility Score: inf
ROOT
ATOM      1  C   UNL     1      20.941   1.044 -19.729  1.00  0.00     0.016 A 
ATOM      2  C   UNL     1      21.558   1.182 -20.976  1.00  0.00     0.047 A 
ATOM      3  C   UNL     1      21.561   0.117 -21.886  1.00  0.00     0.119 A 
ATOM      4  C   UNL     1      20.940  -1.094 -21.546  1.00  0.00     0.094 A 
ATOM      5  C   UNL     1      20.320  -1.241 -20.300  1.00  0.00     0.142 A 
ATOM      6  C   UNL     1      20.319  -0.164 -19.385  1.00  0.00     0.018 A 
ATOM      7  C   UNL     1      19.692  -0.341 -18.149  1.00  0.00     0.019 A 
ATOM      8  C   UNL     1      19.088  -1.563 -17.856  1.00  0.00     0.094 A 
ATOM      9  C   UNL     1      19.128  -2.585 -18.810  1.00  0.00     0.336 A 
ATOM     10  O   UNL     1      18.589  -3.696 -18.565  1.00  0.00    -0.246 OA
ATOM     11  O   UNL     1      19.732  -2.391 -19.980  1.00  0.00    -0.423 OA
ENDROOT
BRANCH   3  12
ATOM     12  O   UNL     1      22.181   0.273 -23.124  1.00  0.00    -0.508 OA
ATOM     13  H   UNL     1      22.907  -0.361 -23.436  1.00  0.00     0.293 HD
ENDBRANCH   3  12
TORSDOF 1
ENDMDL
MODEL 6
REMARK VINA RESULT:    -4.810     15.768     18.495
REMARK INTER + INTRA:          -4.950
REMARK INTER:                  -4.950
REMARK INTRA:                   0.000
REMARK UNBOUND:                 0.000
REMARK SMILES O=c1ccc2ccc(O)cc2o1
REMARK SMILES IDX 6 1 7 2 8 3 10 4 11 5 5 6 4 7 3 8 2 9 1 10 12 11 9 12
REMARK H PARENT 9 13
REMARK Flexibility Score: inf
ROOT
ATOM      1  C   UNL     1      12.781   4.367  -3.352  1.00  0.00     0.016 A 
ATOM      2  C   UNL     1      11.626   3.738  -2.876  1.00  0.00     0.047 A 
ATOM      3  C   UNL     1      10.990   2.753  -3.643  1.00  0.00     0.119 A 
ATOM      4  C   UNL     1      11.513   2.394  -4.893  1.00  0.00     0.094 A 
ATOM      5  C   UNL     1      12.669   3.017  -5.377  1.00  0.00     0.142 A 
ATOM      6  C   UNL     1      13.308   4.010  -4.601  1.00  0.00     0.018 A 
ATOM      7  C   UNL     1      14.460   4.615  -5.111  1.00  0.00     0.019 A 
ATOM      8  C   UNL     1      14.943   4.224  -6.360  1.00  0.00     0.094 A 
ATOM      9  C   UNL     1      14.258   3.234  -7.072  1.00  0.00     0.336 A 
ATOM     10  O   UNL     1      14.678   2.868  -8.200  1.00  0.00    -0.246 OA
ATOM     11  O   UNL     1      13.163   2.674  -6.564  1.00  0.00    -0.423 OA
ENDROOT
BRANCH   3  12
ATOM     12  O   UNL     1       9.840   2.138  -3.152  1.00  0.00    -0.508 OA
ATOM     13  H   UNL     1       9.548   1.224  -3.478  1.00  0.00     0.293 HD
ENDBRANCH   3  12
TORSDOF 1
ENDMDL
MODEL 7
REMARK VINA RESULT:    -4.801     17.041     18.677
REMARK INTER + INTRA:          -4.941
REMARK INTER:                  -4.941
REMARK INTRA:                   0.000
REMARK UNBOUND:                 0.000
REMARK SMILES O=c1ccc2ccc(O)cc2o1
REMARK SMILES IDX 6 1 7 2 8 3 10 4 11 5 5 6 4 7 3 8 2 9 1 10 12 11 9 12
REMARK H PARENT 9 13
REMARK Flexibility Score: inf
ROOT
ATOM      1  C   UNL     1       7.718  -6.904  -7.518  1.00  0.00     0.016 A 
ATOM      2  C   UNL     1       8.382  -6.113  -6.575  1.00  0.00     0.047 A 
ATOM      3  C   UNL     1       9.697  -5.690  -6.807  1.00  0.00     0.119 A 
ATOM      4  C   UNL     1      10.352  -6.061  -7.991  1.00  0.00     0.094 A 
ATOM      5  C   UNL     1       9.695  -6.853  -8.939  1.00  0.00     0.142 A 
ATOM      6  C   UNL     1       8.369  -7.277  -8.702  1.00  0.00     0.018 A 
ATOM      7  C   UNL     1       7.738  -8.067  -9.667  1.00  0.00     0.019 A 
ATOM      8  C   UNL     1       8.431  -8.411 -10.829  1.00  0.00     0.094 A 
ATOM      9  C   UNL     1       9.742  -7.955 -10.996  1.00  0.00     0.336 A 
ATOM     10  O   UNL     1      10.383  -8.254 -12.037  1.00  0.00    -0.246 OA
ATOM     11  O   UNL     1      10.319  -7.204 -10.061  1.00  0.00    -0.423 OA
ENDROOT
BRANCH   3  12
ATOM     12  O   UNL     1      10.342  -4.901  -5.857  1.00  0.00    -0.508 OA
ATOM     13  H   UNL     1      10.765  -4.014  -6.104  1.00  0.00     0.293 HD
ENDBRANCH   3  12
TORSDOF 1
ENDMDL
MODEL 8
REMARK VINA RESULT:    -4.713     15.457     18.142
REMARK INTER + INTRA:          -4.851
REMARK INTER:                  -4.851
REMARK INTRA:                   0.000
REMARK UNBOUND:                 0.000
REMARK SMILES O=c1ccc2ccc(O)cc2o1
REMARK SMILES IDX 6 1 7 2 8 3 10 4 11 5 5 6 4 7 3 8 2 9 1 10 12 11 9 12
REMARK H PARENT 9 13
REMARK Flexibility Score: inf
ROOT
ATOM      1  C   UNL     1       8.923  -6.323  -7.035  1.00  0.00     0.016 A 
ATOM      2  C   UNL     1       7.628  -5.795  -7.033  1.00  0.00     0.047 A 
ATOM      3  C   UNL     1       7.136  -5.124  -8.161  1.00  0.00     0.119 A 
ATOM      4  C   UNL     1       7.945  -4.983  -9.298  1.00  0.00     0.094 A 
ATOM      5  C   UNL     1       9.242  -5.508  -9.308  1.00  0.00     0.142 A 
ATOM      6  C   UNL     1       9.734  -6.184  -8.169  1.00  0.00     0.018 A 
ATOM      7  C   UNL     1      11.033  -6.698  -8.209  1.00  0.00     0.019 A 
ATOM      8  C   UNL     1      11.800  -6.533  -9.362  1.00  0.00     0.094 A 
ATOM      9  C   UNL     1      11.247  -5.853 -10.452  1.00  0.00     0.336 A 
ATOM     10  O   UNL     1      11.923  -5.693 -11.502  1.00  0.00    -0.246 OA
ATOM     11  O   UNL     1      10.007  -5.372 -10.388  1.00  0.00    -0.423 OA
ENDROOT
BRANCH   3  12
ATOM     12  O   UNL     1       5.844  -4.605  -8.141  1.00  0.00    -0.508 OA
ATOM     13  H   UNL     1       5.032  -5.198  -8.267  1.00  0.00     0.293 HD
ENDBRANCH   3  12
TORSDOF 1
ENDMDL
MODEL 9
REMARK VINA RESULT:    -4.695     16.960     17.737
REMARK INTER + INTRA:          -4.832
REMARK INTER:                  -4.832
REMARK INTRA:                   0.000
REMARK UNBOUND:                 0.000
REMARK SMILES O=c1ccc2ccc(O)cc2o1
REMARK SMILES IDX 6 1 7 2 8 3 10 4 11 5 5 6 4 7 3 8 2 9 1 10 12 11 9 12
REMARK H PARENT 9 13
REMARK Flexibility Score: inf
ROOT
ATOM      1  C   UNL     1      10.669  -8.112  -8.981  1.00  0.00     0.016 A 
ATOM      2  C   UNL     1      10.807  -7.342  -7.822  1.00  0.00     0.047 A 
ATOM      3  C   UNL     1      10.184  -6.091  -7.725  1.00  0.00     0.119 A 
ATOM      4  C   UNL     1       9.417  -5.608  -8.795  1.00  0.00     0.094 A 
ATOM      5  C   UNL     1       9.273  -6.372  -9.958  1.00  0.00     0.142 A 
ATOM      6  C   UNL     1       9.902  -7.633 -10.052  1.00  0.00     0.018 A 
ATOM      7  C   UNL     1       9.740  -8.374 -11.226  1.00  0.00     0.019 A 
ATOM      8  C   UNL     1       8.967  -7.851 -12.263  1.00  0.00     0.094 A 
ATOM      9  C   UNL     1       8.374  -6.596 -12.101  1.00  0.00     0.336 A 
ATOM     10  O   UNL     1       7.673  -6.107 -13.025  1.00  0.00    -0.246 OA
ATOM     11  O   UNL     1       8.544  -5.911 -10.972  1.00  0.00    -0.423 OA
ENDROOT
BRANCH   3  12
ATOM     12  O   UNL     1      10.334  -5.338  -6.563  1.00  0.00    -0.508 OA
ATOM     13  H   UNL     1      11.239  -4.989  -6.270  1.00  0.00     0.293 HD
ENDBRANCH   3  12
TORSDOF 1
ENDMDL
