MODEL 1
REMARK VINA RESULT:    -7.145      0.000      0.000
REMARK INTER + INTRA:          -8.671
REMARK INTER:                  -8.398
REMARK INTRA:                  -0.273
REMARK UNBOUND:                -0.273
REMARK SMILES O=c1cc(-c2ccc(O)c(O)c2)oc2cc(O)cc(O)c12
REMARK SMILES IDX 4 1 3 2 2 3 1 4 21 5 19 6 18 7 16 8 15 9 14 10 13 11 5 12
REMARK SMILES IDX 6 13 7 14 8 15 12 16 10 17 9 18 11 20 20 22 17 24
REMARK H PARENT 9 19 11 21 20 23 17 25
REMARK Flexibility Score: inf
ROOT
ATOM      1  C   UNL     1     166.379 145.941 149.432  1.00  0.00     0.138 A 
ATOM      2  C   UNL     1     167.017 144.866 148.792  1.00  0.00     0.100 A 
ATOM      3  C   UNL     1     166.638 143.559 149.100  1.00  0.00     0.197 A 
ATOM      4  O   UNL     1     167.216 142.601 148.520  1.00  0.00    -0.289 OA
ATOM      5  C   UNL     1     165.618 143.336 150.047  1.00  0.00     0.107 A 
ATOM      6  C   UNL     1     165.174 142.045 150.418  1.00  0.00     0.134 A 
ATOM      7  C   UNL     1     164.148 141.908 151.365  1.00  0.00     0.093 A 
ATOM      8  C   UNL     1     163.559 143.035 151.945  1.00  0.00     0.123 A 
ATOM      9  C   UNL     1     163.993 144.313 151.582  1.00  0.00     0.094 A 
ATOM     10  C   UNL     1     165.015 144.471 150.640  1.00  0.00     0.146 A 
ATOM     11  O   UNL     1     165.412 145.696 150.314  1.00  0.00    -0.456 OA
ENDROOT
BRANCH   1  12
ATOM     12  C   UNL     1     166.740 147.352 149.141  1.00  0.00     0.021 A 
ATOM     13  C   UNL     1     165.730 148.267 148.797  1.00  0.00     0.016 A 
ATOM     14  C   UNL     1     166.042 149.601 148.527  1.00  0.00     0.051 A 
ATOM     15  C   UNL     1     167.367 150.047 148.606  1.00  0.00     0.157 A 
ATOM     16  C   UNL     1     168.069 147.810 149.232  1.00  0.00     0.062 A 
ATOM     17  C   UNL     1     168.384 149.147 148.963  1.00  0.00     0.158 A 
BRANCH  15  18
ATOM     18  O   UNL     1     167.676 151.379 148.335  1.00  0.00    -0.504 OA
ATOM     19  H   UNL     1     167.029 151.984 147.842  1.00  0.00     0.293 HD
ENDBRANCH  15  18
BRANCH  17  20
ATOM     20  O   UNL     1     169.711 149.563 149.062  1.00  0.00    -0.504 OA
ATOM     21  H   UNL     1     170.125 150.206 148.397  1.00  0.00     0.293 HD
ENDBRANCH  17  20
ENDBRANCH   1  12
BRANCH   6  22
ATOM     22  O   UNL     1     165.742 140.901 149.856  1.00  0.00    -0.507 OA
ATOM     23  H   UNL     1     165.350 140.460 149.033  1.00  0.00     0.293 HD
ENDBRANCH   6  22
BRANCH   8  24
ATOM     24  O   UNL     1     162.541 142.870 152.882  1.00  0.00    -0.508 OA
ATOM     25  H   UNL     1     162.535 142.087 153.526  1.00  0.00     0.293 HD
ENDBRANCH   8  24
TORSDOF 5
ENDMDL
MODEL 2
REMARK VINA RESULT:    -7.105      8.677     10.538
REMARK INTER + INTRA:          -8.624
REMARK INTER:                  -8.356
REMARK INTRA:                  -0.268
REMARK UNBOUND:                -0.273
REMARK SMILES O=c1cc(-c2ccc(O)c(O)c2)oc2cc(O)cc(O)c12
REMARK SMILES IDX 4 1 3 2 2 3 1 4 21 5 19 6 18 7 16 8 15 9 14 10 13 11 5 12
REMARK SMILES IDX 6 13 7 14 8 15 12 16 10 17 9 18 11 20 20 22 17 24
REMARK H PARENT 9 19 11 21 20 23 17 25
REMARK Flexibility Score: inf
ROOT
ATOM      1  C   UNL     1     173.263 144.792 154.895  1.00  0.00     0.138 A 
ATOM      2  C   UNL     1     174.518 145.405 155.042  1.00  0.00     0.100 A 
ATOM      3  C   UNL     1     174.711 146.340 156.060  1.00  0.00     0.197 A 
ATOM      4  O   UNL     1     175.840 146.884 156.185  1.00  0.00    -0.289 OA
ATOM      5  C   UNL     1     173.645 146.652 156.928  1.00  0.00     0.107 A 
ATOM      6  C   UNL     1     173.754 147.588 157.983  1.00  0.00     0.134 A 
ATOM      7  C   UNL     1     172.647 147.839 158.807  1.00  0.00     0.093 A 
ATOM      8  C   UNL     1     171.436 147.174 158.597  1.00  0.00     0.123 A 
ATOM      9  C   UNL     1     171.322 146.248 157.555  1.00  0.00     0.094 A 
ATOM     10  C   UNL     1     172.414 145.985 156.722  1.00  0.00     0.146 A 
ATOM     11  O   UNL     1     172.280 145.102 155.738  1.00  0.00    -0.456 OA
ENDROOT
BRANCH   1  12
ATOM     12  C   UNL     1     173.002 143.789 153.831  1.00  0.00     0.021 A 
ATOM     13  C   UNL     1     173.542 142.497 153.952  1.00  0.00     0.016 A 
ATOM     14  C   UNL     1     173.304 141.532 152.969  1.00  0.00     0.051 A 
ATOM     15  C   UNL     1     172.514 141.839 151.855  1.00  0.00     0.157 A 
ATOM     16  C   UNL     1     172.196 144.086 152.715  1.00  0.00     0.062 A 
ATOM     17  C   UNL     1     171.955 143.121 151.730  1.00  0.00     0.158 A 
BRANCH  15  18
ATOM     18  O   UNL     1     172.279 140.875 150.876  1.00  0.00    -0.504 OA
ATOM     19  H   UNL     1     171.460 140.278 150.904  1.00  0.00     0.293 HD
ENDBRANCH  15  18
BRANCH  17  20
ATOM     20  O   UNL     1     171.154 143.454 150.638  1.00  0.00    -0.504 OA
ATOM     21  H   UNL     1     170.186 143.734 150.746  1.00  0.00     0.293 HD
ENDBRANCH  17  20
ENDBRANCH   1  12
BRANCH   6  22
ATOM     22  O   UNL     1     174.950 148.268 158.220  1.00  0.00    -0.507 OA
ATOM     23  H   UNL     1     175.625 147.939 158.899  1.00  0.00     0.293 HD
ENDBRANCH   6  22
BRANCH   8  24
ATOM     24  O   UNL     1     170.353 147.442 159.431  1.00  0.00    -0.508 OA
ATOM     25  H   UNL     1     169.495 146.904 159.373  1.00  0.00     0.293 HD
ENDBRANCH   8  24
TORSDOF 5
ENDMDL
MODEL 3
REMARK VINA RESULT:    -7.078      2.352      3.903
REMARK INTER + INTRA:          -8.592
REMARK INTER:                  -8.328
REMARK INTRA:                  -0.264
REMARK UNBOUND:                -0.273
REMARK SMILES O=c1cc(-c2ccc(O)c(O)c2)oc2cc(O)cc(O)c12
REMARK SMILES IDX 4 1 3 2 2 3 1 4 21 5 19 6 18 7 16 8 15 9 14 10 13 11 5 12
REMARK SMILES IDX 6 13 7 14 8 15 12 16 10 17 9 18 11 20 20 22 17 24
REMARK H PARENT 9 19 11 21 20 23 17 25
REMARK Flexibility Score: inf
ROOT
ATOM      1  C   UNL     1     167.834 149.131 148.393  1.00  0.00     0.138 A 
ATOM      2  C   UNL     1     168.385 148.555 147.237  1.00  0.00     0.100 A 
ATOM      3  C   UNL     1     168.185 147.197 146.984  1.00  0.00     0.197 A 
ATOM      4  O   UNL     1     168.683 146.689 145.943  1.00  0.00    -0.289 OA
ATOM      5  C   UNL     1     167.430 146.425 147.889  1.00  0.00     0.107 A 
ATOM      6  C   UNL     1     167.181 145.044 147.709  1.00  0.00     0.134 A 
ATOM      7  C   UNL     1     166.414 144.347 148.655  1.00  0.00     0.093 A 
ATOM      8  C   UNL     1     165.893 145.003 149.773  1.00  0.00     0.123 A 
ATOM      9  C   UNL     1     166.136 146.368 149.956  1.00  0.00     0.094 A 
ATOM     10  C   UNL     1     166.899 147.080 149.025  1.00  0.00     0.146 A 
ATOM     11  O   UNL     1     167.117 148.376 149.223  1.00  0.00    -0.456 OA
ENDROOT
BRANCH   1  12
ATOM     12  C   UNL     1     168.013 150.571 148.712  1.00  0.00     0.021 A 
ATOM     13  C   UNL     1     166.941 151.460 148.519  1.00  0.00     0.016 A 
ATOM     14  C   UNL     1     167.081 152.817 148.819  1.00  0.00     0.051 A 
ATOM     15  C   UNL     1     168.289 153.308 149.327  1.00  0.00     0.157 A 
ATOM     16  C   UNL     1     169.222 151.068 149.236  1.00  0.00     0.062 A 
ATOM     17  C   UNL     1     169.364 152.428 149.539  1.00  0.00     0.158 A 
BRANCH  15  18
ATOM     18  O   UNL     1     168.426 154.662 149.625  1.00  0.00    -0.504 OA
ATOM     19  H   UNL     1     169.157 155.227 149.206  1.00  0.00     0.293 HD
ENDBRANCH  15  18
BRANCH  17  20
ATOM     20  O   UNL     1     170.576 152.883 150.055  1.00  0.00    -0.504 OA
ATOM     21  H   UNL     1     171.368 152.267 150.194  1.00  0.00     0.293 HD
ENDBRANCH  17  20
ENDBRANCH   1  12
BRANCH   6  22
ATOM     22  O   UNL     1     167.687 144.361 146.603  1.00  0.00    -0.507 OA
ATOM     23  H   UNL     1     168.612 144.550 146.236  1.00  0.00     0.293 HD
ENDBRANCH   6  22
BRANCH   8  24
ATOM     24  O   UNL     1     165.134 144.287 150.696  1.00  0.00    -0.508 OA
ATOM     25  H   UNL     1     164.669 144.747 151.471  1.00  0.00     0.293 HD
ENDBRANCH   8  24
TORSDOF 5
ENDMDL
MODEL 4
REMARK VINA RESULT:    -7.011      1.380      7.021
REMARK INTER + INTRA:          -8.514
REMARK INTER:                  -8.227
REMARK INTRA:                  -0.287
REMARK UNBOUND:                -0.273
REMARK SMILES O=c1cc(-c2ccc(O)c(O)c2)oc2cc(O)cc(O)c12
REMARK SMILES IDX 4 1 3 2 2 3 1 4 21 5 19 6 18 7 16 8 15 9 14 10 13 11 5 12
REMARK SMILES IDX 6 13 7 14 8 15 12 16 10 17 9 18 11 20 20 22 17 24
REMARK H PARENT 9 19 11 21 20 23 17 25
REMARK Flexibility Score: inf
ROOT
ATOM      1  C   UNL     1     166.952 146.294 149.776  1.00  0.00     0.138 A 
ATOM      2  C   UNL     1     168.325 146.036 149.634  1.00  0.00     0.100 A 
ATOM      3  C   UNL     1     169.152 147.005 149.065  1.00  0.00     0.197 A 
ATOM      4  O   UNL     1     170.383 146.764 148.943  1.00  0.00    -0.289 OA
ATOM      5  C   UNL     1     168.598 148.232 148.646  1.00  0.00     0.107 A 
ATOM      6  C   UNL     1     169.364 149.267 148.060  1.00  0.00     0.134 A 
ATOM      7  C   UNL     1     168.738 150.461 147.674  1.00  0.00     0.093 A 
ATOM      8  C   UNL     1     167.365 150.641 147.864  1.00  0.00     0.123 A 
ATOM      9  C   UNL     1     166.603 149.621 148.443  1.00  0.00     0.094 A 
ATOM     10  C   UNL     1     167.208 148.422 148.833  1.00  0.00     0.146 A 
ATOM     11  O   UNL     1     166.462 147.467 149.379  1.00  0.00    -0.456 OA
ENDROOT
BRANCH   1  12
ATOM     12  C   UNL     1     166.025 145.300 150.376  1.00  0.00     0.021 A 
ATOM     13  C   UNL     1     164.905 145.748 151.098  1.00  0.00     0.016 A 
ATOM     14  C   UNL     1     164.014 144.833 151.665  1.00  0.00     0.051 A 
ATOM     15  C   UNL     1     164.221 143.457 151.511  1.00  0.00     0.157 A 
ATOM     16  C   UNL     1     166.220 143.915 150.213  1.00  0.00     0.062 A 
ATOM     17  C   UNL     1     165.327 142.997 150.779  1.00  0.00     0.158 A 
BRANCH  15  18
ATOM     18  O   UNL     1     163.330 142.547 152.079  1.00  0.00    -0.504 OA
ATOM     19  H   UNL     1     163.609 141.934 152.837  1.00  0.00     0.293 HD
ENDBRANCH  15  18
BRANCH  17  20
ATOM     20  O   UNL     1     165.554 141.633 150.598  1.00  0.00    -0.504 OA
ATOM     21  H   UNL     1     166.485 141.254 150.472  1.00  0.00     0.293 HD
ENDBRANCH  17  20
ENDBRANCH   1  12
BRANCH   6  22
ATOM     22  O   UNL     1     170.737 149.119 147.859  1.00  0.00    -0.507 OA
ATOM     23  H   UNL     1     171.342 148.730 148.572  1.00  0.00     0.293 HD
ENDBRANCH   6  22
BRANCH   8  24
ATOM     24  O   UNL     1     166.769 151.838 147.473  1.00  0.00    -0.508 OA
ATOM     25  H   UNL     1     167.305 152.578 147.034  1.00  0.00     0.293 HD
ENDBRANCH   8  24
TORSDOF 5
ENDMDL
MODEL 5
REMARK VINA RESULT:    -6.925      1.341      2.109
REMARK INTER + INTRA:          -8.413
REMARK INTER:                  -8.126
REMARK INTRA:                  -0.287
REMARK UNBOUND:                -0.273
REMARK SMILES O=c1cc(-c2ccc(O)c(O)c2)oc2cc(O)cc(O)c12
REMARK SMILES IDX 4 1 3 2 2 3 1 4 21 5 19 6 18 7 16 8 15 9 14 10 13 11 5 12
REMARK SMILES IDX 6 13 7 14 8 15 12 16 10 17 9 18 11 20 20 22 17 24
REMARK H PARENT 9 19 11 21 20 23 17 25
REMARK Flexibility Score: inf
ROOT
ATOM      1  C   UNL     1     167.086 147.231 149.124  1.00  0.00     0.138 A 
ATOM      2  C   UNL     1     167.853 146.240 148.489  1.00  0.00     0.100 A 
ATOM      3  C   UNL     1     167.577 144.894 148.735  1.00  0.00     0.197 A 
ATOM      4  O   UNL     1     168.270 144.013 148.160  1.00  0.00    -0.289 OA
ATOM      5  C   UNL     1     166.531 144.549 149.613  1.00  0.00     0.107 A 
ATOM      6  C   UNL     1     166.186 143.211 149.918  1.00  0.00     0.134 A 
ATOM      7  C   UNL     1     165.126 142.950 150.799  1.00  0.00     0.093 A 
ATOM      8  C   UNL     1     164.406 143.998 151.379  1.00  0.00     0.123 A 
ATOM      9  C   UNL     1     164.742 145.323 151.081  1.00  0.00     0.094 A 
ATOM     10  C   UNL     1     165.796 145.603 150.206  1.00  0.00     0.146 A 
ATOM     11  O   UNL     1     166.098 146.870 149.940  1.00  0.00    -0.456 OA
ENDROOT
BRANCH   1  12
ATOM     12  C   UNL     1     167.334 148.678 148.898  1.00  0.00     0.021 A 
ATOM     13  C   UNL     1     168.640 149.183 149.021  1.00  0.00     0.016 A 
ATOM     14  C   UNL     1     168.900 150.539 148.806  1.00  0.00     0.051 A 
ATOM     15  C   UNL     1     167.862 151.410 148.454  1.00  0.00     0.157 A 
ATOM     16  C   UNL     1     166.297 149.557 148.529  1.00  0.00     0.062 A 
ATOM     17  C   UNL     1     166.556 150.916 148.312  1.00  0.00     0.158 A 
BRANCH  15  18
ATOM     18  O   UNL     1     168.125 152.763 148.241  1.00  0.00    -0.504 OA
ATOM     19  H   UNL     1     168.741 153.074 147.498  1.00  0.00     0.293 HD
ENDBRANCH  15  18
BRANCH  17  20
ATOM     20  O   UNL     1     165.503 151.756 147.950  1.00  0.00    -0.504 OA
ATOM     21  H   UNL     1     164.566 151.633 148.316  1.00  0.00     0.293 HD
ENDBRANCH  17  20
ENDBRANCH   1  12
BRANCH   6  22
ATOM     22  O   UNL     1     166.885 142.143 149.355  1.00  0.00    -0.507 OA
ATOM     23  H   UNL     1     166.480 141.217 149.286  1.00  0.00     0.293 HD
ENDBRANCH   6  22
BRANCH   8  24
ATOM     24  O   UNL     1     163.357 143.711 152.250  1.00  0.00    -0.508 OA
ATOM     25  H   UNL     1     163.123 144.328 153.019  1.00  0.00     0.293 HD
ENDBRANCH   8  24
TORSDOF 5
ENDMDL
MODEL 6
REMARK VINA RESULT:    -6.921      1.767      7.273
REMARK INTER + INTRA:          -8.408
REMARK INTER:                  -8.093
REMARK INTRA:                  -0.315
REMARK UNBOUND:                -0.273
REMARK SMILES O=c1cc(-c2ccc(O)c(O)c2)oc2cc(O)cc(O)c12
REMARK SMILES IDX 4 1 3 2 2 3 1 4 21 5 19 6 18 7 16 8 15 9 14 10 13 11 5 12
REMARK SMILES IDX 6 13 7 14 8 15 12 16 10 17 9 18 11 20 20 22 17 24
REMARK H PARENT 9 19 11 21 20 23 17 25
REMARK Flexibility Score: inf
ROOT
ATOM      1  C   UNL     1     165.792 146.020 149.477  1.00  0.00     0.138 A 
ATOM      2  C   UNL     1     165.064 147.219 149.549  1.00  0.00     0.100 A 
ATOM      3  C   UNL     1     165.523 148.344 148.862  1.00  0.00     0.197 A 
ATOM      4  O   UNL     1     164.862 149.415 148.932  1.00  0.00    -0.289 OA
ATOM      5  C   UNL     1     166.707 148.260 148.103  1.00  0.00     0.107 A 
ATOM      6  C   UNL     1     167.242 149.351 147.379  1.00  0.00     0.134 A 
ATOM      7  C   UNL     1     168.424 149.184 146.642  1.00  0.00     0.093 A 
ATOM      8  C   UNL     1     169.079 147.950 146.616  1.00  0.00     0.123 A 
ATOM      9  C   UNL     1     168.555 146.868 147.330  1.00  0.00     0.094 A 
ATOM     10  C   UNL     1     167.378 147.015 148.071  1.00  0.00     0.146 A 
ATOM     11  O   UNL     1     166.902 145.972 148.743  1.00  0.00    -0.456 OA
ENDROOT
BRANCH   1  12
ATOM     12  C   UNL     1     165.350 144.792 150.185  1.00  0.00     0.021 A 
ATOM     13  C   UNL     1     164.379 144.889 151.197  1.00  0.00     0.016 A 
ATOM     14  C   UNL     1     163.941 143.747 151.873  1.00  0.00     0.051 A 
ATOM     15  C   UNL     1     164.457 142.488 151.542  1.00  0.00     0.157 A 
ATOM     16  C   UNL     1     165.855 143.521 149.848  1.00  0.00     0.062 A 
ATOM     17  C   UNL     1     165.417 142.376 150.523  1.00  0.00     0.158 A 
BRANCH  15  18
ATOM     18  O   UNL     1     164.019 141.351 152.219  1.00  0.00    -0.504 OA
ATOM     19  H   UNL     1     163.037 141.197 152.417  1.00  0.00     0.293 HD
ENDBRANCH  15  18
BRANCH  17  20
ATOM     20  O   UNL     1     165.941 141.135 150.162  1.00  0.00    -0.504 OA
ATOM     21  H   UNL     1     166.668 140.680 150.701  1.00  0.00     0.293 HD
ENDBRANCH  17  20
ENDBRANCH   1  12
BRANCH   6  22
ATOM     22  O   UNL     1     166.610 150.595 147.384  1.00  0.00    -0.507 OA
ATOM     23  H   UNL     1     166.333 151.057 146.527  1.00  0.00     0.293 HD
ENDBRANCH   6  22
BRANCH   8  24
ATOM     24  O   UNL     1     170.251 147.812 145.875  1.00  0.00    -0.508 OA
ATOM     25  H   UNL     1     171.119 147.515 146.307  1.00  0.00     0.293 HD
ENDBRANCH   8  24
TORSDOF 5
ENDMDL
MODEL 7
REMARK VINA RESULT:    -6.771      4.185      5.043
REMARK INTER + INTRA:          -8.232
REMARK INTER:                  -7.915
REMARK INTRA:                  -0.317
REMARK UNBOUND:                -0.273
REMARK SMILES O=c1cc(-c2ccc(O)c(O)c2)oc2cc(O)cc(O)c12
REMARK SMILES IDX 4 1 3 2 2 3 1 4 21 5 19 6 18 7 16 8 15 9 14 10 13 11 5 12
REMARK SMILES IDX 6 13 7 14 8 15 12 16 10 17 9 18 11 20 20 22 17 24
REMARK H PARENT 9 19 11 21 20 23 17 25
REMARK Flexibility Score: inf
ROOT
ATOM      1  C   UNL     1     168.104 149.165 148.092  1.00  0.00     0.138 A 
ATOM      2  C   UNL     1     167.128 148.695 147.199  1.00  0.00     0.100 A 
ATOM      3  C   UNL     1     167.094 147.340 146.867  1.00  0.00     0.197 A 
ATOM      4  O   UNL     1     166.213 146.928 146.066  1.00  0.00    -0.289 OA
ATOM      5  C   UNL     1     168.038 146.462 147.436  1.00  0.00     0.107 A 
ATOM      6  C   UNL     1     168.076 145.076 147.153  1.00  0.00     0.134 A 
ATOM      7  C   UNL     1     169.045 144.268 147.766  1.00  0.00     0.093 A 
ATOM      8  C   UNL     1     169.974 144.817 148.653  1.00  0.00     0.123 A 
ATOM      9  C   UNL     1     169.942 146.186 148.937  1.00  0.00     0.094 A 
ATOM     10  C   UNL     1     168.984 147.009 148.336  1.00  0.00     0.146 A 
ATOM     11  O   UNL     1     168.976 148.307 148.620  1.00  0.00    -0.456 OA
ENDROOT
BRANCH   1  12
ATOM     12  C   UNL     1     168.186 150.596 148.483  1.00  0.00     0.021 A 
ATOM     13  C   UNL     1     167.136 151.466 148.141  1.00  0.00     0.016 A 
ATOM     14  C   UNL     1     167.185 152.814 148.504  1.00  0.00     0.051 A 
ATOM     15  C   UNL     1     168.278 153.314 149.223  1.00  0.00     0.157 A 
ATOM     16  C   UNL     1     169.276 151.101 149.218  1.00  0.00     0.062 A 
ATOM     17  C   UNL     1     169.326 152.452 149.583  1.00  0.00     0.158 A 
BRANCH  15  18
ATOM     18  O   UNL     1     168.324 154.660 149.582  1.00  0.00    -0.504 OA
ATOM     19  H   UNL     1     169.191 155.185 149.563  1.00  0.00     0.293 HD
ENDBRANCH  15  18
BRANCH  17  20
ATOM     20  O   UNL     1     170.423 152.916 150.309  1.00  0.00    -0.504 OA
ATOM     21  H   UNL     1     171.005 152.296 150.860  1.00  0.00     0.293 HD
ENDBRANCH  17  20
ENDBRANCH   1  12
BRANCH   6  22
ATOM     22  O   UNL     1     167.161 144.498 146.273  1.00  0.00    -0.507 OA
ATOM     23  H   UNL     1     167.350 144.422 145.281  1.00  0.00     0.293 HD
ENDBRANCH   6  22
BRANCH   8  24
ATOM     24  O   UNL     1     170.925 143.991 149.249  1.00  0.00    -0.508 OA
ATOM     25  H   UNL     1     171.883 144.295 149.380  1.00  0.00     0.293 HD
ENDBRANCH   8  24
TORSDOF 5
ENDMDL
MODEL 8
REMARK VINA RESULT:    -6.738      2.546      4.619
REMARK INTER + INTRA:          -8.193
REMARK INTER:                  -7.897
REMARK INTRA:                  -0.296
REMARK UNBOUND:                -0.273
REMARK SMILES O=c1cc(-c2ccc(O)c(O)c2)oc2cc(O)cc(O)c12
REMARK SMILES IDX 4 1 3 2 2 3 1 4 21 5 19 6 18 7 16 8 15 9 14 10 13 11 5 12
REMARK SMILES IDX 6 13 7 14 8 15 12 16 10 17 9 18 11 20 20 22 17 24
REMARK H PARENT 9 19 11 21 20 23 17 25
REMARK Flexibility Score: inf
ROOT
ATOM      1  C   UNL     1     168.430 148.727 148.740  1.00  0.00     0.138 A 
ATOM      2  C   UNL     1     167.041 148.624 148.918  1.00  0.00     0.100 A 
ATOM      3  C   UNL     1     166.479 147.389 149.247  1.00  0.00     0.197 A 
ATOM      4  O   UNL     1     165.231 147.307 149.405  1.00  0.00    -0.289 OA
ATOM      5  C   UNL     1     167.314 146.265 149.401  1.00  0.00     0.107 A 
ATOM      6  C   UNL     1     166.828 144.978 149.732  1.00  0.00     0.134 A 
ATOM      7  C   UNL     1     167.727 143.910 149.872  1.00  0.00     0.093 A 
ATOM      8  C   UNL     1     169.098 144.104 149.689  1.00  0.00     0.123 A 
ATOM      9  C   UNL     1     169.585 145.373 149.362  1.00  0.00     0.094 A 
ATOM     10  C   UNL     1     168.705 146.451 149.217  1.00  0.00     0.146 A 
ATOM     11  O   UNL     1     169.192 147.647 148.903  1.00  0.00    -0.456 OA
ENDROOT
BRANCH   1  12
ATOM     12  C   UNL     1     169.082 150.015 148.392  1.00  0.00     0.021 A 
ATOM     13  C   UNL     1     170.429 150.021 147.990  1.00  0.00     0.016 A 
ATOM     14  C   UNL     1     171.063 151.218 147.649  1.00  0.00     0.051 A 
ATOM     15  C   UNL     1     170.360 152.428 147.693  1.00  0.00     0.157 A 
ATOM     16  C   UNL     1     168.376 151.233 148.421  1.00  0.00     0.062 A 
ATOM     17  C   UNL     1     169.009 152.434 148.079  1.00  0.00     0.158 A 
BRANCH  15  18
ATOM     18  O   UNL     1     170.995 153.621 147.354  1.00  0.00    -0.504 OA
ATOM     19  H   UNL     1     170.570 154.522 147.542  1.00  0.00     0.293 HD
ENDBRANCH  15  18
BRANCH  17  20
ATOM     20  O   UNL     1     168.278 153.621 148.121  1.00  0.00    -0.504 OA
ATOM     21  H   UNL     1     167.766 153.967 147.319  1.00  0.00     0.293 HD
ENDBRANCH  17  20
ENDBRANCH   1  12
BRANCH   6  22
ATOM     22  O   UNL     1     165.464 144.753 149.922  1.00  0.00    -0.507 OA
ATOM     23  H   UNL     1     164.766 145.159 149.311  1.00  0.00     0.293 HD
ENDBRANCH   6  22
BRANCH   8  24
ATOM     24  O   UNL     1     169.969 143.026 149.836  1.00  0.00    -0.508 OA
ATOM     25  H   UNL     1     170.259 142.700 150.751  1.00  0.00     0.293 HD
ENDBRANCH   8  24
TORSDOF 5
ENDMDL
MODEL 9
REMARK VINA RESULT:    -6.637      1.891      7.930
REMARK INTER + INTRA:          -8.075
REMARK INTER:                  -7.759
REMARK INTRA:                  -0.316
REMARK UNBOUND:                -0.273
REMARK SMILES O=c1cc(-c2ccc(O)c(O)c2)oc2cc(O)cc(O)c12
REMARK SMILES IDX 4 1 3 2 2 3 1 4 21 5 19 6 18 7 16 8 15 9 14 10 13 11 5 12
REMARK SMILES IDX 6 13 7 14 8 15 12 16 10 17 9 18 11 20 20 22 17 24
REMARK H PARENT 9 19 11 21 20 23 17 25
REMARK Flexibility Score: inf
ROOT
ATOM      1  C   UNL     1     167.313 148.003 149.025  1.00  0.00     0.138 A 
ATOM      2  C   UNL     1     166.356 149.026 148.925  1.00  0.00     0.100 A 
ATOM      3  C   UNL     1     166.750 150.297 148.505  1.00  0.00     0.197 A 
ATOM      4  O   UNL     1     165.883 151.208 148.417  1.00  0.00    -0.289 OA
ATOM      5  C   UNL     1     168.101 150.535 148.183  1.00  0.00     0.107 A 
ATOM      6  C   UNL     1     168.584 151.793 147.751  1.00  0.00     0.134 A 
ATOM      7  C   UNL     1     169.944 151.947 147.444  1.00  0.00     0.093 A 
ATOM      8  C   UNL     1     170.828 150.871 147.560  1.00  0.00     0.123 A 
ATOM      9  C   UNL     1     170.356 149.625 147.987  1.00  0.00     0.094 A 
ATOM     10  C   UNL     1     169.004 149.451 148.298  1.00  0.00     0.146 A 
ATOM     11  O   UNL     1     168.580 148.259 148.703  1.00  0.00    -0.456 OA
ENDROOT
BRANCH   1  12
ATOM     12  C   UNL     1     166.951 146.631 149.464  1.00  0.00     0.021 A 
ATOM     13  C   UNL     1     165.687 146.399 150.032  1.00  0.00     0.016 A 
ATOM     14  C   UNL     1     165.319 145.116 150.446  1.00  0.00     0.051 A 
ATOM     15  C   UNL     1     166.203 144.042 150.289  1.00  0.00     0.157 A 
ATOM     16  C   UNL     1     167.831 145.544 149.296  1.00  0.00     0.062 A 
ATOM     17  C   UNL     1     167.464 144.258 149.708  1.00  0.00     0.158 A 
BRANCH  15  18
ATOM     18  O   UNL     1     165.834 142.764 150.704  1.00  0.00    -0.504 OA
ATOM     19  H   UNL     1     165.394 142.106 150.070  1.00  0.00     0.293 HD
ENDBRANCH  15  18
BRANCH  17  20
ATOM     20  O   UNL     1     168.362 143.207 149.527  1.00  0.00    -0.504 OA
ATOM     21  H   UNL     1     168.541 142.521 150.251  1.00  0.00     0.293 HD
ENDBRANCH  17  20
ENDBRANCH   1  12
BRANCH   6  22
ATOM     22  O   UNL     1     167.727 152.887 147.624  1.00  0.00    -0.507 OA
ATOM     23  H   UNL     1     167.954 153.677 147.033  1.00  0.00     0.293 HD
ENDBRANCH   6  22
BRANCH   8  24
ATOM     24  O   UNL     1     172.174 151.051 147.248  1.00  0.00    -0.508 OA
ATOM     25  H   UNL     1     172.538 150.833 146.328  1.00  0.00     0.293 HD
ENDBRANCH   8  24
TORSDOF 5
ENDMDL
