MODEL 1
REMARK VINA RESULT:    -6.583      0.000      0.000
REMARK INTER + INTRA:          -8.214
REMARK INTER:                  -7.930
REMARK INTRA:                  -0.284
REMARK UNBOUND:                -0.284
REMARK SMILES O=c1c(O)c(-c2ccc(O)cc2O)oc2cc(O)cc(O)c12
REMARK SMILES IDX 5 1 3 2 2 3 1 4 22 5 20 6 19 7 17 8 16 9 15 10 14 11 6 12
REMARK SMILES IDX 8 13 7 14 9 15 11 16 12 17 10 18 13 20 4 22 21 24 18 26
REMARK H PARENT 10 19 13 21 4 23 21 25 18 27
REMARK Flexibility Score: inf
ROOT
ATOM      1  C   UNL     1      51.613  47.271  12.028  1.00  0.00     0.184 A 
ATOM      2  C   UNL     1      51.989  48.473  12.646  1.00  0.00     0.208 A 
ATOM      3  C   UNL     1      51.008  49.448  12.891  1.00  0.00     0.238 A 
ATOM      4  O   UNL     1      51.339  50.498  13.501  1.00  0.00    -0.285 OA
ATOM      5  C   UNL     1      49.671  49.217  12.486  1.00  0.00     0.111 A 
ATOM      6  C   UNL     1      48.603  50.151  12.647  1.00  0.00     0.134 A 
ATOM      7  C   UNL     1      47.296  49.769  12.321  1.00  0.00     0.093 A 
ATOM      8  C   UNL     1      47.026  48.512  11.780  1.00  0.00     0.123 A 
ATOM      9  C   UNL     1      48.071  47.612  11.564  1.00  0.00     0.094 A 
ATOM     10  C   UNL     1      49.380  47.951  11.914  1.00  0.00     0.146 A 
ATOM     11  O   UNL     1      50.344  47.061  11.705  1.00  0.00    -0.451 OA
ENDROOT
BRANCH   1  12
ATOM     12  C   UNL     1      52.606  46.218  11.725  1.00  0.00     0.063 A 
ATOM     13  C   UNL     1      53.739  44.836  10.072  1.00  0.00     0.047 A 
ATOM     14  C   UNL     1      52.848  45.864  10.386  1.00  0.00     0.020 A 
ATOM     15  C   UNL     1      54.396  44.141  11.090  1.00  0.00     0.119 A 
ATOM     16  C   UNL     1      54.161  44.483  12.429  1.00  0.00     0.093 A 
ATOM     17  C   UNL     1      53.278  45.520  12.754  1.00  0.00     0.130 A 
BRANCH  15  18
ATOM     18  O   UNL     1      55.278  43.114  10.764  1.00  0.00    -0.508 OA
ATOM     19  H   UNL     1      55.408  42.314  11.372  1.00  0.00     0.293 HD
ENDBRANCH  15  18
BRANCH  17  20
ATOM     20  O   UNL     1      53.110  45.843  14.102  1.00  0.00    -0.507 OA
ATOM     21  H   UNL     1      53.368  46.741  14.491  1.00  0.00     0.293 HD
ENDBRANCH  17  20
ENDBRANCH   1  12
BRANCH   2  22
ATOM     22  O   UNL     1      53.317  48.675  13.032  1.00  0.00    -0.502 OA
ATOM     23  H   UNL     1      53.686  49.592  13.245  1.00  0.00     0.293 HD
ENDBRANCH   2  22
BRANCH   6  24
ATOM     24  O   UNL     1      48.774  51.464  13.094  1.00  0.00    -0.507 OA
ATOM     25  H   UNL     1      48.245  51.894  13.836  1.00  0.00     0.293 HD
ENDBRANCH   6  24
BRANCH   8  26
ATOM     26  O   UNL     1      45.716  48.171  11.453  1.00  0.00    -0.508 OA
ATOM     27  H   UNL     1      44.938  48.777  11.685  1.00  0.00     0.293 HD
ENDBRANCH   8  26
TORSDOF 6
ENDMDL
MODEL 2
REMARK VINA RESULT:    -6.319      5.959      9.150
REMARK INTER + INTRA:          -7.895
REMARK INTER:                  -7.634
REMARK INTRA:                  -0.262
REMARK UNBOUND:                -0.284
REMARK SMILES O=c1c(O)c(-c2ccc(O)cc2O)oc2cc(O)cc(O)c12
REMARK SMILES IDX 5 1 3 2 2 3 1 4 22 5 20 6 19 7 17 8 16 9 15 10 14 11 6 12
REMARK SMILES IDX 8 13 7 14 9 15 11 16 12 17 10 18 13 20 4 22 21 24 18 26
REMARK H PARENT 10 19 13 21 4 23 21 25 18 27
REMARK Flexibility Score: inf
ROOT
ATOM      1  C   UNL     1      45.301  45.592   9.866  1.00  0.00     0.184 A 
ATOM      2  C   UNL     1      45.705  44.783  10.939  1.00  0.00     0.208 A 
ATOM      3  C   UNL     1      45.654  43.387  10.795  1.00  0.00     0.238 A 
ATOM      4  O   UNL     1      46.075  42.667  11.737  1.00  0.00    -0.285 OA
ATOM      5  C   UNL     1      45.170  42.822   9.590  1.00  0.00     0.111 A 
ATOM      6  C   UNL     1      45.036  41.421   9.348  1.00  0.00     0.134 A 
ATOM      7  C   UNL     1      44.663  40.972   8.075  1.00  0.00     0.093 A 
ATOM      8  C   UNL     1      44.356  41.872   7.055  1.00  0.00     0.123 A 
ATOM      9  C   UNL     1      44.427  43.244   7.297  1.00  0.00     0.094 A 
ATOM     10  C   UNL     1      44.832  43.722   8.546  1.00  0.00     0.146 A 
ATOM     11  O   UNL     1      44.900  45.036   8.731  1.00  0.00    -0.451 OA
ENDROOT
BRANCH   1  12
ATOM     12  C   UNL     1      45.312  47.067   9.969  1.00  0.00     0.063 A 
ATOM     13  C   UNL     1      46.540  49.114  10.444  1.00  0.00     0.047 A 
ATOM     14  C   UNL     1      46.513  47.727  10.287  1.00  0.00     0.020 A 
ATOM     15  C   UNL     1      45.370  49.862  10.295  1.00  0.00     0.119 A 
ATOM     16  C   UNL     1      44.168  49.216   9.981  1.00  0.00     0.093 A 
ATOM     17  C   UNL     1      44.130  47.827   9.810  1.00  0.00     0.130 A 
BRANCH  15  18
ATOM     18  O   UNL     1      45.412  51.245  10.461  1.00  0.00    -0.508 OA
ATOM     19  H   UNL     1      44.565  51.792  10.558  1.00  0.00     0.293 HD
ENDBRANCH  15  18
BRANCH  17  20
ATOM     20  O   UNL     1      42.912  47.239   9.461  1.00  0.00    -0.507 OA
ATOM     21  H   UNL     1      42.145  47.129  10.111  1.00  0.00     0.293 HD
ENDBRANCH  17  20
ENDBRANCH   1  12
BRANCH   2  22
ATOM     22  O   UNL     1      46.174  45.368  12.118  1.00  0.00    -0.502 OA
ATOM     23  H   UNL     1      46.388  46.355  12.186  1.00  0.00     0.293 HD
ENDBRANCH   2  22
BRANCH   6  24
ATOM     24  O   UNL     1      45.230  40.438  10.323  1.00  0.00    -0.507 OA
ATOM     25  H   UNL     1      44.502  39.856  10.708  1.00  0.00     0.293 HD
ENDBRANCH   6  24
BRANCH   8  26
ATOM     26  O   UNL     1      43.973  41.390   5.806  1.00  0.00    -0.508 OA
ATOM     27  H   UNL     1      43.028  41.067   5.630  1.00  0.00     0.293 HD
ENDBRANCH   8  26
TORSDOF 6
ENDMDL
MODEL 3
REMARK VINA RESULT:    -6.235      9.370     10.705
REMARK INTER + INTRA:          -7.794
REMARK INTER:                  -7.534
REMARK INTRA:                  -0.261
REMARK UNBOUND:                -0.284
REMARK SMILES O=c1c(O)c(-c2ccc(O)cc2O)oc2cc(O)cc(O)c12
REMARK SMILES IDX 5 1 3 2 2 3 1 4 22 5 20 6 19 7 17 8 16 9 15 10 14 11 6 12
REMARK SMILES IDX 8 13 7 14 9 15 11 16 12 17 10 18 13 20 4 22 21 24 18 26
REMARK H PARENT 10 19 13 21 4 23 21 25 18 27
REMARK Flexibility Score: inf
ROOT
ATOM      1  C   UNL     1      45.325  39.000  10.112  1.00  0.00     0.184 A 
ATOM      2  C   UNL     1      45.667  39.850  11.175  1.00  0.00     0.208 A 
ATOM      3  C   UNL     1      45.629  41.240  10.974  1.00  0.00     0.238 A 
ATOM      4  O   UNL     1      45.877  41.998  11.947  1.00  0.00    -0.285 OA
ATOM      5  C   UNL     1      45.277  41.757   9.703  1.00  0.00     0.111 A 
ATOM      6  C   UNL     1      45.245  43.146   9.374  1.00  0.00     0.134 A 
ATOM      7  C   UNL     1      44.763  43.548   8.122  1.00  0.00     0.093 A 
ATOM      8  C   UNL     1      44.376  42.611   7.164  1.00  0.00     0.123 A 
ATOM      9  C   UNL     1      44.459  41.249   7.454  1.00  0.00     0.094 A 
ATOM     10  C   UNL     1      44.900  40.818   8.708  1.00  0.00     0.146 A 
ATOM     11  O   UNL     1      44.951  39.513   8.948  1.00  0.00    -0.451 OA
ENDROOT
BRANCH   1  12
ATOM     12  C   UNL     1      45.370  37.530  10.259  1.00  0.00     0.063 A 
ATOM     13  C   UNL     1      46.646  35.525  10.788  1.00  0.00     0.047 A 
ATOM     14  C   UNL     1      46.558  36.916  10.693  1.00  0.00     0.020 A 
ATOM     15  C   UNL     1      45.553  34.727  10.443  1.00  0.00     0.119 A 
ATOM     16  C   UNL     1      44.365  35.327  10.007  1.00  0.00     0.093 A 
ATOM     17  C   UNL     1      44.261  36.720   9.918  1.00  0.00     0.130 A 
BRANCH  15  18
ATOM     18  O   UNL     1      45.657  33.341  10.537  1.00  0.00    -0.508 OA
ATOM     19  H   UNL     1      46.526  32.860  10.337  1.00  0.00     0.293 HD
ENDBRANCH  15  18
BRANCH  17  20
ATOM     20  O   UNL     1      43.041  37.266   9.512  1.00  0.00    -0.507 OA
ATOM     21  H   UNL     1      42.420  36.806   8.860  1.00  0.00     0.293 HD
ENDBRANCH  17  20
ENDBRANCH   1  12
BRANCH   2  22
ATOM     22  O   UNL     1      46.014  39.312  12.417  1.00  0.00    -0.502 OA
ATOM     23  H   UNL     1      45.481  38.573  12.856  1.00  0.00     0.293 HD
ENDBRANCH   2  22
BRANCH   6  24
ATOM     24  O   UNL     1      45.694  44.160  10.224  1.00  0.00    -0.507 OA
ATOM     25  H   UNL     1      45.530  44.194  11.218  1.00  0.00     0.293 HD
ENDBRANCH   6  24
BRANCH   8  26
ATOM     26  O   UNL     1      43.917  43.047   5.923  1.00  0.00    -0.508 OA
ATOM     27  H   UNL     1      43.106  42.630   5.482  1.00  0.00     0.293 HD
ENDBRANCH   8  26
TORSDOF 6
ENDMDL
MODEL 4
REMARK VINA RESULT:    -6.235      1.518      2.412
REMARK INTER + INTRA:          -7.794
REMARK INTER:                  -7.424
REMARK INTRA:                  -0.370
REMARK UNBOUND:                -0.284
REMARK SMILES O=c1c(O)c(-c2ccc(O)cc2O)oc2cc(O)cc(O)c12
REMARK SMILES IDX 5 1 3 2 2 3 1 4 22 5 20 6 19 7 17 8 16 9 15 10 14 11 6 12
REMARK SMILES IDX 8 13 7 14 9 15 11 16 12 17 10 18 13 20 4 22 21 24 18 26
REMARK H PARENT 10 19 13 21 4 23 21 25 18 27
REMARK Flexibility Score: inf
ROOT
ATOM      1  C   UNL     1      50.167  47.441  12.147  1.00  0.00     0.184 A 
ATOM      2  C   UNL     1      50.203  48.838  12.267  1.00  0.00     0.208 A 
ATOM      3  C   UNL     1      49.022  49.570  12.064  1.00  0.00     0.238 A 
ATOM      4  O   UNL     1      49.047  50.816  12.234  1.00  0.00    -0.285 OA
ATOM      5  C   UNL     1      47.828  48.893  11.715  1.00  0.00     0.111 A 
ATOM      6  C   UNL     1      46.581  49.536  11.446  1.00  0.00     0.134 A 
ATOM      7  C   UNL     1      45.436  48.760  11.231  1.00  0.00     0.093 A 
ATOM      8  C   UNL     1      45.504  47.367  11.208  1.00  0.00     0.123 A 
ATOM      9  C   UNL     1      46.728  46.729  11.411  1.00  0.00     0.094 A 
ATOM     10  C   UNL     1      47.881  47.476  11.666  1.00  0.00     0.146 A 
ATOM     11  O   UNL     1      49.024  46.830  11.868  1.00  0.00    -0.451 OA
ENDROOT
BRANCH   1  12
ATOM     12  C   UNL     1      51.385  46.621  12.326  1.00  0.00     0.063 A 
ATOM     13  C   UNL     1      53.057  45.672  13.819  1.00  0.00     0.047 A 
ATOM     14  C   UNL     1      51.878  46.396  13.623  1.00  0.00     0.020 A 
ATOM     15  C   UNL     1      53.763  45.170  12.724  1.00  0.00     0.119 A 
ATOM     16  C   UNL     1      53.283  45.391  11.427  1.00  0.00     0.093 A 
ATOM     17  C   UNL     1      52.097  46.105  11.218  1.00  0.00     0.130 A 
BRANCH  15  18
ATOM     18  O   UNL     1      54.940  44.456  12.934  1.00  0.00    -0.508 OA
ATOM     19  H   UNL     1      54.927  43.467  13.155  1.00  0.00     0.293 HD
ENDBRANCH  15  18
BRANCH  17  20
ATOM     20  O   UNL     1      51.644  46.263   9.907  1.00  0.00    -0.507 OA
ATOM     21  H   UNL     1      50.879  45.728   9.518  1.00  0.00     0.293 HD
ENDBRANCH  17  20
ENDBRANCH   1  12
BRANCH   2  22
ATOM     22  O   UNL     1      51.397  49.479  12.609  1.00  0.00    -0.502 OA
ATOM     23  H   UNL     1      51.776  49.458  13.547  1.00  0.00     0.293 HD
ENDBRANCH   2  22
BRANCH   6  24
ATOM     24  O   UNL     1      46.420  50.921  11.356  1.00  0.00    -0.507 OA
ATOM     25  H   UNL     1      46.931  51.598  11.901  1.00  0.00     0.293 HD
ENDBRANCH   6  24
BRANCH   8  26
ATOM     26  O   UNL     1      44.347  46.626  10.975  1.00  0.00    -0.508 OA
ATOM     27  H   UNL     1      43.861  46.670  10.086  1.00  0.00     0.293 HD
ENDBRANCH   8  26
TORSDOF 6
ENDMDL
MODEL 5
REMARK VINA RESULT:    -6.233      7.025     10.036
REMARK INTER + INTRA:          -7.793
REMARK INTER:                  -7.402
REMARK INTRA:                  -0.391
REMARK UNBOUND:                -0.284
REMARK SMILES O=c1c(O)c(-c2ccc(O)cc2O)oc2cc(O)cc(O)c12
REMARK SMILES IDX 5 1 3 2 2 3 1 4 22 5 20 6 19 7 17 8 16 9 15 10 14 11 6 12
REMARK SMILES IDX 8 13 7 14 9 15 11 16 12 17 10 18 13 20 4 22 21 24 18 26
REMARK H PARENT 10 19 13 21 4 23 21 25 18 27
REMARK Flexibility Score: inf
ROOT
ATOM      1  C   UNL     1      43.339  44.091   7.745  1.00  0.00     0.184 A 
ATOM      2  C   UNL     1      42.918  45.356   7.307  1.00  0.00     0.208 A 
ATOM      3  C   UNL     1      43.409  46.500   7.958  1.00  0.00     0.238 A 
ATOM      4  O   UNL     1      43.077  47.632   7.522  1.00  0.00    -0.285 OA
ATOM      5  C   UNL     1      44.291  46.359   9.057  1.00  0.00     0.111 A 
ATOM      6  C   UNL     1      44.819  47.446   9.817  1.00  0.00     0.134 A 
ATOM      7  C   UNL     1      45.780  47.196  10.805  1.00  0.00     0.093 A 
ATOM      8  C   UNL     1      46.182  45.895  11.106  1.00  0.00     0.123 A 
ATOM      9  C   UNL     1      45.629  44.820  10.410  1.00  0.00     0.094 A 
ATOM     10  C   UNL     1      44.697  45.041   9.393  1.00  0.00     0.146 A 
ATOM     11  O   UNL     1      44.205  43.991   8.745  1.00  0.00    -0.451 OA
ENDROOT
BRANCH   1  12
ATOM     12  C   UNL     1      42.837  42.852   7.113  1.00  0.00     0.063 A 
ATOM     13  C   UNL     1      41.007  41.288   6.756  1.00  0.00     0.047 A 
ATOM     14  C   UNL     1      41.493  42.481   7.295  1.00  0.00     0.020 A 
ATOM     15  C   UNL     1      41.855  40.445   6.035  1.00  0.00     0.119 A 
ATOM     16  C   UNL     1      43.197  40.803   5.849  1.00  0.00     0.093 A 
ATOM     17  C   UNL     1      43.693  42.002   6.376  1.00  0.00     0.130 A 
BRANCH  15  18
ATOM     18  O   UNL     1      41.357  39.256   5.508  1.00  0.00    -0.508 OA
ATOM     19  H   UNL     1      40.364  39.114   5.367  1.00  0.00     0.293 HD
ENDBRANCH  15  18
BRANCH  17  20
ATOM     20  O   UNL     1      45.029  42.326   6.129  1.00  0.00    -0.507 OA
ATOM     21  H   UNL     1      45.447  43.202   6.417  1.00  0.00     0.293 HD
ENDBRANCH  17  20
ENDBRANCH   1  12
BRANCH   2  22
ATOM     22  O   UNL     1      42.044  45.465   6.223  1.00  0.00    -0.502 OA
ATOM     23  H   UNL     1      41.438  44.707   5.936  1.00  0.00     0.293 HD
ENDBRANCH   2  22
BRANCH   6  24
ATOM     24  O   UNL     1      44.419  48.776   9.661  1.00  0.00    -0.507 OA
ATOM     25  H   UNL     1      43.484  49.119   9.822  1.00  0.00     0.293 HD
ENDBRANCH   6  24
BRANCH   8  26
ATOM     26  O   UNL     1      47.128  45.683  12.106  1.00  0.00    -0.508 OA
ATOM     27  H   UNL     1      48.079  45.410  11.886  1.00  0.00     0.293 HD
ENDBRANCH   8  26
TORSDOF 6
ENDMDL
MODEL 6
REMARK VINA RESULT:    -6.140      6.836      9.618
REMARK INTER + INTRA:          -7.680
REMARK INTER:                  -7.278
REMARK INTRA:                  -0.401
REMARK UNBOUND:                -0.284
REMARK SMILES O=c1c(O)c(-c2ccc(O)cc2O)oc2cc(O)cc(O)c12
REMARK SMILES IDX 5 1 3 2 2 3 1 4 22 5 20 6 19 7 17 8 16 9 15 10 14 11 6 12
REMARK SMILES IDX 8 13 7 14 9 15 11 16 12 17 10 18 13 20 4 22 21 24 18 26
REMARK H PARENT 10 19 13 21 4 23 21 25 18 27
REMARK Flexibility Score: inf
ROOT
ATOM      1  C   UNL     1      44.037  43.258   8.701  1.00  0.00     0.184 A 
ATOM      2  C   UNL     1      44.875  42.711   9.685  1.00  0.00     0.208 A 
ATOM      3  C   UNL     1      45.601  43.576  10.519  1.00  0.00     0.238 A 
ATOM      4  O   UNL     1      46.303  43.082  11.438  1.00  0.00    -0.285 OA
ATOM      5  C   UNL     1      45.501  44.977  10.336  1.00  0.00     0.111 A 
ATOM      6  C   UNL     1      46.221  45.948  11.096  1.00  0.00     0.134 A 
ATOM      7  C   UNL     1      45.951  47.309  10.912  1.00  0.00     0.093 A 
ATOM      8  C   UNL     1      45.035  47.739   9.951  1.00  0.00     0.123 A 
ATOM      9  C   UNL     1      44.368  46.801   9.162  1.00  0.00     0.094 A 
ATOM     10  C   UNL     1      44.590  45.434   9.348  1.00  0.00     0.146 A 
ATOM     11  O   UNL     1      43.924  44.574   8.585  1.00  0.00    -0.451 OA
ENDROOT
BRANCH   1  12
ATOM     12  C   UNL     1      43.267  42.395   7.780  1.00  0.00     0.063 A 
ATOM     13  C   UNL     1      41.249  41.114   7.322  1.00  0.00     0.047 A 
ATOM     14  C   UNL     1      41.977  41.974   8.147  1.00  0.00     0.020 A 
ATOM     15  C   UNL     1      41.800  40.656   6.123  1.00  0.00     0.119 A 
ATOM     16  C   UNL     1      43.086  41.066   5.748  1.00  0.00     0.093 A 
ATOM     17  C   UNL     1      43.821  41.937   6.562  1.00  0.00     0.130 A 
BRANCH  15  18
ATOM     18  O   UNL     1      41.065  39.794   5.313  1.00  0.00    -0.508 OA
ATOM     19  H   UNL     1      40.094  39.580   5.511  1.00  0.00     0.293 HD
ENDBRANCH  15  18
BRANCH  17  20
ATOM     20  O   UNL     1      45.083  42.343   6.121  1.00  0.00    -0.507 OA
ATOM     21  H   UNL     1      45.247  42.736   5.204  1.00  0.00     0.293 HD
ENDBRANCH  17  20
ENDBRANCH   1  12
BRANCH   2  22
ATOM     22  O   UNL     1      44.958  41.324   9.840  1.00  0.00    -0.502 OA
ATOM     23  H   UNL     1      45.296  40.715   9.106  1.00  0.00     0.293 HD
ENDBRANCH   2  22
BRANCH   6  24
ATOM     24  O   UNL     1      47.222  45.631  12.018  1.00  0.00    -0.507 OA
ATOM     25  H   UNL     1      47.656  46.290  12.646  1.00  0.00     0.293 HD
ENDBRANCH   6  24
BRANCH   8  26
ATOM     26  O   UNL     1      44.803  49.102   9.784  1.00  0.00    -0.508 OA
ATOM     27  H   UNL     1      45.407  49.797  10.208  1.00  0.00     0.293 HD
ENDBRANCH   8  26
TORSDOF 6
ENDMDL
MODEL 7
REMARK VINA RESULT:    -6.076      8.509     11.411
REMARK INTER + INTRA:          -7.603
REMARK INTER:                  -7.208
REMARK INTRA:                  -0.395
REMARK UNBOUND:                -0.284
REMARK SMILES O=c1c(O)c(-c2ccc(O)cc2O)oc2cc(O)cc(O)c12
REMARK SMILES IDX 5 1 3 2 2 3 1 4 22 5 20 6 19 7 17 8 16 9 15 10 14 11 6 12
REMARK SMILES IDX 8 13 7 14 9 15 11 16 12 17 10 18 13 20 4 22 21 24 18 26
REMARK H PARENT 10 19 13 21 4 23 21 25 18 27
REMARK Flexibility Score: inf
ROOT
ATOM      1  C   UNL     1      44.132  41.835   8.774  1.00  0.00     0.184 A 
ATOM      2  C   UNL     1      44.886  42.391   9.819  1.00  0.00     0.208 A 
ATOM      3  C   UNL     1      45.559  41.532  10.704  1.00  0.00     0.238 A 
ATOM      4  O   UNL     1      46.282  42.036  11.601  1.00  0.00    -0.285 OA
ATOM      5  C   UNL     1      45.443  40.129  10.547  1.00  0.00     0.111 A 
ATOM      6  C   UNL     1      46.048  39.165  11.408  1.00  0.00     0.134 A 
ATOM      7  C   UNL     1      45.968  37.804  11.086  1.00  0.00     0.093 A 
ATOM      8  C   UNL     1      45.250  37.369   9.972  1.00  0.00     0.123 A 
ATOM      9  C   UNL     1      44.606  38.299   9.155  1.00  0.00     0.094 A 
ATOM     10  C   UNL     1      44.699  39.666   9.430  1.00  0.00     0.146 A 
ATOM     11  O   UNL     1      44.082  40.519   8.620  1.00  0.00    -0.451 OA
ENDROOT
BRANCH   1  12
ATOM     12  C   UNL     1      43.384  42.689   7.827  1.00  0.00     0.063 A 
ATOM     13  C   UNL     1      41.483  44.144   7.386  1.00  0.00     0.047 A 
ATOM     14  C   UNL     1      42.240  43.375   8.272  1.00  0.00     0.020 A 
ATOM     15  C   UNL     1      41.852  44.235   6.042  1.00  0.00     0.119 A 
ATOM     16  C   UNL     1      42.988  43.554   5.586  1.00  0.00     0.093 A 
ATOM     17  C   UNL     1      43.761  42.789   6.467  1.00  0.00     0.130 A 
BRANCH  15  18
ATOM     18  O   UNL     1      41.084  45.001   5.169  1.00  0.00    -0.508 OA
ATOM     19  H   UNL     1      40.688  45.890   5.452  1.00  0.00     0.293 HD
ENDBRANCH  15  18
BRANCH  17  20
ATOM     20  O   UNL     1      44.904  42.162   5.967  1.00  0.00    -0.507 OA
ATOM     21  H   UNL     1      45.435  41.480   6.493  1.00  0.00     0.293 HD
ENDBRANCH  17  20
ENDBRANCH   1  12
BRANCH   2  22
ATOM     22  O   UNL     1      44.979  43.779   9.953  1.00  0.00    -0.502 OA
ATOM     23  H   UNL     1      45.839  44.284   9.782  1.00  0.00     0.293 HD
ENDBRANCH   2  22
BRANCH   6  24
ATOM     24  O   UNL     1      46.711  39.485  12.595  1.00  0.00    -0.507 OA
ATOM     25  H   UNL     1      47.688  39.313  12.774  1.00  0.00     0.293 HD
ENDBRANCH   6  24
BRANCH   8  26
ATOM     26  O   UNL     1      45.178  36.006   9.691  1.00  0.00    -0.508 OA
ATOM     27  H   UNL     1      44.567  35.647   8.967  1.00  0.00     0.293 HD
ENDBRANCH   8  26
TORSDOF 6
ENDMDL
MODEL 8
REMARK VINA RESULT:    -6.055      9.831     12.694
REMARK INTER + INTRA:          -7.578
REMARK INTER:                  -7.209
REMARK INTRA:                  -0.368
REMARK UNBOUND:                -0.284
REMARK SMILES O=c1c(O)c(-c2ccc(O)cc2O)oc2cc(O)cc(O)c12
REMARK SMILES IDX 5 1 3 2 2 3 1 4 22 5 20 6 19 7 17 8 16 9 15 10 14 11 6 12
REMARK SMILES IDX 8 13 7 14 9 15 11 16 12 17 10 18 13 20 4 22 21 24 18 26
REMARK H PARENT 10 19 13 21 4 23 21 25 18 27
REMARK Flexibility Score: inf
ROOT
ATOM      1  C   UNL     1      43.442  40.585   8.003  1.00  0.00     0.184 A 
ATOM      2  C   UNL     1      43.153  39.288   7.554  1.00  0.00     0.208 A 
ATOM      3  C   UNL     1      43.736  38.194   8.214  1.00  0.00     0.238 A 
ATOM      4  O   UNL     1      43.426  37.031   7.847  1.00  0.00    -0.285 OA
ATOM      5  C   UNL     1      44.623  38.417   9.296  1.00  0.00     0.111 A 
ATOM      6  C   UNL     1      45.303  37.386  10.012  1.00  0.00     0.134 A 
ATOM      7  C   UNL     1      46.060  37.714  11.143  1.00  0.00     0.093 A 
ATOM      8  C   UNL     1      46.217  39.041  11.545  1.00  0.00     0.123 A 
ATOM      9  C   UNL     1      45.605  40.062  10.817  1.00  0.00     0.094 A 
ATOM     10  C   UNL     1      44.813  39.762   9.707  1.00  0.00     0.146 A 
ATOM     11  O   UNL     1      44.236  40.763   9.050  1.00  0.00    -0.451 OA
ENDROOT
BRANCH   1  12
ATOM     12  C   UNL     1      42.875  41.775   7.332  1.00  0.00     0.063 A 
ATOM     13  C   UNL     1      40.990  43.278   6.996  1.00  0.00     0.047 A 
ATOM     14  C   UNL     1      41.571  42.191   7.653  1.00  0.00     0.020 A 
ATOM     15  C   UNL     1      41.699  43.960   6.004  1.00  0.00     0.119 A 
ATOM     16  C   UNL     1      42.998  43.552   5.673  1.00  0.00     0.093 A 
ATOM     17  C   UNL     1      43.595  42.471   6.333  1.00  0.00     0.130 A 
BRANCH  15  18
ATOM     18  O   UNL     1      41.105  45.038   5.352  1.00  0.00    -0.508 OA
ATOM     19  H   UNL     1      40.325  44.909   4.718  1.00  0.00     0.293 HD
ENDBRANCH  15  18
BRANCH  17  20
ATOM     20  O   UNL     1      44.905  42.132   5.990  1.00  0.00    -0.507 OA
ATOM     21  H   UNL     1      45.237  42.107   5.035  1.00  0.00     0.293 HD
ENDBRANCH  17  20
ENDBRANCH   1  12
BRANCH   2  22
ATOM     22  O   UNL     1      42.277  39.098   6.482  1.00  0.00    -0.502 OA
ATOM     23  H   UNL     1      41.611  38.337   6.454  1.00  0.00     0.293 HD
ENDBRANCH   2  22
BRANCH   6  24
ATOM     24  O   UNL     1      45.287  36.038   9.643  1.00  0.00    -0.507 OA
ATOM     25  H   UNL     1      45.907  35.333  10.012  1.00  0.00     0.293 HD
ENDBRANCH   6  24
BRANCH   8  26
ATOM     26  O   UNL     1      46.992  39.332  12.665  1.00  0.00    -0.508 OA
ATOM     27  H   UNL     1      46.700  39.058  13.597  1.00  0.00     0.293 HD
ENDBRANCH   8  26
TORSDOF 6
ENDMDL
MODEL 9
REMARK VINA RESULT:    -6.042      1.646      6.414
REMARK INTER + INTRA:          -7.562
REMARK INTER:                  -7.220
REMARK INTRA:                  -0.342
REMARK UNBOUND:                -0.284
REMARK SMILES O=c1c(O)c(-c2ccc(O)cc2O)oc2cc(O)cc(O)c12
REMARK SMILES IDX 5 1 3 2 2 3 1 4 22 5 20 6 19 7 17 8 16 9 15 10 14 11 6 12
REMARK SMILES IDX 8 13 7 14 9 15 11 16 12 17 10 18 13 20 4 22 21 24 18 26
REMARK H PARENT 10 19 13 21 4 23 21 25 18 27
REMARK Flexibility Score: inf
ROOT
ATOM      1  C   UNL     1      48.968  47.957  11.633  1.00  0.00     0.184 A 
ATOM      2  C   UNL     1      49.361  48.774  12.704  1.00  0.00     0.208 A 
ATOM      3  C   UNL     1      50.684  48.699  13.168  1.00  0.00     0.238 A 
ATOM      4  O   UNL     1      51.047  49.477  14.088  1.00  0.00    -0.285 OA
ATOM      5  C   UNL     1      51.588  47.785  12.572  1.00  0.00     0.111 A 
ATOM      6  C   UNL     1      52.940  47.595  12.987  1.00  0.00     0.134 A 
ATOM      7  C   UNL     1      53.779  46.754  12.246  1.00  0.00     0.093 A 
ATOM      8  C   UNL     1      53.297  46.044  11.145  1.00  0.00     0.123 A 
ATOM      9  C   UNL     1      51.961  46.177  10.766  1.00  0.00     0.094 A 
ATOM     10  C   UNL     1      51.110  47.038  11.463  1.00  0.00     0.146 A 
ATOM     11  O   UNL     1      49.849  47.147  11.061  1.00  0.00    -0.451 OA
ENDROOT
BRANCH   1  12
ATOM     12  C   UNL     1      47.583  47.976  11.119  1.00  0.00     0.063 A 
ATOM     13  C   UNL     1      45.776  49.202  10.042  1.00  0.00     0.047 A 
ATOM     14  C   UNL     1      47.098  49.136  10.489  1.00  0.00     0.020 A 
ATOM     15  C   UNL     1      44.918  48.116  10.225  1.00  0.00     0.119 A 
ATOM     16  C   UNL     1      45.389  46.956  10.853  1.00  0.00     0.093 A 
ATOM     17  C   UNL     1      46.714  46.874  11.295  1.00  0.00     0.130 A 
BRANCH  15  18
ATOM     18  O   UNL     1      43.600  48.198   9.780  1.00  0.00    -0.508 OA
ATOM     19  H   UNL     1      43.030  49.016   9.961  1.00  0.00     0.293 HD
ENDBRANCH  15  18
BRANCH  17  20
ATOM     20  O   UNL     1      47.141  45.680  11.881  1.00  0.00    -0.507 OA
ATOM     21  H   UNL     1      47.577  44.933  11.357  1.00  0.00     0.293 HD
ENDBRANCH  17  20
ENDBRANCH   1  12
BRANCH   2  22
ATOM     22  O   UNL     1      48.447  49.663  13.276  1.00  0.00    -0.502 OA
ATOM     23  H   UNL     1      47.512  49.790  12.911  1.00  0.00     0.293 HD
ENDBRANCH   2  22
BRANCH   6  24
ATOM     24  O   UNL     1      53.499  48.185  14.125  1.00  0.00    -0.507 OA
ATOM     25  H   UNL     1      53.166  49.033  14.556  1.00  0.00     0.293 HD
ENDBRANCH   6  24
BRANCH   8  26
ATOM     26  O   UNL     1      54.156  45.203  10.441  1.00  0.00    -0.508 OA
ATOM     27  H   UNL     1      54.945  44.754  10.892  1.00  0.00     0.293 HD
ENDBRANCH   8  26
TORSDOF 6
ENDMDL
