MODEL 1
REMARK VINA RESULT:    -3.933      0.000      0.000
REMARK INTER + INTRA:          -9.676
REMARK INTER:                  -7.152
REMARK INTRA:                  -2.524
REMARK UNBOUND:                -2.524
REMARK SMILES CCCCCCCCCCCCCCCC(=O)[O-]
REMARK SMILES IDX 9 1 10 2 11 3 12 4 13 5 14 6 15 7 16 8 17 9 18 10 8 11 7 12
REMARK SMILES IDX 6 13 5 14 4 15 3 16 2 17 1 18
REMARK H PARENT
REMARK Flexibility Score: inf
ROOT
ATOM      1  C   UNL     1      92.902  98.647  90.615  1.00  0.00     0.000 C 
ENDROOT
BRANCH   1   2
ATOM      2  C   UNL     1      93.696  98.960  89.337  1.00  0.00     0.000 C 
BRANCH   2   3
ATOM      3  C   UNL     1      92.797  99.484  88.204  1.00  0.00     0.000 C 
BRANCH   3   4
ATOM      4  C   UNL     1      92.166 100.848  88.535  1.00  0.00     0.000 C 
BRANCH   4   5
ATOM      5  C   UNL     1      93.215 101.958  88.701  1.00  0.00     0.000 C 
BRANCH   5   6
ATOM      6  C   UNL     1      92.823 103.004  89.763  1.00  0.00     0.006 C 
BRANCH   6   7
ATOM      7  C   UNL     1      94.021 103.743  90.386  1.00  0.00     0.053 C 
BRANCH   7   8
ATOM      8  C   UNL     1      94.550 103.060  91.611  1.00  0.00     0.041 C 
ATOM      9  O   UNL     1      94.085 103.341  92.748  1.00  0.00    -0.550 OA
ATOM     10  O   UNL     1      95.580 102.135  91.502  1.00  0.00    -0.550 OA
ENDBRANCH   7   8
ENDBRANCH   6   7
ENDBRANCH   5   6
ENDBRANCH   4   5
ENDBRANCH   3   4
ENDBRANCH   2   3
ENDBRANCH   1   2
BRANCH   1  11
ATOM     11  C   UNL     1      93.278  99.573  91.785  1.00  0.00     0.000 C 
BRANCH  11  12
ATOM     12  C   UNL     1      92.075  99.857  92.710  1.00  0.00    -0.000 C 
BRANCH  12  13
ATOM     13  C   UNL     1      91.110 100.917  92.152  1.00  0.00    -0.000 C 
BRANCH  13  14
ATOM     14  C   UNL     1      89.702 100.360  91.882  1.00  0.00    -0.000 C 
BRANCH  14  15
ATOM     15  C   UNL     1      89.561  98.887  92.297  1.00  0.00    -0.000 C 
BRANCH  15  16
ATOM     16  C   UNL     1      88.987  98.009  91.171  1.00  0.00    -0.000 C 
BRANCH  16  17
ATOM     17  C   UNL     1      89.342  98.540  89.773  1.00  0.00    -0.003 C 
ATOM     18  C   UNL     1      89.780  97.432  88.816  1.00  0.00     0.004 C 
ENDBRANCH  16  17
ENDBRANCH  15  16
ENDBRANCH  14  15
ENDBRANCH  13  14
ENDBRANCH  12  13
ENDBRANCH  11  12
ENDBRANCH   1  11
TORSDOF 14
ENDMDL
MODEL 2
REMARK VINA RESULT:    -3.856      2.878      6.539
REMARK INTER + INTRA:          -9.537
REMARK INTER:                  -7.207
REMARK INTRA:                  -2.329
REMARK UNBOUND:                -2.524
REMARK SMILES CCCCCCCCCCCCCCCC(=O)[O-]
REMARK SMILES IDX 9 1 10 2 11 3 12 4 13 5 14 6 15 7 16 8 17 9 18 10 8 11 7 12
REMARK SMILES IDX 6 13 5 14 4 15 3 16 2 17 1 18
REMARK H PARENT
REMARK Flexibility Score: inf
ROOT
ATOM      1  C   UNL     1      94.495 103.698  91.501  1.00  0.00     0.000 C 
ENDROOT
BRANCH   1   2
ATOM      2  C   UNL     1      93.996 102.331  91.996  1.00  0.00     0.000 C 
BRANCH   2   3
ATOM      3  C   UNL     1      93.759 101.341  90.841  1.00  0.00     0.000 C 
BRANCH   3   4
ATOM      4  C   UNL     1      93.738  99.878  91.314  1.00  0.00     0.000 C 
BRANCH   4   5
ATOM      5  C   UNL     1      93.714  99.753  92.846  1.00  0.00     0.000 C 
BRANCH   5   6
ATOM      6  C   UNL     1      92.477  99.000  93.369  1.00  0.00     0.006 C 
BRANCH   6   7
ATOM      7  C   UNL     1      91.260  99.064  92.428  1.00  0.00     0.053 C 
BRANCH   7   8
ATOM      8  C   UNL     1      90.308 100.165  92.786  1.00  0.00     0.041 C 
ATOM      9  O   UNL     1      90.521 101.344  92.397  1.00  0.00    -0.550 OA
ATOM     10  O   UNL     1      89.199  99.895  93.579  1.00  0.00    -0.550 OA
ENDBRANCH   7   8
ENDBRANCH   6   7
ENDBRANCH   5   6
ENDBRANCH   4   5
ENDBRANCH   3   4
ENDBRANCH   2   3
ENDBRANCH   1   2
BRANCH   1  11
ATOM     11  C   UNL     1      94.359 103.860  89.977  1.00  0.00     0.000 C 
BRANCH  11  12
ATOM     12  C   UNL     1      95.437 104.798  89.394  1.00  0.00    -0.000 C 
BRANCH  12  13
ATOM     13  C   UNL     1      96.735 104.071  89.001  1.00  0.00    -0.000 C 
BRANCH  13  14
ATOM     14  C   UNL     1      96.513 102.583  88.681  1.00  0.00    -0.000 C 
BRANCH  14  15
ATOM     15  C   UNL     1      97.603 101.682  89.283  1.00  0.00    -0.000 C 
BRANCH  15  16
ATOM     16  C   UNL     1      98.173 102.244  90.597  1.00  0.00    -0.000 C 
BRANCH  16  17
ATOM     17  C   UNL     1      97.632 101.510  91.834  1.00  0.00    -0.003 C 
ATOM     18  C   UNL     1      97.340 100.034  91.564  1.00  0.00     0.004 C 
ENDBRANCH  16  17
ENDBRANCH  15  16
ENDBRANCH  14  15
ENDBRANCH  13  14
ENDBRANCH  12  13
ENDBRANCH  11  12
ENDBRANCH   1  11
TORSDOF 14
ENDMDL
MODEL 3
REMARK VINA RESULT:    -3.842     11.941     14.470
REMARK INTER + INTRA:          -9.511
REMARK INTER:                  -7.188
REMARK INTRA:                  -2.323
REMARK UNBOUND:                -2.524
REMARK SMILES CCCCCCCCCCCCCCCC(=O)[O-]
REMARK SMILES IDX 9 1 10 2 11 3 12 4 13 5 14 6 15 7 16 8 17 9 18 10 8 11 7 12
REMARK SMILES IDX 6 13 5 14 4 15 3 16 2 17 1 18
REMARK H PARENT
REMARK Flexibility Score: inf
ROOT
ATOM      1  C   UNL     1     105.248  98.927  89.268  1.00  0.00     0.000 C 
ENDROOT
BRANCH   1   2
ATOM      2  C   UNL     1     106.060  97.639  89.055  1.00  0.00     0.000 C 
BRANCH   2   3
ATOM      3  C   UNL     1     105.167  96.387  88.997  1.00  0.00     0.000 C 
BRANCH   3   4
ATOM      4  C   UNL     1     105.517  95.363  90.090  1.00  0.00     0.000 C 
BRANCH   4   5
ATOM      5  C   UNL     1     104.458  94.256  90.222  1.00  0.00     0.000 C 
BRANCH   5   6
ATOM      6  C   UNL     1     103.022  94.805  90.311  1.00  0.00     0.006 C 
BRANCH   6   7
ATOM      7  C   UNL     1     102.710  95.531  91.633  1.00  0.00     0.053 C 
BRANCH   7   8
ATOM      8  C   UNL     1     101.768  96.682  91.453  1.00  0.00     0.041 C 
ATOM      9  O   UNL     1     102.116  97.693  90.787  1.00  0.00    -0.550 OA
ATOM     10  O   UNL     1     100.514  96.655  92.051  1.00  0.00    -0.550 OA
ENDBRANCH   7   8
ENDBRANCH   6   7
ENDBRANCH   5   6
ENDBRANCH   4   5
ENDBRANCH   3   4
ENDBRANCH   2   3
ENDBRANCH   1   2
BRANCH   1  11
ATOM     11  C   UNL     1     106.137 100.138  89.601  1.00  0.00     0.000 C 
BRANCH  11  12
ATOM     12  C   UNL     1     107.557  99.995  89.014  1.00  0.00    -0.000 C 
BRANCH  12  13
ATOM     13  C   UNL     1     108.674 100.220  90.048  1.00  0.00    -0.000 C 
BRANCH  13  14
ATOM     14  C   UNL     1     108.284  99.751  91.459  1.00  0.00    -0.000 C 
BRANCH  14  15
ATOM     15  C   UNL     1     108.502  98.243  91.661  1.00  0.00    -0.000 C 
BRANCH  15  16
ATOM     16  C   UNL     1     107.432  97.609  92.566  1.00  0.00    -0.000 C 
BRANCH  16  17
ATOM     17  C   UNL     1     106.406  98.635  93.072  1.00  0.00    -0.003 C 
ATOM     18  C   UNL     1     104.962  98.199  92.820  1.00  0.00     0.004 C 
ENDBRANCH  16  17
ENDBRANCH  15  16
ENDBRANCH  14  15
ENDBRANCH  13  14
ENDBRANCH  12  13
ENDBRANCH  11  12
ENDBRANCH   1  11
TORSDOF 14
ENDMDL
MODEL 4
REMARK VINA RESULT:    -3.833     10.494     12.404
REMARK INTER + INTRA:          -9.494
REMARK INTER:                  -7.253
REMARK INTRA:                  -2.241
REMARK UNBOUND:                -2.524
REMARK SMILES CCCCCCCCCCCCCCCC(=O)[O-]
REMARK SMILES IDX 9 1 10 2 11 3 12 4 13 5 14 6 15 7 16 8 17 9 18 10 8 11 7 12
REMARK SMILES IDX 6 13 5 14 4 15 3 16 2 17 1 18
REMARK H PARENT
REMARK Flexibility Score: inf
ROOT
ATOM      1  C   UNL     1     103.013  94.190  89.438  1.00  0.00     0.000 C 
ENDROOT
BRANCH   1   2
ATOM      2  C   UNL     1     104.019  94.173  90.600  1.00  0.00     0.000 C 
BRANCH   2   3
ATOM      3  C   UNL     1     105.264  95.028  90.309  1.00  0.00     0.000 C 
BRANCH   3   4
ATOM      4  C   UNL     1     105.074  95.952  89.094  1.00  0.00     0.000 C 
BRANCH   4   5
ATOM      5  C   UNL     1     105.839  97.278  89.236  1.00  0.00     0.000 C 
BRANCH   5   6
ATOM      6  C   UNL     1     106.462  97.467  90.632  1.00  0.00     0.006 C 
BRANCH   6   7
ATOM      7  C   UNL     1     105.828  98.606  91.451  1.00  0.00     0.053 C 
BRANCH   7   8
ATOM      8  C   UNL     1     106.154  98.520  92.912  1.00  0.00     0.041 C 
ATOM      9  O   UNL     1     107.298  98.149  93.288  1.00  0.00    -0.550 OA
ATOM     10  O   UNL     1     105.183  98.818  93.860  1.00  0.00    -0.550 OA
ENDBRANCH   7   8
ENDBRANCH   6   7
ENDBRANCH   5   6
ENDBRANCH   4   5
ENDBRANCH   3   4
ENDBRANCH   2   3
ENDBRANCH   1   2
BRANCH   1  11
ATOM     11  C   UNL     1     102.122  92.936  89.409  1.00  0.00     0.000 C 
BRANCH  11  12
ATOM     12  C   UNL     1     100.678  93.260  88.967  1.00  0.00    -0.000 C 
BRANCH  12  13
ATOM     13  C   UNL     1     100.372  94.767  88.931  1.00  0.00    -0.000 C 
BRANCH  13  14
ATOM     14  C   UNL     1      99.493  95.226  90.105  1.00  0.00    -0.000 C 
BRANCH  14  15
ATOM     15  C   UNL     1      99.950  96.571  90.693  1.00  0.00    -0.000 C 
BRANCH  15  16
ATOM     16  C   UNL     1     101.100  96.411  91.704  1.00  0.00    -0.000 C 
BRANCH  16  17
ATOM     17  C   UNL     1     102.252  97.394  91.445  1.00  0.00    -0.003 C 
ATOM     18  C   UNL     1     102.198  98.010  90.046  1.00  0.00     0.004 C 
ENDBRANCH  16  17
ENDBRANCH  15  16
ENDBRANCH  14  15
ENDBRANCH  13  14
ENDBRANCH  12  13
ENDBRANCH  11  12
ENDBRANCH   1  11
TORSDOF 14
ENDMDL
MODEL 5
REMARK VINA RESULT:    -3.819      1.502      3.098
REMARK INTER + INTRA:          -9.469
REMARK INTER:                  -7.145
REMARK INTRA:                  -2.325
REMARK UNBOUND:                -2.524
REMARK SMILES CCCCCCCCCCCCCCCC(=O)[O-]
REMARK SMILES IDX 9 1 10 2 11 3 12 4 13 5 14 6 15 7 16 8 17 9 18 10 8 11 7 12
REMARK SMILES IDX 6 13 5 14 4 15 3 16 2 17 1 18
REMARK H PARENT
REMARK Flexibility Score: inf
ROOT
ATOM      1  C   UNL     1      93.479  99.247  89.650  1.00  0.00     0.000 C 
ENDROOT
BRANCH   1   2
ATOM      2  C   UNL     1      92.643 100.350  88.983  1.00  0.00     0.000 C 
BRANCH   2   3
ATOM      3  C   UNL     1      92.254 101.466  89.968  1.00  0.00     0.000 C 
BRANCH   3   4
ATOM      4  C   UNL     1      93.091 102.742  89.775  1.00  0.00     0.000 C 
BRANCH   4   5
ATOM      5  C   UNL     1      93.642 103.291  91.100  1.00  0.00     0.000 C 
BRANCH   5   6
ATOM      6  C   UNL     1      94.613 102.320  91.797  1.00  0.00     0.006 C 
BRANCH   6   7
ATOM      7  C   UNL     1      95.943 102.119  91.048  1.00  0.00     0.053 C 
BRANCH   7   8
ATOM      8  C   UNL     1      96.840 101.121  91.716  1.00  0.00     0.041 C 
ATOM      9  O   UNL     1      96.429  99.955  91.955  1.00  0.00    -0.550 OA
ATOM     10  O   UNL     1      98.122 101.488  92.104  1.00  0.00    -0.550 OA
ENDBRANCH   7   8
ENDBRANCH   6   7
ENDBRANCH   5   6
ENDBRANCH   4   5
ENDBRANCH   3   4
ENDBRANCH   2   3
ENDBRANCH   1   2
BRANCH   1  11
ATOM     11  C   UNL     1      92.701  97.928  89.807  1.00  0.00     0.000 C 
BRANCH  11  12
ATOM     12  C   UNL     1      91.434  97.894  88.924  1.00  0.00    -0.000 C 
BRANCH  12  13
ATOM     13  C   UNL     1      90.137  97.684  89.723  1.00  0.00    -0.000 C 
BRANCH  13  14
ATOM     14  C   UNL     1      89.326  98.979  89.899  1.00  0.00    -0.000 C 
BRANCH  14  15
ATOM     15  C   UNL     1      89.099  99.336  91.376  1.00  0.00    -0.000 C 
BRANCH  15  16
ATOM     16  C   UNL     1      90.177  98.741  92.299  1.00  0.00    -0.000 C 
BRANCH  16  17
ATOM     17  C   UNL     1      91.053  99.821  92.953  1.00  0.00    -0.003 C 
ATOM     18  C   UNL     1      92.473  99.333  93.242  1.00  0.00     0.004 C 
ENDBRANCH  16  17
ENDBRANCH  15  16
ENDBRANCH  14  15
ENDBRANCH  13  14
ENDBRANCH  12  13
ENDBRANCH  11  12
ENDBRANCH   1  11
TORSDOF 14
ENDMDL
MODEL 6
REMARK VINA RESULT:    -3.802      3.055      6.092
REMARK INTER + INTRA:          -9.438
REMARK INTER:                  -6.944
REMARK INTRA:                  -2.494
REMARK UNBOUND:                -2.524
REMARK SMILES CCCCCCCCCCCCCCCC(=O)[O-]
REMARK SMILES IDX 9 1 10 2 11 3 12 4 13 5 14 6 15 7 16 8 17 9 18 10 8 11 7 12
REMARK SMILES IDX 6 13 5 14 4 15 3 16 2 17 1 18
REMARK H PARENT
REMARK Flexibility Score: inf
ROOT
ATOM      1  C   UNL     1      97.305 101.565  91.875  1.00  0.00     0.000 C 
ENDROOT
BRANCH   1   2
ATOM      2  C   UNL     1      96.768 100.139  91.677  1.00  0.00     0.000 C 
BRANCH   2   3
ATOM      3  C   UNL     1      95.238 100.065  91.825  1.00  0.00     0.000 C 
BRANCH   3   4
ATOM      4  C   UNL     1      94.533  99.706  90.505  1.00  0.00     0.000 C 
BRANCH   4   5
ATOM      5  C   UNL     1      93.002  99.787  90.613  1.00  0.00     0.000 C 
BRANCH   5   6
ATOM      6  C   UNL     1      92.510  99.979  92.060  1.00  0.00     0.006 C 
BRANCH   6   7
ATOM      7  C   UNL     1      91.206 100.789  92.176  1.00  0.00     0.053 C 
BRANCH   7   8
ATOM      8  C   UNL     1      90.011  99.928  92.451  1.00  0.00     0.041 C 
ATOM      9  O   UNL     1      89.354 100.070  93.517  1.00  0.00    -0.550 OA
ATOM     10  O   UNL     1      89.639  98.944  91.543  1.00  0.00    -0.550 OA
ENDBRANCH   7   8
ENDBRANCH   6   7
ENDBRANCH   5   6
ENDBRANCH   4   5
ENDBRANCH   3   4
ENDBRANCH   2   3
ENDBRANCH   1   2
BRANCH   1  11
ATOM     11  C   UNL     1      98.219 102.017  90.722  1.00  0.00     0.000 C 
BRANCH  11  12
ATOM     12  C   UNL     1      97.777 101.428  89.365  1.00  0.00    -0.000 C 
BRANCH  12  13
ATOM     13  C   UNL     1      96.789 102.325  88.600  1.00  0.00    -0.000 C 
BRANCH  13  14
ATOM     14  C   UNL     1      96.890 103.805  89.004  1.00  0.00    -0.000 C 
BRANCH  14  15
ATOM     15  C   UNL     1      95.551 104.374  89.499  1.00  0.00    -0.000 C 
BRANCH  15  16
ATOM     16  C   UNL     1      94.426 103.325  89.491  1.00  0.00    -0.000 C 
BRANCH  16  17
ATOM     17  C   UNL     1      93.469 103.479  90.684  1.00  0.00    -0.003 C 
ATOM     18  C   UNL     1      94.193 103.441  92.029  1.00  0.00     0.004 C 
ENDBRANCH  16  17
ENDBRANCH  15  16
ENDBRANCH  14  15
ENDBRANCH  13  14
ENDBRANCH  12  13
ENDBRANCH  11  12
ENDBRANCH   1  11
TORSDOF 14
ENDMDL
MODEL 7
REMARK VINA RESULT:    -3.775     11.304     13.374
REMARK INTER + INTRA:          -9.388
REMARK INTER:                  -7.319
REMARK INTRA:                  -2.069
REMARK UNBOUND:                -2.524
REMARK SMILES CCCCCCCCCCCCCCCC(=O)[O-]
REMARK SMILES IDX 9 1 10 2 11 3 12 4 13 5 14 6 15 7 16 8 17 9 18 10 8 11 7 12
REMARK SMILES IDX 6 13 5 14 4 15 3 16 2 17 1 18
REMARK H PARENT
REMARK Flexibility Score: inf
ROOT
ATOM      1  C   UNL     1     101.187  96.766  91.591  1.00  0.00     0.000 C 
ENDROOT
BRANCH   1   2
ATOM      2  C   UNL     1     102.272  97.739  91.104  1.00  0.00     0.000 C 
BRANCH   2   3
ATOM      3  C   UNL     1     103.419  97.891  92.119  1.00  0.00     0.000 C 
BRANCH   3   4
ATOM      4  C   UNL     1     104.638  98.619  91.526  1.00  0.00     0.000 C 
BRANCH   4   5
ATOM      5  C   UNL     1     105.684  98.980  92.593  1.00  0.00     0.000 C 
BRANCH   5   6
ATOM      6  C   UNL     1     106.819  97.944  92.698  1.00  0.00     0.006 C 
BRANCH   6   7
ATOM      7  C   UNL     1     107.937  98.132  91.656  1.00  0.00     0.053 C 
BRANCH   7   8
ATOM      8  C   UNL     1     108.355  99.563  91.506  1.00  0.00     0.041 C 
ATOM      9  O   UNL     1     108.997 100.139  92.424  1.00  0.00    -0.550 OA
ATOM     10  O   UNL     1     108.008 100.273  90.364  1.00  0.00    -0.550 OA
ENDBRANCH   7   8
ENDBRANCH   6   7
ENDBRANCH   5   6
ENDBRANCH   4   5
ENDBRANCH   3   4
ENDBRANCH   2   3
ENDBRANCH   1   2
BRANCH   1  11
ATOM     11  C   UNL     1     100.504  96.015  90.434  1.00  0.00     0.000 C 
BRANCH  11  12
ATOM     12  C   UNL     1     101.384  95.981  89.165  1.00  0.00    -0.000 C 
BRANCH  12  13
ATOM     13  C   UNL     1     101.591  94.564  88.602  1.00  0.00    -0.000 C 
BRANCH  13  14
ATOM     14  C   UNL     1     102.049  93.558  89.671  1.00  0.00    -0.000 C 
BRANCH  14  15
ATOM     15  C   UNL     1     103.579  93.475  89.786  1.00  0.00    -0.000 C 
BRANCH  15  16
ATOM     16  C   UNL     1     104.158  94.550  90.724  1.00  0.00    -0.000 C 
BRANCH  16  17
ATOM     17  C   UNL     1     105.489  95.122  90.212  1.00  0.00    -0.003 C 
ATOM     18  C   UNL     1     105.297  96.169  89.114  1.00  0.00     0.004 C 
ENDBRANCH  16  17
ENDBRANCH  15  16
ENDBRANCH  14  15
ENDBRANCH  13  14
ENDBRANCH  12  13
ENDBRANCH  11  12
ENDBRANCH   1  11
TORSDOF 14
ENDMDL
MODEL 8
REMARK VINA RESULT:    -3.745      2.753      6.116
REMARK INTER + INTRA:          -9.335
REMARK INTER:                  -7.128
REMARK INTRA:                  -2.207
REMARK UNBOUND:                -2.524
REMARK SMILES CCCCCCCCCCCCCCCC(=O)[O-]
REMARK SMILES IDX 9 1 10 2 11 3 12 4 13 5 14 6 15 7 16 8 17 9 18 10 8 11 7 12
REMARK SMILES IDX 6 13 5 14 4 15 3 16 2 17 1 18
REMARK H PARENT
REMARK Flexibility Score: inf
ROOT
ATOM      1  C   UNL     1      94.953 103.736  89.408  1.00  0.00     0.000 C 
ENDROOT
BRANCH   1   2
ATOM      2  C   UNL     1      93.722 103.917  90.311  1.00  0.00     0.000 C 
BRANCH   2   3
ATOM      3  C   UNL     1      92.676 102.808  90.102  1.00  0.00     0.000 C 
BRANCH   3   4
ATOM      4  C   UNL     1      93.071 101.826  88.985  1.00  0.00     0.000 C 
BRANCH   4   5
ATOM      5  C   UNL     1      92.229 100.541  89.004  1.00  0.00     0.000 C 
BRANCH   5   6
ATOM      6  C   UNL     1      91.584 100.264  90.376  1.00  0.00     0.006 C 
BRANCH   6   7
ATOM      7  C   UNL     1      92.377  99.277  91.253  1.00  0.00     0.053 C 
BRANCH   7   8
ATOM      8  C   UNL     1      92.198  99.533  92.719  1.00  0.00     0.041 C 
ATOM      9  O   UNL     1      91.068  99.845  93.179  1.00  0.00    -0.550 OA
ATOM     10  O   UNL     1      93.290  99.459  93.576  1.00  0.00    -0.550 OA
ENDBRANCH   7   8
ENDBRANCH   6   7
ENDBRANCH   5   6
ENDBRANCH   4   5
ENDBRANCH   3   4
ENDBRANCH   2   3
ENDBRANCH   1   2
BRANCH   1  11
ATOM     11  C   UNL     1      95.856 104.982  89.386  1.00  0.00     0.000 C 
BRANCH  11  12
ATOM     12  C   UNL     1      97.312 104.636  89.004  1.00  0.00    -0.000 C 
BRANCH  12  13
ATOM     13  C   UNL     1      97.608 103.127  89.021  1.00  0.00    -0.000 C 
BRANCH  13  14
ATOM     14  C   UNL     1      98.597 102.724  90.127  1.00  0.00    -0.000 C 
BRANCH  14  15
ATOM     15  C   UNL     1      98.164 101.450  90.870  1.00  0.00    -0.000 C 
BRANCH  15  16
ATOM     16  C   UNL     1      96.955 101.688  91.791  1.00  0.00    -0.000 C 
BRANCH  16  17
ATOM     17  C   UNL     1      95.779 100.752  91.473  1.00  0.00    -0.003 C 
ATOM     18  C   UNL     1      95.971  99.990  90.161  1.00  0.00     0.004 C 
ENDBRANCH  16  17
ENDBRANCH  15  16
ENDBRANCH  14  15
ENDBRANCH  13  14
ENDBRANCH  12  13
ENDBRANCH  11  12
ENDBRANCH   1  11
TORSDOF 14
ENDMDL
MODEL 9
REMARK VINA RESULT:    -3.690     10.471     12.299
REMARK INTER + INTRA:          -9.234
REMARK INTER:                  -7.230
REMARK INTRA:                  -2.004
REMARK UNBOUND:                -2.524
REMARK SMILES CCCCCCCCCCCCCCCC(=O)[O-]
REMARK SMILES IDX 9 1 10 2 11 3 12 4 13 5 14 6 15 7 16 8 17 9 18 10 8 11 7 12
REMARK SMILES IDX 6 13 5 14 4 15 3 16 2 17 1 18
REMARK H PARENT
REMARK Flexibility Score: inf
ROOT
ATOM      1  C   UNL     1     104.614  94.671  90.208  1.00  0.00     0.000 C 
ENDROOT
BRANCH   1   2
ATOM      2  C   UNL     1     104.616  95.813  89.179  1.00  0.00     0.000 C 
BRANCH   2   3
ATOM      3  C   UNL     1     103.387  96.728  89.318  1.00  0.00     0.000 C 
BRANCH   3   4
ATOM      4  C   UNL     1     103.682  97.990  90.147  1.00  0.00     0.000 C 
BRANCH   4   5
ATOM      5  C   UNL     1     103.293  97.828  91.625  1.00  0.00     0.000 C 
BRANCH   5   6
ATOM      6  C   UNL     1     104.510  97.662  92.554  1.00  0.00     0.006 C 
BRANCH   6   7
ATOM      7  C   UNL     1     105.649  98.661  92.279  1.00  0.00     0.053 C 
BRANCH   7   8
ATOM      8  C   UNL     1     106.938  97.985  91.920  1.00  0.00     0.041 C 
ATOM      9  O   UNL     1     107.487  98.210  90.808  1.00  0.00    -0.550 OA
ATOM     10  O   UNL     1     107.519  97.081  92.801  1.00  0.00    -0.550 OA
ENDBRANCH   7   8
ENDBRANCH   6   7
ENDBRANCH   5   6
ENDBRANCH   4   5
ENDBRANCH   3   4
ENDBRANCH   2   3
ENDBRANCH   1   2
BRANCH   1  11
ATOM     11  C   UNL     1     103.210  94.083  90.434  1.00  0.00     0.000 C 
BRANCH  11  12
ATOM     12  C   UNL     1     103.022  92.735  89.705  1.00  0.00    -0.000 C 
BRANCH  12  13
ATOM     13  C   UNL     1     101.648  92.592  89.027  1.00  0.00    -0.000 C 
BRANCH  13  14
ATOM     14  C   UNL     1     100.937  93.941  88.828  1.00  0.00    -0.000 C 
BRANCH  14  15
ATOM     15  C   UNL     1      99.415  93.839  89.019  1.00  0.00    -0.000 C 
BRANCH  15  16
ATOM     16  C   UNL     1      98.893  94.790  90.110  1.00  0.00    -0.000 C 
BRANCH  16  17
ATOM     17  C   UNL     1      99.862  95.950  90.393  1.00  0.00    -0.003 C 
ATOM     18  C   UNL     1      99.976  96.273  91.882  1.00  0.00     0.004 C 
ENDBRANCH  16  17
ENDBRANCH  15  16
ENDBRANCH  14  15
ENDBRANCH  13  14
ENDBRANCH  12  13
ENDBRANCH  11  12
ENDBRANCH   1  11
TORSDOF 14
ENDMDL
