MODEL 1
REMARK VINA RESULT:    -4.008      0.000      0.000
REMARK INTER + INTRA:          -8.721
REMARK INTER:                  -6.821
REMARK INTRA:                  -1.900
REMARK UNBOUND:                -1.900
REMARK SMILES CCCCCCCCCCCCCC(=O)[O-]
REMARK SMILES IDX 8 1 9 2 10 3 11 4 12 5 13 6 14 7 15 8 16 9 7 10 6 11 5 12
REMARK SMILES IDX 4 13 3 14 2 15 1 16
REMARK H PARENT
REMARK Flexibility Score: inf
ROOT
ATOM      1  C   UNL     1      34.300   8.253  30.697  1.00  0.00     0.000 C 
ENDROOT
BRANCH   1   2
ATOM      2  C   UNL     1      33.554   9.158  29.705  1.00  0.00     0.000 C 
BRANCH   2   3
ATOM      3  C   UNL     1      33.033   8.389  28.479  1.00  0.00     0.000 C 
BRANCH   3   4
ATOM      4  C   UNL     1      31.597   8.786  28.098  1.00  0.00     0.000 C 
BRANCH   4   5
ATOM      5  C   UNL     1      31.125  10.059  28.821  1.00  0.00     0.006 C 
BRANCH   5   6
ATOM      6  C   UNL     1      29.613  10.050  29.080  1.00  0.00     0.053 C 
BRANCH   6   7
ATOM      7  C   UNL     1      28.909  11.117  28.300  1.00  0.00     0.041 C 
ATOM      8  O   UNL     1      28.415  12.113  28.890  1.00  0.00    -0.550 OA
ATOM      9  O   UNL     1      28.775  10.997  26.922  1.00  0.00    -0.550 OA
ENDBRANCH   6   7
ENDBRANCH   5   6
ENDBRANCH   4   5
ENDBRANCH   3   4
ENDBRANCH   2   3
ENDBRANCH   1   2
BRANCH   1  10
ATOM     10  C   UNL     1      33.418   7.813  31.876  1.00  0.00     0.000 C 
BRANCH  10  11
ATOM     11  C   UNL     1      32.260   8.795  32.091  1.00  0.00    -0.000 C 
BRANCH  11  12
ATOM     12  C   UNL     1      30.911   8.067  32.078  1.00  0.00    -0.000 C 
BRANCH  12  13
ATOM     13  C   UNL     1      30.983   6.785  31.239  1.00  0.00    -0.000 C 
BRANCH  13  14
ATOM     14  C   UNL     1      29.720   6.616  30.383  1.00  0.00    -0.000 C 
BRANCH  14  15
ATOM     15  C   UNL     1      29.826   5.440  29.400  1.00  0.00    -0.003 C 
ATOM     16  C   UNL     1      28.941   4.258  29.792  1.00  0.00     0.004 C 
ENDBRANCH  14  15
ENDBRANCH  13  14
ENDBRANCH  12  13
ENDBRANCH  11  12
ENDBRANCH  10  11
ENDBRANCH   1  10
TORSDOF 12
ENDMDL
MODEL 2
REMARK VINA RESULT:    -3.850      1.210      3.559
REMARK INTER + INTRA:          -8.451
REMARK INTER:                  -6.653
REMARK INTRA:                  -1.798
REMARK UNBOUND:                -1.900
REMARK SMILES CCCCCCCCCCCCCC(=O)[O-]
REMARK SMILES IDX 8 1 9 2 10 3 11 4 12 5 13 6 14 7 15 8 16 9 7 10 6 11 5 12
REMARK SMILES IDX 4 13 3 14 2 15 1 16
REMARK H PARENT
REMARK Flexibility Score: inf
ROOT
ATOM      1  C   UNL     1      30.336   6.649  30.363  1.00  0.00     0.000 C 
ENDROOT
BRANCH   1   2
ATOM      2  C   UNL     1      30.245   7.520  29.100  1.00  0.00     0.000 C 
BRANCH   2   3
ATOM      3  C   UNL     1      31.618   8.043  28.642  1.00  0.00     0.000 C 
BRANCH   3   4
ATOM      4  C   UNL     1      31.575   9.519  28.213  1.00  0.00     0.000 C 
BRANCH   4   5
ATOM      5  C   UNL     1      30.960  10.429  29.289  1.00  0.00     0.006 C 
BRANCH   5   6
ATOM      6  C   UNL     1      30.242  11.641  28.681  1.00  0.00     0.053 C 
BRANCH   6   7
ATOM      7  C   UNL     1      28.911  11.267  28.107  1.00  0.00     0.041 C 
ATOM      8  O   UNL     1      28.778  11.105  26.865  1.00  0.00    -0.550 OA
ATOM      9  O   UNL     1      27.809  11.124  28.941  1.00  0.00    -0.550 OA
ENDBRANCH   6   7
ENDBRANCH   5   6
ENDBRANCH   4   5
ENDBRANCH   3   4
ENDBRANCH   2   3
ENDBRANCH   1   2
BRANCH   1  10
ATOM     10  C   UNL     1      31.484   7.074  31.292  1.00  0.00     0.000 C 
BRANCH  10  11
ATOM     11  C   UNL     1      31.029   8.169  32.263  1.00  0.00    -0.000 C 
BRANCH  11  12
ATOM     12  C   UNL     1      32.152   9.182  32.516  1.00  0.00    -0.000 C 
BRANCH  12  13
ATOM     13  C   UNL     1      33.479   8.695  31.920  1.00  0.00    -0.000 C 
BRANCH  13  14
ATOM     14  C   UNL     1      34.067   9.739  30.959  1.00  0.00    -0.000 C 
BRANCH  14  15
ATOM     15  C   UNL     1      35.342   9.245  30.260  1.00  0.00    -0.003 C 
ATOM     16  C   UNL     1      35.716   7.816  30.650  1.00  0.00     0.004 C 
ENDBRANCH  14  15
ENDBRANCH  13  14
ENDBRANCH  12  13
ENDBRANCH  11  12
ENDBRANCH  10  11
ENDBRANCH   1  10
TORSDOF 12
ENDMDL
MODEL 3
REMARK VINA RESULT:    -3.786      1.589      2.936
REMARK INTER + INTRA:          -8.341
REMARK INTER:                  -6.167
REMARK INTRA:                  -2.175
REMARK UNBOUND:                -1.900
REMARK SMILES CCCCCCCCCCCCCC(=O)[O-]
REMARK SMILES IDX 8 1 9 2 10 3 11 4 12 5 13 6 14 7 15 8 16 9 7 10 6 11 5 12
REMARK SMILES IDX 4 13 3 14 2 15 1 16
REMARK H PARENT
REMARK Flexibility Score: inf
ROOT
ATOM      1  C   UNL     1      33.579   9.163  31.710  1.00  0.00     0.000 C 
ENDROOT
BRANCH   1   2
ATOM      2  C   UNL     1      32.552  10.302  31.808  1.00  0.00     0.000 C 
BRANCH   2   3
ATOM      3  C   UNL     1      31.558  10.105  32.966  1.00  0.00     0.000 C 
BRANCH   3   4
ATOM      4  C   UNL     1      30.120  10.490  32.584  1.00  0.00     0.000 C 
BRANCH   4   5
ATOM      5  C   UNL     1      30.069  11.594  31.514  1.00  0.00     0.006 C 
BRANCH   5   6
ATOM      6  C   UNL     1      28.955  11.353  30.487  1.00  0.00     0.053 C 
BRANCH   6   7
ATOM      7  C   UNL     1      29.400  11.687  29.096  1.00  0.00     0.041 C 
ATOM      8  O   UNL     1      30.570  12.102  28.886  1.00  0.00    -0.550 OA
ATOM      9  O   UNL     1      28.512  11.566  28.034  1.00  0.00    -0.550 OA
ENDBRANCH   6   7
ENDBRANCH   5   6
ENDBRANCH   4   5
ENDBRANCH   3   4
ENDBRANCH   2   3
ENDBRANCH   1   2
BRANCH   1  10
ATOM     10  C   UNL     1      33.788   8.679  30.267  1.00  0.00     0.000 C 
BRANCH  10  11
ATOM     11  C   UNL     1      32.731   9.273  29.329  1.00  0.00    -0.000 C 
BRANCH  11  12
ATOM     12  C   UNL     1      32.186   8.209  28.369  1.00  0.00    -0.000 C 
BRANCH  12  13
ATOM     13  C   UNL     1      30.654   8.149  28.423  1.00  0.00    -0.000 C 
BRANCH  13  14
ATOM     14  C   UNL     1      30.161   7.966  29.866  1.00  0.00    -0.000 C 
BRANCH  14  15
ATOM     15  C   UNL     1      30.477   6.571  30.425  1.00  0.00    -0.003 C 
ATOM     16  C   UNL     1      31.020   6.614  31.853  1.00  0.00     0.004 C 
ENDBRANCH  14  15
ENDBRANCH  13  14
ENDBRANCH  12  13
ENDBRANCH  11  12
ENDBRANCH  10  11
ENDBRANCH   1  10
TORSDOF 12
ENDMDL
MODEL 4
REMARK VINA RESULT:    -3.772      1.425      2.545
REMARK INTER + INTRA:          -8.318
REMARK INTER:                  -6.182
REMARK INTRA:                  -2.137
REMARK UNBOUND:                -1.900
REMARK SMILES CCCCCCCCCCCCCC(=O)[O-]
REMARK SMILES IDX 8 1 9 2 10 3 11 4 12 5 13 6 14 7 15 8 16 9 7 10 6 11 5 12
REMARK SMILES IDX 4 13 3 14 2 15 1 16
REMARK H PARENT
REMARK Flexibility Score: inf
ROOT
ATOM      1  C   UNL     1      33.237   8.066  31.444  1.00  0.00     0.000 C 
ENDROOT
BRANCH   1   2
ATOM      2  C   UNL     1      33.709   9.494  31.133  1.00  0.00     0.000 C 
BRANCH   2   3
ATOM      3  C   UNL     1      32.740  10.567  31.661  1.00  0.00     0.000 C 
BRANCH   3   4
ATOM      4  C   UNL     1      31.571  10.831  30.700  1.00  0.00     0.000 C 
BRANCH   4   5
ATOM      5  C   UNL     1      30.221  10.946  31.429  1.00  0.00     0.006 C 
BRANCH   5   6
ATOM      6  C   UNL     1      29.033  10.704  30.489  1.00  0.00     0.053 C 
BRANCH   6   7
ATOM      7  C   UNL     1      28.775  11.884  29.604  1.00  0.00     0.041 C 
ATOM      8  O   UNL     1      28.704  13.042  30.093  1.00  0.00    -0.550 OA
ATOM      9  O   UNL     1      28.588  11.701  28.239  1.00  0.00    -0.550 OA
ENDBRANCH   6   7
ENDBRANCH   5   6
ENDBRANCH   4   5
ENDBRANCH   3   4
ENDBRANCH   2   3
ENDBRANCH   1   2
BRANCH   1  10
ATOM     10  C   UNL     1      32.460   7.975  32.767  1.00  0.00     0.000 C 
BRANCH  10  11
ATOM     11  C   UNL     1      31.056   7.403  32.542  1.00  0.00    -0.000 C 
BRANCH  11  12
ATOM     12  C   UNL     1      30.976   6.650  31.208  1.00  0.00    -0.000 C 
BRANCH  12  13
ATOM     13  C   UNL     1      29.879   7.235  30.310  1.00  0.00    -0.000 C 
BRANCH  13  14
ATOM     14  C   UNL     1      30.241   7.078  28.825  1.00  0.00    -0.000 C 
BRANCH  14  15
ATOM     15  C   UNL     1      30.727   8.392  28.195  1.00  0.00    -0.003 C 
ATOM     16  C   UNL     1      32.230   8.397  27.921  1.00  0.00     0.004 C 
ENDBRANCH  14  15
ENDBRANCH  13  14
ENDBRANCH  12  13
ENDBRANCH  11  12
ENDBRANCH  10  11
ENDBRANCH   1  10
TORSDOF 12
ENDMDL
MODEL 5
REMARK VINA RESULT:    -3.755      1.276      3.773
REMARK INTER + INTRA:          -8.290
REMARK INTER:                  -6.613
REMARK INTRA:                  -1.676
REMARK UNBOUND:                -1.900
REMARK SMILES CCCCCCCCCCCCCC(=O)[O-]
REMARK SMILES IDX 8 1 9 2 10 3 11 4 12 5 13 6 14 7 15 8 16 9 7 10 6 11 5 12
REMARK SMILES IDX 4 13 3 14 2 15 1 16
REMARK H PARENT
REMARK Flexibility Score: inf
ROOT
ATOM      1  C   UNL     1      31.010   8.111  31.601  1.00  0.00     0.000 C 
ENDROOT
BRANCH   1   2
ATOM      2  C   UNL     1      30.747   6.955  30.623  1.00  0.00     0.000 C 
BRANCH   2   3
ATOM      3  C   UNL     1      30.288   7.444  29.239  1.00  0.00     0.000 C 
BRANCH   3   4
ATOM      4  C   UNL     1      31.431   8.075  28.426  1.00  0.00     0.000 C 
BRANCH   4   5
ATOM      5  C   UNL     1      31.017   9.393  27.750  1.00  0.00     0.006 C 
BRANCH   5   6
ATOM      6  C   UNL     1      30.570  10.450  28.768  1.00  0.00     0.053 C 
BRANCH   6   7
ATOM      7  C   UNL     1      29.350  11.186  28.306  1.00  0.00     0.041 C 
ATOM      8  O   UNL     1      28.714  11.924  29.103  1.00  0.00    -0.550 OA
ATOM      9  O   UNL     1      28.900  11.034  27.000  1.00  0.00    -0.550 OA
ENDBRANCH   6   7
ENDBRANCH   5   6
ENDBRANCH   4   5
ENDBRANCH   3   4
ENDBRANCH   2   3
ENDBRANCH   1   2
BRANCH   1  10
ATOM     10  C   UNL     1      32.506   8.314  31.888  1.00  0.00     0.000 C 
BRANCH  10  11
ATOM     11  C   UNL     1      32.914   9.774  31.664  1.00  0.00    -0.000 C 
BRANCH  11  12
ATOM     12  C   UNL     1      34.003   9.883  30.590  1.00  0.00    -0.000 C 
BRANCH  12  13
ATOM     13  C   UNL     1      34.489   8.495  30.155  1.00  0.00    -0.000 C 
BRANCH  13  14
ATOM     14  C   UNL     1      35.932   8.245  30.620  1.00  0.00    -0.000 C 
BRANCH  14  15
ATOM     15  C   UNL     1      36.051   7.021  31.539  1.00  0.00    -0.003 C 
ATOM     16  C   UNL     1      35.895   7.372  33.018  1.00  0.00     0.004 C 
ENDBRANCH  14  15
ENDBRANCH  13  14
ENDBRANCH  12  13
ENDBRANCH  11  12
ENDBRANCH  10  11
ENDBRANCH   1  10
TORSDOF 12
ENDMDL
MODEL 6
REMARK VINA RESULT:    -3.755      3.344      5.323
REMARK INTER + INTRA:          -8.290
REMARK INTER:                  -6.325
REMARK INTRA:                  -1.964
REMARK UNBOUND:                -1.900
REMARK SMILES CCCCCCCCCCCCCC(=O)[O-]
REMARK SMILES IDX 8 1 9 2 10 3 11 4 12 5 13 6 14 7 15 8 16 9 7 10 6 11 5 12
REMARK SMILES IDX 4 13 3 14 2 15 1 16
REMARK H PARENT
REMARK Flexibility Score: inf
ROOT
ATOM      1  C   UNL     1      29.965   8.210  30.164  1.00  0.00     0.000 C 
ENDROOT
BRANCH   1   2
ATOM      2  C   UNL     1      30.789   7.555  29.044  1.00  0.00     0.000 C 
BRANCH   2   3
ATOM      3  C   UNL     1      31.728   8.551  28.341  1.00  0.00     0.000 C 
BRANCH   3   4
ATOM      4  C   UNL     1      33.200   8.356  28.737  1.00  0.00     0.000 C 
BRANCH   4   5
ATOM      5  C   UNL     1      33.669   9.375  29.789  1.00  0.00     0.006 C 
BRANCH   5   6
ATOM      6  C   UNL     1      35.124   9.141  30.215  1.00  0.00     0.053 C 
BRANCH   6   7
ATOM      7  C   UNL     1      35.251   7.967  31.137  1.00  0.00     0.041 C 
ATOM      8  O   UNL     1      36.242   7.196  31.049  1.00  0.00    -0.550 OA
ATOM      9  O   UNL     1      34.260   7.710  32.076  1.00  0.00    -0.550 OA
ENDBRANCH   6   7
ENDBRANCH   5   6
ENDBRANCH   4   5
ENDBRANCH   3   4
ENDBRANCH   2   3
ENDBRANCH   1   2
BRANCH   1  10
ATOM     10  C   UNL     1      30.722   8.268  31.499  1.00  0.00     0.000 C 
BRANCH  10  11
ATOM     11  C   UNL     1      30.790   9.704  32.031  1.00  0.00    -0.000 C 
BRANCH  11  12
ATOM     12  C   UNL     1      29.923  10.645  31.186  1.00  0.00    -0.000 C 
BRANCH  12  13
ATOM     13  C   UNL     1      30.768  11.763  30.564  1.00  0.00    -0.000 C 
BRANCH  13  14
ATOM     14  C   UNL     1      30.506  11.876  29.054  1.00  0.00    -0.000 C 
BRANCH  14  15
ATOM     15  C   UNL     1      29.051  11.555  28.683  1.00  0.00    -0.003 C 
ATOM     16  C   UNL     1      28.925  10.862  27.326  1.00  0.00     0.004 C 
ENDBRANCH  14  15
ENDBRANCH  13  14
ENDBRANCH  12  13
ENDBRANCH  11  12
ENDBRANCH  10  11
ENDBRANCH   1  10
TORSDOF 12
ENDMDL
MODEL 7
REMARK VINA RESULT:    -3.716      3.338      5.248
REMARK INTER + INTRA:          -8.223
REMARK INTER:                  -6.009
REMARK INTRA:                  -2.214
REMARK UNBOUND:                -1.900
REMARK SMILES CCCCCCCCCCCCCC(=O)[O-]
REMARK SMILES IDX 8 1 9 2 10 3 11 4 12 5 13 6 14 7 15 8 16 9 7 10 6 11 5 12
REMARK SMILES IDX 4 13 3 14 2 15 1 16
REMARK H PARENT
REMARK Flexibility Score: inf
ROOT
ATOM      1  C   UNL     1      30.081  11.243  31.019  1.00  0.00     0.000 C 
ENDROOT
BRANCH   1   2
ATOM      2  C   UNL     1      30.906  10.316  31.925  1.00  0.00     0.000 C 
BRANCH   2   3
ATOM      3  C   UNL     1      32.377  10.215  31.485  1.00  0.00     0.000 C 
BRANCH   3   4
ATOM      4  C   UNL     1      33.118   9.051  32.162  1.00  0.00     0.000 C 
BRANCH   4   5
ATOM      5  C   UNL     1      33.960   8.229  31.171  1.00  0.00     0.006 C 
BRANCH   5   6
ATOM      6  C   UNL     1      34.538   9.096  30.045  1.00  0.00     0.053 C 
BRANCH   6   7
ATOM      7  C   UNL     1      35.973   9.443  30.293  1.00  0.00     0.041 C 
ATOM      8  O   UNL     1      36.837   8.534  30.401  1.00  0.00    -0.550 OA
ATOM      9  O   UNL     1      36.353  10.773  30.432  1.00  0.00    -0.550 OA
ENDBRANCH   6   7
ENDBRANCH   5   6
ENDBRANCH   4   5
ENDBRANCH   3   4
ENDBRANCH   2   3
ENDBRANCH   1   2
BRANCH   1  10
ATOM     10  C   UNL     1      30.764  11.512  29.669  1.00  0.00     0.000 C 
BRANCH  10  11
ATOM     11  C   UNL     1      29.779  11.328  28.509  1.00  0.00    -0.000 C 
BRANCH  11  12
ATOM     12  C   UNL     1      29.890   9.921  27.910  1.00  0.00    -0.000 C 
BRANCH  12  13
ATOM     13  C   UNL     1      31.332   9.405  27.975  1.00  0.00    -0.000 C 
BRANCH  13  14
ATOM     14  C   UNL     1      31.382   7.978  28.541  1.00  0.00    -0.000 C 
BRANCH  14  15
ATOM     15  C   UNL     1      30.237   7.694  29.524  1.00  0.00    -0.003 C 
ATOM     16  C   UNL     1      30.628   6.701  30.618  1.00  0.00     0.004 C 
ENDBRANCH  14  15
ENDBRANCH  13  14
ENDBRANCH  12  13
ENDBRANCH  11  12
ENDBRANCH  10  11
ENDBRANCH   1  10
TORSDOF 12
ENDMDL
MODEL 8
REMARK VINA RESULT:    -3.716      2.067      4.089
REMARK INTER + INTRA:          -8.223
REMARK INTER:                  -6.608
REMARK INTRA:                  -1.615
REMARK UNBOUND:                -1.900
REMARK SMILES CCCCCCCCCCCCCC(=O)[O-]
REMARK SMILES IDX 8 1 9 2 10 3 11 4 12 5 13 6 14 7 15 8 16 9 7 10 6 11 5 12
REMARK SMILES IDX 4 13 3 14 2 15 1 16
REMARK H PARENT
REMARK Flexibility Score: inf
ROOT
ATOM      1  C   UNL     1      33.647   8.549  29.238  1.00  0.00     0.000 C 
ENDROOT
BRANCH   1   2
ATOM      2  C   UNL     1      32.584   8.394  28.139  1.00  0.00     0.000 C 
BRANCH   2   3
ATOM      3  C   UNL     1      31.393   9.350  28.329  1.00  0.00     0.000 C 
BRANCH   3   4
ATOM      4  C   UNL     1      30.139   8.635  28.855  1.00  0.00     0.000 C 
BRANCH   4   5
ATOM      5  C   UNL     1      29.683   9.170  30.223  1.00  0.00     0.006 C 
BRANCH   5   6
ATOM      6  C   UNL     1      29.725  10.702  30.289  1.00  0.00     0.053 C 
BRANCH   6   7
ATOM      7  C   UNL     1      28.407  11.311  29.921  1.00  0.00     0.041 C 
ATOM      8  O   UNL     1      28.019  11.310  28.723  1.00  0.00    -0.550 OA
ATOM      9  O   UNL     1      27.618  11.904  30.899  1.00  0.00    -0.550 OA
ENDBRANCH   6   7
ENDBRANCH   5   6
ENDBRANCH   4   5
ENDBRANCH   3   4
ENDBRANCH   2   3
ENDBRANCH   1   2
BRANCH   1  10
ATOM     10  C   UNL     1      33.382   9.756  30.151  1.00  0.00     0.000 C 
BRANCH  10  11
ATOM     11  C   UNL     1      33.484   9.360  31.628  1.00  0.00    -0.000 C 
BRANCH  11  12
ATOM     12  C   UNL     1      33.522   7.836  31.789  1.00  0.00    -0.000 C 
BRANCH  12  13
ATOM     13  C   UNL     1      34.767   7.393  32.567  1.00  0.00    -0.000 C 
BRANCH  13  14
ATOM     14  C   UNL     1      35.903   6.999  31.610  1.00  0.00    -0.000 C 
BRANCH  14  15
ATOM     15  C   UNL     1      37.087   7.975  31.668  1.00  0.00    -0.003 C 
ATOM     16  C   UNL     1      37.206   8.837  30.411  1.00  0.00     0.004 C 
ENDBRANCH  14  15
ENDBRANCH  13  14
ENDBRANCH  12  13
ENDBRANCH  11  12
ENDBRANCH  10  11
ENDBRANCH   1  10
TORSDOF 12
ENDMDL
MODEL 9
REMARK VINA RESULT:    -3.643      2.005      4.022
REMARK INTER + INTRA:          -8.098
REMARK INTER:                  -6.604
REMARK INTRA:                  -1.494
REMARK UNBOUND:                -1.900
REMARK SMILES CCCCCCCCCCCCCC(=O)[O-]
REMARK SMILES IDX 8 1 9 2 10 3 11 4 12 5 13 6 14 7 15 8 16 9 7 10 6 11 5 12
REMARK SMILES IDX 4 13 3 14 2 15 1 16
REMARK H PARENT
REMARK Flexibility Score: inf
ROOT
ATOM      1  C   UNL     1      30.087   7.820  30.224  1.00  0.00     0.000 C 
ENDROOT
BRANCH   1   2
ATOM      2  C   UNL     1      30.740   7.828  28.833  1.00  0.00     0.000 C 
BRANCH   2   3
ATOM      3  C   UNL     1      30.427   9.108  28.040  1.00  0.00     0.000 C 
BRANCH   3   4
ATOM      4  C   UNL     1      30.641  10.385  28.869  1.00  0.00     0.000 C 
BRANCH   4   5
ATOM      5  C   UNL     1      29.517  11.415  28.669  1.00  0.00     0.006 C 
BRANCH   5   6
ATOM      6  C   UNL     1      28.289  11.109  29.536  1.00  0.00     0.053 C 
BRANCH   6   7
ATOM      7  C   UNL     1      28.292  11.903  30.805  1.00  0.00     0.041 C 
ATOM      8  O   UNL     1      27.309  12.633  31.100  1.00  0.00    -0.550 OA
ATOM      9  O   UNL     1      29.394  11.859  31.650  1.00  0.00    -0.550 OA
ENDBRANCH   6   7
ENDBRANCH   5   6
ENDBRANCH   4   5
ENDBRANCH   3   4
ENDBRANCH   2   3
ENDBRANCH   1   2
BRANCH   1  10
ATOM     10  C   UNL     1      31.003   7.222  31.304  1.00  0.00     0.000 C 
BRANCH  10  11
ATOM     11  C   UNL     1      32.422   7.793  31.198  1.00  0.00    -0.000 C 
BRANCH  11  12
ATOM     12  C   UNL     1      32.493   9.204  31.794  1.00  0.00    -0.000 C 
BRANCH  12  13
ATOM     13  C   UNL     1      33.513  10.069  31.044  1.00  0.00    -0.000 C 
BRANCH  13  14
ATOM     14  C   UNL     1      34.259   9.246  29.983  1.00  0.00    -0.000 C 
BRANCH  14  15
ATOM     15  C   UNL     1      35.771   9.182  30.243  1.00  0.00    -0.003 C 
ATOM     16  C   UNL     1      36.219   7.836  30.810  1.00  0.00     0.004 C 
ENDBRANCH  14  15
ENDBRANCH  13  14
ENDBRANCH  12  13
ENDBRANCH  11  12
ENDBRANCH  10  11
ENDBRANCH   1  10
TORSDOF 12
ENDMDL
