MODEL 1
REMARK VINA RESULT:    -5.526      0.000      0.000
REMARK INTER + INTRA:          -6.760
REMARK INTER:                  -6.495
REMARK INTRA:                  -0.265
REMARK UNBOUND:                -0.265
REMARK SMILES O=c1c(O)c(-c2ccc(O)cc2)oc2cc(O)cc(O)c12
REMARK SMILES IDX 5 1 3 2 2 3 1 4 21 5 19 6 18 7 16 8 15 9 14 10 13 11 6 12
REMARK SMILES IDX 7 13 8 14 9 15 12 16 11 17 10 18 4 20 20 22 17 24
REMARK H PARENT 10 19 4 21 20 23 17 25
REMARK Flexibility Score: inf
ROOT
ATOM      1  C   UNL     1      -2.292  -6.937   8.651  1.00  0.00     0.180 A 
ATOM      2  C   UNL     1      -1.876  -8.058   7.906  1.00  0.00     0.208 A 
ATOM      3  C   UNL     1      -0.527  -8.166   7.538  1.00  0.00     0.238 A 
ATOM      4  O   UNL     1      -0.145  -9.160   6.862  1.00  0.00    -0.285 OA
ATOM      5  C   UNL     1       0.386  -7.167   7.934  1.00  0.00     0.111 A 
ATOM      6  C   UNL     1       1.763  -7.202   7.607  1.00  0.00     0.134 A 
ATOM      7  C   UNL     1       2.608  -6.173   8.046  1.00  0.00     0.093 A 
ATOM      8  C   UNL     1       2.107  -5.113   8.805  1.00  0.00     0.123 A 
ATOM      9  C   UNL     1       0.747  -5.072   9.131  1.00  0.00     0.094 A 
ATOM     10  C   UNL     1      -0.112  -6.087   8.700  1.00  0.00     0.146 A 
ATOM     11  O   UNL     1      -1.400  -6.022   9.019  1.00  0.00    -0.452 OA
ENDROOT
BRANCH   1  12
ATOM     12  C   UNL     1      -3.701  -6.744   9.061  1.00  0.00     0.021 A 
ATOM     13  C   UNL     1      -4.070  -6.978  10.396  1.00  0.00     0.016 A 
ATOM     14  C   UNL     1      -5.391  -6.780  10.812  1.00  0.00     0.047 A 
ATOM     15  C   UNL     1      -6.355  -6.329   9.900  1.00  0.00     0.115 A 
ATOM     16  C   UNL     1      -4.670  -6.273   8.157  1.00  0.00     0.016 A 
ATOM     17  C   UNL     1      -5.990  -6.074   8.575  1.00  0.00     0.047 A 
BRANCH  15  18
ATOM     18  O   UNL     1      -7.674  -6.129  10.302  1.00  0.00    -0.508 OA
ATOM     19  H   UNL     1      -8.440  -6.167   9.640  1.00  0.00     0.293 HD
ENDBRANCH  15  18
ENDBRANCH   1  12
BRANCH   2  20
ATOM     20  O   UNL     1      -2.791  -9.061   7.569  1.00  0.00    -0.502 OA
ATOM     21  H   UNL     1      -2.545  -9.840   6.971  1.00  0.00     0.293 HD
ENDBRANCH   2  20
BRANCH   6  22
ATOM     22  O   UNL     1       2.296  -8.247   6.851  1.00  0.00    -0.507 OA
ATOM     23  H   UNL     1       2.334  -8.208   5.840  1.00  0.00     0.293 HD
ENDBRANCH   6  22
BRANCH   8  24
ATOM     24  O   UNL     1       2.969  -4.104   9.230  1.00  0.00    -0.508 OA
ATOM     25  H   UNL     1       3.228  -3.337   8.621  1.00  0.00     0.293 HD
ENDBRANCH   8  24
TORSDOF 5
ENDMDL
MODEL 2
REMARK VINA RESULT:    -5.441     17.935     19.133
REMARK INTER + INTRA:          -6.661
REMARK INTER:                  -7.026
REMARK INTRA:                   0.365
REMARK UNBOUND:                -0.265
REMARK SMILES O=c1c(O)c(-c2ccc(O)cc2)oc2cc(O)cc(O)c12
REMARK SMILES IDX 5 1 3 2 2 3 1 4 21 5 19 6 18 7 16 8 15 9 14 10 13 11 6 12
REMARK SMILES IDX 7 13 8 14 9 15 12 16 11 17 10 18 4 20 20 22 17 24
REMARK H PARENT 10 19 4 21 20 23 17 25
REMARK Flexibility Score: inf
ROOT
ATOM      1  C   UNL     1       3.174   7.375  -2.025  1.00  0.00     0.180 A 
ATOM      2  C   UNL     1       4.242   6.563  -2.456  1.00  0.00     0.208 A 
ATOM      3  C   UNL     1       4.190   6.001  -3.741  1.00  0.00     0.238 A 
ATOM      4  O   UNL     1       5.136   5.263  -4.133  1.00  0.00    -0.285 OA
ATOM      5  C   UNL     1       3.089   6.273  -4.578  1.00  0.00     0.111 A 
ATOM      6  C   UNL     1       2.963   5.749  -5.887  1.00  0.00     0.134 A 
ATOM      7  C   UNL     1       1.839   6.074  -6.661  1.00  0.00     0.093 A 
ATOM      8  C   UNL     1       0.843   6.911  -6.155  1.00  0.00     0.123 A 
ATOM      9  C   UNL     1       0.962   7.432  -4.861  1.00  0.00     0.094 A 
ATOM     10  C   UNL     1       2.073   7.118  -4.074  1.00  0.00     0.146 A 
ATOM     11  O   UNL     1       2.159   7.621  -2.847  1.00  0.00    -0.452 OA
ENDROOT
BRANCH   1  12
ATOM     12  C   UNL     1       3.147   7.988  -0.678  1.00  0.00     0.021 A 
ATOM     13  C   UNL     1       1.912   8.285  -0.080  1.00  0.00     0.016 A 
ATOM     14  C   UNL     1       1.860   8.844   1.201  1.00  0.00     0.047 A 
ATOM     15  C   UNL     1       3.045   9.097   1.906  1.00  0.00     0.115 A 
ATOM     16  C   UNL     1       4.331   8.227   0.044  1.00  0.00     0.016 A 
ATOM     17  C   UNL     1       4.278   8.784   1.325  1.00  0.00     0.047 A 
BRANCH  15  18
ATOM     18  O   UNL     1       3.007   9.654   3.182  1.00  0.00    -0.508 OA
ATOM     19  H   UNL     1       2.225  10.220   3.490  1.00  0.00     0.293 HD
ENDBRANCH  15  18
ENDBRANCH   1  12
BRANCH   2  20
ATOM     20  O   UNL     1       5.346   6.349  -1.626  1.00  0.00    -0.502 OA
ATOM     21  H   UNL     1       6.121   5.756  -1.897  1.00  0.00     0.293 HD
ENDBRANCH   2  20
BRANCH   6  22
ATOM     22  O   UNL     1       3.941   4.910  -6.422  1.00  0.00    -0.507 OA
ATOM     23  H   UNL     1       3.702   4.110  -6.996  1.00  0.00     0.293 HD
ENDBRANCH   6  22
BRANCH   8  24
ATOM     24  O   UNL     1      -0.263   7.220  -6.944  1.00  0.00    -0.508 OA
ATOM     25  H   UNL     1      -0.682   6.534  -7.561  1.00  0.00     0.293 HD
ENDBRANCH   8  24
TORSDOF 5
ENDMDL
MODEL 3
REMARK VINA RESULT:    -5.433     18.285     19.394
REMARK INTER + INTRA:          -6.650
REMARK INTER:                  -6.400
REMARK INTRA:                  -0.250
REMARK UNBOUND:                -0.265
REMARK SMILES O=c1c(O)c(-c2ccc(O)cc2)oc2cc(O)cc(O)c12
REMARK SMILES IDX 5 1 3 2 2 3 1 4 21 5 19 6 18 7 16 8 15 9 14 10 13 11 6 12
REMARK SMILES IDX 7 13 8 14 9 15 12 16 11 17 10 18 4 20 20 22 17 24
REMARK H PARENT 10 19 4 21 20 23 17 25
REMARK Flexibility Score: inf
ROOT
ATOM      1  C   UNL     1       3.385   6.957  -3.217  1.00  0.00     0.180 A 
ATOM      2  C   UNL     1       4.614   6.734  -2.566  1.00  0.00     0.208 A 
ATOM      3  C   UNL     1       4.804   7.257  -1.278  1.00  0.00     0.238 A 
ATOM      4  O   UNL     1       5.905   7.073  -0.690  1.00  0.00    -0.285 OA
ATOM      5  C   UNL     1       3.762   7.975  -0.655  1.00  0.00     0.111 A 
ATOM      6  C   UNL     1       3.871   8.531   0.641  1.00  0.00     0.134 A 
ATOM      7  C   UNL     1       2.784   9.224   1.194  1.00  0.00     0.093 A 
ATOM      8  C   UNL     1       1.593   9.370   0.480  1.00  0.00     0.123 A 
ATOM      9  C   UNL     1       1.479   8.823  -0.803  1.00  0.00     0.094 A 
ATOM     10  C   UNL     1       2.552   8.131  -1.372  1.00  0.00     0.146 A 
ATOM     11  O   UNL     1       2.419   7.625  -2.594  1.00  0.00    -0.452 OA
ENDROOT
BRANCH   1  12
ATOM     12  C   UNL     1       3.116   6.452  -4.583  1.00  0.00     0.021 A 
ATOM     13  C   UNL     1       3.663   7.125  -5.687  1.00  0.00     0.016 A 
ATOM     14  C   UNL     1       3.441   6.655  -6.985  1.00  0.00     0.047 A 
ATOM     15  C   UNL     1       2.682   5.495  -7.193  1.00  0.00     0.115 A 
ATOM     16  C   UNL     1       2.372   5.278  -4.798  1.00  0.00     0.016 A 
ATOM     17  C   UNL     1       2.152   4.808  -6.096  1.00  0.00     0.047 A 
BRANCH  15  18
ATOM     18  O   UNL     1       2.453   5.017  -8.481  1.00  0.00    -0.508 OA
ATOM     19  H   UNL     1       2.253   4.039  -8.654  1.00  0.00     0.293 HD
ENDBRANCH  15  18
ENDBRANCH   1  12
BRANCH   2  20
ATOM     20  O   UNL     1       5.613   5.977  -3.184  1.00  0.00    -0.502 OA
ATOM     21  H   UNL     1       6.577   6.284  -3.228  1.00  0.00     0.293 HD
ENDBRANCH   2  20
BRANCH   6  22
ATOM     22  O   UNL     1       5.047   8.402   1.382  1.00  0.00    -0.507 OA
ATOM     23  H   UNL     1       5.318   9.089   2.076  1.00  0.00     0.293 HD
ENDBRANCH   6  22
BRANCH   8  24
ATOM     24  O   UNL     1       0.528  10.062   1.053  1.00  0.00    -0.508 OA
ATOM     25  H   UNL     1       0.342  10.019   2.048  1.00  0.00     0.293 HD
ENDBRANCH   8  24
TORSDOF 5
ENDMDL
MODEL 4
REMARK VINA RESULT:    -5.412      1.731      3.109
REMARK INTER + INTRA:          -6.626
REMARK INTER:                  -6.474
REMARK INTRA:                  -0.152
REMARK UNBOUND:                -0.265
REMARK SMILES O=c1c(O)c(-c2ccc(O)cc2)oc2cc(O)cc(O)c12
REMARK SMILES IDX 5 1 3 2 2 3 1 4 21 5 19 6 18 7 16 8 15 9 14 10 13 11 6 12
REMARK SMILES IDX 7 13 8 14 9 15 12 16 11 17 10 18 4 20 20 22 17 24
REMARK H PARENT 10 19 4 21 20 23 17 25
REMARK Flexibility Score: inf
ROOT
ATOM      1  C   UNL     1      -1.329  -6.964   8.179  1.00  0.00     0.180 A 
ATOM      2  C   UNL     1      -0.641  -6.364   9.251  1.00  0.00     0.208 A 
ATOM      3  C   UNL     1       0.743  -6.160   9.139  1.00  0.00     0.238 A 
ATOM      4  O   UNL     1       1.372  -5.632  10.097  1.00  0.00    -0.285 OA
ATOM      5  C   UNL     1       1.411  -6.538   7.956  1.00  0.00     0.111 A 
ATOM      6  C   UNL     1       2.802  -6.363   7.762  1.00  0.00     0.134 A 
ATOM      7  C   UNL     1       3.390  -6.758   6.552  1.00  0.00     0.093 A 
ATOM      8  C   UNL     1       2.617  -7.321   5.534  1.00  0.00     0.123 A 
ATOM      9  C   UNL     1       1.242  -7.497   5.720  1.00  0.00     0.094 A 
ATOM     10  C   UNL     1       0.638  -7.112   6.920  1.00  0.00     0.146 A 
ATOM     11  O   UNL     1      -0.670  -7.295   7.074  1.00  0.00    -0.452 OA
ENDROOT
BRANCH   1  12
ATOM     12  C   UNL     1      -2.785  -7.230   8.230  1.00  0.00     0.021 A 
ATOM     13  C   UNL     1      -3.684  -6.151   8.218  1.00  0.00     0.016 A 
ATOM     14  C   UNL     1      -5.064  -6.378   8.242  1.00  0.00     0.047 A 
ATOM     15  C   UNL     1      -5.561  -7.688   8.262  1.00  0.00     0.115 A 
ATOM     16  C   UNL     1      -3.292  -8.542   8.230  1.00  0.00     0.016 A 
ATOM     17  C   UNL     1      -4.672  -8.767   8.252  1.00  0.00     0.047 A 
BRANCH  15  18
ATOM     18  O   UNL     1      -6.933  -7.927   8.286  1.00  0.00    -0.508 OA
ATOM     19  H   UNL     1      -7.535  -7.637   7.524  1.00  0.00     0.293 HD
ENDBRANCH  15  18
ENDBRANCH   1  12
BRANCH   2  20
ATOM     20  O   UNL     1      -1.333  -5.952  10.393  1.00  0.00    -0.502 OA
ATOM     21  H   UNL     1      -1.516  -6.574  11.171  1.00  0.00     0.293 HD
ENDBRANCH   2  20
BRANCH   6  22
ATOM     22  O   UNL     1       3.602  -5.802   8.759  1.00  0.00    -0.507 OA
ATOM     23  H   UNL     1       4.285  -6.352   9.265  1.00  0.00     0.293 HD
ENDBRANCH   6  22
BRANCH   8  24
ATOM     24  O   UNL     1       3.226  -7.704   4.340  1.00  0.00    -0.508 OA
ATOM     25  H   UNL     1       4.146  -8.129   4.327  1.00  0.00     0.293 HD
ENDBRANCH   8  24
TORSDOF 5
ENDMDL
MODEL 5
REMARK VINA RESULT:    -5.318     18.036     19.384
REMARK INTER + INTRA:          -6.516
REMARK INTER:                  -6.289
REMARK INTRA:                  -0.227
REMARK UNBOUND:                -0.265
REMARK SMILES O=c1c(O)c(-c2ccc(O)cc2)oc2cc(O)cc(O)c12
REMARK SMILES IDX 5 1 3 2 2 3 1 4 21 5 19 6 18 7 16 8 15 9 14 10 13 11 6 12
REMARK SMILES IDX 7 13 8 14 9 15 12 16 11 17 10 18 4 20 20 22 17 24
REMARK H PARENT 10 19 4 21 20 23 17 25
REMARK Flexibility Score: inf
ROOT
ATOM      1  C   UNL     1       2.501   7.898  -3.090  1.00  0.00     0.180 A 
ATOM      2  C   UNL     1       3.870   7.585  -3.193  1.00  0.00     0.208 A 
ATOM      3  C   UNL     1       4.680   7.700  -2.054  1.00  0.00     0.238 A 
ATOM      4  O   UNL     1       5.910   7.432  -2.137  1.00  0.00    -0.285 OA
ATOM      5  C   UNL     1       4.110   8.105  -0.830  1.00  0.00     0.111 A 
ATOM      6  C   UNL     1       4.855   8.243   0.365  1.00  0.00     0.134 A 
ATOM      7  C   UNL     1       4.211   8.643   1.545  1.00  0.00     0.093 A 
ATOM      8  C   UNL     1       2.840   8.906   1.554  1.00  0.00     0.123 A 
ATOM      9  C   UNL     1       2.097   8.773   0.376  1.00  0.00     0.094 A 
ATOM     10  C   UNL     1       2.722   8.377  -0.810  1.00  0.00     0.146 A 
ATOM     11  O   UNL     1       1.994   8.263  -1.916  1.00  0.00    -0.452 OA
ENDROOT
BRANCH   1  12
ATOM     12  C   UNL     1       1.586   7.818  -4.251  1.00  0.00     0.021 A 
ATOM     13  C   UNL     1       1.140   6.562  -4.694  1.00  0.00     0.016 A 
ATOM     14  C   UNL     1       0.258   6.464  -5.775  1.00  0.00     0.047 A 
ATOM     15  C   UNL     1      -0.202   7.623  -6.415  1.00  0.00     0.115 A 
ATOM     16  C   UNL     1       1.104   8.977  -4.886  1.00  0.00     0.016 A 
ATOM     17  C   UNL     1       0.220   8.877  -5.965  1.00  0.00     0.047 A 
BRANCH  15  18
ATOM     18  O   UNL     1      -1.081   7.537  -7.493  1.00  0.00    -0.508 OA
ATOM     19  H   UNL     1      -1.825   6.850  -7.516  1.00  0.00     0.293 HD
ENDBRANCH  15  18
ENDBRANCH   1  12
BRANCH   2  20
ATOM     20  O   UNL     1       4.402   7.137  -4.406  1.00  0.00    -0.502 OA
ATOM     21  H   UNL     1       5.082   6.387  -4.456  1.00  0.00     0.293 HD
ENDBRANCH   2  20
BRANCH   6  22
ATOM     22  O   UNL     1       6.227   7.987   0.389  1.00  0.00    -0.507 OA
ATOM     23  H   UNL     1       6.731   7.702  -0.442  1.00  0.00     0.293 HD
ENDBRANCH   6  22
BRANCH   8  24
ATOM     24  O   UNL     1       2.224   9.301   2.740  1.00  0.00    -0.508 OA
ATOM     25  H   UNL     1       1.806  10.219   2.840  1.00  0.00     0.293 HD
ENDBRANCH   8  24
TORSDOF 5
ENDMDL
MODEL 6
REMARK VINA RESULT:    -5.303      4.175      9.439
REMARK INTER + INTRA:          -6.498
REMARK INTER:                  -6.200
REMARK INTRA:                  -0.298
REMARK UNBOUND:                -0.265
REMARK SMILES O=c1c(O)c(-c2ccc(O)cc2)oc2cc(O)cc(O)c12
REMARK SMILES IDX 5 1 3 2 2 3 1 4 21 5 19 6 18 7 16 8 15 9 14 10 13 11 6 12
REMARK SMILES IDX 7 13 8 14 9 15 12 16 11 17 10 18 4 20 20 22 17 24
REMARK H PARENT 10 19 4 21 20 23 17 25
REMARK Flexibility Score: inf
ROOT
ATOM      1  C   UNL     1       5.130  -4.974   7.483  1.00  0.00     0.180 A 
ATOM      2  C   UNL     1       4.550  -4.380   8.621  1.00  0.00     0.208 A 
ATOM      3  C   UNL     1       3.311  -4.855   9.076  1.00  0.00     0.238 A 
ATOM      4  O   UNL     1       2.777  -4.323  10.088  1.00  0.00    -0.285 OA
ATOM      5  C   UNL     1       2.683  -5.923   8.404  1.00  0.00     0.111 A 
ATOM      6  C   UNL     1       1.436  -6.463   8.800  1.00  0.00     0.134 A 
ATOM      7  C   UNL     1       0.881  -7.532   8.083  1.00  0.00     0.093 A 
ATOM      8  C   UNL     1       1.547  -8.074   6.981  1.00  0.00     0.123 A 
ATOM      9  C   UNL     1       2.780  -7.545   6.584  1.00  0.00     0.094 A 
ATOM     10  C   UNL     1       3.347  -6.477   7.284  1.00  0.00     0.146 A 
ATOM     11  O   UNL     1       4.517  -5.989   6.883  1.00  0.00    -0.452 OA
ENDROOT
BRANCH   1  12
ATOM     12  C   UNL     1       6.426  -4.517   6.931  1.00  0.00     0.021 A 
ATOM     13  C   UNL     1       7.604  -5.196   7.283  1.00  0.00     0.016 A 
ATOM     14  C   UNL     1       8.837  -4.796   6.757  1.00  0.00     0.047 A 
ATOM     15  C   UNL     1       8.903  -3.722   5.859  1.00  0.00     0.115 A 
ATOM     16  C   UNL     1       6.498  -3.453   6.014  1.00  0.00     0.016 A 
ATOM     17  C   UNL     1       7.731  -3.056   5.488  1.00  0.00     0.047 A 
BRANCH  15  18
ATOM     18  O   UNL     1      10.125  -3.314   5.328  1.00  0.00    -0.508 OA
ATOM     19  H   UNL     1      10.887  -3.968   5.191  1.00  0.00     0.293 HD
ENDBRANCH  15  18
ENDBRANCH   1  12
BRANCH   2  20
ATOM     20  O   UNL     1       5.216  -3.356   9.300  1.00  0.00    -0.502 OA
ATOM     21  H   UNL     1       4.970  -3.081  10.243  1.00  0.00     0.293 HD
ENDBRANCH   2  20
BRANCH   6  22
ATOM     22  O   UNL     1       0.746  -5.945   9.898  1.00  0.00    -0.507 OA
ATOM     23  H   UNL     1       0.274  -5.050   9.857  1.00  0.00     0.293 HD
ENDBRANCH   6  22
BRANCH   8  24
ATOM     24  O   UNL     1       0.974  -9.137   6.286  1.00  0.00    -0.508 OA
ATOM     25  H   UNL     1       0.063  -9.503   6.535  1.00  0.00     0.293 HD
ENDBRANCH   8  24
TORSDOF 5
ENDMDL
MODEL 7
REMARK VINA RESULT:    -5.302     17.870     19.615
REMARK INTER + INTRA:          -6.497
REMARK INTER:                  -6.199
REMARK INTRA:                  -0.298
REMARK UNBOUND:                -0.265
REMARK SMILES O=c1c(O)c(-c2ccc(O)cc2)oc2cc(O)cc(O)c12
REMARK SMILES IDX 5 1 3 2 2 3 1 4 21 5 19 6 18 7 16 8 15 9 14 10 13 11 6 12
REMARK SMILES IDX 7 13 8 14 9 15 12 16 11 17 10 18 4 20 20 22 17 24
REMARK H PARENT 10 19 4 21 20 23 17 25
REMARK Flexibility Score: inf
ROOT
ATOM      1  C   UNL     1       2.395   7.621  -2.599  1.00  0.00     0.180 A 
ATOM      2  C   UNL     1       1.930   6.344  -2.970  1.00  0.00     0.208 A 
ATOM      3  C   UNL     1       1.917   5.996  -4.329  1.00  0.00     0.238 A 
ATOM      4  O   UNL     1       1.492   4.859  -4.674  1.00  0.00    -0.285 OA
ATOM      5  C   UNL     1       2.385   6.915  -5.290  1.00  0.00     0.111 A 
ATOM      6  C   UNL     1       2.409   6.641  -6.678  1.00  0.00     0.134 A 
ATOM      7  C   UNL     1       2.898   7.607  -7.570  1.00  0.00     0.093 A 
ATOM      8  C   UNL     1       3.365   8.837  -7.102  1.00  0.00     0.123 A 
ATOM      9  C   UNL     1       3.343   9.115  -5.731  1.00  0.00     0.094 A 
ATOM     10  C   UNL     1       2.857   8.166  -4.827  1.00  0.00     0.146 A 
ATOM     11  O   UNL     1       2.843   8.457  -3.531  1.00  0.00    -0.452 OA
ENDROOT
BRANCH   1  12
ATOM     12  C   UNL     1       2.423   8.069  -1.188  1.00  0.00     0.021 A 
ATOM     13  C   UNL     1       3.595   7.900  -0.433  1.00  0.00     0.016 A 
ATOM     14  C   UNL     1       3.652   8.335   0.895  1.00  0.00     0.047 A 
ATOM     15  C   UNL     1       2.541   8.960   1.478  1.00  0.00     0.115 A 
ATOM     16  C   UNL     1       1.319   8.714  -0.602  1.00  0.00     0.016 A 
ATOM     17  C   UNL     1       1.378   9.151   0.725  1.00  0.00     0.047 A 
BRANCH  15  18
ATOM     18  O   UNL     1       2.585   9.398   2.800  1.00  0.00    -0.508 OA
ATOM     19  H   UNL     1       3.428   9.317   3.356  1.00  0.00     0.293 HD
ENDBRANCH  15  18
ENDBRANCH   1  12
BRANCH   2  20
ATOM     20  O   UNL     1       1.518   5.432  -1.995  1.00  0.00    -0.502 OA
ATOM     21  H   UNL     1       2.137   4.723  -1.620  1.00  0.00     0.293 HD
ENDBRANCH   2  20
BRANCH   6  22
ATOM     22  O   UNL     1       1.951   5.421  -7.177  1.00  0.00    -0.507 OA
ATOM     23  H   UNL     1       2.587   4.667  -7.408  1.00  0.00     0.293 HD
ENDBRANCH   6  22
BRANCH   8  24
ATOM     24  O   UNL     1       3.847   9.779  -8.009  1.00  0.00    -0.508 OA
ATOM     25  H   UNL     1       4.367   9.503  -8.834  1.00  0.00     0.293 HD
ENDBRANCH   8  24
TORSDOF 5
ENDMDL
MODEL 8
REMARK VINA RESULT:    -5.260      2.639      4.652
REMARK INTER + INTRA:          -6.448
REMARK INTER:                  -6.181
REMARK INTRA:                  -0.267
REMARK UNBOUND:                -0.265
REMARK SMILES O=c1c(O)c(-c2ccc(O)cc2)oc2cc(O)cc(O)c12
REMARK SMILES IDX 5 1 3 2 2 3 1 4 21 5 19 6 18 7 16 8 15 9 14 10 13 11 6 12
REMARK SMILES IDX 7 13 8 14 9 15 12 16 11 17 10 18 4 20 20 22 17 24
REMARK H PARENT 10 19 4 21 20 23 17 25
REMARK Flexibility Score: inf
ROOT
ATOM      1  C   UNL     1       2.242  -6.168   8.263  1.00  0.00     0.180 A 
ATOM      2  C   UNL     1       2.946  -7.160   7.552  1.00  0.00     0.208 A 
ATOM      3  C   UNL     1       4.316  -6.980   7.313  1.00  0.00     0.238 A 
ATOM      4  O   UNL     1       4.955  -7.857   6.669  1.00  0.00    -0.285 OA
ATOM      5  C   UNL     1       4.964  -5.827   7.802  1.00  0.00     0.111 A 
ATOM      6  C   UNL     1       6.342  -5.571   7.608  1.00  0.00     0.134 A 
ATOM      7  C   UNL     1       6.914  -4.403   8.134  1.00  0.00     0.093 A 
ATOM      8  C   UNL     1       6.138  -3.489   8.850  1.00  0.00     0.123 A 
ATOM      9  C   UNL     1       4.775  -3.736   9.045  1.00  0.00     0.094 A 
ATOM     10  C   UNL     1       4.186  -4.893   8.526  1.00  0.00     0.146 A 
ATOM     11  O   UNL     1       2.888  -5.101   8.721  1.00  0.00    -0.452 OA
ENDROOT
BRANCH   1  12
ATOM     12  C   UNL     1       0.791  -6.278   8.538  1.00  0.00     0.021 A 
ATOM     13  C   UNL     1       0.358  -6.624   9.828  1.00  0.00     0.016 A 
ATOM     14  C   UNL     1      -1.007  -6.712  10.118  1.00  0.00     0.047 A 
ATOM     15  C   UNL     1      -1.956  -6.437   9.124  1.00  0.00     0.115 A 
ATOM     16  C   UNL     1      -0.167  -5.984   7.552  1.00  0.00     0.016 A 
ATOM     17  C   UNL     1      -1.532  -6.070   7.843  1.00  0.00     0.047 A 
BRANCH  15  18
ATOM     18  O   UNL     1      -3.319  -6.521   9.400  1.00  0.00    -0.508 OA
ATOM     19  H   UNL     1      -3.674  -7.126  10.131  1.00  0.00     0.293 HD
ENDBRANCH  15  18
ENDBRANCH   1  12
BRANCH   2  20
ATOM     20  O   UNL     1       2.292  -8.318   7.122  1.00  0.00    -0.502 OA
ATOM     21  H   UNL     1       2.772  -9.202   7.009  1.00  0.00     0.293 HD
ENDBRANCH   2  20
BRANCH   6  22
ATOM     22  O   UNL     1       7.146  -6.465   6.898  1.00  0.00    -0.507 OA
ATOM     23  H   UNL     1       7.872  -6.144   6.268  1.00  0.00     0.293 HD
ENDBRANCH   6  22
BRANCH   8  24
ATOM     24  O   UNL     1       6.731  -2.338   9.363  1.00  0.00    -0.508 OA
ATOM     25  H   UNL     1       6.256  -1.755  10.042  1.00  0.00     0.293 HD
ENDBRANCH   8  24
TORSDOF 5
ENDMDL
MODEL 9
REMARK VINA RESULT:    -5.210     17.999     18.813
REMARK INTER + INTRA:          -6.389
REMARK INTER:                  -6.160
REMARK INTRA:                  -0.229
REMARK UNBOUND:                -0.265
REMARK SMILES O=c1c(O)c(-c2ccc(O)cc2)oc2cc(O)cc(O)c12
REMARK SMILES IDX 5 1 3 2 2 3 1 4 21 5 19 6 18 7 16 8 15 9 14 10 13 11 6 12
REMARK SMILES IDX 7 13 8 14 9 15 12 16 11 17 10 18 4 20 20 22 17 24
REMARK H PARENT 10 19 4 21 20 23 17 25
REMARK Flexibility Score: inf
ROOT
ATOM      1  C   UNL     1       2.833   8.105  -1.103  1.00  0.00     0.180 A 
ATOM      2  C   UNL     1       1.989   8.481  -0.040  1.00  0.00     0.208 A 
ATOM      3  C   UNL     1       2.564   8.858   1.182  1.00  0.00     0.238 A 
ATOM      4  O   UNL     1       1.817   9.187   2.145  1.00  0.00    -0.285 OA
ATOM      5  C   UNL     1       3.967   8.872   1.319  1.00  0.00     0.111 A 
ATOM      6  C   UNL     1       4.627   9.242   2.515  1.00  0.00     0.134 A 
ATOM      7  C   UNL     1       6.028   9.239   2.567  1.00  0.00     0.093 A 
ATOM      8  C   UNL     1       6.782   8.875   1.449  1.00  0.00     0.123 A 
ATOM      9  C   UNL     1       6.136   8.507   0.263  1.00  0.00     0.094 A 
ATOM     10  C   UNL     1       4.740   8.502   0.193  1.00  0.00     0.146 A 
ATOM     11  O   UNL     1       4.152   8.144  -0.944  1.00  0.00    -0.452 OA
ENDROOT
BRANCH   1  12
ATOM     12  C   UNL     1       2.301   7.677  -2.417  1.00  0.00     0.021 A 
ATOM     13  C   UNL     1       2.272   6.311  -2.738  1.00  0.00     0.016 A 
ATOM     14  C   UNL     1       1.753   5.881  -3.964  1.00  0.00     0.047 A 
ATOM     15  C   UNL     1       1.241   6.814  -4.877  1.00  0.00     0.115 A 
ATOM     16  C   UNL     1       1.767   8.605  -3.329  1.00  0.00     0.016 A 
ATOM     17  C   UNL     1       1.247   8.175  -4.554  1.00  0.00     0.047 A 
BRANCH  15  18
ATOM     18  O   UNL     1       0.722   6.399  -6.101  1.00  0.00    -0.508 OA
ATOM     19  H   UNL     1       0.497   5.427  -6.278  1.00  0.00     0.293 HD
ENDBRANCH  15  18
ENDBRANCH   1  12
BRANCH   2  20
ATOM     20  O   UNL     1       0.602   8.507  -0.215  1.00  0.00    -0.502 OA
ATOM     21  H   UNL     1       0.103   7.774  -0.703  1.00  0.00     0.293 HD
ENDBRANCH   2  20
BRANCH   6  22
ATOM     22  O   UNL     1       3.902   9.612   3.649  1.00  0.00    -0.507 OA
ATOM     23  H   UNL     1       4.087  10.479   4.140  1.00  0.00     0.293 HD
ENDBRANCH   6  22
BRANCH   8  24
ATOM     24  O   UNL     1       8.173   8.881   1.526  1.00  0.00    -0.508 OA
ATOM     25  H   UNL     1       8.750   8.650   0.726  1.00  0.00     0.293 HD
ENDBRANCH   8  24
TORSDOF 5
ENDMDL
