MODEL 1
REMARK VINA RESULT:    -4.796      0.000      0.000
REMARK INTER + INTRA:         -16.391
REMARK INTER:                 -12.647
REMARK INTRA:                  -3.745
REMARK UNBOUND:                -3.745
REMARK SMILES CCCCCCCCCCCCCCCCCCCCCCCCCCCCCC(=O)[O-]
REMARK SMILES IDX 16 1 17 2 18 3 19 4 20 5 21 6 22 7 23 8 24 9 25 10 26 11
REMARK SMILES IDX 27 12 28 13 29 14 30 15 31 16 32 17 15 18 14 19 13 20 12 21
REMARK SMILES IDX 11 22 10 23 9 24 8 25 7 26 6 27 5 28 4 29 3 30 2 31 1 32
REMARK H PARENT
REMARK Flexibility Score: inf
ROOT
ATOM      1  C   UNL     1     170.198 176.234 181.448  1.00  0.00     0.000 C 
ENDROOT
BRANCH   1   2
ATOM      2  C   UNL     1     168.899 175.406 181.422  1.00  0.00     0.000 C 
BRANCH   2   3
ATOM      3  C   UNL     1     168.130 175.417 180.086  1.00  0.00     0.000 C 
BRANCH   3   4
ATOM      4  C   UNL     1     167.851 176.835 179.561  1.00  0.00     0.000 C 
BRANCH   4   5
ATOM      5  C   UNL     1     166.727 177.546 180.335  1.00  0.00     0.000 C 
BRANCH   5   6
ATOM      6  C   UNL     1     166.976 179.052 180.559  1.00  0.00     0.000 C 
BRANCH   6   7
ATOM      7  C   UNL     1     165.693 179.886 180.387  1.00  0.00     0.000 C 
BRANCH   7   8
ATOM      8  C   UNL     1     164.756 179.309 179.313  1.00  0.00     0.000 C 
BRANCH   8   9
ATOM      9  C   UNL     1     163.277 179.622 179.591  1.00  0.00     0.000 C 
BRANCH   9  10
ATOM     10  C   UNL     1     162.991 179.631 181.100  1.00  0.00     0.000 C 
BRANCH  10  11
ATOM     11  C   UNL     1     162.193 178.400 181.568  1.00  0.00     0.000 C 
BRANCH  11  12
ATOM     12  C   UNL     1     161.851 177.385 180.463  1.00  0.00     0.000 C 
BRANCH  12  13
ATOM     13  C   UNL     1     161.232 176.089 181.013  1.00  0.00     0.006 C 
BRANCH  13  14
ATOM     14  C   UNL     1     161.785 174.840 180.315  1.00  0.00     0.053 C 
BRANCH  14  15
ATOM     15  C   UNL     1     160.797 174.258 179.349  1.00  0.00     0.041 C 
ATOM     16  O   UNL     1     160.438 174.914 178.335  1.00  0.00    -0.550 OA
ATOM     17  O   UNL     1     160.293 172.982 179.557  1.00  0.00    -0.550 OA
ENDBRANCH  14  15
ENDBRANCH  13  14
ENDBRANCH  12  13
ENDBRANCH  11  12
ENDBRANCH  10  11
ENDBRANCH   9  10
ENDBRANCH   8   9
ENDBRANCH   7   8
ENDBRANCH   6   7
ENDBRANCH   5   6
ENDBRANCH   4   5
ENDBRANCH   3   4
ENDBRANCH   2   3
ENDBRANCH   1   2
BRANCH   1  18
ATOM     18  C   UNL     1     170.291 177.174 182.664  1.00  0.00     0.000 C 
BRANCH  18  19
ATOM     19  C   UNL     1     170.196 178.658 182.273  1.00  0.00     0.000 C 
BRANCH  19  20
ATOM     20  C   UNL     1     170.962 178.977 180.978  1.00  0.00     0.000 C 
BRANCH  20  21
ATOM     21  C   UNL     1     172.247 179.788 181.226  1.00  0.00     0.000 C 
BRANCH  21  22
ATOM     22  C   UNL     1     173.480 179.310 180.438  1.00  0.00     0.000 C 
BRANCH  22  23
ATOM     23  C   UNL     1     174.063 177.994 180.982  1.00  0.00     0.000 C 
BRANCH  23  24
ATOM     24  C   UNL     1     175.464 178.178 181.587  1.00  0.00    -0.000 C 
BRANCH  24  25
ATOM     25  C   UNL     1     176.098 179.528 181.198  1.00  0.00    -0.000 C 
BRANCH  25  26
ATOM     26  C   UNL     1     177.298 179.364 180.253  1.00  0.00    -0.000 C 
BRANCH  26  27
ATOM     27  C   UNL     1     176.963 179.744 178.800  1.00  0.00    -0.000 C 
BRANCH  27  28
ATOM     28  C   UNL     1     176.503 178.538 177.964  1.00  0.00    -0.000 C 
BRANCH  28  29
ATOM     29  C   UNL     1     177.186 177.227 178.392  1.00  0.00    -0.000 C 
BRANCH  29  30
ATOM     30  C   UNL     1     176.197 176.055 178.503  1.00  0.00    -0.000 C 
BRANCH  30  31
ATOM     31  C   UNL     1     176.434 175.192 179.751  1.00  0.00    -0.003 C 
ATOM     32  C   UNL     1     177.840 175.405 180.307  1.00  0.00     0.004 C 
ENDBRANCH  30  31
ENDBRANCH  29  30
ENDBRANCH  28  29
ENDBRANCH  27  28
ENDBRANCH  26  27
ENDBRANCH  25  26
ENDBRANCH  24  25
ENDBRANCH  23  24
ENDBRANCH  22  23
ENDBRANCH  21  22
ENDBRANCH  20  21
ENDBRANCH  19  20
ENDBRANCH  18  19
ENDBRANCH   1  18
TORSDOF 28
ENDMDL
MODEL 2
REMARK VINA RESULT:    -4.757      6.552      9.541
REMARK INTER + INTRA:         -16.289
REMARK INTER:                 -10.444
REMARK INTRA:                  -5.845
REMARK UNBOUND:                -3.745
REMARK SMILES CCCCCCCCCCCCCCCCCCCCCCCCCCCCCC(=O)[O-]
REMARK SMILES IDX 16 1 17 2 18 3 19 4 20 5 21 6 22 7 23 8 24 9 25 10 26 11
REMARK SMILES IDX 27 12 28 13 29 14 30 15 31 16 32 17 15 18 14 19 13 20 12 21
REMARK SMILES IDX 11 22 10 23 9 24 8 25 7 26 6 27 5 28 4 29 3 30 2 31 1 32
REMARK H PARENT
REMARK Flexibility Score: inf
ROOT
ATOM      1  C   UNL     1     170.112 177.167 182.487  1.00  0.00     0.000 C 
ENDROOT
BRANCH   1   2
ATOM      2  C   UNL     1     171.385 176.312 182.334  1.00  0.00     0.000 C 
BRANCH   2   3
ATOM      3  C   UNL     1     171.185 174.936 181.670  1.00  0.00     0.000 C 
BRANCH   3   4
ATOM      4  C   UNL     1     172.046 174.743 180.410  1.00  0.00     0.000 C 
BRANCH   4   5
ATOM      5  C   UNL     1     171.415 175.371 179.156  1.00  0.00     0.000 C 
BRANCH   5   6
ATOM      6  C   UNL     1     172.431 176.058 178.219  1.00  0.00     0.000 C 
BRANCH   6   7
ATOM      7  C   UNL     1     173.068 175.068 177.226  1.00  0.00     0.000 C 
BRANCH   7   8
ATOM      8  C   UNL     1     174.591 175.246 177.114  1.00  0.00     0.000 C 
BRANCH   8   9
ATOM      9  C   UNL     1     175.227 175.731 178.426  1.00  0.00     0.000 C 
BRANCH   9  10
ATOM     10  C   UNL     1     176.753 175.561 178.396  1.00  0.00     0.000 C 
BRANCH  10  11
ATOM     11  C   UNL     1     177.298 174.814 179.626  1.00  0.00     0.000 C 
BRANCH  11  12
ATOM     12  C   UNL     1     176.249 174.026 180.430  1.00  0.00     0.000 C 
BRANCH  12  13
ATOM     13  C   UNL     1     176.588 172.530 180.551  1.00  0.00     0.006 C 
BRANCH  13  14
ATOM     14  C   UNL     1     177.838 172.286 181.406  1.00  0.00     0.053 C 
BRANCH  14  15
ATOM     15  C   UNL     1     178.880 171.509 180.660  1.00  0.00     0.041 C 
ATOM     16  O   UNL     1     179.451 170.526 181.204  1.00  0.00    -0.550 OA
ATOM     17  O   UNL     1     179.202 171.855 179.356  1.00  0.00    -0.550 OA
ENDBRANCH  14  15
ENDBRANCH  13  14
ENDBRANCH  12  13
ENDBRANCH  11  12
ENDBRANCH  10  11
ENDBRANCH   9  10
ENDBRANCH   8   9
ENDBRANCH   7   8
ENDBRANCH   6   7
ENDBRANCH   5   6
ENDBRANCH   4   5
ENDBRANCH   3   4
ENDBRANCH   2   3
ENDBRANCH   1   2
BRANCH   1  18
ATOM     18  C   UNL     1     170.292 178.613 181.989  1.00  0.00     0.000 C 
BRANCH  18  19
ATOM     19  C   UNL     1     171.363 178.731 180.892  1.00  0.00     0.000 C 
BRANCH  19  20
ATOM     20  C   UNL     1     172.355 179.876 181.158  1.00  0.00     0.000 C 
BRANCH  20  21
ATOM     21  C   UNL     1     173.820 179.405 181.191  1.00  0.00     0.000 C 
BRANCH  21  22
ATOM     22  C   UNL     1     174.030 177.908 180.902  1.00  0.00     0.000 C 
BRANCH  22  23
ATOM     23  C   UNL     1     175.259 177.327 181.624  1.00  0.00     0.000 C 
BRANCH  23  24
ATOM     24  C   UNL     1     176.322 178.395 181.923  1.00  0.00    -0.000 C 
BRANCH  24  25
ATOM     25  C   UNL     1     177.447 178.415 180.870  1.00  0.00    -0.000 C 
BRANCH  25  26
ATOM     26  C   UNL     1     177.457 179.708 180.042  1.00  0.00    -0.000 C 
BRANCH  26  27
ATOM     27  C   UNL     1     177.077 179.472 178.569  1.00  0.00    -0.000 C 
BRANCH  27  28
ATOM     28  C   UNL     1     175.681 180.016 178.223  1.00  0.00    -0.000 C 
BRANCH  28  29
ATOM     29  C   UNL     1     174.834 179.006 177.428  1.00  0.00    -0.000 C 
BRANCH  29  30
ATOM     30  C   UNL     1     173.335 179.345 177.453  1.00  0.00    -0.000 C 
BRANCH  30  31
ATOM     31  C   UNL     1     172.727 179.457 176.046  1.00  0.00    -0.003 C 
ATOM     32  C   UNL     1     173.684 178.913 174.989  1.00  0.00     0.004 C 
ENDBRANCH  30  31
ENDBRANCH  29  30
ENDBRANCH  28  29
ENDBRANCH  27  28
ENDBRANCH  26  27
ENDBRANCH  25  26
ENDBRANCH  24  25
ENDBRANCH  23  24
ENDBRANCH  22  23
ENDBRANCH  21  22
ENDBRANCH  20  21
ENDBRANCH  19  20
ENDBRANCH  18  19
ENDBRANCH   1  18
TORSDOF 28
ENDMDL
MODEL 3
REMARK VINA RESULT:    -4.683      5.760     10.913
REMARK INTER + INTRA:         -16.094
REMARK INTER:                 -10.690
REMARK INTRA:                  -5.404
REMARK UNBOUND:                -3.745
REMARK SMILES CCCCCCCCCCCCCCCCCCCCCCCCCCCCCC(=O)[O-]
REMARK SMILES IDX 16 1 17 2 18 3 19 4 20 5 21 6 22 7 23 8 24 9 25 10 26 11
REMARK SMILES IDX 27 12 28 13 29 14 30 15 31 16 32 17 15 18 14 19 13 20 12 21
REMARK SMILES IDX 11 22 10 23 9 24 8 25 7 26 6 27 5 28 4 29 3 30 2 31 1 32
REMARK H PARENT
REMARK Flexibility Score: inf
ROOT
ATOM      1  C   UNL     1     163.582 175.952 180.814  1.00  0.00     0.000 C 
ENDROOT
BRANCH   1   2
ATOM      2  C   UNL     1     162.091 176.342 180.837  1.00  0.00     0.000 C 
BRANCH   2   3
ATOM      3  C   UNL     1     161.770 177.704 181.484  1.00  0.00     0.000 C 
BRANCH   3   4
ATOM      4  C   UNL     1     162.949 178.690 181.432  1.00  0.00     0.000 C 
BRANCH   4   5
ATOM      5  C   UNL     1     162.526 180.100 180.983  1.00  0.00     0.000 C 
BRANCH   5   6
ATOM      6  C   UNL     1     161.408 180.111 179.920  1.00  0.00     0.000 C 
BRANCH   6   7
ATOM      7  C   UNL     1     161.963 179.982 178.490  1.00  0.00     0.000 C 
BRANCH   7   8
ATOM      8  C   UNL     1     161.786 178.568 177.914  1.00  0.00     0.000 C 
BRANCH   8   9
ATOM      9  C   UNL     1     163.123 177.913 177.537  1.00  0.00     0.000 C 
BRANCH   9  10
ATOM     10  C   UNL     1     164.287 178.901 177.704  1.00  0.00     0.000 C 
BRANCH  10  11
ATOM     11  C   UNL     1     165.514 178.275 178.391  1.00  0.00     0.000 C 
BRANCH  11  12
ATOM     12  C   UNL     1     166.025 179.031 179.631  1.00  0.00     0.000 C 
BRANCH  12  13
ATOM     13  C   UNL     1     167.040 178.217 180.450  1.00  0.00     0.006 C 
BRANCH  13  14
ATOM     14  C   UNL     1     166.945 176.713 180.163  1.00  0.00     0.053 C 
BRANCH  14  15
ATOM     15  C   UNL     1     167.987 175.936 180.909  1.00  0.00     0.041 C 
ATOM     16  O   UNL     1     169.075 176.482 181.235  1.00  0.00    -0.550 OA
ATOM     17  O   UNL     1     167.746 174.616 181.264  1.00  0.00    -0.550 OA
ENDBRANCH  14  15
ENDBRANCH  13  14
ENDBRANCH  12  13
ENDBRANCH  11  12
ENDBRANCH  10  11
ENDBRANCH   9  10
ENDBRANCH   8   9
ENDBRANCH   7   8
ENDBRANCH   6   7
ENDBRANCH   5   6
ENDBRANCH   4   5
ENDBRANCH   3   4
ENDBRANCH   2   3
ENDBRANCH   1   2
BRANCH   1  18
ATOM     18  C   UNL     1     163.936 174.859 181.839  1.00  0.00     0.000 C 
BRANCH  18  19
ATOM     19  C   UNL     1     164.215 173.499 181.180  1.00  0.00     0.000 C 
BRANCH  19  20
ATOM     20  C   UNL     1     163.508 172.338 181.901  1.00  0.00     0.000 C 
BRANCH  20  21
ATOM     21  C   UNL     1     162.279 172.793 182.709  1.00  0.00     0.000 C 
BRANCH  21  22
ATOM     22  C   UNL     1     160.933 172.668 181.973  1.00  0.00     0.000 C 
BRANCH  22  23
ATOM     23  C   UNL     1     160.902 171.491 180.982  1.00  0.00     0.000 C 
BRANCH  23  24
ATOM     24  C   UNL     1     160.652 171.948 179.536  1.00  0.00    -0.000 C 
BRANCH  24  25
ATOM     25  C   UNL     1     160.637 173.482 179.399  1.00  0.00    -0.000 C 
BRANCH  25  26
ATOM     26  C   UNL     1     161.475 173.976 178.211  1.00  0.00    -0.000 C 
BRANCH  26  27
ATOM     27  C   UNL     1     160.624 174.675 177.135  1.00  0.00    -0.000 C 
BRANCH  27  28
ATOM     28  C   UNL     1     161.432 175.020 175.873  1.00  0.00    -0.000 C 
BRANCH  28  29
ATOM     29  C   UNL     1     160.714 176.042 174.974  1.00  0.00    -0.000 C 
BRANCH  29  30
ATOM     30  C   UNL     1     161.217 176.005 173.522  1.00  0.00    -0.000 C 
BRANCH  30  31
ATOM     31  C   UNL     1     161.682 177.380 173.018  1.00  0.00    -0.003 C 
ATOM     32  C   UNL     1     162.806 177.933 173.890  1.00  0.00     0.004 C 
ENDBRANCH  30  31
ENDBRANCH  29  30
ENDBRANCH  28  29
ENDBRANCH  27  28
ENDBRANCH  26  27
ENDBRANCH  25  26
ENDBRANCH  24  25
ENDBRANCH  23  24
ENDBRANCH  22  23
ENDBRANCH  21  22
ENDBRANCH  20  21
ENDBRANCH  19  20
ENDBRANCH  18  19
ENDBRANCH   1  18
TORSDOF 28
ENDMDL
MODEL 4
REMARK VINA RESULT:    -4.627      3.926     11.838
REMARK INTER + INTRA:         -15.945
REMARK INTER:                 -12.133
REMARK INTRA:                  -3.811
REMARK UNBOUND:                -3.745
REMARK SMILES CCCCCCCCCCCCCCCCCCCCCCCCCCCCCC(=O)[O-]
REMARK SMILES IDX 16 1 17 2 18 3 19 4 20 5 21 6 22 7 23 8 24 9 25 10 26 11
REMARK SMILES IDX 27 12 28 13 29 14 30 15 31 16 32 17 15 18 14 19 13 20 12 21
REMARK SMILES IDX 11 22 10 23 9 24 8 25 7 26 6 27 5 28 4 29 3 30 2 31 1 32
REMARK H PARENT
REMARK Flexibility Score: inf
ROOT
ATOM      1  C   UNL     1     167.002 177.159 179.802  1.00  0.00     0.000 C 
ENDROOT
BRANCH   1   2
ATOM      2  C   UNL     1     168.218 177.085 180.745  1.00  0.00     0.000 C 
BRANCH   2   3
ATOM      3  C   UNL     1     168.837 178.439 181.140  1.00  0.00     0.000 C 
BRANCH   3   4
ATOM      4  C   UNL     1     170.092 178.298 182.018  1.00  0.00     0.000 C 
BRANCH   4   5
ATOM      5  C   UNL     1     170.973 177.106 181.610  1.00  0.00     0.000 C 
BRANCH   5   6
ATOM      6  C   UNL     1     172.472 177.450 181.478  1.00  0.00     0.000 C 
BRANCH   6   7
ATOM      7  C   UNL     1     172.709 178.693 180.602  1.00  0.00     0.000 C 
BRANCH   7   8
ATOM      8  C   UNL     1     173.980 179.461 181.001  1.00  0.00     0.000 C 
BRANCH   8   9
ATOM      9  C   UNL     1     175.175 178.530 181.258  1.00  0.00     0.000 C 
BRANCH   9  10
ATOM     10  C   UNL     1     176.484 179.328 181.354  1.00  0.00     0.000 C 
BRANCH  10  11
ATOM     11  C   UNL     1     177.346 179.225 180.083  1.00  0.00     0.000 C 
BRANCH  11  12
ATOM     12  C   UNL     1     176.884 180.104 178.908  1.00  0.00     0.000 C 
BRANCH  12  13
ATOM     13  C   UNL     1     176.667 179.304 177.612  1.00  0.00     0.006 C 
BRANCH  13  14
ATOM     14  C   UNL     1     175.356 178.508 177.635  1.00  0.00     0.053 C 
BRANCH  14  15
ATOM     15  C   UNL     1     174.307 179.137 176.768  1.00  0.00     0.041 C 
ATOM     16  O   UNL     1     174.284 178.907 175.530  1.00  0.00    -0.550 OA
ATOM     17  O   UNL     1     173.340 179.956 177.334  1.00  0.00    -0.550 OA
ENDBRANCH  14  15
ENDBRANCH  13  14
ENDBRANCH  12  13
ENDBRANCH  11  12
ENDBRANCH  10  11
ENDBRANCH   9  10
ENDBRANCH   8   9
ENDBRANCH   7   8
ENDBRANCH   6   7
ENDBRANCH   5   6
ENDBRANCH   4   5
ENDBRANCH   3   4
ENDBRANCH   2   3
ENDBRANCH   1   2
BRANCH   1  18
ATOM     18  C   UNL     1     166.618 178.602 179.424  1.00  0.00     0.000 C 
BRANCH  18  19
ATOM     19  C   UNL     1     165.301 178.676 178.635  1.00  0.00     0.000 C 
BRANCH  19  20
ATOM     20  C   UNL     1     164.200 179.436 179.394  1.00  0.00     0.000 C 
BRANCH  20  21
ATOM     21  C   UNL     1     164.478 179.543 180.905  1.00  0.00     0.000 C 
BRANCH  21  22
ATOM     22  C   UNL     1     163.327 179.075 181.814  1.00  0.00     0.000 C 
BRANCH  22  23
ATOM     23  C   UNL     1     162.082 178.638 181.022  1.00  0.00     0.000 C 
BRANCH  23  24
ATOM     24  C   UNL     1     161.721 177.164 181.263  1.00  0.00    -0.000 C 
BRANCH  24  25
ATOM     25  C   UNL     1     161.892 176.303 179.996  1.00  0.00    -0.000 C 
BRANCH  25  26
ATOM     26  C   UNL     1     163.331 175.797 179.816  1.00  0.00    -0.000 C 
BRANCH  26  27
ATOM     27  C   UNL     1     164.034 175.523 181.157  1.00  0.00    -0.000 C 
BRANCH  27  28
ATOM     28  C   UNL     1     164.722 174.148 181.195  1.00  0.00    -0.000 C 
BRANCH  28  29
ATOM     29  C   UNL     1     163.717 172.987 181.291  1.00  0.00    -0.000 C 
BRANCH  29  30
ATOM     30  C   UNL     1     162.731 173.156 182.459  1.00  0.00    -0.000 C 
BRANCH  30  31
ATOM     31  C   UNL     1     161.358 172.527 182.176  1.00  0.00    -0.003 C 
ATOM     32  C   UNL     1     160.955 172.723 180.717  1.00  0.00     0.004 C 
ENDBRANCH  30  31
ENDBRANCH  29  30
ENDBRANCH  28  29
ENDBRANCH  27  28
ENDBRANCH  26  27
ENDBRANCH  25  26
ENDBRANCH  24  25
ENDBRANCH  23  24
ENDBRANCH  22  23
ENDBRANCH  21  22
ENDBRANCH  20  21
ENDBRANCH  19  20
ENDBRANCH  18  19
ENDBRANCH   1  18
TORSDOF 28
ENDMDL
MODEL 5
REMARK VINA RESULT:    -4.624      4.569     11.892
REMARK INTER + INTRA:         -15.937
REMARK INTER:                 -11.799
REMARK INTRA:                  -4.137
REMARK UNBOUND:                -3.745
REMARK SMILES CCCCCCCCCCCCCCCCCCCCCCCCCCCCCC(=O)[O-]
REMARK SMILES IDX 16 1 17 2 18 3 19 4 20 5 21 6 22 7 23 8 24 9 25 10 26 11
REMARK SMILES IDX 27 12 28 13 29 14 30 15 31 16 32 17 15 18 14 19 13 20 12 21
REMARK SMILES IDX 11 22 10 23 9 24 8 25 7 26 6 27 5 28 4 29 3 30 2 31 1 32
REMARK H PARENT
REMARK Flexibility Score: inf
ROOT
ATOM      1  C   UNL     1     165.042 175.734 180.837  1.00  0.00     0.000 C 
ENDROOT
BRANCH   1   2
ATOM      2  C   UNL     1     165.261 176.382 179.456  1.00  0.00     0.000 C 
BRANCH   2   3
ATOM      3  C   UNL     1     166.732 176.596 179.048  1.00  0.00     0.000 C 
BRANCH   3   4
ATOM      4  C   UNL     1     167.220 178.036 179.279  1.00  0.00     0.000 C 
BRANCH   4   5
ATOM      5  C   UNL     1     167.973 178.204 180.609  1.00  0.00     0.000 C 
BRANCH   5   6
ATOM      6  C   UNL     1     168.826 176.980 181.006  1.00  0.00     0.000 C 
BRANCH   6   7
ATOM      7  C   UNL     1     169.997 177.361 181.929  1.00  0.00     0.000 C 
BRANCH   7   8
ATOM      8  C   UNL     1     170.018 178.861 182.265  1.00  0.00     0.000 C 
BRANCH   8   9
ATOM      9  C   UNL     1     171.351 179.529 181.895  1.00  0.00     0.000 C 
BRANCH   9  10
ATOM     10  C   UNL     1     172.247 178.569 181.099  1.00  0.00     0.000 C 
BRANCH  10  11
ATOM     11  C   UNL     1     173.454 179.271 180.451  1.00  0.00     0.000 C 
BRANCH  11  12
ATOM     12  C   UNL     1     174.809 178.998 181.129  1.00  0.00     0.000 C 
BRANCH  12  13
ATOM     13  C   UNL     1     175.822 178.322 180.189  1.00  0.00     0.006 C 
BRANCH  13  14
ATOM     14  C   UNL     1     175.329 178.284 178.737  1.00  0.00     0.053 C 
BRANCH  14  15
ATOM     15  C   UNL     1     176.397 178.711 177.775  1.00  0.00     0.041 C 
ATOM     16  O   UNL     1     177.515 179.105 178.201  1.00  0.00    -0.550 OA
ATOM     17  O   UNL     1     176.165 178.648 176.408  1.00  0.00    -0.550 OA
ENDBRANCH  14  15
ENDBRANCH  13  14
ENDBRANCH  12  13
ENDBRANCH  11  12
ENDBRANCH  10  11
ENDBRANCH   9  10
ENDBRANCH   8   9
ENDBRANCH   7   8
ENDBRANCH   6   7
ENDBRANCH   5   6
ENDBRANCH   4   5
ENDBRANCH   3   4
ENDBRANCH   2   3
ENDBRANCH   1   2
BRANCH   1  18
ATOM     18  C   UNL     1     164.167 176.589 181.772  1.00  0.00     0.000 C 
BRANCH  18  19
ATOM     19  C   UNL     1     164.351 178.097 181.541  1.00  0.00     0.000 C 
BRANCH  19  20
ATOM     20  C   UNL     1     163.105 178.911 181.930  1.00  0.00     0.000 C 
BRANCH  20  21
ATOM     21  C   UNL     1     162.491 179.673 180.741  1.00  0.00     0.000 C 
BRANCH  21  22
ATOM     22  C   UNL     1     163.389 179.768 179.495  1.00  0.00     0.000 C 
BRANCH  22  23
ATOM     23  C   UNL     1     162.833 178.978 178.297  1.00  0.00     0.000 C 
BRANCH  23  24
ATOM     24  C   UNL     1     161.661 178.064 178.690  1.00  0.00    -0.000 C 
BRANCH  24  25
ATOM     25  C   UNL     1     161.794 176.649 178.094  1.00  0.00    -0.000 C 
BRANCH  25  26
ATOM     26  C   UNL     1     161.576 175.546 179.141  1.00  0.00    -0.000 C 
BRANCH  26  27
ATOM     27  C   UNL     1     161.164 176.106 180.514  1.00  0.00    -0.000 C 
BRANCH  27  28
ATOM     28  C   UNL     1     160.387 175.083 181.361  1.00  0.00    -0.000 C 
BRANCH  28  29
ATOM     29  C   UNL     1     160.840 173.636 181.100  1.00  0.00    -0.000 C 
BRANCH  29  30
ATOM     30  C   UNL     1     161.255 172.907 182.389  1.00  0.00    -0.000 C 
BRANCH  30  31
ATOM     31  C   UNL     1     162.646 172.263 182.287  1.00  0.00    -0.003 C 
ATOM     32  C   UNL     1     163.671 173.035 183.113  1.00  0.00     0.004 C 
ENDBRANCH  30  31
ENDBRANCH  29  30
ENDBRANCH  28  29
ENDBRANCH  27  28
ENDBRANCH  26  27
ENDBRANCH  25  26
ENDBRANCH  24  25
ENDBRANCH  23  24
ENDBRANCH  22  23
ENDBRANCH  21  22
ENDBRANCH  20  21
ENDBRANCH  19  20
ENDBRANCH  18  19
ENDBRANCH   1  18
TORSDOF 28
ENDMDL
MODEL 6
REMARK VINA RESULT:    -4.591      3.749     11.439
REMARK INTER + INTRA:         -15.851
REMARK INTER:                 -11.834
REMARK INTRA:                  -4.017
REMARK UNBOUND:                -3.745
REMARK SMILES CCCCCCCCCCCCCCCCCCCCCCCCCCCCCC(=O)[O-]
REMARK SMILES IDX 16 1 17 2 18 3 19 4 20 5 21 6 22 7 23 8 24 9 25 10 26 11
REMARK SMILES IDX 27 12 28 13 29 14 30 15 31 16 32 17 15 18 14 19 13 20 12 21
REMARK SMILES IDX 11 22 10 23 9 24 8 25 7 26 6 27 5 28 4 29 3 30 2 31 1 32
REMARK H PARENT
REMARK Flexibility Score: inf
ROOT
ATOM      1  C   UNL     1     168.868 177.471 180.081  1.00  0.00     0.000 C 
ENDROOT
BRANCH   1   2
ATOM      2  C   UNL     1     169.173 177.437 181.591  1.00  0.00     0.000 C 
BRANCH   2   3
ATOM      3  C   UNL     1     170.301 178.375 182.062  1.00  0.00     0.000 C 
BRANCH   3   4
ATOM      4  C   UNL     1     171.360 178.639 180.978  1.00  0.00     0.000 C 
BRANCH   4   5
ATOM      5  C   UNL     1     172.279 179.825 181.320  1.00  0.00     0.000 C 
BRANCH   5   6
ATOM      6  C   UNL     1     173.774 179.558 181.049  1.00  0.00     0.000 C 
BRANCH   6   7
ATOM      7  C   UNL     1     174.135 178.068 181.195  1.00  0.00     0.000 C 
BRANCH   7   8
ATOM      8  C   UNL     1     175.649 177.841 181.341  1.00  0.00     0.000 C 
BRANCH   8   9
ATOM      9  C   UNL     1     176.394 179.104 181.799  1.00  0.00     0.000 C 
BRANCH   9  10
ATOM     10  C   UNL     1     177.329 179.623 180.697  1.00  0.00     0.000 C 
BRANCH  10  11
ATOM     11  C   UNL     1     177.189 178.847 179.375  1.00  0.00     0.000 C 
BRANCH  11  12
ATOM     12  C   UNL     1     176.765 179.693 178.162  1.00  0.00     0.000 C 
BRANCH  12  13
ATOM     13  C   UNL     1     175.960 178.891 177.125  1.00  0.00     0.006 C 
BRANCH  13  14
ATOM     14  C   UNL     1     174.575 178.491 177.650  1.00  0.00     0.053 C 
BRANCH  14  15
ATOM     15  C   UNL     1     173.482 179.273 176.986  1.00  0.00     0.041 C 
ATOM     16  O   UNL     1     173.524 179.498 175.747  1.00  0.00    -0.550 OA
ATOM     17  O   UNL     1     172.405 179.730 177.733  1.00  0.00    -0.550 OA
ENDBRANCH  14  15
ENDBRANCH  13  14
ENDBRANCH  12  13
ENDBRANCH  11  12
ENDBRANCH  10  11
ENDBRANCH   9  10
ENDBRANCH   8   9
ENDBRANCH   7   8
ENDBRANCH   6   7
ENDBRANCH   5   6
ENDBRANCH   4   5
ENDBRANCH   3   4
ENDBRANCH   2   3
ENDBRANCH   1   2
BRANCH   1  18
ATOM     18  C   UNL     1     167.897 178.599 179.686  1.00  0.00     0.000 C 
BRANCH  18  19
ATOM     19  C   UNL     1     166.554 178.510 180.429  1.00  0.00     0.000 C 
BRANCH  19  20
ATOM     20  C   UNL     1     165.768 179.832 180.388  1.00  0.00     0.000 C 
BRANCH  20  21
ATOM     21  C   UNL     1     164.248 179.622 180.262  1.00  0.00     0.000 C 
BRANCH  21  22
ATOM     22  C   UNL     1     163.518 179.332 181.586  1.00  0.00     0.000 C 
BRANCH  22  23
ATOM     23  C   UNL     1     162.270 178.451 181.398  1.00  0.00     0.000 C 
BRANCH  23  24
ATOM     24  C   UNL     1     162.625 177.005 181.017  1.00  0.00    -0.000 C 
BRANCH  24  25
ATOM     25  C   UNL     1     161.497 176.312 180.229  1.00  0.00    -0.000 C 
BRANCH  25  26
ATOM     26  C   UNL     1     161.820 176.176 178.733  1.00  0.00    -0.000 C 
BRANCH  26  27
ATOM     27  C   UNL     1     161.621 177.492 177.961  1.00  0.00    -0.000 C 
BRANCH  27  28
ATOM     28  C   UNL     1     162.928 178.024 177.351  1.00  0.00    -0.000 C 
BRANCH  28  29
ATOM     29  C   UNL     1     163.885 176.896 176.928  1.00  0.00    -0.000 C 
BRANCH  29  30
ATOM     30  C   UNL     1     165.332 177.148 177.385  1.00  0.00    -0.000 C 
BRANCH  30  31
ATOM     31  C   UNL     1     166.044 175.865 177.841  1.00  0.00    -0.003 C 
ATOM     32  C   UNL     1     165.418 175.315 179.120  1.00  0.00     0.004 C 
ENDBRANCH  30  31
ENDBRANCH  29  30
ENDBRANCH  28  29
ENDBRANCH  27  28
ENDBRANCH  26  27
ENDBRANCH  25  26
ENDBRANCH  24  25
ENDBRANCH  23  24
ENDBRANCH  22  23
ENDBRANCH  21  22
ENDBRANCH  20  21
ENDBRANCH  19  20
ENDBRANCH  18  19
ENDBRANCH   1  18
TORSDOF 28
ENDMDL
MODEL 7
REMARK VINA RESULT:    -4.578      3.892      8.393
REMARK INTER + INTRA:         -15.816
REMARK INTER:                 -10.006
REMARK INTRA:                  -5.810
REMARK UNBOUND:                -3.745
REMARK SMILES CCCCCCCCCCCCCCCCCCCCCCCCCCCCCC(=O)[O-]
REMARK SMILES IDX 16 1 17 2 18 3 19 4 20 5 21 6 22 7 23 8 24 9 25 10 26 11
REMARK SMILES IDX 27 12 28 13 29 14 30 15 31 16 32 17 15 18 14 19 13 20 12 21
REMARK SMILES IDX 11 22 10 23 9 24 8 25 7 26 6 27 5 28 4 29 3 30 2 31 1 32
REMARK H PARENT
REMARK Flexibility Score: inf
ROOT
ATOM      1  C   UNL     1     162.859 176.681 177.766  1.00  0.00     0.000 C 
ENDROOT
BRANCH   1   2
ATOM      2  C   UNL     1     162.674 175.569 178.817  1.00  0.00     0.000 C 
BRANCH   2   3
ATOM      3  C   UNL     1     161.345 175.605 179.596  1.00  0.00     0.000 C 
BRANCH   3   4
ATOM      4  C   UNL     1     161.493 175.177 181.065  1.00  0.00     0.000 C 
BRANCH   4   5
ATOM      5  C   UNL     1     162.812 174.435 181.340  1.00  0.00     0.000 C 
BRANCH   5   6
ATOM      6  C   UNL     1     162.643 173.130 182.145  1.00  0.00     0.000 C 
BRANCH   6   7
ATOM      7  C   UNL     1     161.237 172.524 181.982  1.00  0.00     0.000 C 
BRANCH   7   8
ATOM      8  C   UNL     1     161.212 171.352 180.988  1.00  0.00     0.000 C 
BRANCH   8   9
ATOM      9  C   UNL     1     160.477 171.700 179.684  1.00  0.00     0.000 C 
BRANCH   9  10
ATOM     10  C   UNL     1     161.465 172.141 178.595  1.00  0.00     0.000 C 
BRANCH  10  11
ATOM     11  C   UNL     1     162.719 171.250 178.524  1.00  0.00     0.000 C 
BRANCH  11  12
ATOM     12  C   UNL     1     164.034 171.995 178.237  1.00  0.00     0.000 C 
BRANCH  12  13
ATOM     13  C   UNL     1     164.980 172.025 179.450  1.00  0.00     0.006 C 
BRANCH  13  14
ATOM     14  C   UNL     1     165.780 173.332 179.530  1.00  0.00     0.053 C 
BRANCH  14  15
ATOM     15  C   UNL     1     166.380 173.536 180.888  1.00  0.00     0.041 C 
ATOM     16  O   UNL     1     166.131 172.728 181.821  1.00  0.00    -0.550 OA
ATOM     17  O   UNL     1     167.235 174.606 181.114  1.00  0.00    -0.550 OA
ENDBRANCH  14  15
ENDBRANCH  13  14
ENDBRANCH  12  13
ENDBRANCH  11  12
ENDBRANCH  10  11
ENDBRANCH   9  10
ENDBRANCH   8   9
ENDBRANCH   7   8
ENDBRANCH   6   7
ENDBRANCH   5   6
ENDBRANCH   4   5
ENDBRANCH   3   4
ENDBRANCH   2   3
ENDBRANCH   1   2
BRANCH   1  18
ATOM     18  C   UNL     1     161.828 177.816 177.901  1.00  0.00     0.000 C 
BRANCH  18  19
ATOM     19  C   UNL     1     162.474 179.210 177.853  1.00  0.00     0.000 C 
BRANCH  19  20
ATOM     20  C   UNL     1     162.066 180.091 179.046  1.00  0.00     0.000 C 
BRANCH  20  21
ATOM     21  C   UNL     1     161.668 179.273 180.288  1.00  0.00     0.000 C 
BRANCH  21  22
ATOM     22  C   UNL     1     162.398 179.663 181.586  1.00  0.00     0.000 C 
BRANCH  22  23
ATOM     23  C   UNL     1     163.900 179.329 181.549  1.00  0.00     0.000 C 
BRANCH  23  24
ATOM     24  C   UNL     1     164.163 177.816 181.486  1.00  0.00    -0.000 C 
BRANCH  24  25
ATOM     25  C   UNL     1     165.283 177.455 180.491  1.00  0.00    -0.000 C 
BRANCH  25  26
ATOM     26  C   UNL     1     165.706 178.649 179.622  1.00  0.00    -0.000 C 
BRANCH  26  27
ATOM     27  C   UNL     1     167.205 178.973 179.748  1.00  0.00    -0.000 C 
BRANCH  27  28
ATOM     28  C   UNL     1     167.955 177.966 180.636  1.00  0.00    -0.000 C 
BRANCH  28  29
ATOM     29  C   UNL     1     169.010 178.640 181.532  1.00  0.00    -0.000 C 
BRANCH  29  30
ATOM     30  C   UNL     1     170.416 178.050 181.334  1.00  0.00    -0.000 C 
BRANCH  30  31
ATOM     31  C   UNL     1     170.846 178.018 179.859  1.00  0.00    -0.003 C 
ATOM     32  C   UNL     1     171.131 179.425 179.339  1.00  0.00     0.004 C 
ENDBRANCH  30  31
ENDBRANCH  29  30
ENDBRANCH  28  29
ENDBRANCH  27  28
ENDBRANCH  26  27
ENDBRANCH  25  26
ENDBRANCH  24  25
ENDBRANCH  23  24
ENDBRANCH  22  23
ENDBRANCH  21  22
ENDBRANCH  20  21
ENDBRANCH  19  20
ENDBRANCH  18  19
ENDBRANCH   1  18
TORSDOF 28
ENDMDL
MODEL 8
REMARK VINA RESULT:    -4.532      1.951      3.812
REMARK INTER + INTRA:         -15.694
REMARK INTER:                 -11.063
REMARK INTRA:                  -4.631
REMARK UNBOUND:                -3.745
REMARK SMILES CCCCCCCCCCCCCCCCCCCCCCCCCCCCCC(=O)[O-]
REMARK SMILES IDX 16 1 17 2 18 3 19 4 20 5 21 6 22 7 23 8 24 9 25 10 26 11
REMARK SMILES IDX 27 12 28 13 29 14 30 15 31 16 32 17 15 18 14 19 13 20 12 21
REMARK SMILES IDX 11 22 10 23 9 24 8 25 7 26 6 27 5 28 4 29 3 30 2 31 1 32
REMARK H PARENT
REMARK Flexibility Score: inf
ROOT
ATOM      1  C   UNL     1     173.135 177.214 181.259  1.00  0.00     0.000 C 
ENDROOT
BRANCH   1   2
ATOM      2  C   UNL     1     171.723 176.763 181.681  1.00  0.00     0.000 C 
BRANCH   2   3
ATOM      3  C   UNL     1     170.720 177.897 181.968  1.00  0.00     0.000 C 
BRANCH   3   4
ATOM      4  C   UNL     1     169.292 177.577 181.494  1.00  0.00     0.000 C 
BRANCH   4   5
ATOM      5  C   UNL     1     168.715 178.660 180.568  1.00  0.00     0.000 C 
BRANCH   5   6
ATOM      6  C   UNL     1     167.871 178.104 179.401  1.00  0.00     0.000 C 
BRANCH   6   7
ATOM      7  C   UNL     1     166.452 177.708 179.847  1.00  0.00     0.000 C 
BRANCH   7   8
ATOM      8  C   UNL     1     165.409 178.789 179.516  1.00  0.00     0.000 C 
BRANCH   8   9
ATOM      9  C   UNL     1     165.103 179.699 180.716  1.00  0.00     0.000 C 
BRANCH   9  10
ATOM     10  C   UNL     1     164.047 179.065 181.633  1.00  0.00     0.000 C 
BRANCH  10  11
ATOM     11  C   UNL     1     162.613 179.209 181.090  1.00  0.00     0.000 C 
BRANCH  11  12
ATOM     12  C   UNL     1     161.799 177.904 181.040  1.00  0.00     0.000 C 
BRANCH  12  13
ATOM     13  C   UNL     1     162.018 177.114 179.739  1.00  0.00     0.006 C 
BRANCH  13  14
ATOM     14  C   UNL     1     161.838 177.989 178.491  1.00  0.00     0.053 C 
BRANCH  14  15
ATOM     15  C   UNL     1     161.540 177.168 177.273  1.00  0.00     0.041 C 
ATOM     16  O   UNL     1     160.638 176.289 177.304  1.00  0.00    -0.550 OA
ATOM     17  O   UNL     1     162.243 177.392 176.098  1.00  0.00    -0.550 OA
ENDBRANCH  14  15
ENDBRANCH  13  14
ENDBRANCH  12  13
ENDBRANCH  11  12
ENDBRANCH  10  11
ENDBRANCH   9  10
ENDBRANCH   8   9
ENDBRANCH   7   8
ENDBRANCH   6   7
ENDBRANCH   5   6
ENDBRANCH   4   5
ENDBRANCH   3   4
ENDBRANCH   2   3
ENDBRANCH   1   2
BRANCH   1  18
ATOM     18  C   UNL     1     173.251 178.739 181.075  1.00  0.00     0.000 C 
BRANCH  18  19
ATOM     19  C   UNL     1     174.711 179.221 181.045  1.00  0.00     0.000 C 
BRANCH  19  20
ATOM     20  C   UNL     1     175.695 178.153 181.551  1.00  0.00     0.000 C 
BRANCH  20  21
ATOM     21  C   UNL     1     177.118 178.336 180.991  1.00  0.00     0.000 C 
BRANCH  21  22
ATOM     22  C   UNL     1     177.693 177.110 180.258  1.00  0.00     0.000 C 
BRANCH  22  23
ATOM     23  C   UNL     1     176.686 175.950 180.157  1.00  0.00     0.000 C 
BRANCH  23  24
ATOM     24  C   UNL     1     176.281 175.650 178.705  1.00  0.00    -0.000 C 
BRANCH  24  25
ATOM     25  C   UNL     1     175.026 176.432 178.272  1.00  0.00    -0.000 C 
BRANCH  25  26
ATOM     26  C   UNL     1     175.299 177.378 177.094  1.00  0.00    -0.000 C 
BRANCH  26  27
ATOM     27  C   UNL     1     175.574 178.823 177.546  1.00  0.00    -0.000 C 
BRANCH  27  28
ATOM     28  C   UNL     1     174.351 179.740 177.376  1.00  0.00    -0.000 C 
BRANCH  28  29
ATOM     29  C   UNL     1     173.440 179.300 176.217  1.00  0.00    -0.000 C 
BRANCH  29  30
ATOM     30  C   UNL     1     171.946 179.431 176.559  1.00  0.00    -0.000 C 
BRANCH  30  31
ATOM     31  C   UNL     1     171.612 178.925 177.970  1.00  0.00    -0.003 C 
ATOM     32  C   UNL     1     171.302 177.430 177.959  1.00  0.00     0.004 C 
ENDBRANCH  30  31
ENDBRANCH  29  30
ENDBRANCH  28  29
ENDBRANCH  27  28
ENDBRANCH  26  27
ENDBRANCH  25  26
ENDBRANCH  24  25
ENDBRANCH  23  24
ENDBRANCH  22  23
ENDBRANCH  21  22
ENDBRANCH  20  21
ENDBRANCH  19  20
ENDBRANCH  18  19
ENDBRANCH   1  18
TORSDOF 28
ENDMDL
MODEL 9
REMARK VINA RESULT:    -4.531      5.379      9.998
REMARK INTER + INTRA:         -15.691
REMARK INTER:                  -9.314
REMARK INTRA:                  -6.377
REMARK UNBOUND:                -3.745
REMARK SMILES CCCCCCCCCCCCCCCCCCCCCCCCCCCCCC(=O)[O-]
REMARK SMILES IDX 16 1 17 2 18 3 19 4 20 5 21 6 22 7 23 8 24 9 25 10 26 11
REMARK SMILES IDX 27 12 28 13 29 14 30 15 31 16 32 17 15 18 14 19 13 20 12 21
REMARK SMILES IDX 11 22 10 23 9 24 8 25 7 26 6 27 5 28 4 29 3 30 2 31 1 32
REMARK H PARENT
REMARK Flexibility Score: inf
ROOT
ATOM      1  C   UNL     1     164.146 174.614 175.406  1.00  0.00     0.000 C 
ENDROOT
BRANCH   1   2
ATOM      2  C   UNL     1     164.823 175.979 175.641  1.00  0.00     0.000 C 
BRANCH   2   3
ATOM      3  C   UNL     1     165.013 176.381 177.116  1.00  0.00     0.000 C 
BRANCH   3   4
ATOM      4  C   UNL     1     163.844 177.210 177.673  1.00  0.00     0.000 C 
BRANCH   4   5
ATOM      5  C   UNL     1     163.811 178.643 177.114  1.00  0.00     0.000 C 
BRANCH   5   6
ATOM      6  C   UNL     1     162.440 179.339 177.253  1.00  0.00     0.000 C 
BRANCH   6   7
ATOM      7  C   UNL     1     161.726 178.962 178.564  1.00  0.00     0.000 C 
BRANCH   7   8
ATOM      8  C   UNL     1     161.980 179.981 179.687  1.00  0.00     0.000 C 
BRANCH   8   9
ATOM      9  C   UNL     1     161.715 179.398 181.083  1.00  0.00     0.000 C 
BRANCH   9  10
ATOM     10  C   UNL     1     163.024 179.238 181.871  1.00  0.00     0.000 C 
BRANCH  10  11
ATOM     11  C   UNL     1     164.266 179.659 181.065  1.00  0.00     0.000 C 
BRANCH  11  12
ATOM     12  C   UNL     1     165.264 178.527 180.764  1.00  0.00     0.000 C 
BRANCH  12  13
ATOM     13  C   UNL     1     166.400 178.966 179.824  1.00  0.00     0.006 C 
BRANCH  13  14
ATOM     14  C   UNL     1     167.780 178.554 180.352  1.00  0.00     0.053 C 
BRANCH  14  15
ATOM     15  C   UNL     1     168.811 178.540 179.263  1.00  0.00     0.041 C 
ATOM     16  O   UNL     1     169.730 179.402 179.247  1.00  0.00    -0.550 OA
ATOM     17  O   UNL     1     168.769 177.560 178.282  1.00  0.00    -0.550 OA
ENDBRANCH  14  15
ENDBRANCH  13  14
ENDBRANCH  12  13
ENDBRANCH  11  12
ENDBRANCH  10  11
ENDBRANCH   9  10
ENDBRANCH   8   9
ENDBRANCH   7   8
ENDBRANCH   6   7
ENDBRANCH   5   6
ENDBRANCH   4   5
ENDBRANCH   3   4
ENDBRANCH   2   3
ENDBRANCH   1   2
BRANCH   1  18
ATOM     18  C   UNL     1     162.956 174.690 174.432  1.00  0.00     0.000 C 
BRANCH  18  19
ATOM     19  C   UNL     1     162.287 176.074 174.423  1.00  0.00     0.000 C 
BRANCH  19  20
ATOM     20  C   UNL     1     160.810 176.018 174.848  1.00  0.00     0.000 C 
BRANCH  20  21
ATOM     21  C   UNL     1     160.623 176.067 176.375  1.00  0.00     0.000 C 
BRANCH  21  22
ATOM     22  C   UNL     1     160.505 174.695 177.062  1.00  0.00     0.000 C 
BRANCH  22  23
ATOM     23  C   UNL     1     161.373 174.585 178.329  1.00  0.00     0.000 C 
BRANCH  23  24
ATOM     24  C   UNL     1     160.549 174.218 179.573  1.00  0.00    -0.000 C 
BRANCH  24  25
ATOM     25  C   UNL     1     160.965 175.033 180.814  1.00  0.00    -0.000 C 
BRANCH  25  26
ATOM     26  C   UNL     1     162.248 175.844 180.583  1.00  0.00    -0.000 C 
BRANCH  26  27
ATOM     27  C   UNL     1     163.392 175.424 181.523  1.00  0.00    -0.000 C 
BRANCH  27  28
ATOM     28  C   UNL     1     164.649 174.972 180.761  1.00  0.00    -0.000 C 
BRANCH  28  29
ATOM     29  C   UNL     1     164.430 173.661 179.985  1.00  0.00    -0.000 C 
BRANCH  29  30
ATOM     30  C   UNL     1     165.575 173.357 179.005  1.00  0.00    -0.000 C 
BRANCH  30  31
ATOM     31  C   UNL     1     166.860 174.132 179.333  1.00  0.00    -0.003 C 
ATOM     32  C   UNL     1     167.948 173.853 178.300  1.00  0.00     0.004 C 
ENDBRANCH  30  31
ENDBRANCH  29  30
ENDBRANCH  28  29
ENDBRANCH  27  28
ENDBRANCH  26  27
ENDBRANCH  25  26
ENDBRANCH  24  25
ENDBRANCH  23  24
ENDBRANCH  22  23
ENDBRANCH  21  22
ENDBRANCH  20  21
ENDBRANCH  19  20
ENDBRANCH  18  19
ENDBRANCH   1  18
TORSDOF 28
ENDMDL
