MODEL 1
REMARK VINA RESULT:    22.043      0.000      0.000
REMARK INTER + INTRA:          26.404
REMARK INTER:                  26.553
REMARK INTRA:                  -0.148
REMARK UNBOUND:                -0.148
REMARK SMILES O=c1c(O)c(-c2ccc(O)c(O)c2)oc2cc(O)cc(O)c12
REMARK SMILES IDX 5 1 3 2 2 3 1 4 22 5 20 6 19 7 17 8 16 9 15 10 14 11 6 12
REMARK SMILES IDX 7 13 8 14 9 15 13 16 11 17 10 18 12 20 4 22 21 24 18 26
REMARK H PARENT 10 19 12 21 4 23 21 25 18 27
REMARK Flexibility Score: inf
ROOT
ATOM      1  C   UNL     1      -6.231   7.262  16.087  1.00  0.00     0.180 A 
ATOM      2  C   UNL     1      -7.054   6.964  14.988  1.00  0.00     0.208 A 
ATOM      3  C   UNL     1      -7.277   5.621  14.646  1.00  0.00     0.238 A 
ATOM      4  O   UNL     1      -8.059   5.359  13.695  1.00  0.00    -0.285 OA
ATOM      5  C   UNL     1      -6.659   4.592  15.398  1.00  0.00     0.111 A 
ATOM      6  C   UNL     1      -6.782   3.198  15.117  1.00  0.00     0.134 A 
ATOM      7  C   UNL     1      -6.235   2.264  16.004  1.00  0.00     0.093 A 
ATOM      8  C   UNL     1      -5.514   2.672  17.126  1.00  0.00     0.123 A 
ATOM      9  C   UNL     1      -5.336   4.034  17.378  1.00  0.00     0.094 A 
ATOM     10  C   UNL     1      -5.902   4.990  16.531  1.00  0.00     0.146 A 
ATOM     11  O   UNL     1      -5.720   6.274  16.811  1.00  0.00    -0.452 OA
ENDROOT
BRANCH   1  12
ATOM     12  C   UNL     1      -5.930   8.654  16.492  1.00  0.00     0.025 A 
ATOM     13  C   UNL     1      -4.618   9.140  16.372  1.00  0.00     0.016 A 
ATOM     14  C   UNL     1      -4.316  10.456  16.728  1.00  0.00     0.051 A 
ATOM     15  C   UNL     1      -5.319  11.311  17.195  1.00  0.00     0.157 A 
ATOM     16  C   UNL     1      -6.942   9.521  16.941  1.00  0.00     0.062 A 
ATOM     17  C   UNL     1      -6.641  10.844  17.298  1.00  0.00     0.158 A 
BRANCH  15  18
ATOM     18  O   UNL     1      -4.987  12.619  17.546  1.00  0.00    -0.504 OA
ATOM     19  H   UNL     1      -5.173  12.993  18.469  1.00  0.00     0.293 HD
ENDBRANCH  15  18
BRANCH  17  20
ATOM     20  O   UNL     1      -7.648  11.694  17.749  1.00  0.00    -0.504 OA
ATOM     21  H   UNL     1      -7.570  12.191  18.630  1.00  0.00     0.293 HD
ENDBRANCH  17  20
ENDBRANCH   1  12
BRANCH   2  22
ATOM     22  O   UNL     1      -7.672   7.995  14.272  1.00  0.00    -0.502 OA
ATOM     23  H   UNL     1      -8.386   8.588  14.678  1.00  0.00     0.293 HD
ENDBRANCH   2  22
BRANCH   6  24
ATOM     24  O   UNL     1      -7.403   2.683  13.974  1.00  0.00    -0.507 OA
ATOM     25  H   UNL     1      -6.932   2.485  13.105  1.00  0.00     0.293 HD
ENDBRANCH   6  24
BRANCH   8  26
ATOM     26  O   UNL     1      -4.969   1.715  17.979  1.00  0.00    -0.508 OA
ATOM     27  H   UNL     1      -5.352   1.547  18.902  1.00  0.00     0.293 HD
ENDBRANCH   8  26
TORSDOF 6
ENDMDL
