MODEL 1
REMARK VINA RESULT:    -5.312      0.000      0.000
REMARK INTER + INTRA:          -6.228
REMARK INTER:                  -6.089
REMARK INTRA:                  -0.139
REMARK UNBOUND:                -0.139
REMARK SMILES O=C([O-])C=Cc1ccc(O)cc1
REMARK SMILES IDX 6 1 7 2 12 3 8 4 11 5 9 6 5 7 4 8 2 9 1 10 3 11 10 12
REMARK H PARENT 10 13
REMARK Flexibility Score: inf
ROOT
ATOM      1  C   UNL     1      28.948  36.785  27.044  1.00  0.00    -0.025 A 
ATOM      2  C   UNL     1      29.156  35.390  27.032  1.00  0.00     0.012 A 
ATOM      3  C   UNL     1      27.931  37.325  26.239  1.00  0.00     0.012 A 
ATOM      4  C   UNL     1      28.346  34.561  26.250  1.00  0.00     0.047 A 
ATOM      5  C   UNL     1      27.123  36.492  25.459  1.00  0.00     0.047 A 
ATOM      6  C   UNL     1      27.326  35.109  25.463  1.00  0.00     0.115 A 
ENDROOT
BRANCH   1   7
ATOM      7  C   UNL     1      29.785  37.711  27.847  1.00  0.00     0.010 C 
ATOM      8  C   UNL     1      29.306  38.489  28.826  1.00  0.00     0.025 C 
BRANCH   8   9
ATOM      9  C   UNL     1      30.173  39.401  29.590  1.00  0.00     0.064 C 
ATOM     10  O   UNL     1      30.886  40.238  28.979  1.00  0.00    -0.545 OA
ATOM     11  O   UNL     1      30.215  39.355  30.979  1.00  0.00    -0.545 OA
ENDBRANCH   8   9
ENDBRANCH   1   7
BRANCH   6  12
ATOM     12  O   UNL     1      26.513  34.292  24.681  1.00  0.00    -0.508 OA
ATOM     13  H   UNL     1      25.869  33.631  25.099  1.00  0.00     0.293 HD
ENDBRANCH   6  12
TORSDOF 3
ENDMDL
MODEL 2
REMARK VINA RESULT:    -4.957      3.451      4.893
REMARK INTER + INTRA:          -5.821
REMARK INTER:                  -5.670
REMARK INTRA:                  -0.150
REMARK UNBOUND:                -0.139
REMARK SMILES O=C([O-])C=Cc1ccc(O)cc1
REMARK SMILES IDX 6 1 7 2 12 3 8 4 11 5 9 6 5 7 4 8 2 9 1 10 3 11 10 12
REMARK H PARENT 10 13
REMARK Flexibility Score: inf
ROOT
ATOM      1  C   UNL     1      30.144  37.124  26.495  1.00  0.00    -0.025 A 
ATOM      2  C   UNL     1      29.728  35.805  26.768  1.00  0.00     0.012 A 
ATOM      3  C   UNL     1      31.252  37.642  27.187  1.00  0.00     0.012 A 
ATOM      4  C   UNL     1      30.424  35.021  27.693  1.00  0.00     0.047 A 
ATOM      5  C   UNL     1      31.945  36.855  28.111  1.00  0.00     0.047 A 
ATOM      6  C   UNL     1      31.536  35.543  28.366  1.00  0.00     0.115 A 
ENDROOT
BRANCH   1   7
ATOM      7  C   UNL     1      29.435  38.002  25.531  1.00  0.00     0.010 C 
ATOM      8  C   UNL     1      30.033  38.972  24.827  1.00  0.00     0.025 C 
BRANCH   8   9
ATOM      9  C   UNL     1      29.288  39.826  23.889  1.00  0.00     0.064 C 
ATOM     10  O   UNL     1      28.034  39.742  23.833  1.00  0.00    -0.545 OA
ATOM     11  O   UNL     1      29.948  40.730  23.063  1.00  0.00    -0.545 OA
ENDBRANCH   8   9
ENDBRANCH   1   7
BRANCH   6  12
ATOM     12  O   UNL     1      32.236  34.770  29.290  1.00  0.00    -0.508 OA
ATOM     13  H   UNL     1      33.110  34.318  29.046  1.00  0.00     0.293 HD
ENDBRANCH   6  12
TORSDOF 3
ENDMDL
MODEL 3
REMARK VINA RESULT:    -4.899      3.155      4.850
REMARK INTER + INTRA:          -5.754
REMARK INTER:                  -5.613
REMARK INTRA:                  -0.141
REMARK UNBOUND:                -0.139
REMARK SMILES O=C([O-])C=Cc1ccc(O)cc1
REMARK SMILES IDX 6 1 7 2 12 3 8 4 11 5 9 6 5 7 4 8 2 9 1 10 3 11 10 12
REMARK H PARENT 10 13
REMARK Flexibility Score: inf
ROOT
ATOM      1  C   UNL     1      28.876  38.340  27.662  1.00  0.00    -0.025 A 
ATOM      2  C   UNL     1      29.044  39.080  28.851  1.00  0.00     0.012 A 
ATOM      3  C   UNL     1      27.962  37.272  27.653  1.00  0.00     0.012 A 
ATOM      4  C   UNL     1      28.297  38.768  29.990  1.00  0.00     0.047 A 
ATOM      5  C   UNL     1      27.216  36.964  28.795  1.00  0.00     0.047 A 
ATOM      6  C   UNL     1      27.379  37.711  29.965  1.00  0.00     0.115 A 
ENDROOT
BRANCH   1   7
ATOM      7  C   UNL     1      29.651  38.621  26.429  1.00  0.00     0.010 C 
ATOM      8  C   UNL     1      29.096  38.788  25.221  1.00  0.00     0.025 C 
BRANCH   8   9
ATOM      9  C   UNL     1      29.906  39.055  24.022  1.00  0.00     0.064 C 
ATOM     10  O   UNL     1      30.675  38.163  23.580  1.00  0.00    -0.545 OA
ATOM     11  O   UNL     1      29.834  40.279  23.366  1.00  0.00    -0.545 OA
ENDBRANCH   8   9
ENDBRANCH   1   7
BRANCH   6  12
ATOM     12  O   UNL     1      26.628  37.392  31.094  1.00  0.00    -0.508 OA
ATOM     13  H   UNL     1      26.540  36.436  31.418  1.00  0.00     0.293 HD
ENDBRANCH   6  12
TORSDOF 3
ENDMDL
MODEL 4
REMARK VINA RESULT:    -4.875      1.830      2.587
REMARK INTER + INTRA:          -5.727
REMARK INTER:                  -5.586
REMARK INTRA:                  -0.141
REMARK UNBOUND:                -0.139
REMARK SMILES O=C([O-])C=Cc1ccc(O)cc1
REMARK SMILES IDX 6 1 7 2 12 3 8 4 11 5 9 6 5 7 4 8 2 9 1 10 3 11 10 12
REMARK H PARENT 10 13
REMARK Flexibility Score: inf
ROOT
ATOM      1  C   UNL     1      29.714  37.666  27.701  1.00  0.00    -0.025 A 
ATOM      2  C   UNL     1      28.305  37.716  27.692  1.00  0.00     0.012 A 
ATOM      3  C   UNL     1      30.351  36.466  27.343  1.00  0.00     0.012 A 
ATOM      4  C   UNL     1      27.560  36.597  27.311  1.00  0.00     0.047 A 
ATOM      5  C   UNL     1      29.602  35.349  26.962  1.00  0.00     0.047 A 
ATOM      6  C   UNL     1      28.206  35.410  26.942  1.00  0.00     0.115 A 
ENDROOT
BRANCH   1   7
ATOM      7  C   UNL     1      30.552  38.821  28.107  1.00  0.00     0.010 C 
ATOM      8  C   UNL     1      31.524  39.342  27.346  1.00  0.00     0.025 C 
BRANCH   8   9
ATOM      9  C   UNL     1      32.338  40.482  27.794  1.00  0.00     0.064 C 
ATOM     10  O   UNL     1      33.545  40.558  27.449  1.00  0.00    -0.545 OA
ATOM     11  O   UNL     1      31.794  41.482  28.594  1.00  0.00    -0.545 OA
ENDBRANCH   8   9
ENDBRANCH   1   7
BRANCH   6  12
ATOM     12  O   UNL     1      27.473  34.289  26.560  1.00  0.00    -0.508 OA
ATOM     13  H   UNL     1      26.646  33.999  27.069  1.00  0.00     0.293 HD
ENDBRANCH   6  12
TORSDOF 3
ENDMDL
MODEL 5
REMARK VINA RESULT:    -4.771      2.016      5.891
REMARK INTER + INTRA:          -5.607
REMARK INTER:                  -5.453
REMARK INTRA:                  -0.154
REMARK UNBOUND:                -0.139
REMARK SMILES O=C([O-])C=Cc1ccc(O)cc1
REMARK SMILES IDX 6 1 7 2 12 3 8 4 11 5 9 6 5 7 4 8 2 9 1 10 3 11 10 12
REMARK H PARENT 10 13
REMARK Flexibility Score: inf
ROOT
ATOM      1  C   UNL     1      30.200  37.712  27.640  1.00  0.00    -0.025 A 
ATOM      2  C   UNL     1      29.756  38.644  28.601  1.00  0.00     0.012 A 
ATOM      3  C   UNL     1      31.310  38.038  26.843  1.00  0.00     0.012 A 
ATOM      4  C   UNL     1      30.426  39.858  28.771  1.00  0.00     0.047 A 
ATOM      5  C   UNL     1      31.978  39.254  27.016  1.00  0.00     0.047 A 
ATOM      6  C   UNL     1      31.540  40.166  27.980  1.00  0.00     0.115 A 
ENDROOT
BRANCH   1   7
ATOM      7  C   UNL     1      29.519  36.413  27.412  1.00  0.00     0.010 C 
ATOM      8  C   UNL     1      29.939  35.496  26.531  1.00  0.00     0.025 C 
BRANCH   8   9
ATOM      9  C   UNL     1      29.226  34.225  26.330  1.00  0.00     0.064 C 
ATOM     10  O   UNL     1      27.987  34.167  26.540  1.00  0.00    -0.545 OA
ATOM     11  O   UNL     1      29.899  33.083  25.908  1.00  0.00    -0.545 OA
ENDBRANCH   8   9
ENDBRANCH   1   7
BRANCH   6  12
ATOM     12  O   UNL     1      32.216  41.374  28.142  1.00  0.00    -0.508 OA
ATOM     13  H   UNL     1      33.196  41.468  27.901  1.00  0.00     0.293 HD
ENDBRANCH   6  12
TORSDOF 3
ENDMDL
MODEL 6
REMARK VINA RESULT:    -4.755      3.159      4.902
REMARK INTER + INTRA:          -5.589
REMARK INTER:                  -5.453
REMARK INTRA:                  -0.136
REMARK UNBOUND:                -0.139
REMARK SMILES O=C([O-])C=Cc1ccc(O)cc1
REMARK SMILES IDX 6 1 7 2 12 3 8 4 11 5 9 6 5 7 4 8 2 9 1 10 3 11 10 12
REMARK H PARENT 10 13
REMARK Flexibility Score: inf
ROOT
ATOM      1  C   UNL     1      28.787  37.911  26.063  1.00  0.00    -0.025 A 
ATOM      2  C   UNL     1      27.858  38.483  26.957  1.00  0.00     0.012 A 
ATOM      3  C   UNL     1      28.966  38.505  24.802  1.00  0.00     0.012 A 
ATOM      4  C   UNL     1      27.149  39.633  26.600  1.00  0.00     0.047 A 
ATOM      5  C   UNL     1      28.254  39.655  24.449  1.00  0.00     0.047 A 
ATOM      6  C   UNL     1      27.346  40.224  25.346  1.00  0.00     0.115 A 
ENDROOT
BRANCH   1   7
ATOM      7  C   UNL     1      29.558  36.686  26.387  1.00  0.00     0.010 C 
ATOM      8  C   UNL     1      29.031  35.454  26.397  1.00  0.00     0.025 C 
BRANCH   8   9
ATOM      9  C   UNL     1      29.832  34.267  26.735  1.00  0.00     0.064 C 
ATOM     10  O   UNL     1      30.589  34.293  27.740  1.00  0.00    -0.545 OA
ATOM     11  O   UNL     1      29.766  33.113  25.961  1.00  0.00    -0.545 OA
ENDBRANCH   8   9
ENDBRANCH   1   7
BRANCH   6  12
ATOM     12  O   UNL     1      26.644  41.370  24.981  1.00  0.00    -0.508 OA
ATOM     13  H   UNL     1      26.081  41.881  25.650  1.00  0.00     0.293 HD
ENDBRANCH   6  12
TORSDOF 3
ENDMDL
MODEL 7
REMARK VINA RESULT:    -4.510      3.181      4.755
REMARK INTER + INTRA:          -5.308
REMARK INTER:                  -5.169
REMARK INTRA:                  -0.139
REMARK UNBOUND:                -0.139
REMARK SMILES O=C([O-])C=Cc1ccc(O)cc1
REMARK SMILES IDX 6 1 7 2 12 3 8 4 11 5 9 6 5 7 4 8 2 9 1 10 3 11 10 12
REMARK H PARENT 10 13
REMARK Flexibility Score: inf
ROOT
ATOM      1  C   UNL     1      28.770  38.074  27.432  1.00  0.00    -0.025 A 
ATOM      2  C   UNL     1      29.073  38.878  28.550  1.00  0.00     0.012 A 
ATOM      3  C   UNL     1      27.768  37.097  27.552  1.00  0.00     0.012 A 
ATOM      4  C   UNL     1      28.370  38.717  29.747  1.00  0.00     0.047 A 
ATOM      5  C   UNL     1      27.067  36.939  28.752  1.00  0.00     0.047 A 
ATOM      6  C   UNL     1      27.364  37.749  29.851  1.00  0.00     0.115 A 
ENDROOT
BRANCH   1   7
ATOM      7  C   UNL     1      29.492  38.196  26.141  1.00  0.00     0.010 C 
ATOM      8  C   UNL     1      30.486  37.382  25.763  1.00  0.00     0.025 C 
BRANCH   8   9
ATOM      9  C   UNL     1      31.182  37.546  24.477  1.00  0.00     0.064 C 
ATOM     10  O   UNL     1      30.746  38.374  23.636  1.00  0.00    -0.545 OA
ATOM     11  O   UNL     1      32.317  36.801  24.176  1.00  0.00    -0.545 OA
ENDBRANCH   8   9
ENDBRANCH   1   7
BRANCH   6  12
ATOM     12  O   UNL     1      26.657  37.582  31.040  1.00  0.00    -0.508 OA
ATOM     13  H   UNL     1      27.037  37.886  31.929  1.00  0.00     0.293 HD
ENDBRANCH   6  12
TORSDOF 3
ENDMDL
MODEL 8
REMARK VINA RESULT:    -4.450      3.200      4.265
REMARK INTER + INTRA:          -5.240
REMARK INTER:                  -5.099
REMARK INTRA:                  -0.141
REMARK UNBOUND:                -0.139
REMARK SMILES O=C([O-])C=Cc1ccc(O)cc1
REMARK SMILES IDX 6 1 7 2 12 3 8 4 11 5 9 6 5 7 4 8 2 9 1 10 3 11 10 12
REMARK H PARENT 10 13
REMARK Flexibility Score: inf
ROOT
ATOM      1  C   UNL     1      28.803  37.841  26.145  1.00  0.00    -0.025 A 
ATOM      2  C   UNL     1      29.070  38.427  24.891  1.00  0.00     0.012 A 
ATOM      3  C   UNL     1      27.840  38.435  26.979  1.00  0.00     0.012 A 
ATOM      4  C   UNL     1      28.370  39.564  24.478  1.00  0.00     0.047 A 
ATOM      5  C   UNL     1      27.142  39.572  26.562  1.00  0.00     0.047 A 
ATOM      6  C   UNL     1      27.402  40.139  25.311  1.00  0.00     0.115 A 
ENDROOT
BRANCH   1   7
ATOM      7  C   UNL     1      29.524  36.640  26.636  1.00  0.00     0.010 C 
ATOM      8  C   UNL     1      30.442  36.669  27.611  1.00  0.00     0.025 C 
BRANCH   8   9
ATOM      9  C   UNL     1      31.141  35.454  28.059  1.00  0.00     0.064 C 
ATOM     10  O   UNL     1      30.690  34.324  27.739  1.00  0.00    -0.545 OA
ATOM     11  O   UNL     1      32.295  35.534  28.832  1.00  0.00    -0.545 OA
ENDBRANCH   8   9
ENDBRANCH   1   7
BRANCH   6  12
ATOM     12  O   UNL     1      26.699  41.272  24.909  1.00  0.00    -0.508 OA
ATOM     13  H   UNL     1      26.097  41.259  24.094  1.00  0.00     0.293 HD
ENDBRANCH   6  12
TORSDOF 3
ENDMDL
MODEL 9
REMARK VINA RESULT:    -4.350      3.342      3.860
REMARK INTER + INTRA:          -5.125
REMARK INTER:                  -4.985
REMARK INTRA:                  -0.140
REMARK UNBOUND:                -0.139
REMARK SMILES O=C([O-])C=Cc1ccc(O)cc1
REMARK SMILES IDX 6 1 7 2 12 3 8 4 11 5 9 6 5 7 4 8 2 9 1 10 3 11 10 12
REMARK H PARENT 10 13
REMARK Flexibility Score: inf
ROOT
ATOM      1  C   UNL     1      29.633  37.152  26.379  1.00  0.00    -0.025 A 
ATOM      2  C   UNL     1      28.267  37.403  26.619  1.00  0.00     0.012 A 
ATOM      3  C   UNL     1      30.265  37.812  25.311  1.00  0.00     0.012 A 
ATOM      4  C   UNL     1      27.564  38.311  25.822  1.00  0.00     0.047 A 
ATOM      5  C   UNL     1      29.559  38.719  24.516  1.00  0.00     0.047 A 
ATOM      6  C   UNL     1      28.208  38.973  24.769  1.00  0.00     0.115 A 
ENDROOT
BRANCH   1   7
ATOM      7  C   UNL     1      30.423  36.192  27.188  1.00  0.00     0.010 C 
ATOM      8  C   UNL     1      31.530  36.522  27.867  1.00  0.00     0.025 C 
BRANCH   8   9
ATOM      9  C   UNL     1      32.289  35.532  28.648  1.00  0.00     0.064 C 
ATOM     10  O   UNL     1      33.518  35.709  28.850  1.00  0.00    -0.545 OA
ATOM     11  O   UNL     1      31.669  34.402  29.169  1.00  0.00    -0.545 OA
ENDBRANCH   8   9
ENDBRANCH   1   7
BRANCH   6  12
ATOM     12  O   UNL     1      27.516  39.880  23.969  1.00  0.00    -0.508 OA
ATOM     13  H   UNL     1      26.565  40.155  24.182  1.00  0.00     0.293 HD
ENDBRANCH   6  12
TORSDOF 3
ENDMDL
