MODEL 1
REMARK VINA RESULT:    -7.494      0.000      0.000
REMARK INTER + INTRA:         -12.517
REMARK INTER:                 -10.998
REMARK INTRA:                  -1.518
REMARK UNBOUND:                -1.518
REMARK SMILES O=c1c(O[C@H]2O[C@H](CO)[C@@H](O)[C@H](O)[C@@H]2O)c(-c2ccc(O)c(O)c2)oc2cc(O)cc(O)c12
REMARK SMILES IDX 4 1 3 2 16 3 25 4 2 5 26 6 1 7 33 8 27 9 31 10 28 11 30 12
REMARK SMILES IDX 17 13 18 14 19 15 20 16 24 17 22 18 21 19 23 21 32 23 29 25
REMARK SMILES IDX 5 27 14 28 6 29 12 30 7 31 10 32 15 33 13 35 8 37 9 38 11 40
REMARK H PARENT 21 20 23 22 32 24 29 26 15 34 13 36 9 39 11 41
REMARK Flexibility Score: inf
ROOT
ATOM      1  O   UNL     1      11.850 -30.510 -19.484  1.00  0.00    -0.454 OA
ENDROOT
BRANCH   1   2
ATOM      2  C   UNL     1      13.194 -30.691 -19.876  1.00  0.00     0.214 A 
ATOM      3  C   UNL     1      13.863 -31.843 -19.420  1.00  0.00     0.180 A 
ATOM      4  O   UNL     1      15.154 -32.012 -19.676  1.00  0.00    -0.452 OA
ATOM      5  C   UNL     1      13.918 -29.766 -20.666  1.00  0.00     0.239 A 
ATOM      6  C   UNL     1      15.870 -31.169 -20.408  1.00  0.00     0.146 A 
ATOM      7  O   UNL     1      13.370 -28.696 -21.034  1.00  0.00    -0.285 OA
ATOM      8  C   UNL     1      15.270 -30.027 -20.992  1.00  0.00     0.111 A 
ATOM      9  C   UNL     1      17.230 -31.429 -20.585  1.00  0.00     0.094 A 
ATOM     10  C   UNL     1      16.072 -29.192 -21.828  1.00  0.00     0.134 A 
ATOM     11  C   UNL     1      18.022 -30.564 -21.342  1.00  0.00     0.123 A 
ATOM     12  C   UNL     1      17.442 -29.455 -21.955  1.00  0.00     0.093 A 
BRANCH   3  13
ATOM     13  C   UNL     1      13.176 -32.881 -18.620  1.00  0.00     0.025 A 
ATOM     14  C   UNL     1      13.048 -32.760 -17.225  1.00  0.00     0.016 A 
ATOM     15  C   UNL     1      12.381 -33.741 -16.487  1.00  0.00     0.051 A 
ATOM     16  C   UNL     1      11.814 -34.846 -17.135  1.00  0.00     0.157 A 
ATOM     17  C   UNL     1      12.586 -33.979 -19.266  1.00  0.00     0.062 A 
ATOM     18  C   UNL     1      11.913 -34.964 -18.527  1.00  0.00     0.158 A 
BRANCH  16  19
ATOM     19  O   UNL     1      11.149 -35.827 -16.404  1.00  0.00    -0.504 OA
ATOM     20  H   UNL     1      10.327 -35.611 -15.852  1.00  0.00     0.293 HD
ENDBRANCH  16  19
BRANCH  18  21
ATOM     21  O   UNL     1      11.341 -36.059 -19.169  1.00  0.00    -0.504 OA
ATOM     22  H   UNL     1      10.349 -36.097 -19.372  1.00  0.00     0.293 HD
ENDBRANCH  18  21
ENDBRANCH   3  13
BRANCH  10  23
ATOM     23  O   UNL     1      15.565 -28.125 -22.575  1.00  0.00    -0.507 OA
ATOM     24  H   UNL     1      15.863 -27.895 -23.511  1.00  0.00     0.293 HD
ENDBRANCH  10  23
BRANCH  11  25
ATOM     25  O   UNL     1      19.386 -30.803 -21.500  1.00  0.00    -0.508 OA
ATOM     26  H   UNL     1      19.812 -31.670 -21.191  1.00  0.00     0.293 HD
ENDBRANCH  11  25
ENDBRANCH   1   2
BRANCH   1  27
ATOM     27  C   UNL     1      10.708 -30.330 -20.329  1.00  0.00     0.339 C 
ATOM     28  C   UNL     1       9.864 -29.147 -19.832  1.00  0.00     0.214 C 
ATOM     29  O   UNL     1       9.924 -31.512 -20.413  1.00  0.00    -0.332 OA
ATOM     30  C   UNL     1       9.229 -29.489 -18.471  1.00  0.00     0.180 C 
ATOM     31  C   UNL     1       9.436 -31.917 -19.144  1.00  0.00     0.179 C 
ATOM     32  C   UNL     1       8.497 -30.839 -18.547  1.00  0.00     0.177 C 
BRANCH  28  33
ATOM     33  O   UNL     1       8.866 -28.864 -20.780  1.00  0.00    -0.384 OA
ATOM     34  H   UNL     1       8.551 -27.939 -20.603  1.00  0.00     0.211 HD
ENDBRANCH  28  33
BRANCH  30  35
ATOM     35  O   UNL     1       8.327 -28.483 -18.087  1.00  0.00    -0.387 OA
ATOM     36  H   UNL     1       8.139 -27.944 -18.898  1.00  0.00     0.211 HD
ENDBRANCH  30  35
BRANCH  31  37
ATOM     37  C   UNL     1       8.706 -33.254 -19.329  1.00  0.00     0.191 C 
BRANCH  37  38
ATOM     38  O   UNL     1       7.351 -33.039 -19.621  1.00  0.00    -0.394 OA
ATOM     39  H   UNL     1       7.054 -33.826 -20.147  1.00  0.00     0.210 HD
ENDBRANCH  37  38
ENDBRANCH  31  37
BRANCH  32  40
ATOM     40  O   UNL     1       8.092 -31.224 -17.257  1.00  0.00    -0.387 OA
ATOM     41  H   UNL     1       7.409 -31.935 -17.370  1.00  0.00     0.211 HD
ENDBRANCH  32  40
ENDBRANCH   1  27
TORSDOF 12
ENDMDL
MODEL 2
REMARK VINA RESULT:    -7.405      2.392      6.552
REMARK INTER + INTRA:         -12.386
REMARK INTER:                 -11.021
REMARK INTRA:                  -1.364
REMARK UNBOUND:                -1.518
REMARK SMILES O=c1c(O[C@H]2O[C@H](CO)[C@@H](O)[C@H](O)[C@@H]2O)c(-c2ccc(O)c(O)c2)oc2cc(O)cc(O)c12
REMARK SMILES IDX 4 1 3 2 16 3 25 4 2 5 26 6 1 7 33 8 27 9 31 10 28 11 30 12
REMARK SMILES IDX 17 13 18 14 19 15 20 16 24 17 22 18 21 19 23 21 32 23 29 25
REMARK SMILES IDX 5 27 14 28 6 29 12 30 7 31 10 32 15 33 13 35 8 37 9 38 11 40
REMARK H PARENT 21 20 23 22 32 24 29 26 15 34 13 36 9 39 11 41
REMARK Flexibility Score: inf
ROOT
ATOM      1  O   UNL     1      12.823 -30.863 -18.520  1.00  0.00    -0.454 OA
ENDROOT
BRANCH   1   2
ATOM      2  C   UNL     1      11.535 -30.458 -18.932  1.00  0.00     0.214 A 
ATOM      3  C   UNL     1      10.524 -31.436 -18.990  1.00  0.00     0.180 A 
ATOM      4  O   UNL     1       9.324 -31.131 -19.466  1.00  0.00    -0.452 OA
ATOM      5  C   UNL     1      11.211 -29.138 -19.327  1.00  0.00     0.239 A 
ATOM      6  C   UNL     1       8.980 -29.909 -19.849  1.00  0.00     0.146 A 
ATOM      7  O   UNL     1      12.106 -28.255 -19.350  1.00  0.00    -0.285 OA
ATOM      8  C   UNL     1       9.893 -28.832 -19.743  1.00  0.00     0.111 A 
ATOM      9  C   UNL     1       7.698 -29.708 -20.366  1.00  0.00     0.094 A 
ATOM     10  C   UNL     1       9.446 -27.525 -20.105  1.00  0.00     0.134 A 
ATOM     11  C   UNL     1       7.298 -28.439 -20.789  1.00  0.00     0.123 A 
ATOM     12  C   UNL     1       8.170 -27.360 -20.658  1.00  0.00     0.093 A 
BRANCH   3  13
ATOM     13  C   UNL     1      10.763 -32.833 -18.563  1.00  0.00     0.025 A 
ATOM     14  C   UNL     1      11.291 -33.787 -19.451  1.00  0.00     0.016 A 
ATOM     15  C   UNL     1      11.525 -35.096 -19.026  1.00  0.00     0.051 A 
ATOM     16  C   UNL     1      11.256 -35.466 -17.701  1.00  0.00     0.157 A 
ATOM     17  C   UNL     1      10.516 -33.204 -17.231  1.00  0.00     0.062 A 
ATOM     18  C   UNL     1      10.754 -34.518 -16.802  1.00  0.00     0.158 A 
BRANCH  16  19
ATOM     19  O   UNL     1      11.489 -36.772 -17.273  1.00  0.00    -0.504 OA
ATOM     20  H   UNL     1      10.833 -37.519 -17.471  1.00  0.00     0.293 HD
ENDBRANCH  16  19
BRANCH  18  21
ATOM     21  O   UNL     1      10.496 -34.887 -15.484  1.00  0.00    -0.504 OA
ATOM     22  H   UNL     1       9.898 -35.673 -15.260  1.00  0.00     0.293 HD
ENDBRANCH  18  21
ENDBRANCH   3  13
BRANCH  10  23
ATOM     23  O   UNL     1      10.200 -26.364 -19.909  1.00  0.00    -0.507 OA
ATOM     24  H   UNL     1      11.209 -26.334 -19.918  1.00  0.00     0.293 HD
ENDBRANCH  10  23
BRANCH  11  25
ATOM     25  O   UNL     1       6.029 -28.238 -21.329  1.00  0.00    -0.508 OA
ATOM     26  H   UNL     1       5.572 -27.333 -21.288  1.00  0.00     0.293 HD
ENDBRANCH  11  25
ENDBRANCH   1   2
BRANCH   1  27
ATOM     27  C   UNL     1      14.014 -30.929 -19.311  1.00  0.00     0.339 C 
ATOM     28  C   UNL     1      14.499 -32.384 -19.414  1.00  0.00     0.214 C 
ATOM     29  O   UNL     1      15.038 -30.090 -18.794  1.00  0.00    -0.332 OA
ATOM     30  C   UNL     1      14.978 -32.877 -18.037  1.00  0.00     0.180 C 
ATOM     31  C   UNL     1      15.402 -30.451 -17.471  1.00  0.00     0.179 C 
ATOM     32  C   UNL     1      15.986 -31.885 -17.434  1.00  0.00     0.177 C 
BRANCH  28  33
ATOM     33  O   UNL     1      15.545 -32.454 -20.351  1.00  0.00    -0.384 OA
ATOM     34  H   UNL     1      16.203 -33.110 -20.002  1.00  0.00     0.211 HD
ENDBRANCH  28  33
BRANCH  30  35
ATOM     35  O   UNL     1      15.574 -34.144 -18.153  1.00  0.00    -0.387 OA
ATOM     36  H   UNL     1      15.781 -34.447 -17.231  1.00  0.00     0.211 HD
ENDBRANCH  30  35
BRANCH  31  37
ATOM     37  C   UNL     1      16.422 -29.419 -16.970  1.00  0.00     0.191 C 
BRANCH  37  38
ATOM     38  O   UNL     1      17.690 -30.004 -16.838  1.00  0.00    -0.394 OA
ATOM     39  H   UNL     1      17.942 -30.322 -17.744  1.00  0.00     0.210 HD
ENDBRANCH  37  38
ENDBRANCH  31  37
BRANCH  32  40
ATOM     40  O   UNL     1      16.262 -32.251 -16.105  1.00  0.00    -0.387 OA
ATOM     41  H   UNL     1      15.890 -33.162 -15.975  1.00  0.00     0.211 HD
ENDBRANCH  32  40
ENDBRANCH   1  27
TORSDOF 12
ENDMDL
MODEL 3
REMARK VINA RESULT:    -7.335      5.697      9.207
REMARK INTER + INTRA:         -12.284
REMARK INTER:                 -10.450
REMARK INTRA:                  -1.834
REMARK UNBOUND:                -1.518
REMARK SMILES O=c1c(O[C@H]2O[C@H](CO)[C@@H](O)[C@H](O)[C@@H]2O)c(-c2ccc(O)c(O)c2)oc2cc(O)cc(O)c12
REMARK SMILES IDX 4 1 3 2 16 3 25 4 2 5 26 6 1 7 33 8 27 9 31 10 28 11 30 12
REMARK SMILES IDX 17 13 18 14 19 15 20 16 24 17 22 18 21 19 23 21 32 23 29 25
REMARK SMILES IDX 5 27 14 28 6 29 12 30 7 31 10 32 15 33 13 35 8 37 9 38 11 40
REMARK H PARENT 21 20 23 22 32 24 29 26 15 34 13 36 9 39 11 41
REMARK Flexibility Score: inf
ROOT
ATOM      1  O   UNL     1       9.849 -29.222 -14.507  1.00  0.00    -0.454 OA
ENDROOT
BRANCH   1   2
ATOM      2  C   UNL     1       9.267 -28.935 -15.760  1.00  0.00     0.214 A 
ATOM      3  C   UNL     1       8.823 -27.620 -15.995  1.00  0.00     0.180 A 
ATOM      4  O   UNL     1       8.179 -27.320 -17.116  1.00  0.00    -0.452 OA
ATOM      5  C   UNL     1       9.068 -29.899 -16.778  1.00  0.00     0.239 A 
ATOM      6  C   UNL     1       7.969 -28.192 -18.092  1.00  0.00     0.146 A 
ATOM      7  O   UNL     1       9.392 -31.097 -16.576  1.00  0.00    -0.285 OA
ATOM      8  C   UNL     1       8.457 -29.518 -17.997  1.00  0.00     0.111 A 
ATOM      9  C   UNL     1       7.250 -27.777 -19.214  1.00  0.00     0.094 A 
ATOM     10  C   UNL     1       8.263 -30.394 -19.108  1.00  0.00     0.134 A 
ATOM     11  C   UNL     1       6.999 -28.665 -20.262  1.00  0.00     0.123 A 
ATOM     12  C   UNL     1       7.504 -29.963 -20.203  1.00  0.00     0.093 A 
BRANCH   3  13
ATOM     13  C   UNL     1       9.021 -26.539 -15.002  1.00  0.00     0.025 A 
ATOM     14  C   UNL     1      10.155 -25.709 -15.047  1.00  0.00     0.016 A 
ATOM     15  C   UNL     1      10.318 -24.683 -14.113  1.00  0.00     0.051 A 
ATOM     16  C   UNL     1       9.340 -24.459 -13.134  1.00  0.00     0.157 A 
ATOM     17  C   UNL     1       8.035 -26.296 -14.033  1.00  0.00     0.062 A 
ATOM     18  C   UNL     1       8.195 -25.264 -13.096  1.00  0.00     0.158 A 
BRANCH  16  19
ATOM     19  O   UNL     1       9.499 -23.438 -12.200  1.00  0.00    -0.504 OA
ATOM     20  H   UNL     1      10.416 -23.159 -11.870  1.00  0.00     0.293 HD
ENDBRANCH  16  19
BRANCH  18  21
ATOM     21  O   UNL     1       7.222 -25.034 -12.128  1.00  0.00    -0.504 OA
ATOM     22  H   UNL     1       7.336 -24.318 -11.419  1.00  0.00     0.293 HD
ENDBRANCH  18  21
ENDBRANCH   3  13
BRANCH  10  23
ATOM     23  O   UNL     1       8.821 -31.673 -19.195  1.00  0.00    -0.507 OA
ATOM     24  H   UNL     1       8.712 -32.287 -19.988  1.00  0.00     0.293 HD
ENDBRANCH  10  23
BRANCH  11  25
ATOM     25  O   UNL     1       6.259 -28.264 -21.372  1.00  0.00    -0.508 OA
ATOM     26  H   UNL     1       5.348 -28.659 -21.574  1.00  0.00     0.293 HD
ENDBRANCH  11  25
ENDBRANCH   1   2
BRANCH   1  27
ATOM     27  C   UNL     1      11.242 -29.313 -14.189  1.00  0.00     0.339 C 
ATOM     28  C   UNL     1      11.544 -30.663 -13.522  1.00  0.00     0.214 C 
ATOM     29  O   UNL     1      11.665 -28.235 -13.365  1.00  0.00    -0.332 OA
ATOM     30  C   UNL     1      10.875 -30.727 -12.136  1.00  0.00     0.180 C 
ATOM     31  C   UNL     1      10.963 -28.201 -12.132  1.00  0.00     0.179 C 
ATOM     32  C   UNL     1      11.239 -29.484 -11.308  1.00  0.00     0.177 C 
BRANCH  28  33
ATOM     33  O   UNL     1      12.937 -30.813 -13.400  1.00  0.00    -0.384 OA
ATOM     34  H   UNL     1      13.140 -31.772 -13.558  1.00  0.00     0.211 HD
ENDBRANCH  28  33
BRANCH  30  35
ATOM     35  O   UNL     1      11.279 -31.886 -11.452  1.00  0.00    -0.387 OA
ATOM     36  H   UNL     1      10.509 -32.170 -10.895  1.00  0.00     0.211 HD
ENDBRANCH  30  35
BRANCH  31  37
ATOM     37  C   UNL     1      11.410 -26.943 -11.375  1.00  0.00     0.191 C 
BRANCH  37  38
ATOM     38  O   UNL     1      10.448 -26.574 -10.424  1.00  0.00    -0.394 OA
ATOM     39  H   UNL     1      10.776 -26.916  -9.552  1.00  0.00     0.210 HD
ENDBRANCH  37  38
ENDBRANCH  31  37
BRANCH  32  40
ATOM     40  O   UNL     1      10.470 -29.466 -10.132  1.00  0.00    -0.387 OA
ATOM     41  H   UNL     1      10.545 -30.369  -9.726  1.00  0.00     0.211 HD
ENDBRANCH  32  40
ENDBRANCH   1  27
TORSDOF 12
ENDMDL
MODEL 4
REMARK VINA RESULT:    -7.323      1.000      1.742
REMARK INTER + INTRA:         -12.267
REMARK INTER:                 -10.827
REMARK INTRA:                  -1.439
REMARK UNBOUND:                -1.518
REMARK SMILES O=c1c(O[C@H]2O[C@H](CO)[C@@H](O)[C@H](O)[C@@H]2O)c(-c2ccc(O)c(O)c2)oc2cc(O)cc(O)c12
REMARK SMILES IDX 4 1 3 2 16 3 25 4 2 5 26 6 1 7 33 8 27 9 31 10 28 11 30 12
REMARK SMILES IDX 17 13 18 14 19 15 20 16 24 17 22 18 21 19 23 21 32 23 29 25
REMARK SMILES IDX 5 27 14 28 6 29 12 30 7 31 10 32 15 33 13 35 8 37 9 38 11 40
REMARK H PARENT 21 20 23 22 32 24 29 26 15 34 13 36 9 39 11 41
REMARK Flexibility Score: inf
ROOT
ATOM      1  O   UNL     1      11.661 -30.657 -19.638  1.00  0.00    -0.454 OA
ENDROOT
BRANCH   1   2
ATOM      2  C   UNL     1      13.030 -30.777 -19.958  1.00  0.00     0.214 A 
ATOM      3  C   UNL     1      13.741 -31.864 -19.414  1.00  0.00     0.180 A 
ATOM      4  O   UNL     1      15.050 -31.968 -19.601  1.00  0.00    -0.452 OA
ATOM      5  C   UNL     1      13.738 -29.849 -20.759  1.00  0.00     0.239 A 
ATOM      6  C   UNL     1      15.752 -31.120 -20.340  1.00  0.00     0.146 A 
ATOM      7  O   UNL     1      13.149 -28.831 -21.205  1.00  0.00    -0.285 OA
ATOM      8  C   UNL     1      15.118 -30.044 -21.008  1.00  0.00     0.111 A 
ATOM      9  C   UNL     1      17.132 -31.306 -20.441  1.00  0.00     0.094 A 
ATOM     10  C   UNL     1      15.911 -29.203 -21.847  1.00  0.00     0.134 A 
ATOM     11  C   UNL     1      17.910 -30.432 -21.202  1.00  0.00     0.123 A 
ATOM     12  C   UNL     1      17.298 -29.389 -21.897  1.00  0.00     0.093 A 
BRANCH   3  13
ATOM     13  C   UNL     1      13.075 -32.902 -18.596  1.00  0.00     0.025 A 
ATOM     14  C   UNL     1      12.992 -32.785 -17.197  1.00  0.00     0.016 A 
ATOM     15  C   UNL     1      12.346 -33.766 -16.442  1.00  0.00     0.051 A 
ATOM     16  C   UNL     1      11.754 -34.867 -17.075  1.00  0.00     0.157 A 
ATOM     17  C   UNL     1      12.461 -33.996 -19.226  1.00  0.00     0.062 A 
ATOM     18  C   UNL     1      11.808 -34.980 -18.469  1.00  0.00     0.158 A 
BRANCH  16  19
ATOM     19  O   UNL     1      11.108 -35.848 -16.326  1.00  0.00    -0.504 OA
ATOM     20  H   UNL     1      11.499 -36.777 -16.220  1.00  0.00     0.293 HD
ENDBRANCH  16  19
BRANCH  18  21
ATOM     21  O   UNL     1      11.212 -36.071 -19.097  1.00  0.00    -0.504 OA
ATOM     22  H   UNL     1      11.654 -36.983 -19.110  1.00  0.00     0.293 HD
ENDBRANCH  18  21
ENDBRANCH   3  13
BRANCH  10  23
ATOM     23  O   UNL     1      15.381 -28.204 -22.669  1.00  0.00    -0.507 OA
ATOM     24  H   UNL     1      15.937 -27.567 -23.219  1.00  0.00     0.293 HD
ENDBRANCH  10  23
BRANCH  11  25
ATOM     25  O   UNL     1      19.291 -30.597 -21.285  1.00  0.00    -0.508 OA
ATOM     26  H   UNL     1      19.787 -31.233 -20.671  1.00  0.00     0.293 HD
ENDBRANCH  11  25
ENDBRANCH   1   2
BRANCH   1  27
ATOM     27  C   UNL     1      11.040 -29.675 -18.801  1.00  0.00     0.339 C 
ATOM     28  C   UNL     1      10.572 -30.321 -17.487  1.00  0.00     0.214 C 
ATOM     29  O   UNL     1       9.960 -29.028 -19.460  1.00  0.00    -0.332 OA
ATOM     30  C   UNL     1       9.422 -31.305 -17.766  1.00  0.00     0.180 C 
ATOM     31  C   UNL     1       8.945 -29.944 -19.841  1.00  0.00     0.179 C 
ATOM     32  C   UNL     1       8.322 -30.623 -18.597  1.00  0.00     0.177 C 
BRANCH  28  33
ATOM     33  O   UNL     1      10.149 -29.311 -16.605  1.00  0.00    -0.384 OA
ATOM     34  H   UNL     1       9.407 -28.828 -17.052  1.00  0.00     0.211 HD
ENDBRANCH  28  33
BRANCH  30  35
ATOM     35  O   UNL     1       8.878 -31.776 -16.559  1.00  0.00    -0.387 OA
ATOM     36  H   UNL     1       8.185 -32.443 -16.800  1.00  0.00     0.211 HD
ENDBRANCH  30  35
BRANCH  31  37
ATOM     37  C   UNL     1       7.891 -29.165 -20.640  1.00  0.00     0.191 C 
BRANCH  37  38
ATOM     38  O   UNL     1       6.796 -28.843 -19.826  1.00  0.00    -0.394 OA
ATOM     39  H   UNL     1       6.941 -29.320 -18.968  1.00  0.00     0.210 HD
ENDBRANCH  37  38
ENDBRANCH  31  37
BRANCH  32  40
ATOM     40  O   UNL     1       7.380 -31.584 -19.002  1.00  0.00    -0.387 OA
ATOM     41  H   UNL     1       6.537 -31.382 -18.518  1.00  0.00     0.211 HD
ENDBRANCH  32  40
ENDBRANCH   1  27
TORSDOF 12
ENDMDL
MODEL 5
REMARK VINA RESULT:    -7.110      2.915      4.576
REMARK INTER + INTRA:         -11.953
REMARK INTER:                 -10.255
REMARK INTRA:                  -1.698
REMARK UNBOUND:                -1.518
REMARK SMILES O=c1c(O[C@H]2O[C@H](CO)[C@@H](O)[C@H](O)[C@@H]2O)c(-c2ccc(O)c(O)c2)oc2cc(O)cc(O)c12
REMARK SMILES IDX 4 1 3 2 16 3 25 4 2 5 26 6 1 7 33 8 27 9 31 10 28 11 30 12
REMARK SMILES IDX 17 13 18 14 19 15 20 16 24 17 22 18 21 19 23 21 32 23 29 25
REMARK SMILES IDX 5 27 14 28 6 29 12 30 7 31 10 32 15 33 13 35 8 37 9 38 11 40
REMARK H PARENT 21 20 23 22 32 24 29 26 15 34 13 36 9 39 11 41
REMARK Flexibility Score: inf
ROOT
ATOM      1  O   UNL     1      13.982 -32.147 -16.010  1.00  0.00    -0.454 OA
ENDROOT
BRANCH   1   2
ATOM      2  C   UNL     1      14.684 -31.762 -17.173  1.00  0.00     0.214 A 
ATOM      3  C   UNL     1      14.256 -32.292 -18.405  1.00  0.00     0.180 A 
ATOM      4  O   UNL     1      14.941 -32.043 -19.514  1.00  0.00    -0.452 OA
ATOM      5  C   UNL     1      15.813 -30.909 -17.168  1.00  0.00     0.239 A 
ATOM      6  C   UNL     1      16.005 -31.254 -19.553  1.00  0.00     0.146 A 
ATOM      7  O   UNL     1      16.262 -30.473 -16.077  1.00  0.00    -0.285 OA
ATOM      8  C   UNL     1      16.464 -30.596 -18.385  1.00  0.00     0.111 A 
ATOM      9  C   UNL     1      16.670 -31.088 -20.770  1.00  0.00     0.094 A 
ATOM     10  C   UNL     1      17.572 -29.703 -18.500  1.00  0.00     0.134 A 
ATOM     11  C   UNL     1      17.800 -30.273 -20.854  1.00  0.00     0.123 A 
ATOM     12  C   UNL     1      18.243 -29.589 -19.723  1.00  0.00     0.093 A 
BRANCH   3  13
ATOM     13  C   UNL     1      13.064 -33.162 -18.511  1.00  0.00     0.025 A 
ATOM     14  C   UNL     1      11.937 -32.767 -19.253  1.00  0.00     0.016 A 
ATOM     15  C   UNL     1      10.827 -33.608 -19.356  1.00  0.00     0.051 A 
ATOM     16  C   UNL     1      10.835 -34.865 -18.736  1.00  0.00     0.157 A 
ATOM     17  C   UNL     1      13.074 -34.431 -17.910  1.00  0.00     0.062 A 
ATOM     18  C   UNL     1      11.961 -35.279 -18.015  1.00  0.00     0.158 A 
BRANCH  16  19
ATOM     19  O   UNL     1       9.729 -35.707 -18.836  1.00  0.00    -0.504 OA
ATOM     20  H   UNL     1       9.830 -36.689 -19.068  1.00  0.00     0.293 HD
ENDBRANCH  16  19
BRANCH  18  21
ATOM     21  O   UNL     1      11.970 -36.532 -17.407  1.00  0.00    -0.504 OA
ATOM     22  H   UNL     1      11.262 -37.227 -17.613  1.00  0.00     0.293 HD
ENDBRANCH  18  21
ENDBRANCH   3  13
BRANCH  10  23
ATOM     23  O   UNL     1      18.024 -28.889 -17.457  1.00  0.00    -0.507 OA
ATOM     24  H   UNL     1      18.926 -28.979 -17.016  1.00  0.00     0.293 HD
ENDBRANCH  10  23
BRANCH  11  25
ATOM     25  O   UNL     1      18.482 -30.125 -22.060  1.00  0.00    -0.508 OA
ATOM     26  H   UNL     1      17.999 -29.879 -22.916  1.00  0.00     0.293 HD
ENDBRANCH  11  25
ENDBRANCH   1   2
BRANCH   1  27
ATOM     27  C   UNL     1      13.010 -31.387 -15.283  1.00  0.00     0.339 C 
ATOM     28  C   UNL     1      13.474 -31.188 -13.832  1.00  0.00     0.214 C 
ATOM     29  O   UNL     1      11.727 -31.995 -15.326  1.00  0.00    -0.332 OA
ATOM     30  C   UNL     1      13.474 -32.537 -13.090  1.00  0.00     0.180 C 
ATOM     31  C   UNL     1      11.737 -33.297 -14.762  1.00  0.00     0.179 C 
ATOM     32  C   UNL     1      12.118 -33.242 -13.261  1.00  0.00     0.177 C 
BRANCH  28  33
ATOM     33  O   UNL     1      12.611 -30.279 -13.195  1.00  0.00    -0.384 OA
ATOM     34  H   UNL     1      12.763 -29.392 -13.613  1.00  0.00     0.211 HD
ENDBRANCH  28  33
BRANCH  30  35
ATOM     35  O   UNL     1      13.736 -32.343 -11.724  1.00  0.00    -0.387 OA
ATOM     36  H   UNL     1      13.708 -31.365 -11.565  1.00  0.00     0.211 HD
ENDBRANCH  30  35
BRANCH  31  37
ATOM     37  C   UNL     1      10.341 -33.903 -14.962  1.00  0.00     0.191 C 
BRANCH  37  38
ATOM     38  O   UNL     1      10.411 -35.304 -14.979  1.00  0.00    -0.394 OA
ATOM     39  H   UNL     1       9.635 -35.624 -14.450  1.00  0.00     0.210 HD
ENDBRANCH  37  38
ENDBRANCH  31  37
BRANCH  32  40
ATOM     40  O   UNL     1      12.202 -34.547 -12.745  1.00  0.00    -0.387 OA
ATOM     41  H   UNL     1      13.124 -34.868 -12.927  1.00  0.00     0.211 HD
ENDBRANCH  32  40
ENDBRANCH   1  27
TORSDOF 12
ENDMDL
MODEL 6
REMARK VINA RESULT:    -7.042      3.142      7.329
REMARK INTER + INTRA:         -11.853
REMARK INTER:                 -10.422
REMARK INTRA:                  -1.432
REMARK UNBOUND:                -1.518
REMARK SMILES O=c1c(O[C@H]2O[C@H](CO)[C@@H](O)[C@H](O)[C@@H]2O)c(-c2ccc(O)c(O)c2)oc2cc(O)cc(O)c12
REMARK SMILES IDX 4 1 3 2 16 3 25 4 2 5 26 6 1 7 33 8 27 9 31 10 28 11 30 12
REMARK SMILES IDX 17 13 18 14 19 15 20 16 24 17 22 18 21 19 23 21 32 23 29 25
REMARK SMILES IDX 5 27 14 28 6 29 12 30 7 31 10 32 15 33 13 35 8 37 9 38 11 40
REMARK H PARENT 21 20 23 22 32 24 29 26 15 34 13 36 9 39 11 41
REMARK Flexibility Score: inf
ROOT
ATOM      1  O   UNL     1      11.462 -33.458 -16.587  1.00  0.00    -0.454 OA
ENDROOT
BRANCH   1   2
ATOM      2  C   UNL     1      12.129 -33.658 -15.359  1.00  0.00     0.214 A 
ATOM      3  C   UNL     1      13.487 -33.295 -15.280  1.00  0.00     0.180 A 
ATOM      4  O   UNL     1      14.187 -33.554 -14.183  1.00  0.00    -0.452 OA
ATOM      5  C   UNL     1      11.525 -34.238 -14.218  1.00  0.00     0.239 A 
ATOM      6  C   UNL     1      13.661 -34.099 -13.095  1.00  0.00     0.146 A 
ATOM      7  O   UNL     1      10.333 -34.635 -14.275  1.00  0.00    -0.285 OA
ATOM      8  C   UNL     1      12.282 -34.416 -13.035  1.00  0.00     0.111 A 
ATOM      9  C   UNL     1      14.499 -34.359 -12.008  1.00  0.00     0.094 A 
ATOM     10  C   UNL     1      11.757 -34.936 -11.813  1.00  0.00     0.134 A 
ATOM     11  C   UNL     1      13.989 -34.938 -10.845  1.00  0.00     0.123 A 
ATOM     12  C   UNL     1      12.627 -35.224 -10.755  1.00  0.00     0.093 A 
BRANCH   3  13
ATOM     13  C   UNL     1      14.190 -32.649 -16.412  1.00  0.00     0.025 A 
ATOM     14  C   UNL     1      14.252 -31.250 -16.527  1.00  0.00     0.016 A 
ATOM     15  C   UNL     1      14.935 -30.657 -17.592  1.00  0.00     0.051 A 
ATOM     16  C   UNL     1      15.582 -31.454 -18.545  1.00  0.00     0.157 A 
ATOM     17  C   UNL     1      14.860 -33.442 -17.357  1.00  0.00     0.062 A 
ATOM     18  C   UNL     1      15.548 -32.848 -18.426  1.00  0.00     0.158 A 
BRANCH  16  19
ATOM     19  O   UNL     1      16.264 -30.867 -19.609  1.00  0.00    -0.504 OA
ATOM     20  H   UNL     1      16.660 -29.937 -19.536  1.00  0.00     0.293 HD
ENDBRANCH  16  19
BRANCH  18  21
ATOM     21  O   UNL     1      16.200 -33.638 -19.369  1.00  0.00    -0.504 OA
ATOM     22  H   UNL     1      15.747 -34.437 -19.798  1.00  0.00     0.293 HD
ENDBRANCH  18  21
ENDBRANCH   3  13
BRANCH  10  23
ATOM     23  O   UNL     1      10.395 -35.151 -11.583  1.00  0.00    -0.507 OA
ATOM     24  H   UNL     1       9.741 -35.457 -12.288  1.00  0.00     0.293 HD
ENDBRANCH  10  23
BRANCH  11  25
ATOM     25  O   UNL     1      14.825 -35.224  -9.767  1.00  0.00    -0.508 OA
ATOM     26  H   UNL     1      15.606 -34.624  -9.528  1.00  0.00     0.293 HD
ENDBRANCH  11  25
ENDBRANCH   1   2
BRANCH   1  27
ATOM     27  C   UNL     1      10.959 -34.455 -17.483  1.00  0.00     0.339 C 
ATOM     28  C   UNL     1      11.946 -34.667 -18.642  1.00  0.00     0.214 C 
ATOM     29  O   UNL     1       9.668 -34.121 -17.972  1.00  0.00    -0.332 OA
ATOM     30  C   UNL     1      11.995 -33.409 -19.528  1.00  0.00     0.180 C 
ATOM     31  C   UNL     1       9.670 -32.893 -18.683  1.00  0.00     0.179 C 
ATOM     32  C   UNL     1      10.574 -32.985 -19.937  1.00  0.00     0.177 C 
BRANCH  28  33
ATOM     33  O   UNL     1      11.534 -35.781 -19.396  1.00  0.00    -0.384 OA
ATOM     34  H   UNL     1      12.206 -35.908 -20.115  1.00  0.00     0.211 HD
ENDBRANCH  28  33
BRANCH  30  35
ATOM     35  O   UNL     1      12.765 -33.651 -20.678  1.00  0.00    -0.387 OA
ATOM     36  H   UNL     1      12.537 -34.566 -20.985  1.00  0.00     0.211 HD
ENDBRANCH  30  35
BRANCH  31  37
ATOM     37  C   UNL     1       8.218 -32.572 -19.063  1.00  0.00     0.191 C 
BRANCH  37  38
ATOM     38  O   UNL     1       7.964 -32.942 -20.392  1.00  0.00    -0.394 OA
ATOM     39  H   UNL     1       8.453 -32.289 -20.958  1.00  0.00     0.210 HD
ENDBRANCH  37  38
ENDBRANCH  31  37
BRANCH  32  40
ATOM     40  O   UNL     1      10.627 -31.736 -20.578  1.00  0.00    -0.387 OA
ATOM     41  H   UNL     1      10.351 -31.884 -21.520  1.00  0.00     0.211 HD
ENDBRANCH  32  40
ENDBRANCH   1  27
TORSDOF 12
ENDMDL
MODEL 7
REMARK VINA RESULT:    -7.021      5.312      7.870
REMARK INTER + INTRA:         -11.823
REMARK INTER:                 -10.249
REMARK INTRA:                  -1.573
REMARK UNBOUND:                -1.518
REMARK SMILES O=c1c(O[C@H]2O[C@H](CO)[C@@H](O)[C@H](O)[C@@H]2O)c(-c2ccc(O)c(O)c2)oc2cc(O)cc(O)c12
REMARK SMILES IDX 4 1 3 2 16 3 25 4 2 5 26 6 1 7 33 8 27 9 31 10 28 11 30 12
REMARK SMILES IDX 17 13 18 14 19 15 20 16 24 17 22 18 21 19 23 21 32 23 29 25
REMARK SMILES IDX 5 27 14 28 6 29 12 30 7 31 10 32 15 33 13 35 8 37 9 38 11 40
REMARK H PARENT 21 20 23 22 32 24 29 26 15 34 13 36 9 39 11 41
REMARK Flexibility Score: inf
ROOT
ATOM      1  O   UNL     1       9.486 -28.653 -15.060  1.00  0.00    -0.454 OA
ENDROOT
BRANCH   1   2
ATOM      2  C   UNL     1      10.010 -27.942 -13.959  1.00  0.00     0.214 A 
ATOM      3  C   UNL     1      10.856 -28.634 -13.071  1.00  0.00     0.180 A 
ATOM      4  O   UNL     1      11.295 -28.042 -11.967  1.00  0.00    -0.452 OA
ATOM      5  C   UNL     1       9.704 -26.590 -13.674  1.00  0.00     0.239 A 
ATOM      6  C   UNL     1      11.030 -26.780 -11.661  1.00  0.00     0.146 A 
ATOM      7  O   UNL     1       8.900 -25.963 -14.410  1.00  0.00    -0.285 OA
ATOM      8  C   UNL     1      10.265 -25.967 -12.533  1.00  0.00     0.111 A 
ATOM      9  C   UNL     1      11.516 -26.269 -10.456  1.00  0.00     0.094 A 
ATOM     10  C   UNL     1      10.070 -24.596 -12.187  1.00  0.00     0.134 A 
ATOM     11  C   UNL     1      11.254 -24.948 -10.090  1.00  0.00     0.123 A 
ATOM     12  C   UNL     1      10.534 -24.123 -10.953  1.00  0.00     0.093 A 
BRANCH   3  13
ATOM     13  C   UNL     1      11.259 -30.038 -13.309  1.00  0.00     0.025 A 
ATOM     14  C   UNL     1      12.490 -30.351 -13.910  1.00  0.00     0.016 A 
ATOM     15  C   UNL     1      12.862 -31.682 -14.111  1.00  0.00     0.051 A 
ATOM     16  C   UNL     1      12.017 -32.720 -13.696  1.00  0.00     0.157 A 
ATOM     17  C   UNL     1      10.426 -31.083 -12.876  1.00  0.00     0.062 A 
ATOM     18  C   UNL     1      10.799 -32.420 -13.074  1.00  0.00     0.158 A 
BRANCH  16  19
ATOM     19  O   UNL     1      12.383 -34.050 -13.896  1.00  0.00    -0.504 OA
ATOM     20  H   UNL     1      13.352 -34.344 -13.858  1.00  0.00     0.293 HD
ENDBRANCH  16  19
BRANCH  18  21
ATOM     21  O   UNL     1       9.965 -33.454 -12.655  1.00  0.00    -0.504 OA
ATOM     22  H   UNL     1      10.317 -34.392 -12.506  1.00  0.00     0.293 HD
ENDBRANCH  18  21
ENDBRANCH   3  13
BRANCH  10  23
ATOM     23  O   UNL     1       9.462 -23.661 -13.030  1.00  0.00    -0.507 OA
ATOM     24  H   UNL     1       9.352 -22.683 -12.808  1.00  0.00     0.293 HD
ENDBRANCH  10  23
BRANCH  11  25
ATOM     25  O   UNL     1      11.714 -24.441  -8.877  1.00  0.00    -0.508 OA
ATOM     26  H   UNL     1      11.468 -23.508  -8.564  1.00  0.00     0.293 HD
ENDBRANCH  11  25
ENDBRANCH   1   2
BRANCH   1  27
ATOM     27  C   UNL     1      10.087 -28.843 -16.346  1.00  0.00     0.339 C 
ATOM     28  C   UNL     1       9.231 -28.174 -17.433  1.00  0.00     0.214 C 
ATOM     29  O   UNL     1      10.288 -30.219 -16.636  1.00  0.00    -0.332 OA
ATOM     30  C   UNL     1       7.887 -28.913 -17.573  1.00  0.00     0.180 C 
ATOM     31  C   UNL     1       9.068 -30.944 -16.641  1.00  0.00     0.179 C 
ATOM     32  C   UNL     1       8.123 -30.423 -17.752  1.00  0.00     0.177 C 
BRANCH  28  33
ATOM     33  O   UNL     1       9.933 -28.199 -18.650  1.00  0.00    -0.384 OA
ATOM     34  H   UNL     1       9.509 -27.525 -19.243  1.00  0.00     0.211 HD
ENDBRANCH  28  33
BRANCH  30  35
ATOM     35  O   UNL     1       7.168 -28.415 -18.672  1.00  0.00    -0.387 OA
ATOM     36  H   UNL     1       7.583 -27.547 -18.913  1.00  0.00     0.211 HD
ENDBRANCH  30  35
BRANCH  31  37
ATOM     37  C   UNL     1       9.408 -32.427 -16.847  1.00  0.00     0.191 C 
BRANCH  37  38
ATOM     38  O   UNL     1       9.254 -32.784 -18.194  1.00  0.00    -0.394 OA
ATOM     39  H   UNL     1       8.686 -32.081 -18.603  1.00  0.00     0.210 HD
ENDBRANCH  37  38
ENDBRANCH  31  37
BRANCH  32  40
ATOM     40  O   UNL     1       6.892 -31.098 -17.684  1.00  0.00    -0.387 OA
ATOM     41  H   UNL     1       6.800 -31.610 -18.529  1.00  0.00     0.211 HD
ENDBRANCH  32  40
ENDBRANCH   1  27
TORSDOF 12
ENDMDL
MODEL 8
REMARK VINA RESULT:    -7.000      3.699      7.281
REMARK INTER + INTRA:         -11.792
REMARK INTER:                 -10.203
REMARK INTRA:                  -1.590
REMARK UNBOUND:                -1.518
REMARK SMILES O=c1c(O[C@H]2O[C@H](CO)[C@@H](O)[C@H](O)[C@@H]2O)c(-c2ccc(O)c(O)c2)oc2cc(O)cc(O)c12
REMARK SMILES IDX 4 1 3 2 16 3 25 4 2 5 26 6 1 7 33 8 27 9 31 10 28 11 30 12
REMARK SMILES IDX 17 13 18 14 19 15 20 16 24 17 22 18 21 19 23 21 32 23 29 25
REMARK SMILES IDX 5 27 14 28 6 29 12 30 7 31 10 32 15 33 13 35 8 37 9 38 11 40
REMARK H PARENT 21 20 23 22 32 24 29 26 15 34 13 36 9 39 11 41
REMARK Flexibility Score: inf
ROOT
ATOM      1  O   UNL     1      14.262 -32.141 -16.213  1.00  0.00    -0.454 OA
ENDROOT
BRANCH   1   2
ATOM      2  C   UNL     1      14.127 -32.917 -15.042  1.00  0.00     0.214 A 
ATOM      3  C   UNL     1      12.992 -33.743 -14.927  1.00  0.00     0.180 A 
ATOM      4  O   UNL     1      12.765 -34.416 -13.806  1.00  0.00    -0.452 OA
ATOM      5  C   UNL     1      15.041 -32.884 -13.962  1.00  0.00     0.239 A 
ATOM      6  C   UNL     1      13.593 -34.410 -12.771  1.00  0.00     0.146 A 
ATOM      7  O   UNL     1      16.030 -32.108 -14.004  1.00  0.00    -0.285 OA
ATOM      8  C   UNL     1      14.809 -33.687 -12.819  1.00  0.00     0.111 A 
ATOM      9  C   UNL     1      13.237 -35.129 -11.628  1.00  0.00     0.094 A 
ATOM     10  C   UNL     1      15.695 -33.773 -11.702  1.00  0.00     0.134 A 
ATOM     11  C   UNL     1      14.076 -35.144 -10.512  1.00  0.00     0.123 A 
ATOM     12  C   UNL     1      15.294 -34.468 -10.555  1.00  0.00     0.093 A 
BRANCH   3  13
ATOM     13  C   UNL     1      12.002 -33.868 -16.020  1.00  0.00     0.025 A 
ATOM     14  C   UNL     1      10.903 -32.996 -16.111  1.00  0.00     0.016 A 
ATOM     15  C   UNL     1       9.988 -33.117 -17.159  1.00  0.00     0.051 A 
ATOM     16  C   UNL     1      10.169 -34.097 -18.143  1.00  0.00     0.157 A 
ATOM     17  C   UNL     1      12.190 -34.834 -17.021  1.00  0.00     0.062 A 
ATOM     18  C   UNL     1      11.274 -34.955 -18.077  1.00  0.00     0.158 A 
BRANCH  16  19
ATOM     19  O   UNL     1       9.258 -34.222 -19.190  1.00  0.00    -0.504 OA
ATOM     20  H   UNL     1       9.343 -34.959 -19.881  1.00  0.00     0.293 HD
ENDBRANCH  16  19
BRANCH  18  21
ATOM     21  O   UNL     1      11.456 -35.923 -19.061  1.00  0.00    -0.504 OA
ATOM     22  H   UNL     1      12.192 -35.844 -19.753  1.00  0.00     0.293 HD
ENDBRANCH  18  21
ENDBRANCH   3  13
BRANCH  10  23
ATOM     23  O   UNL     1      16.982 -33.227 -11.689  1.00  0.00    -0.507 OA
ATOM     24  H   UNL     1      17.189 -32.256 -11.870  1.00  0.00     0.293 HD
ENDBRANCH  10  23
BRANCH  11  25
ATOM     25  O   UNL     1      13.714 -35.838  -9.359  1.00  0.00    -0.508 OA
ATOM     26  H   UNL     1      13.550 -35.359  -8.481  1.00  0.00     0.293 HD
ENDBRANCH  11  25
ENDBRANCH   1   2
BRANCH   1  27
ATOM     27  C   UNL     1      15.405 -32.043 -17.070  1.00  0.00     0.339 C 
ATOM     28  C   UNL     1      15.672 -30.572 -17.427  1.00  0.00     0.214 C 
ATOM     29  O   UNL     1      15.252 -32.829 -18.244  1.00  0.00    -0.332 OA
ATOM     30  C   UNL     1      14.535 -30.031 -18.313  1.00  0.00     0.180 C 
ATOM     31  C   UNL     1      14.127 -32.426 -19.010  1.00  0.00     0.179 C 
ATOM     32  C   UNL     1      14.295 -30.969 -19.508  1.00  0.00     0.177 C 
BRANCH  28  33
ATOM     33  O   UNL     1      16.903 -30.480 -18.099  1.00  0.00    -0.384 OA
ATOM     34  H   UNL     1      17.535 -31.087 -17.633  1.00  0.00     0.211 HD
ENDBRANCH  28  33
BRANCH  30  35
ATOM     35  O   UNL     1      14.850 -28.744 -18.779  1.00  0.00    -0.387 OA
ATOM     36  H   UNL     1      14.530 -28.106 -18.090  1.00  0.00     0.211 HD
ENDBRANCH  30  35
BRANCH  31  37
ATOM     37  C   UNL     1      13.987 -33.406 -20.184  1.00  0.00     0.191 C 
BRANCH  37  38
ATOM     38  O   UNL     1      12.651 -33.485 -20.601  1.00  0.00    -0.394 OA
ATOM     39  H   UNL     1      12.635 -33.160 -21.539  1.00  0.00     0.210 HD
ENDBRANCH  37  38
ENDBRANCH  31  37
BRANCH  32  40
ATOM     40  O   UNL     1      13.136 -30.565 -20.192  1.00  0.00    -0.387 OA
ATOM     41  H   UNL     1      12.665 -31.392 -20.472  1.00  0.00     0.211 HD
ENDBRANCH  32  40
ENDBRANCH   1  27
TORSDOF 12
ENDMDL
MODEL 9
REMARK VINA RESULT:    -6.839      4.203      8.125
REMARK INTER + INTRA:         -11.555
REMARK INTER:                  -9.835
REMARK INTRA:                  -1.720
REMARK UNBOUND:                -1.518
REMARK SMILES O=c1c(O[C@H]2O[C@H](CO)[C@@H](O)[C@H](O)[C@@H]2O)c(-c2ccc(O)c(O)c2)oc2cc(O)cc(O)c12
REMARK SMILES IDX 4 1 3 2 16 3 25 4 2 5 26 6 1 7 33 8 27 9 31 10 28 11 30 12
REMARK SMILES IDX 17 13 18 14 19 15 20 16 24 17 22 18 21 19 23 21 32 23 29 25
REMARK SMILES IDX 5 27 14 28 6 29 12 30 7 31 10 32 15 33 13 35 8 37 9 38 11 40
REMARK H PARENT 21 20 23 22 32 24 29 26 15 34 13 36 9 39 11 41
REMARK Flexibility Score: inf
ROOT
ATOM      1  O   UNL     1      10.553 -30.754 -15.556  1.00  0.00    -0.454 OA
ENDROOT
BRANCH   1   2
ATOM      2  C   UNL     1       9.789 -29.590 -15.327  1.00  0.00     0.214 A 
ATOM      3  C   UNL     1       8.816 -29.242 -16.283  1.00  0.00     0.180 A 
ATOM      4  O   UNL     1       8.141 -28.105 -16.168  1.00  0.00    -0.452 OA
ATOM      5  C   UNL     1       9.971 -28.731 -14.216  1.00  0.00     0.239 A 
ATOM      6  C   UNL     1       8.283 -27.272 -15.147  1.00  0.00     0.146 A 
ATOM      7  O   UNL     1      10.877 -28.976 -13.379  1.00  0.00    -0.285 OA
ATOM      8  C   UNL     1       9.168 -27.573 -14.083  1.00  0.00     0.111 A 
ATOM      9  C   UNL     1       7.545 -26.087 -15.145  1.00  0.00     0.094 A 
ATOM     10  C   UNL     1       9.229 -26.674 -12.975  1.00  0.00     0.134 A 
ATOM     11  C   UNL     1       7.670 -25.178 -14.093  1.00  0.00     0.123 A 
ATOM     12  C   UNL     1       8.509 -25.474 -13.020  1.00  0.00     0.093 A 
BRANCH   3  13
ATOM     13  C   UNL     1       8.532 -30.099 -17.457  1.00  0.00     0.025 A 
ATOM     14  C   UNL     1       7.550 -31.103 -17.404  1.00  0.00     0.016 A 
ATOM     15  C   UNL     1       7.283 -31.891 -18.526  1.00  0.00     0.051 A 
ATOM     16  C   UNL     1       7.979 -31.672 -19.723  1.00  0.00     0.157 A 
ATOM     17  C   UNL     1       9.210 -29.869 -18.664  1.00  0.00     0.062 A 
ATOM     18  C   UNL     1       8.941 -30.658 -19.793  1.00  0.00     0.158 A 
BRANCH  16  19
ATOM     19  O   UNL     1       7.717 -32.456 -20.845  1.00  0.00    -0.504 OA
ATOM     20  H   UNL     1       8.278 -33.271 -21.065  1.00  0.00     0.293 HD
ENDBRANCH  16  19
BRANCH  18  21
ATOM     21  O   UNL     1       9.625 -30.436 -20.986  1.00  0.00    -0.504 OA
ATOM     22  H   UNL     1       9.306 -29.752 -21.662  1.00  0.00     0.293 HD
ENDBRANCH  18  21
ENDBRANCH   3  13
BRANCH  10  23
ATOM     23  O   UNL     1       9.950 -26.931 -11.805  1.00  0.00    -0.507 OA
ATOM     24  H   UNL     1       9.604 -26.754 -10.875  1.00  0.00     0.293 HD
ENDBRANCH  10  23
BRANCH  11  25
ATOM     25  O   UNL     1       6.956 -23.981 -14.098  1.00  0.00    -0.508 OA
ATOM     26  H   UNL     1       7.403 -23.098 -14.317  1.00  0.00     0.293 HD
ENDBRANCH  11  25
ENDBRANCH   1   2
BRANCH   1  27
ATOM     27  C   UNL     1      10.373 -32.048 -14.969  1.00  0.00     0.339 C 
ATOM     28  C   UNL     1      11.663 -32.490 -14.259  1.00  0.00     0.214 C 
ATOM     29  O   UNL     1       9.969 -33.012 -15.931  1.00  0.00    -0.332 OA
ATOM     30  C   UNL     1      12.774 -32.739 -15.296  1.00  0.00     0.180 C 
ATOM     31  C   UNL     1      10.926 -33.160 -16.968  1.00  0.00     0.179 C 
ATOM     32  C   UNL     1      12.272 -33.680 -16.404  1.00  0.00     0.177 C 
BRANCH  28  33
ATOM     33  O   UNL     1      11.405 -33.662 -13.527  1.00  0.00    -0.384 OA
ATOM     34  H   UNL     1      11.897 -34.398 -13.975  1.00  0.00     0.211 HD
ENDBRANCH  28  33
BRANCH  30  35
ATOM     35  O   UNL     1      13.903 -33.299 -14.676  1.00  0.00    -0.387 OA
ATOM     36  H   UNL     1      14.369 -33.837 -15.366  1.00  0.00     0.211 HD
ENDBRANCH  30  35
BRANCH  31  37
ATOM     37  C   UNL     1      10.344 -34.130 -18.006  1.00  0.00     0.191 C 
BRANCH  37  38
ATOM     38  O   UNL     1      10.767 -35.441 -17.745  1.00  0.00    -0.394 OA
ATOM     39  H   UNL     1      10.483 -35.643 -16.816  1.00  0.00     0.210 HD
ENDBRANCH  37  38
ENDBRANCH  31  37
BRANCH  32  40
ATOM     40  O   UNL     1      13.227 -33.740 -17.433  1.00  0.00    -0.387 OA
ATOM     41  H   UNL     1      12.732 -33.920 -18.274  1.00  0.00     0.211 HD
ENDBRANCH  32  40
ENDBRANCH   1  27
TORSDOF 12
ENDMDL
