MODEL 1
REMARK VINA RESULT:    -5.283      0.000      0.000
REMARK INTER + INTRA:         -19.287
REMARK INTER:                 -13.931
REMARK INTRA:                  -5.355
REMARK UNBOUND:                -5.355
REMARK SMILES CCCCCCCCCCCCCCCCCCCCCCCCCCCCCC(=O)[O-]
REMARK SMILES IDX 16 1 17 2 18 3 19 4 20 5 21 6 22 7 23 8 24 9 25 10 26 11
REMARK SMILES IDX 27 12 28 13 29 14 30 15 31 16 32 17 15 18 14 19 13 20 12 21
REMARK SMILES IDX 11 22 10 23 9 24 8 25 7 26 6 27 5 28 4 29 3 30 2 31 1 32
REMARK H PARENT
REMARK Flexibility Score: inf
ROOT
ATOM      1  C   UNL     1      19.703  14.166  36.432  1.00  0.00     0.000 C 
ENDROOT
BRANCH   1   2
ATOM      2  C   UNL     1      21.001  13.585  37.024  1.00  0.00     0.000 C 
BRANCH   2   3
ATOM      3  C   UNL     1      21.621  12.472  36.154  1.00  0.00     0.000 C 
BRANCH   3   4
ATOM      4  C   UNL     1      20.868  11.131  36.293  1.00  0.00     0.000 C 
BRANCH   4   5
ATOM      5  C   UNL     1      20.049  10.742  35.052  1.00  0.00     0.000 C 
BRANCH   5   6
ATOM      6  C   UNL     1      20.677  11.247  33.744  1.00  0.00     0.000 C 
BRANCH   6   7
ATOM      7  C   UNL     1      19.738  12.180  32.960  1.00  0.00     0.000 C 
BRANCH   7   8
ATOM      8  C   UNL     1      20.332  13.589  32.772  1.00  0.00     0.000 C 
BRANCH   8   9
ATOM      9  C   UNL     1      21.769  13.557  32.228  1.00  0.00     0.000 C 
BRANCH   9  10
ATOM     10  C   UNL     1      22.568  14.816  32.604  1.00  0.00     0.000 C 
BRANCH  10  11
ATOM     11  C   UNL     1      22.318  15.280  34.051  1.00  0.00     0.000 C 
BRANCH  11  12
ATOM     12  C   UNL     1      21.811  16.727  34.199  1.00  0.00     0.000 C 
BRANCH  12  13
ATOM     13  C   UNL     1      20.770  17.114  33.135  1.00  0.00     0.006 C 
BRANCH  13  14
ATOM     14  C   UNL     1      20.023  18.405  33.498  1.00  0.00     0.053 C 
BRANCH  14  15
ATOM     15  C   UNL     1      20.137  19.439  32.419  1.00  0.00     0.041 C 
ATOM     16  O   UNL     1      19.359  19.413  31.430  1.00  0.00    -0.550 OA
ATOM     17  O   UNL     1      21.096  20.440  32.514  1.00  0.00    -0.550 OA
ENDBRANCH  14  15
ENDBRANCH  13  14
ENDBRANCH  12  13
ENDBRANCH  11  12
ENDBRANCH  10  11
ENDBRANCH   9  10
ENDBRANCH   8   9
ENDBRANCH   7   8
ENDBRANCH   6   7
ENDBRANCH   5   6
ENDBRANCH   4   5
ENDBRANCH   3   4
ENDBRANCH   2   3
ENDBRANCH   1   2
BRANCH   1  18
ATOM     18  C   UNL     1      18.395  13.766  37.151  1.00  0.00     0.000 C 
BRANCH  18  19
ATOM     19  C   UNL     1      17.309  13.156  36.235  1.00  0.00     0.000 C 
BRANCH  19  20
ATOM     20  C   UNL     1      16.860  11.732  36.614  1.00  0.00     0.000 C 
BRANCH  20  21
ATOM     21  C   UNL     1      16.240  10.949  35.445  1.00  0.00     0.000 C 
BRANCH  21  22
ATOM     22  C   UNL     1      16.530  11.662  34.118  1.00  0.00     0.000 C 
BRANCH  22  23
ATOM     23  C   UNL     1      15.613  11.163  32.996  1.00  0.00     0.000 C 
BRANCH  23  24
ATOM     24  C   UNL     1      14.512  10.259  33.564  1.00  0.00    -0.000 C 
BRANCH  24  25
ATOM     25  C   UNL     1      13.121  10.880  33.370  1.00  0.00    -0.000 C 
BRANCH  25  26
ATOM     26  C   UNL     1      13.191  12.380  33.012  1.00  0.00    -0.000 C 
BRANCH  26  27
ATOM     27  C   UNL     1      12.661  13.316  34.118  1.00  0.00    -0.000 C 
BRANCH  27  28
ATOM     28  C   UNL     1      13.722  13.855  35.093  1.00  0.00    -0.000 C 
BRANCH  28  29
ATOM     29  C   UNL     1      13.504  13.378  36.540  1.00  0.00    -0.000 C 
BRANCH  29  30
ATOM     30  C   UNL     1      12.213  12.554  36.706  1.00  0.00    -0.000 C 
BRANCH  30  31
ATOM     31  C   UNL     1      12.244  11.535  37.858  1.00  0.00    -0.003 C 
ATOM     32  C   UNL     1      13.485  10.642  37.830  1.00  0.00     0.004 C 
ENDBRANCH  30  31
ENDBRANCH  29  30
ENDBRANCH  28  29
ENDBRANCH  27  28
ENDBRANCH  26  27
ENDBRANCH  25  26
ENDBRANCH  24  25
ENDBRANCH  23  24
ENDBRANCH  22  23
ENDBRANCH  21  22
ENDBRANCH  20  21
ENDBRANCH  19  20
ENDBRANCH  18  19
ENDBRANCH   1  18
TORSDOF 28
ENDMDL
MODEL 2
REMARK VINA RESULT:    -5.160      3.329      8.701
REMARK INTER + INTRA:         -18.962
REMARK INTER:                 -14.394
REMARK INTRA:                  -4.568
REMARK UNBOUND:                -5.355
REMARK SMILES CCCCCCCCCCCCCCCCCCCCCCCCCCCCCC(=O)[O-]
REMARK SMILES IDX 16 1 17 2 18 3 19 4 20 5 21 6 22 7 23 8 24 9 25 10 26 11
REMARK SMILES IDX 27 12 28 13 29 14 30 15 31 16 32 17 15 18 14 19 13 20 12 21
REMARK SMILES IDX 11 22 10 23 9 24 8 25 7 26 6 27 5 28 4 29 3 30 2 31 1 32
REMARK H PARENT
REMARK Flexibility Score: inf
ROOT
ATOM      1  C   UNL     1      19.685  10.787  35.468  1.00  0.00     0.000 C 
ENDROOT
BRANCH   1   2
ATOM      2  C   UNL     1      20.262  11.909  36.349  1.00  0.00     0.000 C 
BRANCH   2   3
ATOM      3  C   UNL     1      19.177  12.824  36.956  1.00  0.00     0.000 C 
BRANCH   3   4
ATOM      4  C   UNL     1      19.255  14.267  36.410  1.00  0.00     0.000 C 
BRANCH   4   5
ATOM      5  C   UNL     1      18.374  14.518  35.177  1.00  0.00     0.000 C 
BRANCH   5   6
ATOM      6  C   UNL     1      17.089  13.675  35.184  1.00  0.00     0.000 C 
BRANCH   6   7
ATOM      7  C   UNL     1      16.853  12.944  33.851  1.00  0.00     0.000 C 
BRANCH   7   8
ATOM      8  C   UNL     1      16.302  11.520  34.050  1.00  0.00     0.000 C 
BRANCH   8   9
ATOM      9  C   UNL     1      15.228  11.152  33.013  1.00  0.00     0.000 C 
BRANCH   9  10
ATOM     10  C   UNL     1      13.800  11.321  33.559  1.00  0.00     0.000 C 
BRANCH  10  11
ATOM     11  C   UNL     1      13.249  12.747  33.375  1.00  0.00     0.000 C 
BRANCH  11  12
ATOM     12  C   UNL     1      12.541  13.343  34.607  1.00  0.00     0.000 C 
BRANCH  12  13
ATOM     13  C   UNL     1      13.430  13.365  35.862  1.00  0.00     0.006 C 
BRANCH  13  14
ATOM     14  C   UNL     1      12.720  12.769  37.086  1.00  0.00     0.053 C 
BRANCH  14  15
ATOM     15  C   UNL     1      12.832  11.276  37.126  1.00  0.00     0.041 C 
ATOM     16  O   UNL     1      13.761  10.726  37.774  1.00  0.00    -0.550 OA
ATOM     17  O   UNL     1      11.902  10.490  36.457  1.00  0.00    -0.550 OA
ENDBRANCH  14  15
ENDBRANCH  13  14
ENDBRANCH  12  13
ENDBRANCH  11  12
ENDBRANCH  10  11
ENDBRANCH   9  10
ENDBRANCH   8   9
ENDBRANCH   7   8
ENDBRANCH   6   7
ENDBRANCH   5   6
ENDBRANCH   4   5
ENDBRANCH   3   4
ENDBRANCH   2   3
ENDBRANCH   1   2
BRANCH   1  18
ATOM     18  C   UNL     1      20.166  10.768  33.999  1.00  0.00     0.000 C 
BRANCH  18  19
ATOM     19  C   UNL     1      20.926  12.036  33.546  1.00  0.00     0.000 C 
BRANCH  19  20
ATOM     20  C   UNL     1      20.222  12.863  32.454  1.00  0.00     0.000 C 
BRANCH  20  21
ATOM     21  C   UNL     1      21.026  14.091  31.996  1.00  0.00     0.000 C 
BRANCH  21  22
ATOM     22  C   UNL     1      22.518  13.745  31.911  1.00  0.00     0.000 C 
BRANCH  22  23
ATOM     23  C   UNL     1      23.382  14.786  32.632  1.00  0.00     0.000 C 
BRANCH  23  24
ATOM     24  C   UNL     1      22.852  15.034  34.050  1.00  0.00    -0.000 C 
BRANCH  24  25
ATOM     25  C   UNL     1      22.659  16.533  34.323  1.00  0.00    -0.000 C 
BRANCH  25  26
ATOM     26  C   UNL     1      21.195  16.884  34.667  1.00  0.00    -0.000 C 
BRANCH  26  27
ATOM     27  C   UNL     1      20.379  17.415  33.471  1.00  0.00    -0.000 C 
BRANCH  27  28
ATOM     28  C   UNL     1      19.419  18.575  33.788  1.00  0.00    -0.000 C 
BRANCH  28  29
ATOM     29  C   UNL     1      19.215  19.527  32.595  1.00  0.00    -0.000 C 
BRANCH  29  30
ATOM     30  C   UNL     1      20.473  19.656  31.716  1.00  0.00    -0.000 C 
BRANCH  30  31
ATOM     31  C   UNL     1      21.544  20.617  32.262  1.00  0.00    -0.003 C 
ATOM     32  C   UNL     1      22.847  20.572  31.463  1.00  0.00     0.004 C 
ENDBRANCH  30  31
ENDBRANCH  29  30
ENDBRANCH  28  29
ENDBRANCH  27  28
ENDBRANCH  26  27
ENDBRANCH  25  26
ENDBRANCH  24  25
ENDBRANCH  23  24
ENDBRANCH  22  23
ENDBRANCH  21  22
ENDBRANCH  20  21
ENDBRANCH  19  20
ENDBRANCH  18  19
ENDBRANCH   1  18
TORSDOF 28
ENDMDL
MODEL 3
REMARK VINA RESULT:    -5.130      3.767      8.382
REMARK INTER + INTRA:         -18.882
REMARK INTER:                 -13.252
REMARK INTRA:                  -5.630
REMARK UNBOUND:                -5.355
REMARK SMILES CCCCCCCCCCCCCCCCCCCCCCCCCCCCCC(=O)[O-]
REMARK SMILES IDX 16 1 17 2 18 3 19 4 20 5 21 6 22 7 23 8 24 9 25 10 26 11
REMARK SMILES IDX 27 12 28 13 29 14 30 15 31 16 32 17 15 18 14 19 13 20 12 21
REMARK SMILES IDX 11 22 10 23 9 24 8 25 7 26 6 27 5 28 4 29 3 30 2 31 1 32
REMARK H PARENT
REMARK Flexibility Score: inf
ROOT
ATOM      1  C   UNL     1      18.421  13.497  37.040  1.00  0.00     0.000 C 
ENDROOT
BRANCH   1   2
ATOM      2  C   UNL     1      18.958  14.496  35.999  1.00  0.00     0.000 C 
BRANCH   2   3
ATOM      3  C   UNL     1      18.049  14.631  34.760  1.00  0.00     0.000 C 
BRANCH   3   4
ATOM      4  C   UNL     1      16.830  13.686  34.821  1.00  0.00     0.000 C 
BRANCH   4   5
ATOM      5  C   UNL     1      16.856  12.563  33.772  1.00  0.00     0.000 C 
BRANCH   5   6
ATOM      6  C   UNL     1      15.972  11.367  34.161  1.00  0.00     0.000 C 
BRANCH   6   7
ATOM      7  C   UNL     1      15.044  10.921  33.017  1.00  0.00     0.000 C 
BRANCH   7   8
ATOM      8  C   UNL     1      13.570  11.273  33.285  1.00  0.00     0.000 C 
BRANCH   8   9
ATOM      9  C   UNL     1      13.322  12.789  33.326  1.00  0.00     0.000 C 
BRANCH   9  10
ATOM     10  C   UNL     1      12.402  13.205  34.487  1.00  0.00     0.000 C 
BRANCH  10  11
ATOM     11  C   UNL     1      13.139  13.989  35.589  1.00  0.00     0.000 C 
BRANCH  11  12
ATOM     12  C   UNL     1      13.841  13.125  36.654  1.00  0.00     0.000 C 
BRANCH  12  13
ATOM     13  C   UNL     1      12.953  11.989  37.191  1.00  0.00     0.006 C 
BRANCH  13  14
ATOM     14  C   UNL     1      13.603  10.610  37.005  1.00  0.00     0.053 C 
BRANCH  14  15
ATOM     15  C   UNL     1      13.231   9.664  38.105  1.00  0.00     0.041 C 
ATOM     16  O   UNL     1      13.436   9.976  39.307  1.00  0.00    -0.550 OA
ATOM     17  O   UNL     1      12.647   8.440  37.803  1.00  0.00    -0.550 OA
ENDBRANCH  14  15
ENDBRANCH  13  14
ENDBRANCH  12  13
ENDBRANCH  11  12
ENDBRANCH  10  11
ENDBRANCH   9  10
ENDBRANCH   8   9
ENDBRANCH   7   8
ENDBRANCH   6   7
ENDBRANCH   5   6
ENDBRANCH   4   5
ENDBRANCH   3   4
ENDBRANCH   2   3
ENDBRANCH   1   2
BRANCH   1  18
ATOM     18  C   UNL     1      19.309  12.262  37.311  1.00  0.00     0.000 C 
BRANCH  18  19
ATOM     19  C   UNL     1      19.361  11.232  36.159  1.00  0.00     0.000 C 
BRANCH  19  20
ATOM     20  C   UNL     1      20.616  11.313  35.269  1.00  0.00     0.000 C 
BRANCH  20  21
ATOM     21  C   UNL     1      20.321  11.142  33.770  1.00  0.00     0.000 C 
BRANCH  21  22
ATOM     22  C   UNL     1      20.403  12.498  33.057  1.00  0.00     0.000 C 
BRANCH  22  23
ATOM     23  C   UNL     1      21.845  12.850  32.674  1.00  0.00     0.000 C 
BRANCH  23  24
ATOM     24  C   UNL     1      21.887  14.170  31.894  1.00  0.00    -0.000 C 
BRANCH  24  25
ATOM     25  C   UNL     1      21.126  15.282  32.631  1.00  0.00    -0.000 C 
BRANCH  25  26
ATOM     26  C   UNL     1      22.074  16.253  33.368  1.00  0.00    -0.000 C 
BRANCH  26  27
ATOM     27  C   UNL     1      21.531  16.756  34.722  1.00  0.00    -0.000 C 
BRANCH  27  28
ATOM     28  C   UNL     1      22.312  16.290  35.963  1.00  0.00    -0.000 C 
BRANCH  28  29
ATOM     29  C   UNL     1      22.596  14.776  35.959  1.00  0.00    -0.000 C 
BRANCH  29  30
ATOM     30  C   UNL     1      22.477  14.147  37.359  1.00  0.00    -0.000 C 
BRANCH  30  31
ATOM     31  C   UNL     1      21.966  15.101  38.453  1.00  0.00    -0.003 C 
ATOM     32  C   UNL     1      21.306  14.368  39.622  1.00  0.00     0.004 C 
ENDBRANCH  30  31
ENDBRANCH  29  30
ENDBRANCH  28  29
ENDBRANCH  27  28
ENDBRANCH  26  27
ENDBRANCH  25  26
ENDBRANCH  24  25
ENDBRANCH  23  24
ENDBRANCH  22  23
ENDBRANCH  21  22
ENDBRANCH  20  21
ENDBRANCH  19  20
ENDBRANCH  18  19
ENDBRANCH   1  18
TORSDOF 28
ENDMDL
MODEL 4
REMARK VINA RESULT:    -5.020      2.999      4.330
REMARK INTER + INTRA:         -18.593
REMARK INTER:                 -13.054
REMARK INTRA:                  -5.540
REMARK UNBOUND:                -5.355
REMARK SMILES CCCCCCCCCCCCCCCCCCCCCCCCCCCCCC(=O)[O-]
REMARK SMILES IDX 16 1 17 2 18 3 19 4 20 5 21 6 22 7 23 8 24 9 25 10 26 11
REMARK SMILES IDX 27 12 28 13 29 14 30 15 31 16 32 17 15 18 14 19 13 20 12 21
REMARK SMILES IDX 11 22 10 23 9 24 8 25 7 26 6 27 5 28 4 29 3 30 2 31 1 32
REMARK H PARENT
REMARK Flexibility Score: inf
ROOT
ATOM      1  C   UNL     1      19.113  10.919  35.924  1.00  0.00     0.000 C 
ENDROOT
BRANCH   1   2
ATOM      2  C   UNL     1      20.109  11.293  34.812  1.00  0.00     0.000 C 
BRANCH   2   3
ATOM      3  C   UNL     1      19.531  11.119  33.392  1.00  0.00     0.000 C 
BRANCH   3   4
ATOM      4  C   UNL     1      19.793  12.350  32.497  1.00  0.00     0.000 C 
BRANCH   4   5
ATOM      5  C   UNL     1      20.216  13.608  33.272  1.00  0.00     0.000 C 
BRANCH   5   6
ATOM      6  C   UNL     1      21.055  14.574  32.421  1.00  0.00     0.000 C 
BRANCH   6   7
ATOM      7  C   UNL     1      22.494  14.072  32.202  1.00  0.00     0.000 C 
BRANCH   7   8
ATOM      8  C   UNL     1      23.540  14.968  32.888  1.00  0.00     0.000 C 
BRANCH   8   9
ATOM      9  C   UNL     1      22.902  16.089  33.725  1.00  0.00     0.000 C 
BRANCH   9  10
ATOM     10  C   UNL     1      23.292  16.010  35.210  1.00  0.00     0.000 C 
BRANCH  10  11
ATOM     11  C   UNL     1      22.087  15.766  36.138  1.00  0.00     0.000 C 
BRANCH  11  12
ATOM     12  C   UNL     1      21.750  14.286  36.404  1.00  0.00     0.000 C 
BRANCH  12  13
ATOM     13  C   UNL     1      22.938  13.343  36.153  1.00  0.00     0.006 C 
BRANCH  13  14
ATOM     14  C   UNL     1      23.048  12.251  37.228  1.00  0.00     0.053 C 
BRANCH  14  15
ATOM     15  C   UNL     1      24.420  12.192  37.827  1.00  0.00     0.041 C 
ATOM     16  O   UNL     1      25.427  12.500  37.138  1.00  0.00    -0.550 OA
ATOM     17  O   UNL     1      24.584  11.807  39.152  1.00  0.00    -0.550 OA
ENDBRANCH  14  15
ENDBRANCH  13  14
ENDBRANCH  12  13
ENDBRANCH  11  12
ENDBRANCH  10  11
ENDBRANCH   9  10
ENDBRANCH   8   9
ENDBRANCH   7   8
ENDBRANCH   6   7
ENDBRANCH   5   6
ENDBRANCH   4   5
ENDBRANCH   3   4
ENDBRANCH   2   3
ENDBRANCH   1   2
BRANCH   1  18
ATOM     18  C   UNL     1      19.167  11.790  37.199  1.00  0.00     0.000 C 
BRANCH  18  19
ATOM     19  C   UNL     1      18.334  13.091  37.135  1.00  0.00     0.000 C 
BRANCH  19  20
ATOM     20  C   UNL     1      17.048  13.001  36.291  1.00  0.00     0.000 C 
BRANCH  20  21
ATOM     21  C   UNL     1      17.064  13.900  35.044  1.00  0.00     0.000 C 
BRANCH  21  22
ATOM     22  C   UNL     1      16.442  13.162  33.852  1.00  0.00     0.000 C 
BRANCH  22  23
ATOM     23  C   UNL     1      15.950  11.765  34.246  1.00  0.00     0.000 C 
BRANCH  23  24
ATOM     24  C   UNL     1      15.399  11.024  33.021  1.00  0.00    -0.000 C 
BRANCH  24  25
ATOM     25  C   UNL     1      13.933  11.395  32.753  1.00  0.00    -0.000 C 
BRANCH  25  26
ATOM     26  C   UNL     1      13.173  11.762  34.046  1.00  0.00    -0.000 C 
BRANCH  26  27
ATOM     27  C   UNL     1      12.590  13.190  34.048  1.00  0.00    -0.000 C 
BRANCH  27  28
ATOM     28  C   UNL     1      13.047  14.089  35.210  1.00  0.00    -0.000 C 
BRANCH  28  29
ATOM     29  C   UNL     1      13.385  13.296  36.485  1.00  0.00    -0.000 C 
BRANCH  29  30
ATOM     30  C   UNL     1      12.137  12.698  37.161  1.00  0.00    -0.000 C 
BRANCH  30  31
ATOM     31  C   UNL     1      12.387  11.388  37.929  1.00  0.00    -0.003 C 
ATOM     32  C   UNL     1      13.765  10.787  37.650  1.00  0.00     0.004 C 
ENDBRANCH  30  31
ENDBRANCH  29  30
ENDBRANCH  28  29
ENDBRANCH  27  28
ENDBRANCH  26  27
ENDBRANCH  25  26
ENDBRANCH  24  25
ENDBRANCH  23  24
ENDBRANCH  22  23
ENDBRANCH  21  22
ENDBRANCH  20  21
ENDBRANCH  19  20
ENDBRANCH  18  19
ENDBRANCH   1  18
TORSDOF 28
ENDMDL
MODEL 5
REMARK VINA RESULT:    -5.017      3.575      8.941
REMARK INTER + INTRA:         -18.584
REMARK INTER:                 -14.395
REMARK INTRA:                  -4.190
REMARK UNBOUND:                -5.355
REMARK SMILES CCCCCCCCCCCCCCCCCCCCCCCCCCCCCC(=O)[O-]
REMARK SMILES IDX 16 1 17 2 18 3 19 4 20 5 21 6 22 7 23 8 24 9 25 10 26 11
REMARK SMILES IDX 27 12 28 13 29 14 30 15 31 16 32 17 15 18 14 19 13 20 12 21
REMARK SMILES IDX 11 22 10 23 9 24 8 25 7 26 6 27 5 28 4 29 3 30 2 31 1 32
REMARK H PARENT
REMARK Flexibility Score: inf
ROOT
ATOM      1  C   UNL     1      19.798  14.088  35.672  1.00  0.00     0.000 C 
ENDROOT
BRANCH   1   2
ATOM      2  C   UNL     1      18.626  13.841  36.638  1.00  0.00     0.000 C 
BRANCH   2   3
ATOM      3  C   UNL     1      17.263  13.723  35.924  1.00  0.00     0.000 C 
BRANCH   3   4
ATOM      4  C   UNL     1      16.740  12.271  35.894  1.00  0.00     0.000 C 
BRANCH   4   5
ATOM      5  C   UNL     1      17.059  11.518  34.593  1.00  0.00     0.000 C 
BRANCH   5   6
ATOM      6  C   UNL     1      16.196  11.984  33.410  1.00  0.00     0.000 C 
BRANCH   6   7
ATOM      7  C   UNL     1      15.329  10.852  32.829  1.00  0.00     0.000 C 
BRANCH   7   8
ATOM      8  C   UNL     1      13.834  11.220  32.787  1.00  0.00     0.000 C 
BRANCH   8   9
ATOM      9  C   UNL     1      13.334  11.813  34.114  1.00  0.00     0.000 C 
BRANCH   9  10
ATOM     10  C   UNL     1      12.983  13.306  33.996  1.00  0.00     0.000 C 
BRANCH  10  11
ATOM     11  C   UNL     1      13.194  14.081  35.309  1.00  0.00     0.000 C 
BRANCH  11  12
ATOM     12  C   UNL     1      13.122  13.232  36.593  1.00  0.00     0.000 C 
BRANCH  12  13
ATOM     13  C   UNL     1      11.681  12.985  37.073  1.00  0.00     0.006 C 
BRANCH  13  14
ATOM     14  C   UNL     1      11.610  11.904  38.161  1.00  0.00     0.053 C 
BRANCH  14  15
ATOM     15  C   UNL     1      12.212  10.610  37.704  1.00  0.00     0.041 C 
ATOM     16  O   UNL     1      13.222  10.138  38.288  1.00  0.00    -0.550 OA
ATOM     17  O   UNL     1      11.649   9.920  36.638  1.00  0.00    -0.550 OA
ENDBRANCH  14  15
ENDBRANCH  13  14
ENDBRANCH  12  13
ENDBRANCH  11  12
ENDBRANCH  10  11
ENDBRANCH   9  10
ENDBRANCH   8   9
ENDBRANCH   7   8
ENDBRANCH   6   7
ENDBRANCH   5   6
ENDBRANCH   4   5
ENDBRANCH   3   4
ENDBRANCH   2   3
ENDBRANCH   1   2
BRANCH   1  18
ATOM     18  C   UNL     1      20.575  12.832  35.217  1.00  0.00     0.000 C 
BRANCH  18  19
ATOM     19  C   UNL     1      20.500  12.534  33.702  1.00  0.00     0.000 C 
BRANCH  19  20
ATOM     20  C   UNL     1      20.347  13.773  32.799  1.00  0.00     0.000 C 
BRANCH  20  21
ATOM     21  C   UNL     1      21.505  13.958  31.805  1.00  0.00     0.000 C 
BRANCH  21  22
ATOM     22  C   UNL     1      22.848  13.722  32.507  1.00  0.00     0.000 C 
BRANCH  22  23
ATOM     23  C   UNL     1      23.467  15.035  32.999  1.00  0.00     0.000 C 
BRANCH  23  24
ATOM     24  C   UNL     1      23.495  15.075  34.532  1.00  0.00    -0.000 C 
BRANCH  24  25
ATOM     25  C   UNL     1      22.677  16.253  35.078  1.00  0.00    -0.000 C 
BRANCH  25  26
ATOM     26  C   UNL     1      22.999  17.579  34.354  1.00  0.00    -0.000 C 
BRANCH  26  27
ATOM     27  C   UNL     1      21.841  18.121  33.491  1.00  0.00    -0.000 C 
BRANCH  27  28
ATOM     28  C   UNL     1      20.493  17.400  33.664  1.00  0.00    -0.000 C 
BRANCH  28  29
ATOM     29  C   UNL     1      19.539  17.620  32.476  1.00  0.00    -0.000 C 
BRANCH  29  30
ATOM     30  C   UNL     1      19.615  19.051  31.911  1.00  0.00    -0.000 C 
BRANCH  30  31
ATOM     31  C   UNL     1      18.390  19.483  31.085  1.00  0.00    -0.003 C 
ATOM     32  C   UNL     1      18.487  19.070  29.616  1.00  0.00     0.004 C 
ENDBRANCH  30  31
ENDBRANCH  29  30
ENDBRANCH  28  29
ENDBRANCH  27  28
ENDBRANCH  26  27
ENDBRANCH  25  26
ENDBRANCH  24  25
ENDBRANCH  23  24
ENDBRANCH  22  23
ENDBRANCH  21  22
ENDBRANCH  20  21
ENDBRANCH  19  20
ENDBRANCH  18  19
ENDBRANCH   1  18
TORSDOF 28
ENDMDL
MODEL 6
REMARK VINA RESULT:    -5.014      1.207      2.963
REMARK INTER + INTRA:         -18.578
REMARK INTER:                 -13.578
REMARK INTRA:                  -5.000
REMARK UNBOUND:                -5.355
REMARK SMILES CCCCCCCCCCCCCCCCCCCCCCCCCCCCCC(=O)[O-]
REMARK SMILES IDX 16 1 17 2 18 3 19 4 20 5 21 6 22 7 23 8 24 9 25 10 26 11
REMARK SMILES IDX 27 12 28 13 29 14 30 15 31 16 32 17 15 18 14 19 13 20 12 21
REMARK SMILES IDX 11 22 10 23 9 24 8 25 7 26 6 27 5 28 4 29 3 30 2 31 1 32
REMARK H PARENT
REMARK Flexibility Score: inf
ROOT
ATOM      1  C   UNL     1      20.341  10.316  36.851  1.00  0.00     0.000 C 
ENDROOT
BRANCH   1   2
ATOM      2  C   UNL     1      20.195  10.402  35.321  1.00  0.00     0.000 C 
BRANCH   2   3
ATOM      3  C   UNL     1      20.964  11.587  34.702  1.00  0.00     0.000 C 
BRANCH   3   4
ATOM      4  C   UNL     1      20.585  11.823  33.223  1.00  0.00     0.000 C 
BRANCH   4   5
ATOM      5  C   UNL     1      20.714  13.286  32.770  1.00  0.00     0.000 C 
BRANCH   5   6
ATOM      6  C   UNL     1      21.968  13.534  31.917  1.00  0.00     0.000 C 
BRANCH   6   7
ATOM      7  C   UNL     1      22.884  14.617  32.513  1.00  0.00     0.000 C 
BRANCH   7   8
ATOM      8  C   UNL     1      23.176  14.383  34.006  1.00  0.00     0.000 C 
BRANCH   8   9
ATOM      9  C   UNL     1      23.425  15.692  34.772  1.00  0.00     0.000 C 
BRANCH   9  10
ATOM     10  C   UNL     1      22.185  16.164  35.550  1.00  0.00     0.000 C 
BRANCH  10  11
ATOM     11  C   UNL     1      21.369  17.230  34.795  1.00  0.00     0.000 C 
BRANCH  11  12
ATOM     12  C   UNL     1      20.169  16.693  33.991  1.00  0.00     0.000 C 
BRANCH  12  13
ATOM     13  C   UNL     1      19.207  17.802  33.531  1.00  0.00     0.006 C 
BRANCH  13  14
ATOM     14  C   UNL     1      19.827  18.692  32.444  1.00  0.00     0.053 C 
BRANCH  14  15
ATOM     15  C   UNL     1      19.094  18.579  31.143  1.00  0.00     0.041 C 
ATOM     16  O   UNL     1      18.715  17.454  30.723  1.00  0.00    -0.550 OA
ATOM     17  O   UNL     1      18.819  19.719  30.399  1.00  0.00    -0.550 OA
ENDBRANCH  14  15
ENDBRANCH  13  14
ENDBRANCH  12  13
ENDBRANCH  11  12
ENDBRANCH  10  11
ENDBRANCH   9  10
ENDBRANCH   8   9
ENDBRANCH   7   8
ENDBRANCH   6   7
ENDBRANCH   5   6
ENDBRANCH   4   5
ENDBRANCH   3   4
ENDBRANCH   2   3
ENDBRANCH   1   2
BRANCH   1  18
ATOM     18  C   UNL     1      19.363  11.186  37.673  1.00  0.00     0.000 C 
BRANCH  18  19
ATOM     19  C   UNL     1      19.876  12.606  38.004  1.00  0.00     0.000 C 
BRANCH  19  20
ATOM     20  C   UNL     1      18.865  13.741  37.751  1.00  0.00     0.000 C 
BRANCH  20  21
ATOM     21  C   UNL     1      18.715  14.115  36.268  1.00  0.00     0.000 C 
BRANCH  21  22
ATOM     22  C   UNL     1      17.339  13.681  35.749  1.00  0.00     0.000 C 
BRANCH  22  23
ATOM     23  C   UNL     1      17.305  13.623  34.217  1.00  0.00     0.000 C 
BRANCH  23  24
ATOM     24  C   UNL     1      17.131  12.176  33.738  1.00  0.00    -0.000 C 
BRANCH  24  25
ATOM     25  C   UNL     1      16.643  11.264  34.872  1.00  0.00    -0.000 C 
BRANCH  25  26
ATOM     26  C   UNL     1      15.258  10.649  34.578  1.00  0.00    -0.000 C 
BRANCH  26  27
ATOM     27  C   UNL     1      14.663  11.063  33.216  1.00  0.00    -0.000 C 
BRANCH  27  28
ATOM     28  C   UNL     1      13.354  11.868  33.284  1.00  0.00    -0.000 C 
BRANCH  28  29
ATOM     29  C   UNL     1      13.566  13.319  33.754  1.00  0.00    -0.000 C 
BRANCH  29  30
ATOM     30  C   UNL     1      12.707  13.677  34.981  1.00  0.00    -0.000 C 
BRANCH  30  31
ATOM     31  C   UNL     1      12.319  12.480  35.866  1.00  0.00    -0.003 C 
ATOM     32  C   UNL     1      13.199  12.350  37.110  1.00  0.00     0.004 C 
ENDBRANCH  30  31
ENDBRANCH  29  30
ENDBRANCH  28  29
ENDBRANCH  27  28
ENDBRANCH  26  27
ENDBRANCH  25  26
ENDBRANCH  24  25
ENDBRANCH  23  24
ENDBRANCH  22  23
ENDBRANCH  21  22
ENDBRANCH  20  21
ENDBRANCH  19  20
ENDBRANCH  18  19
ENDBRANCH   1  18
TORSDOF 28
ENDMDL
MODEL 7
REMARK VINA RESULT:    -4.977      1.933      3.156
REMARK INTER + INTRA:         -18.480
REMARK INTER:                 -12.952
REMARK INTRA:                  -5.528
REMARK UNBOUND:                -5.355
REMARK SMILES CCCCCCCCCCCCCCCCCCCCCCCCCCCCCC(=O)[O-]
REMARK SMILES IDX 16 1 17 2 18 3 19 4 20 5 21 6 22 7 23 8 24 9 25 10 26 11
REMARK SMILES IDX 27 12 28 13 29 14 30 15 31 16 32 17 15 18 14 19 13 20 12 21
REMARK SMILES IDX 11 22 10 23 9 24 8 25 7 26 6 27 5 28 4 29 3 30 2 31 1 32
REMARK H PARENT
REMARK Flexibility Score: inf
ROOT
ATOM      1  C   UNL     1      18.301  13.777  36.700  1.00  0.00     0.000 C 
ENDROOT
BRANCH   1   2
ATOM      2  C   UNL     1      19.087  14.643  35.699  1.00  0.00     0.000 C 
BRANCH   2   3
ATOM      3  C   UNL     1      20.587  14.757  36.040  1.00  0.00     0.000 C 
BRANCH   3   4
ATOM      4  C   UNL     1      20.970  13.927  37.284  1.00  0.00     0.000 C 
BRANCH   4   5
ATOM      5  C   UNL     1      21.908  12.747  36.985  1.00  0.00     0.000 C 
BRANCH   5   6
ATOM      6  C   UNL     1      21.196  11.388  37.066  1.00  0.00     0.000 C 
BRANCH   6   7
ATOM      7  C   UNL     1      21.098  10.690  35.698  1.00  0.00     0.000 C 
BRANCH   7   8
ATOM      8  C   UNL     1      19.706  10.845  35.057  1.00  0.00     0.000 C 
BRANCH   8   9
ATOM      9  C   UNL     1      19.777  11.343  33.605  1.00  0.00     0.000 C 
BRANCH   9  10
ATOM     10  C   UNL     1      21.037  12.181  33.330  1.00  0.00     0.000 C 
BRANCH  10  11
ATOM     11  C   UNL     1      20.747  13.459  32.522  1.00  0.00     0.000 C 
BRANCH  11  12
ATOM     12  C   UNL     1      21.978  14.121  31.873  1.00  0.00     0.000 C 
BRANCH  12  13
ATOM     13  C   UNL     1      23.042  14.552  32.898  1.00  0.00     0.006 C 
BRANCH  13  14
ATOM     14  C   UNL     1      22.847  16.004  33.358  1.00  0.00     0.053 C 
BRANCH  14  15
ATOM     15  C   UNL     1      23.602  16.297  34.619  1.00  0.00     0.041 C 
ATOM     16  O   UNL     1      24.531  15.535  34.994  1.00  0.00    -0.550 OA
ATOM     17  O   UNL     1      23.286  17.420  35.374  1.00  0.00    -0.550 OA
ENDBRANCH  14  15
ENDBRANCH  13  14
ENDBRANCH  12  13
ENDBRANCH  11  12
ENDBRANCH  10  11
ENDBRANCH   9  10
ENDBRANCH   8   9
ENDBRANCH   7   8
ENDBRANCH   6   7
ENDBRANCH   5   6
ENDBRANCH   4   5
ENDBRANCH   3   4
ENDBRANCH   2   3
ENDBRANCH   1   2
BRANCH   1  18
ATOM     18  C   UNL     1      17.013  13.118  36.156  1.00  0.00     0.000 C 
BRANCH  18  19
ATOM     19  C   UNL     1      16.654  13.494  34.701  1.00  0.00     0.000 C 
BRANCH  19  20
ATOM     20  C   UNL     1      16.365  12.300  33.770  1.00  0.00     0.000 C 
BRANCH  20  21
ATOM     21  C   UNL     1      16.092  10.986  34.520  1.00  0.00     0.000 C 
BRANCH  21  22
ATOM     22  C   UNL     1      14.762  10.379  34.057  1.00  0.00     0.000 C 
BRANCH  22  23
ATOM     23  C   UNL     1      14.134  11.193  32.921  1.00  0.00     0.000 C 
BRANCH  23  24
ATOM     24  C   UNL     1      12.842  11.870  33.395  1.00  0.00    -0.000 C 
BRANCH  24  25
ATOM     25  C   UNL     1      13.042  13.378  33.604  1.00  0.00    -0.000 C 
BRANCH  25  26
ATOM     26  C   UNL     1      12.632  13.835  35.021  1.00  0.00    -0.000 C 
BRANCH  26  27
ATOM     27  C   UNL     1      12.428  12.678  36.020  1.00  0.00    -0.000 C 
BRANCH  27  28
ATOM     28  C   UNL     1      13.523  12.527  37.090  1.00  0.00    -0.000 C 
BRANCH  28  29
ATOM     29  C   UNL     1      13.867  11.058  37.394  1.00  0.00    -0.000 C 
BRANCH  29  30
ATOM     30  C   UNL     1      12.857  10.396  38.350  1.00  0.00    -0.000 C 
BRANCH  30  31
ATOM     31  C   UNL     1      12.250   9.080  37.834  1.00  0.00    -0.003 C 
ATOM     32  C   UNL     1      11.899   9.128  36.347  1.00  0.00     0.004 C 
ENDBRANCH  30  31
ENDBRANCH  29  30
ENDBRANCH  28  29
ENDBRANCH  27  28
ENDBRANCH  26  27
ENDBRANCH  25  26
ENDBRANCH  24  25
ENDBRANCH  23  24
ENDBRANCH  22  23
ENDBRANCH  21  22
ENDBRANCH  20  21
ENDBRANCH  19  20
ENDBRANCH  18  19
ENDBRANCH   1  18
TORSDOF 28
ENDMDL
MODEL 8
REMARK VINA RESULT:    -4.951      1.104      3.161
REMARK INTER + INTRA:         -18.410
REMARK INTER:                 -13.296
REMARK INTRA:                  -5.114
REMARK UNBOUND:                -5.355
REMARK SMILES CCCCCCCCCCCCCCCCCCCCCCCCCCCCCC(=O)[O-]
REMARK SMILES IDX 16 1 17 2 18 3 19 4 20 5 21 6 22 7 23 8 24 9 25 10 26 11
REMARK SMILES IDX 27 12 28 13 29 14 30 15 31 16 32 17 15 18 14 19 13 20 12 21
REMARK SMILES IDX 11 22 10 23 9 24 8 25 7 26 6 27 5 28 4 29 3 30 2 31 1 32
REMARK H PARENT
REMARK Flexibility Score: inf
ROOT
ATOM      1  C   UNL     1      20.014  12.020  33.331  1.00  0.00     0.000 C 
ENDROOT
BRANCH   1   2
ATOM      2  C   UNL     1      20.837  11.051  34.198  1.00  0.00     0.000 C 
BRANCH   2   3
ATOM      3  C   UNL     1      20.072  10.545  35.439  1.00  0.00     0.000 C 
BRANCH   3   4
ATOM      4  C   UNL     1      20.525  11.252  36.735  1.00  0.00     0.000 C 
BRANCH   4   5
ATOM      5  C   UNL     1      21.492  12.423  36.503  1.00  0.00     0.000 C 
BRANCH   5   6
ATOM      6  C   UNL     1      20.809  13.793  36.641  1.00  0.00     0.000 C 
BRANCH   6   7
ATOM      7  C   UNL     1      21.797  14.963  36.487  1.00  0.00     0.000 C 
BRANCH   7   8
ATOM      8  C   UNL     1      23.191  14.500  36.028  1.00  0.00     0.000 C 
BRANCH   8   9
ATOM      9  C   UNL     1      23.539  14.985  34.611  1.00  0.00     0.000 C 
BRANCH   9  10
ATOM     10  C   UNL     1      22.895  14.116  33.517  1.00  0.00     0.000 C 
BRANCH  10  11
ATOM     11  C   UNL     1      22.118  14.938  32.473  1.00  0.00     0.000 C 
BRANCH  11  12
ATOM     12  C   UNL     1      20.883  15.686  33.012  1.00  0.00     0.000 C 
BRANCH  12  13
ATOM     13  C   UNL     1      21.146  17.181  33.265  1.00  0.00     0.006 C 
BRANCH  13  14
ATOM     14  C   UNL     1      19.958  17.869  33.952  1.00  0.00     0.053 C 
BRANCH  14  15
ATOM     15  C   UNL     1      19.406  18.989  33.124  1.00  0.00     0.041 C 
ATOM     16  O   UNL     1      18.455  19.691  33.558  1.00  0.00    -0.550 OA
ATOM     17  O   UNL     1      19.951  19.266  31.876  1.00  0.00    -0.550 OA
ENDBRANCH  14  15
ENDBRANCH  13  14
ENDBRANCH  12  13
ENDBRANCH  11  12
ENDBRANCH  10  11
ENDBRANCH   9  10
ENDBRANCH   8   9
ENDBRANCH   7   8
ENDBRANCH   6   7
ENDBRANCH   5   6
ENDBRANCH   4   5
ENDBRANCH   3   4
ENDBRANCH   2   3
ENDBRANCH   1   2
BRANCH   1  18
ATOM     18  C   UNL     1      18.760  11.422  32.653  1.00  0.00     0.000 C 
BRANCH  18  19
ATOM     19  C   UNL     1      17.413  11.870  33.266  1.00  0.00     0.000 C 
BRANCH  19  20
ATOM     20  C   UNL     1      17.478  13.153  34.117  1.00  0.00     0.000 C 
BRANCH  20  21
ATOM     21  C   UNL     1      16.500  13.156  35.303  1.00  0.00     0.000 C 
BRANCH  21  22
ATOM     22  C   UNL     1      17.154  12.506  36.529  1.00  0.00     0.000 C 
BRANCH  22  23
ATOM     23  C   UNL     1      16.659  11.071  36.739  1.00  0.00     0.000 C 
BRANCH  23  24
ATOM     24  C   UNL     1      15.284  10.876  36.088  1.00  0.00    -0.000 C 
BRANCH  24  25
ATOM     25  C   UNL     1      14.259  10.330  37.093  1.00  0.00    -0.000 C 
BRANCH  25  26
ATOM     26  C   UNL     1      13.233  11.399  37.526  1.00  0.00    -0.000 C 
BRANCH  26  27
ATOM     27  C   UNL     1      12.356  11.930  36.373  1.00  0.00    -0.000 C 
BRANCH  27  28
ATOM     28  C   UNL     1      12.469  13.440  36.098  1.00  0.00    -0.000 C 
BRANCH  28  29
ATOM     29  C   UNL     1      13.041  13.753  34.703  1.00  0.00    -0.000 C 
BRANCH  29  30
ATOM     30  C   UNL     1      12.646  12.703  33.649  1.00  0.00    -0.000 C 
BRANCH  30  31
ATOM     31  C   UNL     1      13.832  12.011  32.953  1.00  0.00    -0.003 C 
ATOM     32  C   UNL     1      13.750  10.486  33.013  1.00  0.00     0.004 C 
ENDBRANCH  30  31
ENDBRANCH  29  30
ENDBRANCH  28  29
ENDBRANCH  27  28
ENDBRANCH  26  27
ENDBRANCH  25  26
ENDBRANCH  24  25
ENDBRANCH  23  24
ENDBRANCH  22  23
ENDBRANCH  21  22
ENDBRANCH  20  21
ENDBRANCH  19  20
ENDBRANCH  18  19
ENDBRANCH   1  18
TORSDOF 28
ENDMDL
MODEL 9
REMARK VINA RESULT:    -4.928      3.467      8.482
REMARK INTER + INTRA:         -18.349
REMARK INTER:                 -13.711
REMARK INTRA:                  -4.638
REMARK UNBOUND:                -5.355
REMARK SMILES CCCCCCCCCCCCCCCCCCCCCCCCCCCCCC(=O)[O-]
REMARK SMILES IDX 16 1 17 2 18 3 19 4 20 5 21 6 22 7 23 8 24 9 25 10 26 11
REMARK SMILES IDX 27 12 28 13 29 14 30 15 31 16 32 17 15 18 14 19 13 20 12 21
REMARK SMILES IDX 11 22 10 23 9 24 8 25 7 26 6 27 5 28 4 29 3 30 2 31 1 32
REMARK H PARENT
REMARK Flexibility Score: inf
ROOT
ATOM      1  C   UNL     1      18.791  13.109  37.300  1.00  0.00     0.000 C 
ENDROOT
BRANCH   1   2
ATOM      2  C   UNL     1      19.273  14.293  36.444  1.00  0.00     0.000 C 
BRANCH   2   3
ATOM      3  C   UNL     1      18.330  14.618  35.267  1.00  0.00     0.000 C 
BRANCH   3   4
ATOM      4  C   UNL     1      17.100  13.686  35.227  1.00  0.00     0.000 C 
BRANCH   4   5
ATOM      5  C   UNL     1      16.877  13.002  33.869  1.00  0.00     0.000 C 
BRANCH   5   6
ATOM      6  C   UNL     1      16.439  11.536  34.008  1.00  0.00     0.000 C 
BRANCH   6   7
ATOM      7  C   UNL     1      15.344  11.148  32.999  1.00  0.00     0.000 C 
BRANCH   7   8
ATOM      8  C   UNL     1      13.930  11.237  33.602  1.00  0.00     0.000 C 
BRANCH   8   9
ATOM      9  C   UNL     1      13.168  12.489  33.139  1.00  0.00     0.000 C 
BRANCH   9  10
ATOM     10  C   UNL     1      12.490  13.230  34.305  1.00  0.00     0.000 C 
BRANCH  10  11
ATOM     11  C   UNL     1      13.488  13.727  35.366  1.00  0.00     0.000 C 
BRANCH  11  12
ATOM     12  C   UNL     1      13.418  13.004  36.725  1.00  0.00     0.000 C 
BRANCH  12  13
ATOM     13  C   UNL     1      11.977  12.729  37.188  1.00  0.00     0.006 C 
BRANCH  13  14
ATOM     14  C   UNL     1      11.835  11.352  37.853  1.00  0.00     0.053 C 
BRANCH  14  15
ATOM     15  C   UNL     1      12.515  10.276  37.062  1.00  0.00     0.041 C 
ATOM     16  O   UNL     1      11.954   9.783  36.048  1.00  0.00    -0.550 OA
ATOM     17  O   UNL     1      13.775   9.827  37.437  1.00  0.00    -0.550 OA
ENDBRANCH  14  15
ENDBRANCH  13  14
ENDBRANCH  12  13
ENDBRANCH  11  12
ENDBRANCH  10  11
ENDBRANCH   9  10
ENDBRANCH   8   9
ENDBRANCH   7   8
ENDBRANCH   6   7
ENDBRANCH   5   6
ENDBRANCH   4   5
ENDBRANCH   3   4
ENDBRANCH   2   3
ENDBRANCH   1   2
BRANCH   1  18
ATOM     18  C   UNL     1      19.668  11.838  37.249  1.00  0.00     0.000 C 
BRANCH  18  19
ATOM     19  C   UNL     1      19.381  10.896  36.057  1.00  0.00     0.000 C 
BRANCH  19  20
ATOM     20  C   UNL     1      20.592  10.605  35.150  1.00  0.00     0.000 C 
BRANCH  20  21
ATOM     21  C   UNL     1      20.360  10.971  33.675  1.00  0.00     0.000 C 
BRANCH  21  22
ATOM     22  C   UNL     1      20.598  12.471  33.459  1.00  0.00     0.000 C 
BRANCH  22  23
ATOM     23  C   UNL     1      21.860  12.729  32.628  1.00  0.00     0.000 C 
BRANCH  23  24
ATOM     24  C   UNL     1      22.644  13.918  33.197  1.00  0.00    -0.000 C 
BRANCH  24  25
ATOM     25  C   UNL     1      22.803  13.808  34.721  1.00  0.00    -0.000 C 
BRANCH  25  26
ATOM     26  C   UNL     1      22.629  15.169  35.430  1.00  0.00    -0.000 C 
BRANCH  26  27
ATOM     27  C   UNL     1      22.703  16.385  34.483  1.00  0.00    -0.000 C 
BRANCH  27  28
ATOM     28  C   UNL     1      21.377  17.131  34.260  1.00  0.00    -0.000 C 
BRANCH  28  29
ATOM     29  C   UNL     1      20.512  16.500  33.154  1.00  0.00    -0.000 C 
BRANCH  29  30
ATOM     30  C   UNL     1      19.653  17.537  32.406  1.00  0.00    -0.000 C 
BRANCH  30  31
ATOM     31  C   UNL     1      20.094  18.998  32.602  1.00  0.00    -0.003 C 
ATOM     32  C   UNL     1      19.060  19.836  33.355  1.00  0.00     0.004 C 
ENDBRANCH  30  31
ENDBRANCH  29  30
ENDBRANCH  28  29
ENDBRANCH  27  28
ENDBRANCH  26  27
ENDBRANCH  25  26
ENDBRANCH  24  25
ENDBRANCH  23  24
ENDBRANCH  22  23
ENDBRANCH  21  22
ENDBRANCH  20  21
ENDBRANCH  19  20
ENDBRANCH  18  19
ENDBRANCH   1  18
TORSDOF 28
ENDMDL
