MODEL 1
REMARK VINA RESULT:    -3.358      0.000      0.000
REMARK INTER + INTRA:         -10.613
REMARK INTER:                  -7.283
REMARK INTRA:                  -3.330
REMARK UNBOUND:                -3.330
REMARK SMILES CCCCCCCCCCCCCCCCCCCCCC(=O)[O-]
REMARK SMILES IDX 12 1 11 2 10 3 9 4 8 5 7 6 6 7 5 8 4 9 3 10 2 11 1 12 13 13
REMARK SMILES IDX 14 14 15 15 16 16 17 17 18 18 19 19 20 20 21 21 22 22 23 23
REMARK SMILES IDX 24 24
REMARK H PARENT
REMARK Flexibility Score: inf
ROOT
ATOM      1  C   UNL     1      57.848  29.335  52.502  1.00  0.00     0.000 C 
ENDROOT
BRANCH   1   2
ATOM      2  C   UNL     1      57.470  30.428  53.513  1.00  0.00     0.000 C 
BRANCH   2   3
ATOM      3  C   UNL     1      56.159  31.121  53.109  1.00  0.00     0.000 C 
BRANCH   3   4
ATOM      4  C   UNL     1      55.116  30.132  52.554  1.00  0.00    -0.000 C 
BRANCH   4   5
ATOM      5  C   UNL     1      54.392  30.620  51.285  1.00  0.00    -0.000 C 
BRANCH   5   6
ATOM      6  C   UNL     1      54.510  29.626  50.117  1.00  0.00    -0.000 C 
BRANCH   6   7
ATOM      7  C   UNL     1      54.865  28.204  50.581  1.00  0.00    -0.000 C 
BRANCH   7   8
ATOM      8  C   UNL     1      54.652  27.147  49.487  1.00  0.00    -0.000 C 
BRANCH   8   9
ATOM      9  C   UNL     1      55.833  26.165  49.440  1.00  0.00    -0.000 C 
BRANCH   9  10
ATOM     10  C   UNL     1      56.696  26.199  50.715  1.00  0.00    -0.000 C 
BRANCH  10  11
ATOM     11  C   UNL     1      58.130  25.669  50.537  1.00  0.00    -0.003 C 
ATOM     12  C   UNL     1      58.995  25.858  51.781  1.00  0.00     0.004 C 
ENDBRANCH  10  11
ENDBRANCH   9  10
ENDBRANCH   8   9
ENDBRANCH   7   8
ENDBRANCH   6   7
ENDBRANCH   5   6
ENDBRANCH   4   5
ENDBRANCH   3   4
ENDBRANCH   2   3
ENDBRANCH   1   2
BRANCH   1  13
ATOM     13  C   UNL     1      58.733  29.865  51.358  1.00  0.00     0.000 C 
BRANCH  13  14
ATOM     14  C   UNL     1      58.446  29.240  49.977  1.00  0.00     0.000 C 
BRANCH  14  15
ATOM     15  C   UNL     1      59.637  29.237  49.002  1.00  0.00     0.000 C 
BRANCH  15  16
ATOM     16  C   UNL     1      60.423  27.915  49.020  1.00  0.00     0.000 C 
BRANCH  16  17
ATOM     17  C   UNL     1      61.901  28.113  49.406  1.00  0.00     0.000 C 
BRANCH  17  18
ATOM     18  C   UNL     1      62.116  28.494  50.884  1.00  0.00     0.000 C 
BRANCH  18  19
ATOM     19  C   UNL     1      62.957  29.771  51.081  1.00  0.00     0.000 C 
BRANCH  19  20
ATOM     20  C   UNL     1      62.242  31.031  50.564  1.00  0.00     0.006 C 
BRANCH  20  21
ATOM     21  C   UNL     1      62.997  31.686  49.401  1.00  0.00     0.053 C 
BRANCH  21  22
ATOM     22  C   UNL     1      63.004  33.180  49.518  1.00  0.00     0.041 C 
ATOM     23  O   UNL     1      63.045  33.726  50.651  1.00  0.00    -0.550 OA
ATOM     24  O   UNL     1      63.015  33.969  48.375  1.00  0.00    -0.550 OA
ENDBRANCH  21  22
ENDBRANCH  20  21
ENDBRANCH  19  20
ENDBRANCH  18  19
ENDBRANCH  17  18
ENDBRANCH  16  17
ENDBRANCH  15  16
ENDBRANCH  14  15
ENDBRANCH  13  14
ENDBRANCH   1  13
TORSDOF 20
ENDMDL
MODEL 2
REMARK VINA RESULT:    -3.303     10.679     13.179
REMARK INTER + INTRA:         -10.494
REMARK INTER:                  -8.747
REMARK INTRA:                  -1.747
REMARK UNBOUND:                -3.330
REMARK SMILES CCCCCCCCCCCCCCCCCCCCCC(=O)[O-]
REMARK SMILES IDX 12 1 11 2 10 3 9 4 8 5 7 6 6 7 5 8 4 9 3 10 2 11 1 12 13 13
REMARK SMILES IDX 14 14 15 15 16 16 17 17 18 18 19 19 20 20 21 21 22 22 23 23
REMARK SMILES IDX 24 24
REMARK H PARENT
REMARK Flexibility Score: inf
ROOT
ATOM      1  C   UNL     1      66.050  28.540  59.107  1.00  0.00     0.000 C 
ENDROOT
BRANCH   1   2
ATOM      2  C   UNL     1      65.967  29.987  59.615  1.00  0.00     0.000 C 
BRANCH   2   3
ATOM      3  C   UNL     1      64.506  30.462  59.684  1.00  0.00     0.000 C 
BRANCH   3   4
ATOM      4  C   UNL     1      63.933  30.397  61.112  1.00  0.00    -0.000 C 
BRANCH   4   5
ATOM      5  C   UNL     1      62.519  29.791  61.201  1.00  0.00    -0.000 C 
BRANCH   5   6
ATOM      6  C   UNL     1      61.414  30.862  61.188  1.00  0.00    -0.000 C 
BRANCH   6   7
ATOM      7  C   UNL     1      60.876  31.143  59.776  1.00  0.00    -0.000 C 
BRANCH   7   8
ATOM      8  C   UNL     1      61.364  32.484  59.207  1.00  0.00    -0.000 C 
BRANCH   8   9
ATOM      9  C   UNL     1      61.821  33.422  60.335  1.00  0.00    -0.000 C 
BRANCH   9  10
ATOM     10  C   UNL     1      63.243  33.973  60.120  1.00  0.00    -0.000 C 
BRANCH  10  11
ATOM     11  C   UNL     1      63.489  35.371  60.716  1.00  0.00    -0.003 C 
ATOM     12  C   UNL     1      64.861  35.507  61.374  1.00  0.00     0.004 C 
ENDBRANCH  10  11
ENDBRANCH   9  10
ENDBRANCH   8   9
ENDBRANCH   7   8
ENDBRANCH   6   7
ENDBRANCH   5   6
ENDBRANCH   4   5
ENDBRANCH   3   4
ENDBRANCH   2   3
ENDBRANCH   1   2
BRANCH   1  13
ATOM     13  C   UNL     1      66.739  27.597  60.112  1.00  0.00     0.000 C 
BRANCH  13  14
ATOM     14  C   UNL     1      67.808  28.269  60.998  1.00  0.00     0.000 C 
BRANCH  14  15
ATOM     15  C   UNL     1      69.136  27.499  61.114  1.00  0.00     0.000 C 
BRANCH  15  16
ATOM     16  C   UNL     1      70.306  28.212  60.414  1.00  0.00     0.000 C 
BRANCH  16  17
ATOM     17  C   UNL     1      70.705  29.521  61.120  1.00  0.00     0.000 C 
BRANCH  17  18
ATOM     18  C   UNL     1      72.229  29.724  61.246  1.00  0.00     0.000 C 
BRANCH  18  19
ATOM     19  C   UNL     1      72.741  31.017  60.583  1.00  0.00     0.000 C 
BRANCH  19  20
ATOM     20  C   UNL     1      71.607  31.842  59.949  1.00  0.00     0.006 C 
BRANCH  20  21
ATOM     21  C   UNL     1      71.782  31.994  58.433  1.00  0.00     0.053 C 
BRANCH  21  22
ATOM     22  C   UNL     1      71.501  33.395  57.982  1.00  0.00     0.041 C 
ATOM     23  O   UNL     1      71.799  33.756  56.815  1.00  0.00    -0.550 OA
ATOM     24  O   UNL     1      70.867  34.288  58.836  1.00  0.00    -0.550 OA
ENDBRANCH  21  22
ENDBRANCH  20  21
ENDBRANCH  19  20
ENDBRANCH  18  19
ENDBRANCH  17  18
ENDBRANCH  16  17
ENDBRANCH  15  16
ENDBRANCH  14  15
ENDBRANCH  13  14
ENDBRANCH   1  13
TORSDOF 20
ENDMDL
MODEL 3
REMARK VINA RESULT:    -3.220      2.672      6.328
REMARK INTER + INTRA:         -10.314
REMARK INTER:                  -7.034
REMARK INTRA:                  -3.280
REMARK UNBOUND:                -3.330
REMARK SMILES CCCCCCCCCCCCCCCCCCCCCC(=O)[O-]
REMARK SMILES IDX 12 1 11 2 10 3 9 4 8 5 7 6 6 7 5 8 4 9 3 10 2 11 1 12 13 13
REMARK SMILES IDX 14 14 15 15 16 16 17 17 18 18 19 19 20 20 21 21 22 22 23 23
REMARK SMILES IDX 24 24
REMARK H PARENT
REMARK Flexibility Score: inf
ROOT
ATOM      1  C   UNL     1      56.250  26.057  49.661  1.00  0.00     0.000 C 
ENDROOT
BRANCH   1   2
ATOM      2  C   UNL     1      56.572  26.010  51.163  1.00  0.00     0.000 C 
BRANCH   2   3
ATOM      3  C   UNL     1      58.004  25.505  51.402  1.00  0.00     0.000 C 
BRANCH   3   4
ATOM      4  C   UNL     1      58.922  25.736  50.187  1.00  0.00    -0.000 C 
BRANCH   4   5
ATOM      5  C   UNL     1      60.387  26.046  50.548  1.00  0.00    -0.000 C 
BRANCH   5   6
ATOM      6  C   UNL     1      61.034  27.051  49.579  1.00  0.00    -0.000 C 
BRANCH   6   7
ATOM      7  C   UNL     1      60.009  27.997  48.931  1.00  0.00    -0.000 C 
BRANCH   7   8
ATOM      8  C   UNL     1      59.711  29.233  49.791  1.00  0.00    -0.000 C 
BRANCH   8   9
ATOM      9  C   UNL     1      58.201  29.375  50.038  1.00  0.00    -0.000 C 
BRANCH   9  10
ATOM     10  C   UNL     1      57.832  29.368  51.533  1.00  0.00    -0.000 C 
BRANCH  10  11
ATOM     11  C   UNL     1      58.975  28.952  52.476  1.00  0.00    -0.003 C 
ATOM     12  C   UNL     1      58.500  28.665  53.899  1.00  0.00     0.004 C 
ENDBRANCH  10  11
ENDBRANCH   9  10
ENDBRANCH   8   9
ENDBRANCH   7   8
ENDBRANCH   6   7
ENDBRANCH   5   6
ENDBRANCH   4   5
ENDBRANCH   3   4
ENDBRANCH   2   3
ENDBRANCH   1   2
BRANCH   1  13
ATOM     13  C   UNL     1      54.874  26.686  49.369  1.00  0.00     0.000 C 
BRANCH  13  14
ATOM     14  C   UNL     1      54.728  28.155  49.813  1.00  0.00     0.000 C 
BRANCH  14  15
ATOM     15  C   UNL     1      53.299  28.721  49.735  1.00  0.00     0.000 C 
BRANCH  15  16
ATOM     16  C   UNL     1      53.043  29.849  50.751  1.00  0.00     0.000 C 
BRANCH  16  17
ATOM     17  C   UNL     1      54.325  30.624  51.105  1.00  0.00     0.000 C 
BRANCH  17  18
ATOM     18  C   UNL     1      54.184  31.537  52.340  1.00  0.00     0.000 C 
BRANCH  18  19
ATOM     19  C   UNL     1      55.328  31.384  53.361  1.00  0.00     0.000 C 
BRANCH  19  20
ATOM     20  C   UNL     1      56.420  32.454  53.184  1.00  0.00     0.006 C 
BRANCH  20  21
ATOM     21  C   UNL     1      55.845  33.875  53.209  1.00  0.00     0.053 C 
BRANCH  21  22
ATOM     22  C   UNL     1      56.828  34.879  52.690  1.00  0.00     0.041 C 
ATOM     23  O   UNL     1      56.509  35.651  51.750  1.00  0.00    -0.550 OA
ATOM     24  O   UNL     1      58.082  34.994  53.277  1.00  0.00    -0.550 OA
ENDBRANCH  21  22
ENDBRANCH  20  21
ENDBRANCH  19  20
ENDBRANCH  18  19
ENDBRANCH  17  18
ENDBRANCH  16  17
ENDBRANCH  15  16
ENDBRANCH  14  15
ENDBRANCH  13  14
ENDBRANCH   1  13
TORSDOF 20
ENDMDL
MODEL 4
REMARK VINA RESULT:    -3.212      8.352     11.475
REMARK INTER + INTRA:         -10.298
REMARK INTER:                  -6.164
REMARK INTRA:                  -4.134
REMARK UNBOUND:                -3.330
REMARK SMILES CCCCCCCCCCCCCCCCCCCCCC(=O)[O-]
REMARK SMILES IDX 12 1 11 2 10 3 9 4 8 5 7 6 6 7 5 8 4 9 3 10 2 11 1 12 13 13
REMARK SMILES IDX 14 14 15 15 16 16 17 17 18 18 19 19 20 20 21 21 22 22 23 23
REMARK SMILES IDX 24 24
REMARK H PARENT
REMARK Flexibility Score: inf
ROOT
ATOM      1  C   UNL     1      64.846  32.443  59.311  1.00  0.00     0.000 C 
ENDROOT
BRANCH   1   2
ATOM      2  C   UNL     1      64.294  33.054  60.608  1.00  0.00     0.000 C 
BRANCH   2   3
ATOM      3  C   UNL     1      64.701  34.531  60.737  1.00  0.00     0.000 C 
BRANCH   3   4
ATOM      4  C   UNL     1      63.486  35.477  60.762  1.00  0.00    -0.000 C 
BRANCH   4   5
ATOM      5  C   UNL     1      62.159  34.817  60.341  1.00  0.00    -0.000 C 
BRANCH   5   6
ATOM      6  C   UNL     1      61.245  35.774  59.557  1.00  0.00    -0.000 C 
BRANCH   6   7
ATOM      7  C   UNL     1      61.596  35.840  58.061  1.00  0.00    -0.000 C 
BRANCH   7   8
ATOM      8  C   UNL     1      62.287  34.565  57.553  1.00  0.00    -0.000 C 
BRANCH   8   9
ATOM      9  C   UNL     1      63.617  34.904  56.863  1.00  0.00    -0.000 C 
BRANCH   9  10
ATOM     10  C   UNL     1      64.076  36.352  57.118  1.00  0.00    -0.000 C 
BRANCH  10  11
ATOM     11  C   UNL     1      65.493  36.485  57.705  1.00  0.00    -0.003 C 
ATOM     12  C   UNL     1      66.361  35.253  57.456  1.00  0.00     0.004 C 
ENDBRANCH  10  11
ENDBRANCH   9  10
ENDBRANCH   8   9
ENDBRANCH   7   8
ENDBRANCH   6   7
ENDBRANCH   5   6
ENDBRANCH   4   5
ENDBRANCH   3   4
ENDBRANCH   2   3
ENDBRANCH   1   2
BRANCH   1  13
ATOM     13  C   UNL     1      65.160  30.941  59.449  1.00  0.00     0.000 C 
BRANCH  13  14
ATOM     14  C   UNL     1      64.609  30.282  60.730  1.00  0.00     0.000 C 
BRANCH  14  15
ATOM     15  C   UNL     1      63.879  28.944  60.512  1.00  0.00     0.000 C 
BRANCH  15  16
ATOM     16  C   UNL     1      62.347  29.083  60.554  1.00  0.00     0.000 C 
BRANCH  16  17
ATOM     17  C   UNL     1      61.885  30.244  61.453  1.00  0.00     0.000 C 
BRANCH  17  18
ATOM     18  C   UNL     1      61.061  31.318  60.713  1.00  0.00     0.000 C 
BRANCH  18  19
ATOM     19  C   UNL     1      61.275  31.325  59.187  1.00  0.00     0.000 C 
BRANCH  19  20
ATOM     20  C   UNL     1      59.982  31.019  58.410  1.00  0.00     0.006 C 
BRANCH  20  21
ATOM     21  C   UNL     1      59.493  32.228  57.605  1.00  0.00     0.053 C 
BRANCH  21  22
ATOM     22  C   UNL     1      59.701  32.034  56.135  1.00  0.00     0.041 C 
ATOM     23  O   UNL     1      60.865  31.984  55.661  1.00  0.00    -0.550 OA
ATOM     24  O   UNL     1      58.610  31.861  55.293  1.00  0.00    -0.550 OA
ENDBRANCH  21  22
ENDBRANCH  20  21
ENDBRANCH  19  20
ENDBRANCH  18  19
ENDBRANCH  17  18
ENDBRANCH  16  17
ENDBRANCH  15  16
ENDBRANCH  14  15
ENDBRANCH  13  14
ENDBRANCH   1  13
TORSDOF 20
ENDMDL
MODEL 5
REMARK VINA RESULT:    -3.201      3.321      5.207
REMARK INTER + INTRA:         -10.274
REMARK INTER:                  -6.631
REMARK INTRA:                  -3.642
REMARK UNBOUND:                -3.330
REMARK SMILES CCCCCCCCCCCCCCCCCCCCCC(=O)[O-]
REMARK SMILES IDX 12 1 11 2 10 3 9 4 8 5 7 6 6 7 5 8 4 9 3 10 2 11 1 12 13 13
REMARK SMILES IDX 14 14 15 15 16 16 17 17 18 18 19 19 20 20 21 21 22 22 23 23
REMARK SMILES IDX 24 24
REMARK H PARENT
REMARK Flexibility Score: inf
ROOT
ATOM      1  C   UNL     1      56.838  26.682  51.190  1.00  0.00     0.000 C 
ENDROOT
BRANCH   1   2
ATOM      2  C   UNL     1      56.705  26.368  49.692  1.00  0.00     0.000 C 
BRANCH   2   3
ATOM      3  C   UNL     1      55.298  25.845  49.362  1.00  0.00     0.000 C 
BRANCH   3   4
ATOM      4  C   UNL     1      54.194  26.602  50.124  1.00  0.00    -0.000 C 
BRANCH   4   5
ATOM      5  C   UNL     1      53.207  27.364  49.218  1.00  0.00    -0.000 C 
BRANCH   5   6
ATOM      6  C   UNL     1      53.074  28.848  49.605  1.00  0.00    -0.000 C 
BRANCH   6   7
ATOM      7  C   UNL     1      54.408  29.465  50.058  1.00  0.00    -0.000 C 
BRANCH   7   8
ATOM      8  C   UNL     1      54.237  30.497  51.183  1.00  0.00    -0.000 C 
BRANCH   8   9
ATOM      9  C   UNL     1      54.737  29.932  52.522  1.00  0.00    -0.000 C 
BRANCH   9  10
ATOM     10  C   UNL     1      53.726  28.980  53.188  1.00  0.00    -0.000 C 
BRANCH  10  11
ATOM     11  C   UNL     1      54.325  27.656  53.695  1.00  0.00    -0.003 C 
ATOM     12  C   UNL     1      55.554  27.856  54.580  1.00  0.00     0.004 C 
ENDBRANCH  10  11
ENDBRANCH   9  10
ENDBRANCH   8   9
ENDBRANCH   7   8
ENDBRANCH   6   7
ENDBRANCH   5   6
ENDBRANCH   4   5
ENDBRANCH   3   4
ENDBRANCH   2   3
ENDBRANCH   1   2
BRANCH   1  13
ATOM     13  C   UNL     1      57.716  27.918  51.462  1.00  0.00     0.000 C 
BRANCH  13  14
ATOM     14  C   UNL     1      57.776  28.934  50.303  1.00  0.00     0.000 C 
BRANCH  14  15
ATOM     15  C   UNL     1      59.173  29.515  50.017  1.00  0.00     0.000 C 
BRANCH  15  16
ATOM     16  C   UNL     1      59.900  28.793  48.869  1.00  0.00     0.000 C 
BRANCH  16  17
ATOM     17  C   UNL     1      60.874  27.713  49.375  1.00  0.00     0.000 C 
BRANCH  17  18
ATOM     18  C   UNL     1      60.313  26.278  49.297  1.00  0.00     0.000 C 
BRANCH  18  19
ATOM     19  C   UNL     1      60.915  25.318  50.341  1.00  0.00     0.000 C 
BRANCH  19  20
ATOM     20  C   UNL     1      59.838  24.517  51.095  1.00  0.00     0.006 C 
BRANCH  20  21
ATOM     21  C   UNL     1      60.233  24.247  52.552  1.00  0.00     0.053 C 
BRANCH  21  22
ATOM     22  C   UNL     1      60.863  25.450  53.185  1.00  0.00     0.041 C 
ATOM     23  O   UNL     1      60.163  26.453  53.475  1.00  0.00    -0.550 OA
ATOM     24  O   UNL     1      62.216  25.443  53.500  1.00  0.00    -0.550 OA
ENDBRANCH  21  22
ENDBRANCH  20  21
ENDBRANCH  19  20
ENDBRANCH  18  19
ENDBRANCH  17  18
ENDBRANCH  16  17
ENDBRANCH  15  16
ENDBRANCH  14  15
ENDBRANCH  13  14
ENDBRANCH   1  13
TORSDOF 20
ENDMDL
MODEL 6
REMARK VINA RESULT:    -3.193      3.356      6.744
REMARK INTER + INTRA:         -10.257
REMARK INTER:                  -7.019
REMARK INTRA:                  -3.238
REMARK UNBOUND:                -3.330
REMARK SMILES CCCCCCCCCCCCCCCCCCCCCC(=O)[O-]
REMARK SMILES IDX 12 1 11 2 10 3 9 4 8 5 7 6 6 7 5 8 4 9 3 10 2 11 1 12 13 13
REMARK SMILES IDX 14 14 15 15 16 16 17 17 18 18 19 19 20 20 21 21 22 22 23 23
REMARK SMILES IDX 24 24
REMARK H PARENT
REMARK Flexibility Score: inf
ROOT
ATOM      1  C   UNL     1      57.331  27.805  51.585  1.00  0.00     0.000 C 
ENDROOT
BRANCH   1   2
ATOM      2  C   UNL     1      57.447  28.738  50.371  1.00  0.00     0.000 C 
BRANCH   2   3
ATOM      3  C   UNL     1      58.796  29.475  50.369  1.00  0.00     0.000 C 
BRANCH   3   4
ATOM      4  C   UNL     1      59.576  29.274  49.057  1.00  0.00    -0.000 C 
BRANCH   4   5
ATOM      5  C   UNL     1      60.365  27.953  48.983  1.00  0.00    -0.000 C 
BRANCH   5   6
ATOM      6  C   UNL     1      61.300  27.754  50.190  1.00  0.00    -0.000 C 
BRANCH   6   7
ATOM      7  C   UNL     1      60.989  26.470  50.977  1.00  0.00    -0.000 C 
BRANCH   7   8
ATOM      8  C   UNL     1      60.039  25.525  50.227  1.00  0.00    -0.000 C 
BRANCH   8   9
ATOM      9  C   UNL     1      60.439  24.058  50.451  1.00  0.00    -0.000 C 
BRANCH   9  10
ATOM     10  C   UNL     1      61.655  23.632  49.608  1.00  0.00    -0.000 C 
BRANCH  10  11
ATOM     11  C   UNL     1      62.661  22.727  50.341  1.00  0.00    -0.003 C 
ATOM     12  C   UNL     1      63.930  23.464  50.765  1.00  0.00     0.004 C 
ENDBRANCH  10  11
ENDBRANCH   9  10
ENDBRANCH   8   9
ENDBRANCH   7   8
ENDBRANCH   6   7
ENDBRANCH   5   6
ENDBRANCH   4   5
ENDBRANCH   3   4
ENDBRANCH   2   3
ENDBRANCH   1   2
BRANCH   1  13
ATOM     13  C   UNL     1      56.692  26.448  51.232  1.00  0.00     0.000 C 
BRANCH  13  14
ATOM     14  C   UNL     1      56.399  26.244  49.732  1.00  0.00     0.000 C 
BRANCH  14  15
ATOM     15  C   UNL     1      54.909  26.091  49.374  1.00  0.00     0.000 C 
BRANCH  15  16
ATOM     16  C   UNL     1      54.164  27.436  49.316  1.00  0.00     0.000 C 
BRANCH  16  17
ATOM     17  C   UNL     1      53.183  27.618  50.488  1.00  0.00     0.000 C 
BRANCH  17  18
ATOM     18  C   UNL     1      53.645  28.649  51.537  1.00  0.00     0.000 C 
BRANCH  18  19
ATOM     19  C   UNL     1      54.067  30.003  50.935  1.00  0.00     0.000 C 
BRANCH  19  20
ATOM     20  C   UNL     1      54.253  31.092  52.006  1.00  0.00     0.006 C 
BRANCH  20  21
ATOM     21  C   UNL     1      55.652  31.049  52.635  1.00  0.00     0.053 C 
BRANCH  21  22
ATOM     22  C   UNL     1      55.605  30.570  54.053  1.00  0.00     0.041 C 
ATOM     23  O   UNL     1      54.502  30.312  54.599  1.00  0.00    -0.550 OA
ATOM     24  O   UNL     1      56.784  30.363  54.758  1.00  0.00    -0.550 OA
ENDBRANCH  21  22
ENDBRANCH  20  21
ENDBRANCH  19  20
ENDBRANCH  18  19
ENDBRANCH  17  18
ENDBRANCH  16  17
ENDBRANCH  15  16
ENDBRANCH  14  15
ENDBRANCH  13  14
ENDBRANCH   1  13
TORSDOF 20
ENDMDL
MODEL 7
REMARK VINA RESULT:    -3.148      3.607      5.489
REMARK INTER + INTRA:         -10.159
REMARK INTER:                  -6.613
REMARK INTRA:                  -3.546
REMARK UNBOUND:                -3.330
REMARK SMILES CCCCCCCCCCCCCCCCCCCCCC(=O)[O-]
REMARK SMILES IDX 12 1 11 2 10 3 9 4 8 5 7 6 6 7 5 8 4 9 3 10 2 11 1 12 13 13
REMARK SMILES IDX 14 14 15 15 16 16 17 17 18 18 19 19 20 20 21 21 22 22 23 23
REMARK SMILES IDX 24 24
REMARK H PARENT
REMARK Flexibility Score: inf
ROOT
ATOM      1  C   UNL     1      56.982  26.995  52.725  1.00  0.00     0.000 C 
ENDROOT
BRANCH   1   2
ATOM      2  C   UNL     1      55.823  26.346  51.952  1.00  0.00     0.000 C 
BRANCH   2   3
ATOM      3  C   UNL     1      56.246  26.001  50.515  1.00  0.00     0.000 C 
BRANCH   3   4
ATOM      4  C   UNL     1      55.457  26.801  49.461  1.00  0.00    -0.000 C 
BRANCH   4   5
ATOM      5  C   UNL     1      53.960  26.971  49.784  1.00  0.00    -0.000 C 
BRANCH   5   6
ATOM      6  C   UNL     1      53.511  28.443  49.746  1.00  0.00    -0.000 C 
BRANCH   6   7
ATOM      7  C   UNL     1      54.647  29.420  50.092  1.00  0.00    -0.000 C 
BRANCH   7   8
ATOM      8  C   UNL     1      54.267  30.407  51.205  1.00  0.00    -0.000 C 
BRANCH   8   9
ATOM      9  C   UNL     1      55.352  30.447  52.293  1.00  0.00    -0.000 C 
BRANCH   9  10
ATOM     10  C   UNL     1      54.907  29.790  53.612  1.00  0.00    -0.000 C 
BRANCH  10  11
ATOM     11  C   UNL     1      53.625  28.944  53.510  1.00  0.00    -0.003 C 
ATOM     12  C   UNL     1      53.497  27.915  54.631  1.00  0.00     0.004 C 
ENDBRANCH  10  11
ENDBRANCH   9  10
ENDBRANCH   8   9
ENDBRANCH   7   8
ENDBRANCH   6   7
ENDBRANCH   5   6
ENDBRANCH   4   5
ENDBRANCH   3   4
ENDBRANCH   2   3
ENDBRANCH   1   2
BRANCH   1  13
ATOM     13  C   UNL     1      58.214  27.256  51.837  1.00  0.00     0.000 C 
BRANCH  13  14
ATOM     14  C   UNL     1      58.540  28.746  51.608  1.00  0.00     0.000 C 
BRANCH  14  15
ATOM     15  C   UNL     1      58.261  29.263  50.185  1.00  0.00     0.000 C 
BRANCH  15  16
ATOM     16  C   UNL     1      59.443  29.045  49.225  1.00  0.00     0.000 C 
BRANCH  16  17
ATOM     17  C   UNL     1      60.773  28.826  49.969  1.00  0.00     0.000 C 
BRANCH  17  18
ATOM     18  C   UNL     1      61.733  27.849  49.259  1.00  0.00     0.000 C 
BRANCH  18  19
ATOM     19  C   UNL     1      61.758  26.439  49.881  1.00  0.00     0.000 C 
BRANCH  19  20
ATOM     20  C   UNL     1      60.478  25.640  49.578  1.00  0.00     0.006 C 
BRANCH  20  21
ATOM     21  C   UNL     1      60.324  24.425  50.500  1.00  0.00     0.053 C 
BRANCH  21  22
ATOM     22  C   UNL     1      61.356  23.377  50.210  1.00  0.00     0.041 C 
ATOM     23  O   UNL     1      62.314  23.195  51.005  1.00  0.00    -0.550 OA
ATOM     24  O   UNL     1      61.233  22.570  49.087  1.00  0.00    -0.550 OA
ENDBRANCH  21  22
ENDBRANCH  20  21
ENDBRANCH  19  20
ENDBRANCH  18  19
ENDBRANCH  17  18
ENDBRANCH  16  17
ENDBRANCH  15  16
ENDBRANCH  14  15
ENDBRANCH  13  14
ENDBRANCH   1  13
TORSDOF 20
ENDMDL
MODEL 8
REMARK VINA RESULT:    -3.110      8.236     10.568
REMARK INTER + INTRA:         -10.077
REMARK INTER:                  -6.108
REMARK INTRA:                  -3.969
REMARK UNBOUND:                -3.330
REMARK SMILES CCCCCCCCCCCCCCCCCCCCCC(=O)[O-]
REMARK SMILES IDX 12 1 11 2 10 3 9 4 8 5 7 6 6 7 5 8 4 9 3 10 2 11 1 12 13 13
REMARK SMILES IDX 14 14 15 15 16 16 17 17 18 18 19 19 20 20 21 21 22 22 23 23
REMARK SMILES IDX 24 24
REMARK H PARENT
REMARK Flexibility Score: inf
ROOT
ATOM      1  C   UNL     1      64.520  30.044  60.853  1.00  0.00     0.000 C 
ENDROOT
BRANCH   1   2
ATOM      2  C   UNL     1      63.769  28.724  60.623  1.00  0.00     0.000 C 
BRANCH   2   3
ATOM      3  C   UNL     1      62.285  28.863  61.000  1.00  0.00     0.000 C 
BRANCH   3   4
ATOM      4  C   UNL     1      61.981  30.191  61.717  1.00  0.00    -0.000 C 
BRANCH   4   5
ATOM      5  C   UNL     1      60.781  30.965  61.137  1.00  0.00    -0.000 C 
BRANCH   5   6
ATOM      6  C   UNL     1      61.171  31.850  59.940  1.00  0.00    -0.000 C 
BRANCH   6   7
ATOM      7  C   UNL     1      60.427  31.466  58.650  1.00  0.00    -0.000 C 
BRANCH   7   8
ATOM      8  C   UNL     1      61.376  31.140  57.488  1.00  0.00    -0.000 C 
BRANCH   8   9
ATOM      9  C   UNL     1      61.701  29.638  57.455  1.00  0.00    -0.000 C 
BRANCH   9  10
ATOM     10  C   UNL     1      63.129  29.343  56.960  1.00  0.00    -0.000 C 
BRANCH  10  11
ATOM     11  C   UNL     1      63.532  27.858  57.003  1.00  0.00    -0.003 C 
ATOM     12  C   UNL     1      65.034  27.651  57.187  1.00  0.00     0.004 C 
ENDBRANCH  10  11
ENDBRANCH   9  10
ENDBRANCH   8   9
ENDBRANCH   7   8
ENDBRANCH   6   7
ENDBRANCH   5   6
ENDBRANCH   4   5
ENDBRANCH   3   4
ENDBRANCH   2   3
ENDBRANCH   1   2
BRANCH   1  13
ATOM     13  C   UNL     1      65.215  30.561  59.578  1.00  0.00     0.000 C 
BRANCH  13  14
ATOM     14  C   UNL     1      64.803  31.985  59.152  1.00  0.00     0.000 C 
BRANCH  14  15
ATOM     15  C   UNL     1      64.474  32.943  60.312  1.00  0.00     0.000 C 
BRANCH  15  16
ATOM     16  C   UNL     1      64.862  34.402  60.014  1.00  0.00     0.000 C 
BRANCH  16  17
ATOM     17  C   UNL     1      64.271  35.390  61.036  1.00  0.00     0.000 C 
BRANCH  17  18
ATOM     18  C   UNL     1      62.785  35.726  60.795  1.00  0.00     0.000 C 
BRANCH  18  19
ATOM     19  C   UNL     1      62.462  36.102  59.336  1.00  0.00     0.000 C 
BRANCH  19  20
ATOM     20  C   UNL     1      61.291  35.285  58.763  1.00  0.00     0.006 C 
BRANCH  20  21
ATOM     21  C   UNL     1      61.563  34.812  57.330  1.00  0.00     0.053 C 
BRANCH  21  22
ATOM     22  C   UNL     1      60.292  34.628  56.558  1.00  0.00     0.041 C 
ATOM     23  O   UNL     1      59.212  34.400  57.162  1.00  0.00    -0.550 OA
ATOM     24  O   UNL     1      60.292  34.755  55.175  1.00  0.00    -0.550 OA
ENDBRANCH  21  22
ENDBRANCH  20  21
ENDBRANCH  19  20
ENDBRANCH  18  19
ENDBRANCH  17  18
ENDBRANCH  16  17
ENDBRANCH  15  16
ENDBRANCH  14  15
ENDBRANCH  13  14
ENDBRANCH   1  13
TORSDOF 20
ENDMDL
MODEL 9
REMARK VINA RESULT:    -3.106      3.584      5.782
REMARK INTER + INTRA:         -10.068
REMARK INTER:                  -7.130
REMARK INTRA:                  -2.939
REMARK UNBOUND:                -3.330
REMARK SMILES CCCCCCCCCCCCCCCCCCCCCC(=O)[O-]
REMARK SMILES IDX 12 1 11 2 10 3 9 4 8 5 7 6 6 7 5 8 4 9 3 10 2 11 1 12 13 13
REMARK SMILES IDX 14 14 15 15 16 16 17 17 18 18 19 19 20 20 21 21 22 22 23 23
REMARK SMILES IDX 24 24
REMARK H PARENT
REMARK Flexibility Score: inf
ROOT
ATOM      1  C   UNL     1      56.986  27.033  51.343  1.00  0.00     0.000 C 
ENDROOT
BRANCH   1   2
ATOM      2  C   UNL     1      56.085  25.873  50.895  1.00  0.00     0.000 C 
BRANCH   2   3
ATOM      3  C   UNL     1      55.756  25.978  49.397  1.00  0.00     0.000 C 
BRANCH   3   4
ATOM      4  C   UNL     1      54.264  26.260  49.139  1.00  0.00    -0.000 C 
BRANCH   4   5
ATOM      5  C   UNL     1      53.841  27.720  49.393  1.00  0.00    -0.000 C 
BRANCH   5   6
ATOM      6  C   UNL     1      52.962  27.871  50.647  1.00  0.00    -0.000 C 
BRANCH   6   7
ATOM      7  C   UNL     1      53.541  28.872  51.661  1.00  0.00    -0.000 C 
BRANCH   7   8
ATOM      8  C   UNL     1      54.437  29.934  51.007  1.00  0.00    -0.000 C 
BRANCH   8   9
ATOM      9  C   UNL     1      54.688  31.105  51.971  1.00  0.00    -0.000 C 
BRANCH   9  10
ATOM     10  C   UNL     1      55.929  30.898  52.859  1.00  0.00    -0.000 C 
BRANCH  10  11
ATOM     11  C   UNL     1      56.739  32.175  53.141  1.00  0.00    -0.003 C 
ATOM     12  C   UNL     1      58.249  31.948  53.092  1.00  0.00     0.004 C 
ENDBRANCH  10  11
ENDBRANCH   9  10
ENDBRANCH   8   9
ENDBRANCH   7   8
ENDBRANCH   6   7
ENDBRANCH   5   6
ENDBRANCH   4   5
ENDBRANCH   3   4
ENDBRANCH   2   3
ENDBRANCH   1   2
BRANCH   1  13
ATOM     13  C   UNL     1      57.548  27.840  50.156  1.00  0.00     0.000 C 
BRANCH  13  14
ATOM     14  C   UNL     1      58.173  29.197  50.537  1.00  0.00     0.000 C 
BRANCH  14  15
ATOM     15  C   UNL     1      59.384  29.619  49.684  1.00  0.00     0.000 C 
BRANCH  15  16
ATOM     16  C   UNL     1      59.940  28.472  48.823  1.00  0.00     0.000 C 
BRANCH  16  17
ATOM     17  C   UNL     1      61.201  27.834  49.434  1.00  0.00     0.000 C 
BRANCH  17  18
ATOM     18  C   UNL     1      61.179  26.292  49.448  1.00  0.00     0.000 C 
BRANCH  18  19
ATOM     19  C   UNL     1      60.543  25.690  50.716  1.00  0.00     0.000 C 
BRANCH  19  20
ATOM     20  C   UNL     1      60.252  24.186  50.572  1.00  0.00     0.006 C 
BRANCH  20  21
ATOM     21  C   UNL     1      61.339  23.463  49.766  1.00  0.00     0.053 C 
BRANCH  21  22
ATOM     22  C   UNL     1      62.509  23.092  50.625  1.00  0.00     0.041 C 
ATOM     23  O   UNL     1      63.631  23.627  50.432  1.00  0.00    -0.550 OA
ATOM     24  O   UNL     1      62.348  22.192  51.671  1.00  0.00    -0.550 OA
ENDBRANCH  21  22
ENDBRANCH  20  21
ENDBRANCH  19  20
ENDBRANCH  18  19
ENDBRANCH  17  18
ENDBRANCH  16  17
ENDBRANCH  15  16
ENDBRANCH  14  15
ENDBRANCH  13  14
ENDBRANCH   1  13
TORSDOF 20
ENDMDL
