MODEL 1
REMARK VINA RESULT:    -5.381      0.000      0.000
REMARK INTER + INTRA:         -11.730
REMARK INTER:                 -10.415
REMARK INTRA:                  -1.315
REMARK UNBOUND:                -1.315
REMARK SMILES CCCCCCCCCCCCCCCCCC(=O)[O-]
REMARK SMILES IDX 10 1 11 2 12 3 13 4 14 5 15 6 16 7 17 8 18 9 19 10 20 11
REMARK SMILES IDX 9 12 8 13 7 14 6 15 5 16 4 17 3 18 2 19 1 20
REMARK H PARENT
REMARK Flexibility Score: inf
ROOT
ATOM      1  C   UNL     1       5.111  57.410  22.644  1.00  0.00     0.000 C 
ENDROOT
BRANCH   1   2
ATOM      2  C   UNL     1       4.036  58.186  21.869  1.00  0.00     0.000 C 
BRANCH   2   3
ATOM      3  C   UNL     1       3.067  58.939  22.794  1.00  0.00     0.000 C 
BRANCH   3   4
ATOM      4  C   UNL     1       2.921  60.421  22.415  1.00  0.00     0.000 C 
BRANCH   4   5
ATOM      5  C   UNL     1       1.516  60.771  21.894  1.00  0.00     0.000 C 
BRANCH   5   6
ATOM      6  C   UNL     1       0.981  59.777  20.842  1.00  0.00     0.000 C 
BRANCH   6   7
ATOM      7  C   UNL     1       1.296  60.230  19.405  1.00  0.00     0.006 C 
BRANCH   7   8
ATOM      8  C   UNL     1       1.463  59.044  18.447  1.00  0.00     0.053 C 
BRANCH   8   9
ATOM      9  C   UNL     1       0.284  58.898  17.534  1.00  0.00     0.041 C 
ATOM     10  O   UNL     1      -0.348  59.917  17.149  1.00  0.00    -0.550 OA
ATOM     11  O   UNL     1      -0.136  57.636  17.135  1.00  0.00    -0.550 OA
ENDBRANCH   8   9
ENDBRANCH   7   8
ENDBRANCH   6   7
ENDBRANCH   5   6
ENDBRANCH   4   5
ENDBRANCH   3   4
ENDBRANCH   2   3
ENDBRANCH   1   2
BRANCH   1  12
ATOM     12  C   UNL     1       6.306  57.078  21.743  1.00  0.00     0.000 C 
BRANCH  12  13
ATOM     13  C   UNL     1       7.479  56.529  22.566  1.00  0.00    -0.000 C 
BRANCH  13  14
ATOM     14  C   UNL     1       8.239  55.448  21.788  1.00  0.00    -0.000 C 
BRANCH  14  15
ATOM     15  C   UNL     1       7.738  54.047  22.160  1.00  0.00    -0.000 C 
BRANCH  15  16
ATOM     16  C   UNL     1       6.957  54.074  23.482  1.00  0.00    -0.000 C 
BRANCH  16  17
ATOM     17  C   UNL     1       7.617  53.220  24.576  1.00  0.00    -0.000 C 
BRANCH  17  18
ATOM     18  C   UNL     1       8.062  54.054  25.790  1.00  0.00    -0.000 C 
BRANCH  18  19
ATOM     19  C   UNL     1       9.204  55.024  25.450  1.00  0.00    -0.003 C 
ATOM     20  C   UNL     1      10.482  54.303  25.026  1.00  0.00     0.004 C 
ENDBRANCH  18  19
ENDBRANCH  17  18
ENDBRANCH  16  17
ENDBRANCH  15  16
ENDBRANCH  14  15
ENDBRANCH  13  14
ENDBRANCH  12  13
ENDBRANCH   1  12
TORSDOF 16
ENDMDL
MODEL 2
REMARK VINA RESULT:    -5.249      8.337     12.664
REMARK INTER + INTRA:         -11.473
REMARK INTER:                  -9.503
REMARK INTRA:                  -1.971
REMARK UNBOUND:                -1.315
REMARK SMILES CCCCCCCCCCCCCCCCCC(=O)[O-]
REMARK SMILES IDX 10 1 11 2 12 3 13 4 14 5 15 6 16 7 17 8 18 9 19 10 20 11
REMARK SMILES IDX 9 12 8 13 7 14 6 15 5 16 4 17 3 18 2 19 1 20
REMARK H PARENT
REMARK Flexibility Score: inf
ROOT
ATOM      1  C   UNL     1      10.231  52.506  22.635  1.00  0.00     0.000 C 
ENDROOT
BRANCH   1   2
ATOM      2  C   UNL     1       9.922  51.521  23.773  1.00  0.00     0.000 C 
BRANCH   2   3
ATOM      3  C   UNL     1      10.567  50.142  23.554  1.00  0.00     0.000 C 
BRANCH   3   4
ATOM      4  C   UNL     1      10.310  49.178  24.723  1.00  0.00     0.000 C 
BRANCH   4   5
ATOM      5  C   UNL     1      11.049  47.838  24.567  1.00  0.00     0.000 C 
BRANCH   5   6
ATOM      6  C   UNL     1      11.174  47.043  25.883  1.00  0.00     0.000 C 
BRANCH   6   7
ATOM      7  C   UNL     1      11.692  47.916  27.041  1.00  0.00     0.006 C 
BRANCH   7   8
ATOM      8  C   UNL     1      13.223  47.924  27.121  1.00  0.00     0.053 C 
BRANCH   8   9
ATOM      9  C   UNL     1      13.724  47.088  28.259  1.00  0.00     0.041 C 
ATOM     10  O   UNL     1      14.656  46.261  28.074  1.00  0.00    -0.550 OA
ATOM     11  O   UNL     1      13.142  47.199  29.514  1.00  0.00    -0.550 OA
ENDBRANCH   8   9
ENDBRANCH   7   8
ENDBRANCH   6   7
ENDBRANCH   5   6
ENDBRANCH   4   5
ENDBRANCH   3   4
ENDBRANCH   2   3
ENDBRANCH   1   2
BRANCH   1  12
ATOM     12  C   UNL     1      10.571  53.894  23.188  1.00  0.00     0.000 C 
BRANCH  12  13
ATOM     13  C   UNL     1      10.299  53.968  24.696  1.00  0.00    -0.000 C 
BRANCH  13  14
ATOM     14  C   UNL     1       9.199  54.989  25.009  1.00  0.00    -0.000 C 
BRANCH  14  15
ATOM     15  C   UNL     1       7.974  54.305  25.629  1.00  0.00    -0.000 C 
BRANCH  15  16
ATOM     16  C   UNL     1       7.135  53.597  24.554  1.00  0.00    -0.000 C 
BRANCH  16  17
ATOM     17  C   UNL     1       6.729  54.538  23.407  1.00  0.00    -0.000 C 
BRANCH  17  18
ATOM     18  C   UNL     1       6.855  53.873  22.025  1.00  0.00    -0.000 C 
BRANCH  18  19
ATOM     19  C   UNL     1       7.588  54.763  21.009  1.00  0.00    -0.003 C 
ATOM     20  C   UNL     1       8.003  56.110  21.598  1.00  0.00     0.004 C 
ENDBRANCH  18  19
ENDBRANCH  17  18
ENDBRANCH  16  17
ENDBRANCH  15  16
ENDBRANCH  14  15
ENDBRANCH  13  14
ENDBRANCH  12  13
ENDBRANCH   1  12
TORSDOF 16
ENDMDL
MODEL 3
REMARK VINA RESULT:    -5.207      3.527      4.362
REMARK INTER + INTRA:         -11.392
REMARK INTER:                 -10.214
REMARK INTRA:                  -1.178
REMARK UNBOUND:                -1.315
REMARK SMILES CCCCCCCCCCCCCCCCCC(=O)[O-]
REMARK SMILES IDX 10 1 11 2 12 3 13 4 14 5 15 6 16 7 17 8 18 9 19 10 20 11
REMARK SMILES IDX 9 12 8 13 7 14 6 15 5 16 4 17 3 18 2 19 1 20
REMARK H PARENT
REMARK Flexibility Score: inf
ROOT
ATOM      1  C   UNL     1       6.325  57.268  21.758  1.00  0.00     0.000 C 
ENDROOT
BRANCH   1   2
ATOM      2  C   UNL     1       5.045  57.279  22.608  1.00  0.00     0.000 C 
BRANCH   2   3
ATOM      3  C   UNL     1       3.954  58.190  22.022  1.00  0.00     0.000 C 
BRANCH   3   4
ATOM      4  C   UNL     1       3.365  59.152  23.065  1.00  0.00     0.000 C 
BRANCH   4   5
ATOM      5  C   UNL     1       2.586  60.318  22.432  1.00  0.00     0.000 C 
BRANCH   5   6
ATOM      6  C   UNL     1       1.114  60.397  22.885  1.00  0.00     0.000 C 
BRANCH   6   7
ATOM      7  C   UNL     1       0.870  59.638  24.202  1.00  0.00     0.006 C 
BRANCH   7   8
ATOM      8  C   UNL     1      -0.428  60.075  24.891  1.00  0.00     0.053 C 
BRANCH   8   9
ATOM      9  C   UNL     1      -0.651  59.335  26.174  1.00  0.00     0.041 C 
ATOM     10  O   UNL     1      -1.276  59.883  27.121  1.00  0.00    -0.550 OA
ATOM     11  O   UNL     1      -0.142  58.053  26.337  1.00  0.00    -0.550 OA
ENDBRANCH   8   9
ENDBRANCH   7   8
ENDBRANCH   6   7
ENDBRANCH   5   6
ENDBRANCH   4   5
ENDBRANCH   3   4
ENDBRANCH   2   3
ENDBRANCH   1   2
BRANCH   1  12
ATOM     12  C   UNL     1       7.351  56.278  22.322  1.00  0.00     0.000 C 
BRANCH  12  13
ATOM     13  C   UNL     1       7.300  54.943  21.567  1.00  0.00    -0.000 C 
BRANCH  13  14
ATOM     14  C   UNL     1       6.647  53.850  22.421  1.00  0.00    -0.000 C 
BRANCH  14  15
ATOM     15  C   UNL     1       7.175  53.887  23.859  1.00  0.00    -0.000 C 
BRANCH  15  16
ATOM     16  C   UNL     1       8.094  52.687  24.140  1.00  0.00    -0.000 C 
BRANCH  16  17
ATOM     17  C   UNL     1       9.559  52.966  23.766  1.00  0.00    -0.000 C 
BRANCH  17  18
ATOM     18  C   UNL     1      10.002  54.392  24.136  1.00  0.00    -0.000 C 
BRANCH  18  19
ATOM     19  C   UNL     1      10.575  54.480  25.559  1.00  0.00    -0.003 C 
ATOM     20  C   UNL     1       9.524  54.880  26.593  1.00  0.00     0.004 C 
ENDBRANCH  18  19
ENDBRANCH  17  18
ENDBRANCH  16  17
ENDBRANCH  15  16
ENDBRANCH  14  15
ENDBRANCH  13  14
ENDBRANCH  12  13
ENDBRANCH   1  12
TORSDOF 16
ENDMDL
MODEL 4
REMARK VINA RESULT:    -5.199      1.115      1.242
REMARK INTER + INTRA:         -11.377
REMARK INTER:                 -10.202
REMARK INTRA:                  -1.175
REMARK UNBOUND:                -1.315
REMARK SMILES CCCCCCCCCCCCCCCCCC(=O)[O-]
REMARK SMILES IDX 10 1 11 2 12 3 13 4 14 5 15 6 16 7 17 8 18 9 19 10 20 11
REMARK SMILES IDX 9 12 8 13 7 14 6 15 5 16 4 17 3 18 2 19 1 20
REMARK H PARENT
REMARK Flexibility Score: inf
ROOT
ATOM      1  C   UNL     1       5.444  56.739  22.236  1.00  0.00     0.000 C 
ENDROOT
BRANCH   1   2
ATOM      2  C   UNL     1       4.686  58.017  22.626  1.00  0.00     0.000 C 
BRANCH   2   3
ATOM      3  C   UNL     1       3.276  58.078  22.014  1.00  0.00     0.000 C 
BRANCH   3   4
ATOM      4  C   UNL     1       2.555  59.398  22.326  1.00  0.00     0.000 C 
BRANCH   4   5
ATOM      5  C   UNL     1       2.640  60.413  21.173  1.00  0.00     0.000 C 
BRANCH   5   6
ATOM      6  C   UNL     1       1.275  61.007  20.768  1.00  0.00     0.000 C 
BRANCH   6   7
ATOM      7  C   UNL     1       0.631  60.237  19.602  1.00  0.00     0.006 C 
BRANCH   7   8
ATOM      8  C   UNL     1       1.626  59.299  18.906  1.00  0.00     0.053 C 
BRANCH   8   9
ATOM      9  C   UNL     1       1.337  59.171  17.442  1.00  0.00     0.041 C 
ATOM     10  O   UNL     1       0.158  58.973  17.045  1.00  0.00    -0.550 OA
ATOM     11  O   UNL     1       2.372  59.238  16.519  1.00  0.00    -0.550 OA
ENDBRANCH   8   9
ENDBRANCH   7   8
ENDBRANCH   6   7
ENDBRANCH   5   6
ENDBRANCH   4   5
ENDBRANCH   3   4
ENDBRANCH   2   3
ENDBRANCH   1   2
BRANCH   1  12
ATOM     12  C   UNL     1       6.954  56.912  22.441  1.00  0.00     0.000 C 
BRANCH  12  13
ATOM     13  C   UNL     1       7.740  56.317  21.266  1.00  0.00    -0.000 C 
BRANCH  13  14
ATOM     14  C   UNL     1       7.543  54.799  21.183  1.00  0.00    -0.000 C 
BRANCH  14  15
ATOM     15  C   UNL     1       8.365  54.078  22.258  1.00  0.00    -0.000 C 
BRANCH  15  16
ATOM     16  C   UNL     1       7.450  53.372  23.270  1.00  0.00    -0.000 C 
BRANCH  16  17
ATOM     17  C   UNL     1       7.642  53.894  24.703  1.00  0.00    -0.000 C 
BRANCH  17  18
ATOM     18  C   UNL     1       8.893  54.779  24.847  1.00  0.00    -0.000 C 
BRANCH  18  19
ATOM     19  C   UNL     1       9.472  54.752  26.270  1.00  0.00    -0.003 C 
ATOM     20  C   UNL     1      10.999  54.750  26.285  1.00  0.00     0.004 C 
ENDBRANCH  18  19
ENDBRANCH  17  18
ENDBRANCH  16  17
ENDBRANCH  15  16
ENDBRANCH  14  15
ENDBRANCH  13  14
ENDBRANCH  12  13
ENDBRANCH   1  12
TORSDOF 16
ENDMDL
MODEL 5
REMARK VINA RESULT:    -5.192      1.551      2.159
REMARK INTER + INTRA:         -11.363
REMARK INTER:                 -10.654
REMARK INTRA:                  -0.709
REMARK UNBOUND:                -1.315
REMARK SMILES CCCCCCCCCCCCCCCCCC(=O)[O-]
REMARK SMILES IDX 10 1 11 2 12 3 13 4 14 5 15 6 16 7 17 8 18 9 19 10 20 11
REMARK SMILES IDX 9 12 8 13 7 14 6 15 5 16 4 17 3 18 2 19 1 20
REMARK H PARENT
REMARK Flexibility Score: inf
ROOT
ATOM      1  C   UNL     1       4.109  58.320  21.931  1.00  0.00     0.000 C 
ENDROOT
BRANCH   1   2
ATOM      2  C   UNL     1       3.062  58.918  22.882  1.00  0.00     0.000 C 
BRANCH   2   3
ATOM      3  C   UNL     1       2.765  60.396  22.581  1.00  0.00     0.000 C 
BRANCH   3   4
ATOM      4  C   UNL     1       2.793  60.709  21.077  1.00  0.00     0.000 C 
BRANCH   4   5
ATOM      5  C   UNL     1       1.446  60.442  20.385  1.00  0.00     0.000 C 
BRANCH   5   6
ATOM      6  C   UNL     1       1.443  59.176  19.502  1.00  0.00     0.000 C 
BRANCH   6   7
ATOM      7  C   UNL     1       0.697  59.397  18.174  1.00  0.00     0.006 C 
BRANCH   7   8
ATOM      8  C   UNL     1       1.287  58.561  17.032  1.00  0.00     0.053 C 
BRANCH   8   9
ATOM      9  C   UNL     1       2.325  59.322  16.265  1.00  0.00     0.041 C 
ATOM     10  O   UNL     1       3.116  58.714  15.496  1.00  0.00    -0.550 OA
ATOM     11  O   UNL     1       2.440  60.697  16.423  1.00  0.00    -0.550 OA
ENDBRANCH   8   9
ENDBRANCH   7   8
ENDBRANCH   6   7
ENDBRANCH   5   6
ENDBRANCH   4   5
ENDBRANCH   3   4
ENDBRANCH   2   3
ENDBRANCH   1   2
BRANCH   1  12
ATOM     12  C   UNL     1       4.925  57.226  22.630  1.00  0.00     0.000 C 
BRANCH  12  13
ATOM     13  C   UNL     1       6.299  57.058  21.969  1.00  0.00    -0.000 C 
BRANCH  13  14
ATOM     14  C   UNL     1       6.572  55.588  21.629  1.00  0.00    -0.000 C 
BRANCH  14  15
ATOM     15  C   UNL     1       8.078  55.315  21.533  1.00  0.00    -0.000 C 
BRANCH  15  16
ATOM     16  C   UNL     1       8.705  55.183  22.929  1.00  0.00    -0.000 C 
BRANCH  16  17
ATOM     17  C   UNL     1       9.966  54.305  22.929  1.00  0.00    -0.000 C 
BRANCH  17  18
ATOM     18  C   UNL     1      10.096  53.458  24.207  1.00  0.00    -0.000 C 
BRANCH  18  19
ATOM     19  C   UNL     1      10.603  54.275  25.406  1.00  0.00    -0.003 C 
ATOM     20  C   UNL     1       9.467  54.874  26.233  1.00  0.00     0.004 C 
ENDBRANCH  18  19
ENDBRANCH  17  18
ENDBRANCH  16  17
ENDBRANCH  15  16
ENDBRANCH  14  15
ENDBRANCH  13  14
ENDBRANCH  12  13
ENDBRANCH   1  12
TORSDOF 16
ENDMDL
MODEL 6
REMARK VINA RESULT:    -5.156      2.806      4.178
REMARK INTER + INTRA:         -11.294
REMARK INTER:                  -9.706
REMARK INTRA:                  -1.589
REMARK UNBOUND:                -1.315
REMARK SMILES CCCCCCCCCCCCCCCCCC(=O)[O-]
REMARK SMILES IDX 10 1 11 2 12 3 13 4 14 5 15 6 16 7 17 8 18 9 19 10 20 11
REMARK SMILES IDX 9 12 8 13 7 14 6 15 5 16 4 17 3 18 2 19 1 20
REMARK H PARENT
REMARK Flexibility Score: inf
ROOT
ATOM      1  C   UNL     1       7.346  55.244  20.585  1.00  0.00     0.000 C 
ENDROOT
BRANCH   1   2
ATOM      2  C   UNL     1       8.096  56.299  21.413  1.00  0.00     0.000 C 
BRANCH   2   3
ATOM      3  C   UNL     1       7.159  57.127  22.306  1.00  0.00     0.000 C 
BRANCH   3   4
ATOM      4  C   UNL     1       5.804  57.410  21.637  1.00  0.00     0.000 C 
BRANCH   4   5
ATOM      5  C   UNL     1       4.662  57.594  22.652  1.00  0.00     0.000 C 
BRANCH   5   6
ATOM      6  C   UNL     1       3.497  58.456  22.123  1.00  0.00     0.000 C 
BRANCH   6   7
ATOM      7  C   UNL     1       3.149  59.609  23.081  1.00  0.00     0.006 C 
BRANCH   7   8
ATOM      8  C   UNL     1       1.848  60.319  22.684  1.00  0.00     0.053 C 
BRANCH   8   9
ATOM      9  C   UNL     1       0.720  59.965  23.604  1.00  0.00     0.041 C 
ATOM     10  O   UNL     1       0.343  60.782  24.486  1.00  0.00    -0.550 OA
ATOM     11  O   UNL     1       0.107  58.723  23.509  1.00  0.00    -0.550 OA
ENDBRANCH   8   9
ENDBRANCH   7   8
ENDBRANCH   6   7
ENDBRANCH   5   6
ENDBRANCH   4   5
ENDBRANCH   3   4
ENDBRANCH   2   3
ENDBRANCH   1   2
BRANCH   1  12
ATOM     12  C   UNL     1       7.284  53.905  21.328  1.00  0.00     0.000 C 
BRANCH  12  13
ATOM     13  C   UNL     1       5.973  53.774  22.115  1.00  0.00    -0.000 C 
BRANCH  13  14
ATOM     14  C   UNL     1       6.168  54.176  23.582  1.00  0.00    -0.000 C 
BRANCH  14  15
ATOM     15  C   UNL     1       7.281  53.348  24.236  1.00  0.00    -0.000 C 
BRANCH  15  16
ATOM     16  C   UNL     1       8.036  54.174  25.288  1.00  0.00    -0.000 C 
BRANCH  16  17
ATOM     17  C   UNL     1       9.550  54.221  25.026  1.00  0.00    -0.000 C 
BRANCH  17  18
ATOM     18  C   UNL     1       9.888  54.299  23.527  1.00  0.00    -0.000 C 
BRANCH  18  19
ATOM     19  C   UNL     1      10.805  53.153  23.071  1.00  0.00    -0.003 C 
ATOM     20  C   UNL     1      10.215  51.775  23.363  1.00  0.00     0.004 C 
ENDBRANCH  18  19
ENDBRANCH  17  18
ENDBRANCH  16  17
ENDBRANCH  15  16
ENDBRANCH  14  15
ENDBRANCH  13  14
ENDBRANCH  12  13
ENDBRANCH   1  12
TORSDOF 16
ENDMDL
MODEL 7
REMARK VINA RESULT:    -5.116      4.384      8.962
REMARK INTER + INTRA:         -11.216
REMARK INTER:                  -9.727
REMARK INTRA:                  -1.488
REMARK UNBOUND:                -1.315
REMARK SMILES CCCCCCCCCCCCCCCCCC(=O)[O-]
REMARK SMILES IDX 10 1 11 2 12 3 13 4 14 5 15 6 16 7 17 8 18 9 19 10 20 11
REMARK SMILES IDX 9 12 8 13 7 14 6 15 5 16 4 17 3 18 2 19 1 20
REMARK H PARENT
REMARK Flexibility Score: inf
ROOT
ATOM      1  C   UNL     1       6.864  54.189  21.482  1.00  0.00     0.000 C 
ENDROOT
BRANCH   1   2
ATOM      2  C   UNL     1       6.953  53.248  22.693  1.00  0.00     0.000 C 
BRANCH   2   3
ATOM      3  C   UNL     1       6.699  53.972  24.025  1.00  0.00     0.000 C 
BRANCH   3   4
ATOM      4  C   UNL     1       7.483  53.352  25.193  1.00  0.00     0.000 C 
BRANCH   4   5
ATOM      5  C   UNL     1       8.281  54.392  25.997  1.00  0.00     0.000 C 
BRANCH   5   6
ATOM      6  C   UNL     1       9.368  55.111  25.171  1.00  0.00     0.000 C 
BRANCH   6   7
ATOM      7  C   UNL     1      10.555  54.187  24.845  1.00  0.00     0.006 C 
BRANCH   7   8
ATOM      8  C   UNL     1      10.735  53.985  23.335  1.00  0.00     0.053 C 
BRANCH   8   9
ATOM      9  C   UNL     1      10.337  52.606  22.908  1.00  0.00     0.041 C 
ATOM     10  O   UNL     1      10.100  52.363  21.695  1.00  0.00    -0.550 OA
ATOM     11  O   UNL     1      10.195  51.597  23.852  1.00  0.00    -0.550 OA
ENDBRANCH   8   9
ENDBRANCH   7   8
ENDBRANCH   6   7
ENDBRANCH   5   6
ENDBRANCH   4   5
ENDBRANCH   3   4
ENDBRANCH   2   3
ENDBRANCH   1   2
BRANCH   1  12
ATOM     12  C   UNL     1       8.016  55.200  21.487  1.00  0.00     0.000 C 
BRANCH  12  13
ATOM     13  C   UNL     1       7.490  56.634  21.336  1.00  0.00    -0.000 C 
BRANCH  13  14
ATOM     14  C   UNL     1       6.603  57.024  22.524  1.00  0.00    -0.000 C 
BRANCH  14  15
ATOM     15  C   UNL     1       5.118  56.842  22.186  1.00  0.00    -0.000 C 
BRANCH  15  16
ATOM     16  C   UNL     1       4.330  58.133  22.453  1.00  0.00    -0.000 C 
BRANCH  16  17
ATOM     17  C   UNL     1       2.969  58.153  21.738  1.00  0.00    -0.000 C 
BRANCH  17  18
ATOM     18  C   UNL     1       2.657  59.518  21.101  1.00  0.00    -0.000 C 
BRANCH  18  19
ATOM     19  C   UNL     1       2.593  60.650  22.138  1.00  0.00    -0.003 C 
ATOM     20  C   UNL     1       1.564  60.386  23.236  1.00  0.00     0.004 C 
ENDBRANCH  18  19
ENDBRANCH  17  18
ENDBRANCH  16  17
ENDBRANCH  15  16
ENDBRANCH  14  15
ENDBRANCH  13  14
ENDBRANCH  12  13
ENDBRANCH   1  12
TORSDOF 16
ENDMDL
MODEL 8
REMARK VINA RESULT:    -5.101      4.325      9.769
REMARK INTER + INTRA:         -11.187
REMARK INTER:                  -9.776
REMARK INTRA:                  -1.411
REMARK UNBOUND:                -1.315
REMARK SMILES CCCCCCCCCCCCCCCCCC(=O)[O-]
REMARK SMILES IDX 10 1 11 2 12 3 13 4 14 5 15 6 16 7 17 8 18 9 19 10 20 11
REMARK SMILES IDX 9 12 8 13 7 14 6 15 5 16 4 17 3 18 2 19 1 20
REMARK H PARENT
REMARK Flexibility Score: inf
ROOT
ATOM      1  C   UNL     1       2.789  57.936  21.851  1.00  0.00     0.000 C 
ENDROOT
BRANCH   1   2
ATOM      2  C   UNL     1       4.243  58.248  22.236  1.00  0.00     0.000 C 
BRANCH   2   3
ATOM      3  C   UNL     1       5.050  56.984  22.572  1.00  0.00     0.000 C 
BRANCH   3   4
ATOM      4  C   UNL     1       6.502  57.061  22.074  1.00  0.00     0.000 C 
BRANCH   4   5
ATOM      5  C   UNL     1       6.945  55.794  21.323  1.00  0.00     0.000 C 
BRANCH   5   6
ATOM      6  C   UNL     1       8.412  55.398  21.589  1.00  0.00     0.000 C 
BRANCH   6   7
ATOM      7  C   UNL     1       8.629  54.912  23.033  1.00  0.00     0.006 C 
BRANCH   7   8
ATOM      8  C   UNL     1       9.848  53.990  23.158  1.00  0.00     0.053 C 
BRANCH   8   9
ATOM      9  C   UNL     1       9.464  52.622  23.632  1.00  0.00     0.041 C 
ATOM     10  O   UNL     1       8.357  52.439  24.206  1.00  0.00    -0.550 OA
ATOM     11  O   UNL     1      10.339  51.557  23.470  1.00  0.00    -0.550 OA
ENDBRANCH   8   9
ENDBRANCH   7   8
ENDBRANCH   6   7
ENDBRANCH   5   6
ENDBRANCH   4   5
ENDBRANCH   3   4
ENDBRANCH   2   3
ENDBRANCH   1   2
BRANCH   1  12
ATOM     12  C   UNL     1       2.354  58.760  20.633  1.00  0.00     0.000 C 
BRANCH  12  13
ATOM     13  C   UNL     1       2.590  60.257  20.870  1.00  0.00    -0.000 C 
BRANCH  13  14
ATOM     14  C   UNL     1       1.334  60.932  21.432  1.00  0.00    -0.000 C 
BRANCH  14  15
ATOM     15  C   UNL     1       0.095  60.562  20.607  1.00  0.00    -0.000 C 
BRANCH  15  16
ATOM     16  C   UNL     1      -0.112  61.553  19.451  1.00  0.00    -0.000 C 
BRANCH  16  17
ATOM     17  C   UNL     1       0.117  60.909  18.074  1.00  0.00    -0.000 C 
BRANCH  17  18
ATOM     18  C   UNL     1      -0.390  59.458  18.008  1.00  0.00    -0.000 C 
BRANCH  18  19
ATOM     19  C   UNL     1       0.600  58.521  17.300  1.00  0.00    -0.003 C 
ATOM     20  C   UNL     1       1.912  59.215  16.937  1.00  0.00     0.004 C 
ENDBRANCH  18  19
ENDBRANCH  17  18
ENDBRANCH  16  17
ENDBRANCH  15  16
ENDBRANCH  14  15
ENDBRANCH  13  14
ENDBRANCH  12  13
ENDBRANCH   1  12
TORSDOF 16
ENDMDL
MODEL 9
REMARK VINA RESULT:    -5.030      1.429      2.481
REMARK INTER + INTRA:         -11.049
REMARK INTER:                 -10.041
REMARK INTRA:                  -1.009
REMARK UNBOUND:                -1.315
REMARK SMILES CCCCCCCCCCCCCCCCCC(=O)[O-]
REMARK SMILES IDX 10 1 11 2 12 3 13 4 14 5 15 6 16 7 17 8 18 9 19 10 20 11
REMARK SMILES IDX 9 12 8 13 7 14 6 15 5 16 4 17 3 18 2 19 1 20
REMARK H PARENT
REMARK Flexibility Score: inf
ROOT
ATOM      1  C   UNL     1       2.985  58.489  22.625  1.00  0.00     0.000 C 
ENDROOT
BRANCH   1   2
ATOM      2  C   UNL     1       2.676  59.990  22.742  1.00  0.00     0.000 C 
BRANCH   2   3
ATOM      3  C   UNL     1       2.732  60.713  21.387  1.00  0.00     0.000 C 
BRANCH   3   4
ATOM      4  C   UNL     1       1.335  61.043  20.837  1.00  0.00     0.000 C 
BRANCH   4   5
ATOM      5  C   UNL     1       0.644  59.829  20.192  1.00  0.00     0.000 C 
BRANCH   5   6
ATOM      6  C   UNL     1       1.554  59.035  19.233  1.00  0.00     0.000 C 
BRANCH   6   7
ATOM      7  C   UNL     1       0.878  58.772  17.876  1.00  0.00     0.006 C 
BRANCH   7   8
ATOM      8  C   UNL     1      -0.012  59.941  17.435  1.00  0.00     0.053 C 
BRANCH   8   9
ATOM      9  C   UNL     1       0.795  61.078  16.888  1.00  0.00     0.041 C 
ATOM     10  O   UNL     1       1.886  60.853  16.298  1.00  0.00    -0.550 OA
ATOM     11  O   UNL     1       0.362  62.386  17.058  1.00  0.00    -0.550 OA
ENDBRANCH   8   9
ENDBRANCH   7   8
ENDBRANCH   6   7
ENDBRANCH   5   6
ENDBRANCH   4   5
ENDBRANCH   3   4
ENDBRANCH   2   3
ENDBRANCH   1   2
BRANCH   1  12
ATOM     12  C   UNL     1       4.352  58.260  21.969  1.00  0.00     0.000 C 
BRANCH  12  13
ATOM     13  C   UNL     1       5.027  57.002  22.531  1.00  0.00    -0.000 C 
BRANCH  13  14
ATOM     14  C   UNL     1       6.524  56.985  22.202  1.00  0.00    -0.000 C 
BRANCH  14  15
ATOM     15  C   UNL     1       6.917  55.684  21.492  1.00  0.00    -0.000 C 
BRANCH  15  16
ATOM     16  C   UNL     1       8.400  55.356  21.725  1.00  0.00    -0.000 C 
BRANCH  16  17
ATOM     17  C   UNL     1       8.599  54.162  22.672  1.00  0.00    -0.000 C 
BRANCH  17  18
ATOM     18  C   UNL     1      10.071  53.969  23.077  1.00  0.00    -0.000 C 
BRANCH  18  19
ATOM     19  C   UNL     1      10.319  54.289  24.560  1.00  0.00    -0.003 C 
ATOM     20  C   UNL     1       9.143  55.015  25.210  1.00  0.00     0.004 C 
ENDBRANCH  18  19
ENDBRANCH  17  18
ENDBRANCH  16  17
ENDBRANCH  15  16
ENDBRANCH  14  15
ENDBRANCH  13  14
ENDBRANCH  12  13
ENDBRANCH   1  12
TORSDOF 16
ENDMDL
