MODEL 1
REMARK VINA RESULT:    -3.000      0.000      0.000
REMARK INTER + INTRA:         -11.640
REMARK INTER:                  -6.859
REMARK INTRA:                  -4.781
REMARK UNBOUND:                -4.781
REMARK SMILES CCCCCCCCCCCCCCCCCCCCCCCC(=O)[O-]
REMARK SMILES IDX 13 1 14 2 15 3 16 4 17 5 18 6 19 7 20 8 21 9 22 10 23 11
REMARK SMILES IDX 24 12 25 13 26 14 12 15 11 16 10 17 9 18 8 19 7 20 6 21 5 22
REMARK SMILES IDX 4 23 3 24 2 25 1 26
REMARK H PARENT
REMARK Flexibility Score: inf
ROOT
ATOM      1  C   UNL     1      57.165  26.158  53.566  1.00  0.00     0.000 C 
ENDROOT
BRANCH   1   2
ATOM      2  C   UNL     1      56.203  27.312  53.888  1.00  0.00     0.000 C 
BRANCH   2   3
ATOM      3  C   UNL     1      56.743  28.676  53.425  1.00  0.00     0.000 C 
BRANCH   3   4
ATOM      4  C   UNL     1      58.280  28.716  53.384  1.00  0.00     0.000 C 
BRANCH   4   5
ATOM      5  C   UNL     1      58.815  29.538  52.197  1.00  0.00     0.000 C 
BRANCH   5   6
ATOM      6  C   UNL     1      58.110  29.195  50.875  1.00  0.00     0.000 C 
BRANCH   6   7
ATOM      7  C   UNL     1      59.100  29.005  49.715  1.00  0.00     0.000 C 
BRANCH   7   8
ATOM      8  C   UNL     1      59.669  27.577  49.643  1.00  0.00     0.000 C 
BRANCH   8   9
ATOM      9  C   UNL     1      61.164  27.485  50.018  1.00  0.00     0.000 C 
BRANCH   9  10
ATOM     10  C   UNL     1      61.374  26.879  51.417  1.00  0.00     0.006 C 
BRANCH  10  11
ATOM     11  C   UNL     1      60.256  25.900  51.800  1.00  0.00     0.053 C 
BRANCH  11  12
ATOM     12  C   UNL     1      60.759  24.493  51.902  1.00  0.00     0.041 C 
ATOM     13  O   UNL     1      61.958  24.227  51.625  1.00  0.00    -0.550 OA
ATOM     14  O   UNL     1      59.908  23.478  52.321  1.00  0.00    -0.550 OA
ENDBRANCH  11  12
ENDBRANCH  10  11
ENDBRANCH   9  10
ENDBRANCH   8   9
ENDBRANCH   7   8
ENDBRANCH   6   7
ENDBRANCH   5   6
ENDBRANCH   4   5
ENDBRANCH   3   4
ENDBRANCH   2   3
ENDBRANCH   1   2
BRANCH   1  15
ATOM     15  C   UNL     1      56.592  25.178  52.527  1.00  0.00     0.000 C 
BRANCH  15  16
ATOM     16  C   UNL     1      56.666  25.733  51.095  1.00  0.00     0.000 C 
BRANCH  16  17
ATOM     17  C   UNL     1      55.275  25.999  50.495  1.00  0.00     0.000 C 
BRANCH  17  18
ATOM     18  C   UNL     1      54.977  27.498  50.325  1.00  0.00    -0.000 C 
BRANCH  18  19
ATOM     19  C   UNL     1      53.724  27.938  51.101  1.00  0.00    -0.000 C 
BRANCH  19  20
ATOM     20  C   UNL     1      53.711  29.447  51.411  1.00  0.00    -0.000 C 
BRANCH  20  21
ATOM     21  C   UNL     1      54.776  30.276  50.672  1.00  0.00    -0.000 C 
BRANCH  21  22
ATOM     22  C   UNL     1      55.174  31.553  51.425  1.00  0.00    -0.000 C 
BRANCH  22  23
ATOM     23  C   UNL     1      54.688  31.509  52.883  1.00  0.00    -0.000 C 
BRANCH  23  24
ATOM     24  C   UNL     1      55.542  32.396  53.813  1.00  0.00    -0.000 C 
BRANCH  24  25
ATOM     25  C   UNL     1      57.039  32.398  53.460  1.00  0.00    -0.003 C 
ATOM     26  C   UNL     1      57.939  32.667  54.664  1.00  0.00     0.004 C 
ENDBRANCH  24  25
ENDBRANCH  23  24
ENDBRANCH  22  23
ENDBRANCH  21  22
ENDBRANCH  20  21
ENDBRANCH  19  20
ENDBRANCH  18  19
ENDBRANCH  17  18
ENDBRANCH  16  17
ENDBRANCH  15  16
ENDBRANCH   1  15
TORSDOF 22
ENDMDL
MODEL 2
REMARK VINA RESULT:    -2.949      3.342      5.606
REMARK INTER + INTRA:         -11.522
REMARK INTER:                  -7.503
REMARK INTRA:                  -4.019
REMARK UNBOUND:                -4.781
REMARK SMILES CCCCCCCCCCCCCCCCCCCCCCCC(=O)[O-]
REMARK SMILES IDX 13 1 14 2 15 3 16 4 17 5 18 6 19 7 20 8 21 9 22 10 23 11
REMARK SMILES IDX 24 12 25 13 26 14 12 15 11 16 10 17 9 18 8 19 7 20 6 21 5 22
REMARK SMILES IDX 4 23 3 24 2 25 1 26
REMARK H PARENT
REMARK Flexibility Score: inf
ROOT
ATOM      1  C   UNL     1      58.962  28.754  49.797  1.00  0.00     0.000 C 
ENDROOT
BRANCH   1   2
ATOM      2  C   UNL     1      59.670  27.390  49.775  1.00  0.00     0.000 C 
BRANCH   2   3
ATOM      3  C   UNL     1      61.203  27.521  49.806  1.00  0.00     0.000 C 
BRANCH   3   4
ATOM      4  C   UNL     1      61.828  26.814  51.020  1.00  0.00     0.000 C 
BRANCH   4   5
ATOM      5  C   UNL     1      60.956  26.935  52.284  1.00  0.00     0.000 C 
BRANCH   5   6
ATOM      6  C   UNL     1      61.362  28.124  53.169  1.00  0.00     0.000 C 
BRANCH   6   7
ATOM      7  C   UNL     1      60.251  29.182  53.274  1.00  0.00     0.000 C 
BRANCH   7   8
ATOM      8  C   UNL     1      60.649  30.530  52.648  1.00  0.00     0.000 C 
BRANCH   8   9
ATOM      9  C   UNL     1      62.065  30.533  52.032  1.00  0.00     0.000 C 
BRANCH   9  10
ATOM     10  C   UNL     1      62.040  30.838  50.524  1.00  0.00     0.006 C 
BRANCH  10  11
ATOM     11  C   UNL     1      63.347  31.479  50.039  1.00  0.00     0.053 C 
BRANCH  11  12
ATOM     12  C   UNL     1      63.236  32.971  49.951  1.00  0.00     0.041 C 
ATOM     13  O   UNL     1      62.750  33.511  48.924  1.00  0.00    -0.550 OA
ATOM     14  O   UNL     1      63.653  33.763  51.014  1.00  0.00    -0.550 OA
ENDBRANCH  11  12
ENDBRANCH  10  11
ENDBRANCH   9  10
ENDBRANCH   8   9
ENDBRANCH   7   8
ENDBRANCH   6   7
ENDBRANCH   5   6
ENDBRANCH   4   5
ENDBRANCH   3   4
ENDBRANCH   2   3
ENDBRANCH   1   2
BRANCH   1  15
ATOM     15  C   UNL     1      57.666  28.738  50.627  1.00  0.00     0.000 C 
BRANCH  15  16
ATOM     16  C   UNL     1      57.239  30.146  51.073  1.00  0.00     0.000 C 
BRANCH  16  17
ATOM     17  C   UNL     1      55.754  30.428  50.788  1.00  0.00     0.000 C 
BRANCH  17  18
ATOM     18  C   UNL     1      54.834  29.986  51.937  1.00  0.00    -0.000 C 
BRANCH  18  19
ATOM     19  C   UNL     1      53.653  29.131  51.448  1.00  0.00    -0.000 C 
BRANCH  19  20
ATOM     20  C   UNL     1      54.016  28.238  50.247  1.00  0.00    -0.000 C 
BRANCH  20  21
ATOM     21  C   UNL     1      53.865  26.726  50.487  1.00  0.00    -0.000 C 
BRANCH  21  22
ATOM     22  C   UNL     1      55.000  25.901  49.864  1.00  0.00    -0.000 C 
BRANCH  22  23
ATOM     23  C   UNL     1      56.195  25.792  50.824  1.00  0.00    -0.000 C 
BRANCH  23  24
ATOM     24  C   UNL     1      55.754  25.661  52.297  1.00  0.00    -0.000 C 
BRANCH  24  25
ATOM     25  C   UNL     1      56.205  26.833  53.184  1.00  0.00    -0.003 C 
ATOM     26  C   UNL     1      57.570  26.605  53.831  1.00  0.00     0.004 C 
ENDBRANCH  24  25
ENDBRANCH  23  24
ENDBRANCH  22  23
ENDBRANCH  21  22
ENDBRANCH  20  21
ENDBRANCH  19  20
ENDBRANCH  18  19
ENDBRANCH  17  18
ENDBRANCH  16  17
ENDBRANCH  15  16
ENDBRANCH   1  15
TORSDOF 22
ENDMDL
MODEL 3
REMARK VINA RESULT:    -2.912      2.947      4.046
REMARK INTER + INTRA:         -11.439
REMARK INTER:                  -7.519
REMARK INTRA:                  -3.920
REMARK UNBOUND:                -4.781
REMARK SMILES CCCCCCCCCCCCCCCCCCCCCCCC(=O)[O-]
REMARK SMILES IDX 13 1 14 2 15 3 16 4 17 5 18 6 19 7 20 8 21 9 22 10 23 11
REMARK SMILES IDX 24 12 25 13 26 14 12 15 11 16 10 17 9 18 8 19 7 20 6 21 5 22
REMARK SMILES IDX 4 23 3 24 2 25 1 26
REMARK H PARENT
REMARK Flexibility Score: inf
ROOT
ATOM      1  C   UNL     1      58.869  25.786  50.359  1.00  0.00     0.000 C 
ENDROOT
BRANCH   1   2
ATOM      2  C   UNL     1      59.770  27.007  50.606  1.00  0.00     0.000 C 
BRANCH   2   3
ATOM      3  C   UNL     1      59.342  28.230  49.777  1.00  0.00     0.000 C 
BRANCH   3   4
ATOM      4  C   UNL     1      58.777  29.363  50.651  1.00  0.00     0.000 C 
BRANCH   4   5
ATOM      5  C   UNL     1      58.311  28.863  52.031  1.00  0.00     0.000 C 
BRANCH   5   6
ATOM      6  C   UNL     1      59.262  29.283  53.163  1.00  0.00     0.000 C 
BRANCH   6   7
ATOM      7  C   UNL     1      59.776  30.722  52.994  1.00  0.00     0.000 C 
BRANCH   7   8
ATOM      8  C   UNL     1      61.310  30.818  53.053  1.00  0.00     0.000 C 
BRANCH   8   9
ATOM      9  C   UNL     1      62.029  29.505  52.673  1.00  0.00     0.000 C 
BRANCH   9  10
ATOM     10  C   UNL     1      62.982  29.691  51.479  1.00  0.00     0.006 C 
BRANCH  10  11
ATOM     11  C   UNL     1      62.334  30.484  50.336  1.00  0.00     0.053 C 
BRANCH  11  12
ATOM     12  C   UNL     1      63.213  31.601  49.865  1.00  0.00     0.041 C 
ATOM     13  O   UNL     1      62.760  32.772  49.780  1.00  0.00    -0.550 OA
ATOM     14  O   UNL     1      64.540  31.351  49.538  1.00  0.00    -0.550 OA
ENDBRANCH  11  12
ENDBRANCH  10  11
ENDBRANCH   9  10
ENDBRANCH   8   9
ENDBRANCH   7   8
ENDBRANCH   6   7
ENDBRANCH   5   6
ENDBRANCH   4   5
ENDBRANCH   3   4
ENDBRANCH   2   3
ENDBRANCH   1   2
BRANCH   1  15
ATOM     15  C   UNL     1      58.180  25.286  51.641  1.00  0.00     0.000 C 
BRANCH  15  16
ATOM     16  C   UNL     1      56.647  25.364  51.551  1.00  0.00     0.000 C 
BRANCH  16  17
ATOM     17  C   UNL     1      56.171  26.193  50.346  1.00  0.00     0.000 C 
BRANCH  17  18
ATOM     18  C   UNL     1      54.647  26.133  50.149  1.00  0.00    -0.000 C 
BRANCH  18  19
ATOM     19  C   UNL     1      53.983  27.514  50.289  1.00  0.00    -0.000 C 
BRANCH  19  20
ATOM     20  C   UNL     1      54.970  28.612  50.726  1.00  0.00    -0.000 C 
BRANCH  20  21
ATOM     21  C   UNL     1      54.393  30.039  50.750  1.00  0.00    -0.000 C 
BRANCH  21  22
ATOM     22  C   UNL     1      55.472  31.122  50.892  1.00  0.00    -0.000 C 
BRANCH  22  23
ATOM     23  C   UNL     1      55.213  32.002  52.125  1.00  0.00    -0.000 C 
BRANCH  23  24
ATOM     24  C   UNL     1      56.268  31.787  53.230  1.00  0.00    -0.000 C 
BRANCH  24  25
ATOM     25  C   UNL     1      55.923  30.645  54.201  1.00  0.00    -0.003 C 
ATOM     26  C   UNL     1      54.425  30.519  54.470  1.00  0.00     0.004 C 
ENDBRANCH  24  25
ENDBRANCH  23  24
ENDBRANCH  22  23
ENDBRANCH  21  22
ENDBRANCH  20  21
ENDBRANCH  19  20
ENDBRANCH  18  19
ENDBRANCH  17  18
ENDBRANCH  16  17
ENDBRANCH  15  16
ENDBRANCH   1  15
TORSDOF 22
ENDMDL
MODEL 4
REMARK VINA RESULT:    -2.812      2.021      5.060
REMARK INTER + INTRA:         -11.210
REMARK INTER:                  -6.469
REMARK INTRA:                  -4.741
REMARK UNBOUND:                -4.781
REMARK SMILES CCCCCCCCCCCCCCCCCCCCCCCC(=O)[O-]
REMARK SMILES IDX 13 1 14 2 15 3 16 4 17 5 18 6 19 7 20 8 21 9 22 10 23 11
REMARK SMILES IDX 24 12 25 13 26 14 12 15 11 16 10 17 9 18 8 19 7 20 6 21 5 22
REMARK SMILES IDX 4 23 3 24 2 25 1 26
REMARK H PARENT
REMARK Flexibility Score: inf
ROOT
ATOM      1  C   UNL     1      56.964  30.110  50.761  1.00  0.00     0.000 C 
ENDROOT
BRANCH   1   2
ATOM      2  C   UNL     1      55.946  30.214  51.908  1.00  0.00     0.000 C 
BRANCH   2   3
ATOM      3  C   UNL     1      56.040  29.030  52.886  1.00  0.00     0.000 C 
BRANCH   3   4
ATOM      4  C   UNL     1      56.478  29.466  54.295  1.00  0.00     0.000 C 
BRANCH   4   5
ATOM      5  C   UNL     1      57.976  29.812  54.364  1.00  0.00     0.000 C 
BRANCH   5   6
ATOM      6  C   UNL     1      58.874  28.565  54.303  1.00  0.00     0.000 C 
BRANCH   6   7
ATOM      7  C   UNL     1      60.127  28.787  53.441  1.00  0.00     0.000 C 
BRANCH   7   8
ATOM      8  C   UNL     1      60.273  30.242  52.963  1.00  0.00     0.000 C 
BRANCH   8   9
ATOM      9  C   UNL     1      61.547  30.495  52.127  1.00  0.00     0.000 C 
BRANCH   9  10
ATOM     10  C   UNL     1      62.211  29.183  51.673  1.00  0.00     0.006 C 
BRANCH  10  11
ATOM     11  C   UNL     1      63.116  29.383  50.450  1.00  0.00     0.053 C 
BRANCH  11  12
ATOM     12  C   UNL     1      63.336  28.102  49.705  1.00  0.00     0.041 C 
ATOM     13  O   UNL     1      63.065  26.999  50.248  1.00  0.00    -0.550 OA
ATOM     14  O   UNL     1      63.824  28.129  48.405  1.00  0.00    -0.550 OA
ENDBRANCH  11  12
ENDBRANCH  10  11
ENDBRANCH   9  10
ENDBRANCH   8   9
ENDBRANCH   7   8
ENDBRANCH   6   7
ENDBRANCH   5   6
ENDBRANCH   4   5
ENDBRANCH   3   4
ENDBRANCH   2   3
ENDBRANCH   1   2
BRANCH   1  15
ATOM     15  C   UNL     1      57.673  28.745  50.716  1.00  0.00     0.000 C 
BRANCH  15  16
ATOM     16  C   UNL     1      58.959  28.781  49.873  1.00  0.00     0.000 C 
BRANCH  16  17
ATOM     17  C   UNL     1      59.614  27.396  49.741  1.00  0.00     0.000 C 
BRANCH  17  18
ATOM     18  C   UNL     1      58.710  26.260  50.246  1.00  0.00    -0.000 C 
BRANCH  18  19
ATOM     19  C   UNL     1      59.470  25.250  51.123  1.00  0.00    -0.000 C 
BRANCH  19  20
ATOM     20  C   UNL     1      58.639  24.751  52.320  1.00  0.00    -0.000 C 
BRANCH  20  21
ATOM     21  C   UNL     1      57.450  25.647  52.710  1.00  0.00    -0.000 C 
BRANCH  21  22
ATOM     22  C   UNL     1      56.162  24.855  52.977  1.00  0.00    -0.000 C 
BRANCH  22  23
ATOM     23  C   UNL     1      54.944  25.553  52.352  1.00  0.00    -0.000 C 
BRANCH  23  24
ATOM     24  C   UNL     1      54.896  25.386  50.818  1.00  0.00    -0.000 C 
BRANCH  24  25
ATOM     25  C   UNL     1      54.875  26.719  50.053  1.00  0.00    -0.003 C 
ATOM     26  C   UNL     1      53.687  27.605  50.423  1.00  0.00     0.004 C 
ENDBRANCH  24  25
ENDBRANCH  23  24
ENDBRANCH  22  23
ENDBRANCH  21  22
ENDBRANCH  20  21
ENDBRANCH  19  20
ENDBRANCH  18  19
ENDBRANCH  17  18
ENDBRANCH  16  17
ENDBRANCH  15  16
ENDBRANCH   1  15
TORSDOF 22
ENDMDL
MODEL 5
REMARK VINA RESULT:    -2.799      3.501      7.088
REMARK INTER + INTRA:         -11.180
REMARK INTER:                  -6.830
REMARK INTRA:                  -4.350
REMARK UNBOUND:                -4.781
REMARK SMILES CCCCCCCCCCCCCCCCCCCCCCCC(=O)[O-]
REMARK SMILES IDX 13 1 14 2 15 3 16 4 17 5 18 6 19 7 20 8 21 9 22 10 23 11
REMARK SMILES IDX 24 12 25 13 26 14 12 15 11 16 10 17 9 18 8 19 7 20 6 21 5 22
REMARK SMILES IDX 4 23 3 24 2 25 1 26
REMARK H PARENT
REMARK Flexibility Score: inf
ROOT
ATOM      1  C   UNL     1      56.746  25.294  51.845  1.00  0.00     0.000 C 
ENDROOT
BRANCH   1   2
ATOM      2  C   UNL     1      56.558  26.009  50.498  1.00  0.00     0.000 C 
BRANCH   2   3
ATOM      3  C   UNL     1      55.103  25.958  50.001  1.00  0.00     0.000 C 
BRANCH   3   4
ATOM      4  C   UNL     1      54.090  25.917  51.157  1.00  0.00     0.000 C 
BRANCH   4   5
ATOM      5  C   UNL     1      53.372  27.264  51.358  1.00  0.00     0.000 C 
BRANCH   5   6
ATOM      6  C   UNL     1      53.657  28.260  50.221  1.00  0.00     0.000 C 
BRANCH   6   7
ATOM      7  C   UNL     1      54.478  29.470  50.694  1.00  0.00     0.000 C 
BRANCH   7   8
ATOM      8  C   UNL     1      53.777  30.270  51.806  1.00  0.00     0.000 C 
BRANCH   8   9
ATOM      9  C   UNL     1      54.517  30.226  53.161  1.00  0.00     0.000 C 
BRANCH   9  10
ATOM     10  C   UNL     1      55.600  31.315  53.265  1.00  0.00     0.006 C 
BRANCH  10  11
ATOM     11  C   UNL     1      55.260  32.554  52.425  1.00  0.00     0.053 C 
BRANCH  11  12
ATOM     12  C   UNL     1      54.990  33.751  53.284  1.00  0.00     0.041 C 
ATOM     13  O   UNL     1      54.535  33.607  54.448  1.00  0.00    -0.550 OA
ATOM     14  O   UNL     1      55.261  35.027  52.804  1.00  0.00    -0.550 OA
ENDBRANCH  11  12
ENDBRANCH  10  11
ENDBRANCH   9  10
ENDBRANCH   8   9
ENDBRANCH   7   8
ENDBRANCH   6   7
ENDBRANCH   5   6
ENDBRANCH   4   5
ENDBRANCH   3   4
ENDBRANCH   2   3
ENDBRANCH   1   2
BRANCH   1  15
ATOM     15  C   UNL     1      57.386  26.197  52.914  1.00  0.00     0.000 C 
BRANCH  15  16
ATOM     16  C   UNL     1      57.084  27.687  52.680  1.00  0.00     0.000 C 
BRANCH  16  17
ATOM     17  C   UNL     1      58.207  28.603  53.195  1.00  0.00     0.000 C 
BRANCH  17  18
ATOM     18  C   UNL     1      58.685  29.610  52.137  1.00  0.00    -0.000 C 
BRANCH  18  19
ATOM     19  C   UNL     1      57.900  29.493  50.819  1.00  0.00    -0.000 C 
BRANCH  19  20
ATOM     20  C   UNL     1      58.785  29.072  49.630  1.00  0.00    -0.000 C 
BRANCH  20  21
ATOM     21  C   UNL     1      60.152  28.476  50.011  1.00  0.00    -0.000 C 
BRANCH  21  22
ATOM     22  C   UNL     1      60.140  26.942  50.085  1.00  0.00    -0.000 C 
BRANCH  22  23
ATOM     23  C   UNL     1      61.301  26.422  50.948  1.00  0.00    -0.000 C 
BRANCH  23  24
ATOM     24  C   UNL     1      60.851  26.064  52.380  1.00  0.00    -0.000 C 
BRANCH  24  25
ATOM     25  C   UNL     1      61.028  24.577  52.730  1.00  0.00    -0.003 C 
ATOM     26  C   UNL     1      60.094  23.660  51.942  1.00  0.00     0.004 C 
ENDBRANCH  24  25
ENDBRANCH  23  24
ENDBRANCH  22  23
ENDBRANCH  21  22
ENDBRANCH  20  21
ENDBRANCH  19  20
ENDBRANCH  18  19
ENDBRANCH  17  18
ENDBRANCH  16  17
ENDBRANCH  15  16
ENDBRANCH   1  15
TORSDOF 22
ENDMDL
MODEL 6
REMARK VINA RESULT:    -2.798      2.414      3.547
REMARK INTER + INTRA:         -11.178
REMARK INTER:                  -7.056
REMARK INTRA:                  -4.122
REMARK UNBOUND:                -4.781
REMARK SMILES CCCCCCCCCCCCCCCCCCCCCCCC(=O)[O-]
REMARK SMILES IDX 13 1 14 2 15 3 16 4 17 5 18 6 19 7 20 8 21 9 22 10 23 11
REMARK SMILES IDX 24 12 25 13 26 14 12 15 11 16 10 17 9 18 8 19 7 20 6 21 5 22
REMARK SMILES IDX 4 23 3 24 2 25 1 26
REMARK H PARENT
REMARK Flexibility Score: inf
ROOT
ATOM      1  C   UNL     1      58.736  24.943  53.527  1.00  0.00     0.000 C 
ENDROOT
BRANCH   1   2
ATOM      2  C   UNL     1      59.617  25.405  52.355  1.00  0.00     0.000 C 
BRANCH   2   3
ATOM      3  C   UNL     1      59.055  24.974  50.990  1.00  0.00     0.000 C 
BRANCH   3   4
ATOM      4  C   UNL     1      58.769  26.171  50.067  1.00  0.00     0.000 C 
BRANCH   4   5
ATOM      5  C   UNL     1      58.553  27.478  50.851  1.00  0.00     0.000 C 
BRANCH   5   6
ATOM      6  C   UNL     1      58.886  28.727  50.019  1.00  0.00     0.000 C 
BRANCH   6   7
ATOM      7  C   UNL     1      60.188  29.405  50.476  1.00  0.00     0.000 C 
BRANCH   7   8
ATOM      8  C   UNL     1      60.766  28.784  51.760  1.00  0.00     0.000 C 
BRANCH   8   9
ATOM      9  C   UNL     1      62.118  28.068  51.548  1.00  0.00     0.000 C 
BRANCH   9  10
ATOM     10  C   UNL     1      62.276  27.542  50.111  1.00  0.00     0.006 C 
BRANCH  10  11
ATOM     11  C   UNL     1      63.697  27.748  49.570  1.00  0.00     0.053 C 
BRANCH  11  12
ATOM     12  C   UNL     1      64.228  29.107  49.907  1.00  0.00     0.041 C 
ATOM     13  O   UNL     1      63.729  30.133  49.375  1.00  0.00    -0.550 OA
ATOM     14  O   UNL     1      65.263  29.241  50.824  1.00  0.00    -0.550 OA
ENDBRANCH  11  12
ENDBRANCH  10  11
ENDBRANCH   9  10
ENDBRANCH   8   9
ENDBRANCH   7   8
ENDBRANCH   6   7
ENDBRANCH   5   6
ENDBRANCH   4   5
ENDBRANCH   3   4
ENDBRANCH   2   3
ENDBRANCH   1   2
BRANCH   1  15
ATOM     15  C   UNL     1      57.390  24.358  53.064  1.00  0.00     0.000 C 
BRANCH  15  16
ATOM     16  C   UNL     1      56.192  25.032  53.754  1.00  0.00     0.000 C 
BRANCH  16  17
ATOM     17  C   UNL     1      55.424  25.975  52.812  1.00  0.00     0.000 C 
BRANCH  17  18
ATOM     18  C   UNL     1      54.704  25.226  51.679  1.00  0.00    -0.000 C 
BRANCH  18  19
ATOM     19  C   UNL     1      54.965  25.856  50.300  1.00  0.00    -0.000 C 
BRANCH  19  20
ATOM     20  C   UNL     1      55.215  27.373  50.372  1.00  0.00    -0.000 C 
BRANCH  20  21
ATOM     21  C   UNL     1      53.949  28.247  50.339  1.00  0.00    -0.000 C 
BRANCH  21  22
ATOM     22  C   UNL     1      54.154  29.629  50.975  1.00  0.00    -0.000 C 
BRANCH  22  23
ATOM     23  C   UNL     1      55.622  30.074  50.869  1.00  0.00    -0.000 C 
BRANCH  23  24
ATOM     24  C   UNL     1      55.977  31.173  51.892  1.00  0.00    -0.000 C 
BRANCH  24  25
ATOM     25  C   UNL     1      57.081  30.763  52.881  1.00  0.00    -0.003 C 
ATOM     26  C   UNL     1      56.880  29.363  53.457  1.00  0.00     0.004 C 
ENDBRANCH  24  25
ENDBRANCH  23  24
ENDBRANCH  22  23
ENDBRANCH  21  22
ENDBRANCH  20  21
ENDBRANCH  19  20
ENDBRANCH  18  19
ENDBRANCH  17  18
ENDBRANCH  16  17
ENDBRANCH  15  16
ENDBRANCH   1  15
TORSDOF 22
ENDMDL
MODEL 7
REMARK VINA RESULT:    -2.758      3.031      5.814
REMARK INTER + INTRA:         -11.086
REMARK INTER:                  -6.781
REMARK INTRA:                  -4.304
REMARK UNBOUND:                -4.781
REMARK SMILES CCCCCCCCCCCCCCCCCCCCCCCC(=O)[O-]
REMARK SMILES IDX 13 1 14 2 15 3 16 4 17 5 18 6 19 7 20 8 21 9 22 10 23 11
REMARK SMILES IDX 24 12 25 13 26 14 12 15 11 16 10 17 9 18 8 19 7 20 6 21 5 22
REMARK SMILES IDX 4 23 3 24 2 25 1 26
REMARK H PARENT
REMARK Flexibility Score: inf
ROOT
ATOM      1  C   UNL     1      54.119  27.455  50.333  1.00  0.00     0.000 C 
ENDROOT
BRANCH   1   2
ATOM      2  C   UNL     1      53.558  28.886  50.336  1.00  0.00     0.000 C 
BRANCH   2   3
ATOM      3  C   UNL     1      54.586  29.921  50.827  1.00  0.00     0.000 C 
BRANCH   3   4
ATOM      4  C   UNL     1      54.008  30.859  51.899  1.00  0.00     0.000 C 
BRANCH   4   5
ATOM      5  C   UNL     1      54.199  30.312  53.325  1.00  0.00     0.000 C 
BRANCH   5   6
ATOM      6  C   UNL     1      52.976  29.527  53.825  1.00  0.00     0.000 C 
BRANCH   6   7
ATOM      7  C   UNL     1      53.311  28.062  54.148  1.00  0.00     0.000 C 
BRANCH   7   8
ATOM      8  C   UNL     1      54.822  27.815  54.301  1.00  0.00     0.000 C 
BRANCH   8   9
ATOM      9  C   UNL     1      55.274  27.628  55.766  1.00  0.00     0.000 C 
BRANCH   9  10
ATOM     10  C   UNL     1      55.606  28.968  56.445  1.00  0.00     0.006 C 
BRANCH  10  11
ATOM     11  C   UNL     1      55.404  28.915  57.965  1.00  0.00     0.053 C 
BRANCH  11  12
ATOM     12  C   UNL     1      56.394  28.006  58.627  1.00  0.00     0.041 C 
ATOM     13  O   UNL     1      57.591  28.369  58.771  1.00  0.00    -0.550 OA
ATOM     14  O   UNL     1      55.989  26.764  59.100  1.00  0.00    -0.550 OA
ENDBRANCH  11  12
ENDBRANCH  10  11
ENDBRANCH   9  10
ENDBRANCH   8   9
ENDBRANCH   7   8
ENDBRANCH   6   7
ENDBRANCH   5   6
ENDBRANCH   4   5
ENDBRANCH   3   4
ENDBRANCH   2   3
ENDBRANCH   1   2
BRANCH   1  15
ATOM     15  C   UNL     1      55.609  27.399  50.717  1.00  0.00     0.000 C 
BRANCH  15  16
ATOM     16  C   UNL     1      56.173  25.970  50.663  1.00  0.00     0.000 C 
BRANCH  16  17
ATOM     17  C   UNL     1      57.109  25.663  51.845  1.00  0.00     0.000 C 
BRANCH  17  18
ATOM     18  C   UNL     1      58.526  25.272  51.395  1.00  0.00    -0.000 C 
BRANCH  18  19
ATOM     19  C   UNL     1      58.915  25.915  50.053  1.00  0.00    -0.000 C 
BRANCH  19  20
ATOM     20  C   UNL     1      59.845  27.132  50.219  1.00  0.00    -0.000 C 
BRANCH  20  21
ATOM     21  C   UNL     1      59.369  28.419  49.522  1.00  0.00    -0.000 C 
BRANCH  21  22
ATOM     22  C   UNL     1      58.445  29.273  50.402  1.00  0.00    -0.000 C 
BRANCH  22  23
ATOM     23  C   UNL     1      59.008  29.410  51.825  1.00  0.00    -0.000 C 
BRANCH  23  24
ATOM     24  C   UNL     1      57.934  29.171  52.907  1.00  0.00    -0.000 C 
BRANCH  24  25
ATOM     25  C   UNL     1      57.766  30.348  53.882  1.00  0.00    -0.003 C 
ATOM     26  C   UNL     1      57.688  31.702  53.180  1.00  0.00     0.004 C 
ENDBRANCH  24  25
ENDBRANCH  23  24
ENDBRANCH  22  23
ENDBRANCH  21  22
ENDBRANCH  20  21
ENDBRANCH  19  20
ENDBRANCH  18  19
ENDBRANCH  17  18
ENDBRANCH  16  17
ENDBRANCH  15  16
ENDBRANCH   1  15
TORSDOF 22
ENDMDL
MODEL 8
REMARK VINA RESULT:    -2.749      3.557      5.629
REMARK INTER + INTRA:         -11.066
REMARK INTER:                  -6.466
REMARK INTRA:                  -4.601
REMARK UNBOUND:                -4.781
REMARK SMILES CCCCCCCCCCCCCCCCCCCCCCCC(=O)[O-]
REMARK SMILES IDX 13 1 14 2 15 3 16 4 17 5 18 6 19 7 20 8 21 9 22 10 23 11
REMARK SMILES IDX 24 12 25 13 26 14 12 15 11 16 10 17 9 18 8 19 7 20 6 21 5 22
REMARK SMILES IDX 4 23 3 24 2 25 1 26
REMARK H PARENT
REMARK Flexibility Score: inf
ROOT
ATOM      1  C   UNL     1      56.643  25.603  51.545  1.00  0.00     0.000 C 
ENDROOT
BRANCH   1   2
ATOM      2  C   UNL     1      58.147  25.918  51.581  1.00  0.00     0.000 C 
BRANCH   2   3
ATOM      3  C   UNL     1      58.788  25.888  50.183  1.00  0.00     0.000 C 
BRANCH   3   4
ATOM      4  C   UNL     1      59.795  27.031  49.974  1.00  0.00     0.000 C 
BRANCH   4   5
ATOM      5  C   UNL     1      59.113  28.411  49.915  1.00  0.00     0.000 C 
BRANCH   5   6
ATOM      6  C   UNL     1      59.585  29.350  51.037  1.00  0.00     0.000 C 
BRANCH   6   7
ATOM      7  C   UNL     1      58.498  29.590  52.097  1.00  0.00     0.000 C 
BRANCH   7   8
ATOM      8  C   UNL     1      58.707  30.897  52.881  1.00  0.00     0.000 C 
BRANCH   8   9
ATOM      9  C   UNL     1      58.517  30.742  54.406  1.00  0.00     0.000 C 
BRANCH   9  10
ATOM     10  C   UNL     1      57.982  32.030  55.057  1.00  0.00     0.006 C 
BRANCH  10  11
ATOM     11  C   UNL     1      57.603  33.093  54.017  1.00  0.00     0.053 C 
BRANCH  11  12
ATOM     12  C   UNL     1      56.725  34.155  54.603  1.00  0.00     0.041 C 
ATOM     13  O   UNL     1      55.545  33.885  54.947  1.00  0.00    -0.550 OA
ATOM     14  O   UNL     1      57.218  35.441  54.785  1.00  0.00    -0.550 OA
ENDBRANCH  11  12
ENDBRANCH  10  11
ENDBRANCH   9  10
ENDBRANCH   8   9
ENDBRANCH   7   8
ENDBRANCH   6   7
ENDBRANCH   5   6
ENDBRANCH   4   5
ENDBRANCH   3   4
ENDBRANCH   2   3
ENDBRANCH   1   2
BRANCH   1  15
ATOM     15  C   UNL     1      55.910  26.327  50.401  1.00  0.00     0.000 C 
BRANCH  15  16
ATOM     16  C   UNL     1      55.606  27.796  50.738  1.00  0.00     0.000 C 
BRANCH  16  17
ATOM     17  C   UNL     1      54.134  28.164  50.485  1.00  0.00     0.000 C 
BRANCH  17  18
ATOM     18  C   UNL     1      53.869  29.674  50.605  1.00  0.00    -0.000 C 
BRANCH  18  19
ATOM     19  C   UNL     1      55.165  30.485  50.777  1.00  0.00    -0.000 C 
BRANCH  19  20
ATOM     20  C   UNL     1      55.068  31.536  51.898  1.00  0.00    -0.000 C 
BRANCH  20  21
ATOM     21  C   UNL     1      54.095  31.189  53.039  1.00  0.00    -0.000 C 
BRANCH  21  22
ATOM     22  C   UNL     1      54.782  30.502  54.228  1.00  0.00    -0.000 C 
BRANCH  22  23
ATOM     23  C   UNL     1      54.559  28.981  54.191  1.00  0.00    -0.000 C 
BRANCH  23  24
ATOM     24  C   UNL     1      55.878  28.192  54.320  1.00  0.00    -0.000 C 
BRANCH  24  25
ATOM     25  C   UNL     1      55.702  26.786  54.918  1.00  0.00    -0.003 C 
ATOM     26  C   UNL     1      57.025  26.127  55.301  1.00  0.00     0.004 C 
ENDBRANCH  24  25
ENDBRANCH  23  24
ENDBRANCH  22  23
ENDBRANCH  21  22
ENDBRANCH  20  21
ENDBRANCH  19  20
ENDBRANCH  18  19
ENDBRANCH  17  18
ENDBRANCH  16  17
ENDBRANCH  15  16
ENDBRANCH   1  15
TORSDOF 22
ENDMDL
MODEL 9
REMARK VINA RESULT:    -2.735      3.350      6.630
REMARK INTER + INTRA:         -11.034
REMARK INTER:                  -6.243
REMARK INTRA:                  -4.791
REMARK UNBOUND:                -4.781
REMARK SMILES CCCCCCCCCCCCCCCCCCCCCCCC(=O)[O-]
REMARK SMILES IDX 13 1 14 2 15 3 16 4 17 5 18 6 19 7 20 8 21 9 22 10 23 11
REMARK SMILES IDX 24 12 25 13 26 14 12 15 11 16 10 17 9 18 8 19 7 20 6 21 5 22
REMARK SMILES IDX 4 23 3 24 2 25 1 26
REMARK H PARENT
REMARK Flexibility Score: inf
ROOT
ATOM      1  C   UNL     1      56.792  27.777  51.680  1.00  0.00     0.000 C 
ENDROOT
BRANCH   1   2
ATOM      2  C   UNL     1      56.912  26.478  50.867  1.00  0.00     0.000 C 
BRANCH   2   3
ATOM      3  C   UNL     1      55.581  26.065  50.217  1.00  0.00     0.000 C 
BRANCH   3   4
ATOM      4  C   UNL     1      54.365  26.692  50.920  1.00  0.00     0.000 C 
BRANCH   4   5
ATOM      5  C   UNL     1      53.572  27.632  49.995  1.00  0.00     0.000 C 
BRANCH   5   6
ATOM      6  C   UNL     1      53.379  29.032  50.601  1.00  0.00     0.000 C 
BRANCH   6   7
ATOM      7  C   UNL     1      53.229  28.993  52.130  1.00  0.00     0.000 C 
BRANCH   7   8
ATOM      8  C   UNL     1      54.085  30.055  52.842  1.00  0.00     0.000 C 
BRANCH   8   9
ATOM      9  C   UNL     1      54.461  31.252  51.942  1.00  0.00     0.000 C 
BRANCH   9  10
ATOM     10  C   UNL     1      55.772  31.924  52.389  1.00  0.00     0.006 C 
BRANCH  10  11
ATOM     11  C   UNL     1      55.523  33.235  53.147  1.00  0.00     0.053 C 
BRANCH  11  12
ATOM     12  C   UNL     1      55.795  33.090  54.613  1.00  0.00     0.041 C 
ATOM     13  O   UNL     1      55.016  32.418  55.339  1.00  0.00    -0.550 OA
ATOM     14  O   UNL     1      56.919  33.684  55.173  1.00  0.00    -0.550 OA
ENDBRANCH  11  12
ENDBRANCH  10  11
ENDBRANCH   9  10
ENDBRANCH   8   9
ENDBRANCH   7   8
ENDBRANCH   6   7
ENDBRANCH   5   6
ENDBRANCH   4   5
ENDBRANCH   3   4
ENDBRANCH   2   3
ENDBRANCH   1   2
BRANCH   1  15
ATOM     15  C   UNL     1      57.333  29.004  50.924  1.00  0.00     0.000 C 
BRANCH  15  16
ATOM     16  C   UNL     1      58.514  28.652  50.005  1.00  0.00     0.000 C 
BRANCH  16  17
ATOM     17  C   UNL     1      59.812  29.369  50.415  1.00  0.00     0.000 C 
BRANCH  17  18
ATOM     18  C   UNL     1      60.966  28.394  50.699  1.00  0.00    -0.000 C 
BRANCH  18  19
ATOM     19  C   UNL     1      60.580  26.931  50.422  1.00  0.00    -0.000 C 
BRANCH  19  20
ATOM     20  C   UNL     1      60.524  26.074  51.700  1.00  0.00    -0.000 C 
BRANCH  20  21
ATOM     21  C   UNL     1      60.624  26.860  53.019  1.00  0.00    -0.000 C 
BRANCH  21  22
ATOM     22  C   UNL     1      59.491  26.531  54.003  1.00  0.00    -0.000 C 
BRANCH  22  23
ATOM     23  C   UNL     1      58.895  27.812  54.607  1.00  0.00    -0.000 C 
BRANCH  23  24
ATOM     24  C   UNL     1      59.563  29.088  54.053  1.00  0.00    -0.000 C 
BRANCH  24  25
ATOM     25  C   UNL     1      58.662  30.332  54.111  1.00  0.00    -0.003 C 
ATOM     26  C   UNL     1      59.332  31.585  53.552  1.00  0.00     0.004 C 
ENDBRANCH  24  25
ENDBRANCH  23  24
ENDBRANCH  22  23
ENDBRANCH  21  22
ENDBRANCH  20  21
ENDBRANCH  19  20
ENDBRANCH  18  19
ENDBRANCH  17  18
ENDBRANCH  16  17
ENDBRANCH  15  16
ENDBRANCH   1  15
TORSDOF 22
ENDMDL
