MODEL 1
REMARK VINA RESULT:    -5.927      0.000      0.000
REMARK INTER + INTRA:         -10.501
REMARK INTER:                  -8.699
REMARK INTRA:                  -1.802
REMARK UNBOUND:                -1.802
REMARK SMILES O=c1c(O[C@@H]2O[C@H](CO)[C@@H](O)[C@@H](O)[C@H]2O)c(-c2ccc(O)c(O)c2)oc2cc(O)cc(O)c12
REMARK SMILES IDX 4 1 3 2 16 3 25 4 2 5 26 6 1 7 33 8 27 9 31 10 28 11 30 12
REMARK SMILES IDX 17 13 18 14 19 15 20 16 24 17 22 18 21 19 23 21 32 23 29 25
REMARK SMILES IDX 5 27 14 28 6 29 12 30 7 31 10 32 15 33 13 35 8 37 9 38 11 40
REMARK H PARENT 21 20 23 22 32 24 29 26 15 34 13 36 9 39 11 41
REMARK Flexibility Score: inf
ROOT
ATOM      1  O   UNL     1     -13.586  38.812  -1.403  1.00  0.00    -0.454 OA
ENDROOT
BRANCH   1   2
ATOM      2  C   UNL     1     -13.833  37.542  -0.847  1.00  0.00     0.214 A 
ATOM      3  C   UNL     1     -15.167  37.150  -0.631  1.00  0.00     0.180 A 
ATOM      4  O   UNL     1     -15.435  35.950  -0.133  1.00  0.00    -0.452 OA
ATOM      5  C   UNL     1     -12.804  36.639  -0.506  1.00  0.00     0.239 A 
ATOM      6  C   UNL     1     -14.502  35.063   0.183  1.00  0.00     0.146 A 
ATOM      7  O   UNL     1     -11.605  37.011  -0.585  1.00  0.00    -0.285 OA
ATOM      8  C   UNL     1     -13.129  35.348  -0.024  1.00  0.00     0.111 A 
ATOM      9  C   UNL     1     -14.900  33.842   0.734  1.00  0.00     0.094 A 
ATOM     10  C   UNL     1     -12.170  34.339   0.294  1.00  0.00     0.134 A 
ATOM     11  C   UNL     1     -13.950  32.889   1.100  1.00  0.00     0.123 A 
ATOM     12  C   UNL     1     -12.597  33.142   0.884  1.00  0.00     0.093 A 
BRANCH   3  13
ATOM     13  C   UNL     1     -16.307  38.026  -0.982  1.00  0.00     0.025 A 
ATOM     14  C   UNL     1     -16.861  37.955  -2.268  1.00  0.00     0.016 A 
ATOM     15  C   UNL     1     -17.936  38.775  -2.622  1.00  0.00     0.051 A 
ATOM     16  C   UNL     1     -18.481  39.667  -1.691  1.00  0.00     0.157 A 
ATOM     17  C   UNL     1     -16.873  38.902  -0.041  1.00  0.00     0.062 A 
ATOM     18  C   UNL     1     -17.949  39.729  -0.393  1.00  0.00     0.158 A 
BRANCH  16  19
ATOM     19  O   UNL     1     -19.549  40.478  -2.074  1.00  0.00    -0.504 OA
ATOM     20  H   UNL     1     -20.193  40.210  -2.807  1.00  0.00     0.293 HD
ENDBRANCH  16  19
BRANCH  18  21
ATOM     21  O   UNL     1     -18.492  40.608   0.544  1.00  0.00    -0.504 OA
ATOM     22  H   UNL     1     -19.273  41.210   0.315  1.00  0.00     0.293 HD
ENDBRANCH  18  21
ENDBRANCH   3  13
BRANCH  10  23
ATOM     23  O   UNL     1     -10.803  34.449   0.025  1.00  0.00    -0.507 OA
ATOM     24  H   UNL     1     -10.303  33.881  -0.641  1.00  0.00     0.293 HD
ENDBRANCH  10  23
BRANCH  11  25
ATOM     25  O   UNL     1     -14.340  31.680   1.671  1.00  0.00    -0.508 OA
ATOM     26  H   UNL     1     -13.674  31.073   2.135  1.00  0.00     0.293 HD
ENDBRANCH  11  25
ENDBRANCH   1   2
BRANCH   1  27
ATOM     27  C   UNL     1     -13.102  39.073  -2.723  1.00  0.00     0.339 C 
ATOM     28  C   UNL     1     -14.032  40.078  -3.433  1.00  0.00     0.214 C 
ATOM     29  O   UNL     1     -11.741  39.489  -2.721  1.00  0.00    -0.332 OA
ATOM     30  C   UNL     1     -13.854  41.488  -2.842  1.00  0.00     0.180 C 
ATOM     31  C   UNL     1     -11.509  40.780  -2.160  1.00  0.00     0.179 C 
ATOM     32  C   UNL     1     -12.370  41.898  -2.795  1.00  0.00     0.177 C 
BRANCH  28  33
ATOM     33  O   UNL     1     -13.841  40.063  -4.829  1.00  0.00    -0.384 OA
ATOM     34  H   UNL     1     -12.888  40.257  -5.019  1.00  0.00     0.211 HD
ENDBRANCH  28  33
BRANCH  30  35
ATOM     35  O   UNL     1     -14.641  42.443  -3.512  1.00  0.00    -0.387 OA
ATOM     36  H   UNL     1     -15.386  42.711  -2.914  1.00  0.00     0.211 HD
ENDBRANCH  30  35
BRANCH  31  37
ATOM     37  C   UNL     1     -11.553  40.783  -0.620  1.00  0.00     0.191 C 
BRANCH  37  38
ATOM     38  O   UNL     1     -10.860  39.675  -0.118  1.00  0.00    -0.394 OA
ATOM     39  H   UNL     1     -10.208  40.032   0.540  1.00  0.00     0.210 HD
ENDBRANCH  37  38
ENDBRANCH  31  37
BRANCH  32  40
ATOM     40  O   UNL     1     -11.884  42.169  -4.087  1.00  0.00    -0.387 OA
ATOM     41  H   UNL     1     -12.541  41.799  -4.733  1.00  0.00     0.211 HD
ENDBRANCH  32  40
ENDBRANCH   1  27
TORSDOF 12
ENDMDL
MODEL 2
REMARK VINA RESULT:    -5.798      2.482      6.361
REMARK INTER + INTRA:         -10.312
REMARK INTER:                  -8.581
REMARK INTRA:                  -1.731
REMARK UNBOUND:                -1.802
REMARK SMILES O=c1c(O[C@@H]2O[C@H](CO)[C@@H](O)[C@@H](O)[C@H]2O)c(-c2ccc(O)c(O)c2)oc2cc(O)cc(O)c12
REMARK SMILES IDX 4 1 3 2 16 3 25 4 2 5 26 6 1 7 33 8 27 9 31 10 28 11 30 12
REMARK SMILES IDX 17 13 18 14 19 15 20 16 24 17 22 18 21 19 23 21 32 23 29 25
REMARK SMILES IDX 5 27 14 28 6 29 12 30 7 31 10 32 15 33 13 35 8 37 9 38 11 40
REMARK H PARENT 21 20 23 22 32 24 29 26 15 34 13 36 9 39 11 41
REMARK Flexibility Score: inf
ROOT
ATOM      1  O   UNL     1     -13.757  36.208  -1.767  1.00  0.00    -0.454 OA
ENDROOT
BRANCH   1   2
ATOM      2  C   UNL     1     -13.126  37.017  -2.731  1.00  0.00     0.214 A 
ATOM      3  C   UNL     1     -13.821  38.133  -3.233  1.00  0.00     0.180 A 
ATOM      4  O   UNL     1     -13.245  38.930  -4.123  1.00  0.00    -0.452 OA
ATOM      5  C   UNL     1     -11.822  36.767  -3.209  1.00  0.00     0.239 A 
ATOM      6  C   UNL     1     -12.017  38.746  -4.585  1.00  0.00     0.146 A 
ATOM      7  O   UNL     1     -11.227  35.717  -2.858  1.00  0.00    -0.285 OA
ATOM      8  C   UNL     1     -11.220  37.669  -4.121  1.00  0.00     0.111 A 
ATOM      9  C   UNL     1     -11.525  39.630  -5.549  1.00  0.00     0.094 A 
ATOM     10  C   UNL     1      -9.888  37.543  -4.621  1.00  0.00     0.134 A 
ATOM     11  C   UNL     1     -10.245  39.460  -6.076  1.00  0.00     0.123 A 
ATOM     12  C   UNL     1      -9.439  38.421  -5.616  1.00  0.00     0.093 A 
BRANCH   3  13
ATOM     13  C   UNL     1     -15.182  38.480  -2.769  1.00  0.00     0.025 A 
ATOM     14  C   UNL     1     -15.342  39.199  -1.575  1.00  0.00     0.016 A 
ATOM     15  C   UNL     1     -16.619  39.535  -1.117  1.00  0.00     0.051 A 
ATOM     16  C   UNL     1     -17.752  39.170  -1.851  1.00  0.00     0.157 A 
ATOM     17  C   UNL     1     -16.321  38.139  -3.518  1.00  0.00     0.062 A 
ATOM     18  C   UNL     1     -17.603  38.471  -3.060  1.00  0.00     0.158 A 
BRANCH  16  19
ATOM     19  O   UNL     1     -19.014  39.513  -1.367  1.00  0.00    -0.504 OA
ATOM     20  H   UNL     1     -19.361  39.170  -0.479  1.00  0.00     0.293 HD
ENDBRANCH  16  19
BRANCH  18  21
ATOM     21  O   UNL     1     -18.727  38.112  -3.804  1.00  0.00    -0.504 OA
ATOM     22  H   UNL     1     -19.664  38.325  -3.484  1.00  0.00     0.293 HD
ENDBRANCH  18  21
ENDBRANCH   3  13
BRANCH  10  23
ATOM     23  O   UNL     1      -8.966  36.603  -4.155  1.00  0.00    -0.507 OA
ATOM     24  H   UNL     1      -8.222  36.803  -3.504  1.00  0.00     0.293 HD
ENDBRANCH  10  23
BRANCH  11  25
ATOM     25  O   UNL     1      -9.759  40.325  -7.054  1.00  0.00    -0.508 OA
ATOM     26  H   UNL     1     -10.032  40.234  -8.026  1.00  0.00     0.293 HD
ENDBRANCH  11  25
ENDBRANCH   1   2
BRANCH   1  27
ATOM     27  C   UNL     1     -13.437  36.154  -0.374  1.00  0.00     0.339 C 
ATOM     28  C   UNL     1     -14.719  36.323   0.466  1.00  0.00     0.214 C 
ATOM     29  O   UNL     1     -12.710  34.976  -0.039  1.00  0.00    -0.332 OA
ATOM     30  C   UNL     1     -15.590  35.056   0.382  1.00  0.00     0.180 C 
ATOM     31  C   UNL     1     -13.458  33.765  -0.124  1.00  0.00     0.179 C 
ATOM     32  C   UNL     1     -14.772  33.787   0.692  1.00  0.00     0.177 C 
BRANCH  28  33
ATOM     33  O   UNL     1     -14.423  36.672   1.799  1.00  0.00    -0.384 OA
ATOM     34  H   UNL     1     -14.137  35.856   2.283  1.00  0.00     0.211 HD
ENDBRANCH  28  33
BRANCH  30  35
ATOM     35  O   UNL     1     -16.738  35.151   1.190  1.00  0.00    -0.387 OA
ATOM     36  H   UNL     1     -17.532  34.949   0.631  1.00  0.00     0.211 HD
ENDBRANCH  30  35
BRANCH  31  37
ATOM     37  C   UNL     1     -13.653  33.279  -1.572  1.00  0.00     0.191 C 
BRANCH  37  38
ATOM     38  O   UNL     1     -12.440  33.352  -2.270  1.00  0.00    -0.394 OA
ATOM     39  H   UNL     1     -12.531  32.739  -3.045  1.00  0.00     0.210 HD
ENDBRANCH  37  38
ENDBRANCH  31  37
BRANCH  32  40
ATOM     40  O   UNL     1     -14.460  33.715   2.062  1.00  0.00    -0.387 OA
ATOM     41  H   UNL     1     -14.043  34.579   2.315  1.00  0.00     0.211 HD
ENDBRANCH  32  40
ENDBRANCH   1  27
TORSDOF 12
ENDMDL
MODEL 3
REMARK VINA RESULT:    -5.751      2.242      5.555
REMARK INTER + INTRA:         -10.244
REMARK INTER:                  -8.451
REMARK INTRA:                  -1.793
REMARK UNBOUND:                -1.802
REMARK SMILES O=c1c(O[C@@H]2O[C@H](CO)[C@@H](O)[C@@H](O)[C@H]2O)c(-c2ccc(O)c(O)c2)oc2cc(O)cc(O)c12
REMARK SMILES IDX 4 1 3 2 16 3 25 4 2 5 26 6 1 7 33 8 27 9 31 10 28 11 30 12
REMARK SMILES IDX 17 13 18 14 19 15 20 16 24 17 22 18 21 19 23 21 32 23 29 25
REMARK SMILES IDX 5 27 14 28 6 29 12 30 7 31 10 32 15 33 13 35 8 37 9 38 11 40
REMARK H PARENT 21 20 23 22 32 24 29 26 15 34 13 36 9 39 11 41
REMARK Flexibility Score: inf
ROOT
ATOM      1  O   UNL     1     -14.206  37.987  -1.716  1.00  0.00    -0.454 OA
ENDROOT
BRANCH   1   2
ATOM      2  C   UNL     1     -15.145  37.385  -0.856  1.00  0.00     0.214 A 
ATOM      3  C   UNL     1     -15.008  36.016  -0.563  1.00  0.00     0.180 A 
ATOM      4  O   UNL     1     -15.861  35.424   0.264  1.00  0.00    -0.452 OA
ATOM      5  C   UNL     1     -16.212  38.096  -0.266  1.00  0.00     0.239 A 
ATOM      6  C   UNL     1     -16.865  36.056   0.856  1.00  0.00     0.146 A 
ATOM      7  O   UNL     1     -16.419  39.290  -0.601  1.00  0.00    -0.285 OA
ATOM      8  C   UNL     1     -17.072  37.444   0.651  1.00  0.00     0.111 A 
ATOM      9  C   UNL     1     -17.722  35.323   1.680  1.00  0.00     0.094 A 
ATOM     10  C   UNL     1     -18.143  38.081   1.348  1.00  0.00     0.134 A 
ATOM     11  C   UNL     1     -18.803  35.944   2.307  1.00  0.00     0.123 A 
ATOM     12  C   UNL     1     -19.010  37.311   2.135  1.00  0.00     0.093 A 
BRANCH   3  13
ATOM     13  C   UNL     1     -13.906  35.202  -1.120  1.00  0.00     0.025 A 
ATOM     14  C   UNL     1     -14.006  34.710  -2.430  1.00  0.00     0.016 A 
ATOM     15  C   UNL     1     -12.977  33.937  -2.976  1.00  0.00     0.051 A 
ATOM     16  C   UNL     1     -11.830  33.657  -2.227  1.00  0.00     0.157 A 
ATOM     17  C   UNL     1     -12.740  34.942  -0.380  1.00  0.00     0.062 A 
ATOM     18  C   UNL     1     -11.708  34.164  -0.923  1.00  0.00     0.158 A 
BRANCH  16  19
ATOM     19  O   UNL     1     -10.822  32.877  -2.794  1.00  0.00    -0.504 OA
ATOM     20  H   UNL     1     -10.008  32.585  -2.269  1.00  0.00     0.293 HD
ENDBRANCH  16  19
BRANCH  18  21
ATOM     21  O   UNL     1     -10.563  33.898  -0.172  1.00  0.00    -0.504 OA
ATOM     22  H   UNL     1      -9.905  33.179  -0.446  1.00  0.00     0.293 HD
ENDBRANCH  18  21
ENDBRANCH   3  13
BRANCH  10  23
ATOM     23  O   UNL     1     -18.377  39.459   1.327  1.00  0.00    -0.507 OA
ATOM     24  H   UNL     1     -17.718  40.157   1.635  1.00  0.00     0.293 HD
ENDBRANCH  10  23
BRANCH  11  25
ATOM     25  O   UNL     1     -19.674  35.213   3.111  1.00  0.00    -0.508 OA
ATOM     26  H   UNL     1     -20.536  34.826   2.743  1.00  0.00     0.293 HD
ENDBRANCH  11  25
ENDBRANCH   1   2
BRANCH   1  27
ATOM     27  C   UNL     1     -13.037  38.706  -1.314  1.00  0.00     0.339 C 
ATOM     28  C   UNL     1     -11.790  38.098  -1.988  1.00  0.00     0.214 C 
ATOM     29  O   UNL     1     -13.163  40.104  -1.549  1.00  0.00    -0.332 OA
ATOM     30  C   UNL     1     -11.765  38.443  -3.488  1.00  0.00     0.180 C 
ATOM     31  C   UNL     1     -13.174  40.484  -2.924  1.00  0.00     0.179 C 
ATOM     32  C   UNL     1     -11.961  39.952  -3.724  1.00  0.00     0.177 C 
BRANCH  28  33
ATOM     33  O   UNL     1     -10.605  38.494  -1.336  1.00  0.00    -0.384 OA
ATOM     34  H   UNL     1     -10.190  39.230  -1.855  1.00  0.00     0.211 HD
ENDBRANCH  28  33
BRANCH  30  35
ATOM     35  O   UNL     1     -10.606  37.958  -4.121  1.00  0.00    -0.387 OA
ATOM     36  H   UNL     1     -10.717  38.063  -5.101  1.00  0.00     0.211 HD
ENDBRANCH  30  35
BRANCH  31  37
ATOM     37  C   UNL     1     -14.522  40.207  -3.614  1.00  0.00     0.191 C 
BRANCH  37  38
ATOM     38  O   UNL     1     -15.577  40.627  -2.793  1.00  0.00    -0.394 OA
ATOM     39  H   UNL     1     -15.314  41.518  -2.442  1.00  0.00     0.210 HD
ENDBRANCH  37  38
ENDBRANCH  31  37
BRANCH  32  40
ATOM     40  O   UNL     1     -10.813  40.672  -3.343  1.00  0.00    -0.387 OA
ATOM     41  H   UNL     1     -10.153  40.585  -4.079  1.00  0.00     0.211 HD
ENDBRANCH  32  40
ENDBRANCH   1  27
TORSDOF 12
ENDMDL
MODEL 4
REMARK VINA RESULT:    -5.709      2.172      6.758
REMARK INTER + INTRA:         -10.181
REMARK INTER:                  -9.211
REMARK INTRA:                  -0.970
REMARK UNBOUND:                -1.802
REMARK SMILES O=c1c(O[C@@H]2O[C@H](CO)[C@@H](O)[C@@H](O)[C@H]2O)c(-c2ccc(O)c(O)c2)oc2cc(O)cc(O)c12
REMARK SMILES IDX 4 1 3 2 16 3 25 4 2 5 26 6 1 7 33 8 27 9 31 10 28 11 30 12
REMARK SMILES IDX 17 13 18 14 19 15 20 16 24 17 22 18 21 19 23 21 32 23 29 25
REMARK SMILES IDX 5 27 14 28 6 29 12 30 7 31 10 32 15 33 13 35 8 37 9 38 11 40
REMARK H PARENT 21 20 23 22 32 24 29 26 15 34 13 36 9 39 11 41
REMARK Flexibility Score: inf
ROOT
ATOM      1  O   UNL     1     -14.632  37.289  -3.445  1.00  0.00    -0.454 OA
ENDROOT
BRANCH   1   2
ATOM      2  C   UNL     1     -14.234  38.589  -3.810  1.00  0.00     0.214 A 
ATOM      3  C   UNL     1     -14.877  39.685  -3.205  1.00  0.00     0.180 A 
ATOM      4  O   UNL     1     -14.508  40.923  -3.508  1.00  0.00    -0.452 OA
ATOM      5  C   UNL     1     -13.210  38.844  -4.748  1.00  0.00     0.239 A 
ATOM      6  C   UNL     1     -13.539  41.209  -4.367  1.00  0.00     0.146 A 
ATOM      7  O   UNL     1     -12.701  37.885  -5.381  1.00  0.00    -0.285 OA
ATOM      8  C   UNL     1     -12.808  40.177  -5.008  1.00  0.00     0.111 A 
ATOM      9  C   UNL     1     -13.260  42.551  -4.635  1.00  0.00     0.094 A 
ATOM     10  C   UNL     1     -11.748  40.543  -5.891  1.00  0.00     0.134 A 
ATOM     11  C   UNL     1     -12.263  42.896  -5.548  1.00  0.00     0.123 A 
ATOM     12  C   UNL     1     -11.519  41.896  -6.171  1.00  0.00     0.093 A 
BRANCH   3  13
ATOM     13  C   UNL     1     -15.943  39.506  -2.196  1.00  0.00     0.025 A 
ATOM     14  C   UNL     1     -15.603  39.102  -0.896  1.00  0.00     0.016 A 
ATOM     15  C   UNL     1     -16.594  38.925   0.073  1.00  0.00     0.051 A 
ATOM     16  C   UNL     1     -17.937  39.162  -0.239  1.00  0.00     0.157 A 
ATOM     17  C   UNL     1     -17.289  39.770  -2.498  1.00  0.00     0.062 A 
ATOM     18  C   UNL     1     -18.287  39.590  -1.530  1.00  0.00     0.158 A 
BRANCH  16  19
ATOM     19  O   UNL     1     -18.906  38.970   0.745  1.00  0.00    -0.504 OA
ATOM     20  H   UNL     1     -19.765  39.506   0.766  1.00  0.00     0.293 HD
ENDBRANCH  16  19
BRANCH  18  21
ATOM     21  O   UNL     1     -19.622  39.839  -1.847  1.00  0.00    -0.504 OA
ATOM     22  H   UNL     1     -20.377  39.502  -1.262  1.00  0.00     0.293 HD
ENDBRANCH  18  21
ENDBRANCH   3  13
BRANCH  10  23
ATOM     23  O   UNL     1     -10.878  39.626  -6.487  1.00  0.00    -0.507 OA
ATOM     24  H   UNL     1     -10.575  38.763  -6.063  1.00  0.00     0.293 HD
ENDBRANCH  10  23
BRANCH  11  25
ATOM     25  O   UNL     1     -11.996  44.233  -5.837  1.00  0.00    -0.508 OA
ATOM     26  H   UNL     1     -12.273  44.650  -6.718  1.00  0.00     0.293 HD
ENDBRANCH  11  25
ENDBRANCH   1   2
BRANCH   1  27
ATOM     27  C   UNL     1     -13.764  36.175  -3.218  1.00  0.00     0.339 C 
ATOM     28  C   UNL     1     -12.871  36.446  -1.991  1.00  0.00     0.214 C 
ATOM     29  O   UNL     1     -14.482  34.950  -3.117  1.00  0.00    -0.332 OA
ATOM     30  C   UNL     1     -13.696  36.360  -0.694  1.00  0.00     0.180 C 
ATOM     31  C   UNL     1     -15.288  34.822  -1.947  1.00  0.00     0.179 C 
ATOM     32  C   UNL     1     -14.511  35.054  -0.629  1.00  0.00     0.177 C 
BRANCH  28  33
ATOM     33  O   UNL     1     -11.754  35.588  -1.963  1.00  0.00    -0.384 OA
ATOM     34  H   UNL     1     -11.693  35.177  -1.063  1.00  0.00     0.211 HD
ENDBRANCH  28  33
BRANCH  30  35
ATOM     35  O   UNL     1     -12.898  36.538   0.451  1.00  0.00    -0.387 OA
ATOM     36  H   UNL     1     -12.489  37.440   0.411  1.00  0.00     0.211 HD
ENDBRANCH  30  35
BRANCH  31  37
ATOM     37  C   UNL     1     -16.598  35.629  -2.027  1.00  0.00     0.191 C 
BRANCH  37  38
ATOM     38  O   UNL     1     -17.505  34.987  -2.880  1.00  0.00    -0.394 OA
ATOM     39  H   UNL     1     -17.104  35.023  -3.787  1.00  0.00     0.210 HD
ENDBRANCH  37  38
ENDBRANCH  31  37
BRANCH  32  40
ATOM     40  O   UNL     1     -13.671  33.950  -0.396  1.00  0.00    -0.387 OA
ATOM     41  H   UNL     1     -12.905  34.272   0.147  1.00  0.00     0.211 HD
ENDBRANCH  32  40
ENDBRANCH   1  27
TORSDOF 12
ENDMDL
MODEL 5
REMARK VINA RESULT:    -5.690      2.648      6.790
REMARK INTER + INTRA:         -10.154
REMARK INTER:                  -9.149
REMARK INTRA:                  -1.004
REMARK UNBOUND:                -1.802
REMARK SMILES O=c1c(O[C@@H]2O[C@H](CO)[C@@H](O)[C@@H](O)[C@H]2O)c(-c2ccc(O)c(O)c2)oc2cc(O)cc(O)c12
REMARK SMILES IDX 4 1 3 2 16 3 25 4 2 5 26 6 1 7 33 8 27 9 31 10 28 11 30 12
REMARK SMILES IDX 17 13 18 14 19 15 20 16 24 17 22 18 21 19 23 21 32 23 29 25
REMARK SMILES IDX 5 27 14 28 6 29 12 30 7 31 10 32 15 33 13 35 8 37 9 38 11 40
REMARK H PARENT 21 20 23 22 32 24 29 26 15 34 13 36 9 39 11 41
REMARK Flexibility Score: inf
ROOT
ATOM      1  O   UNL     1     -13.487  35.771  -1.497  1.00  0.00    -0.454 OA
ENDROOT
BRANCH   1   2
ATOM      2  C   UNL     1     -14.484  36.413  -0.738  1.00  0.00     0.214 A 
ATOM      3  C   UNL     1     -14.700  35.989   0.586  1.00  0.00     0.180 A 
ATOM      4  O   UNL     1     -15.615  36.590   1.337  1.00  0.00    -0.452 OA
ATOM      5  C   UNL     1     -15.270  37.472  -1.241  1.00  0.00     0.239 A 
ATOM      6  C   UNL     1     -16.361  37.600   0.913  1.00  0.00     0.146 A 
ATOM      7  O   UNL     1     -15.171  37.792  -2.453  1.00  0.00    -0.285 OA
ATOM      8  C   UNL     1     -16.201  38.123  -0.395  1.00  0.00     0.111 A 
ATOM      9  C   UNL     1     -17.318  38.133   1.780  1.00  0.00     0.094 A 
ATOM     10  C   UNL     1     -17.002  39.239  -0.783  1.00  0.00     0.134 A 
ATOM     11  C   UNL     1     -18.138  39.183   1.367  1.00  0.00     0.123 A 
ATOM     12  C   UNL     1     -17.981  39.725   0.093  1.00  0.00     0.093 A 
BRANCH   3  13
ATOM     13  C   UNL     1     -13.905  34.902   1.199  1.00  0.00     0.025 A 
ATOM     14  C   UNL     1     -12.629  35.183   1.708  1.00  0.00     0.016 A 
ATOM     15  C   UNL     1     -11.859  34.172   2.289  1.00  0.00     0.051 A 
ATOM     16  C   UNL     1     -12.360  32.869   2.382  1.00  0.00     0.157 A 
ATOM     17  C   UNL     1     -14.416  33.599   1.319  1.00  0.00     0.062 A 
ATOM     18  C   UNL     1     -13.646  32.580   1.898  1.00  0.00     0.158 A 
BRANCH  16  19
ATOM     19  O   UNL     1     -11.567  31.877   2.960  1.00  0.00    -0.504 OA
ATOM     20  H   UNL     1     -11.845  30.904   2.969  1.00  0.00     0.293 HD
ENDBRANCH  16  19
BRANCH  18  21
ATOM     21  O   UNL     1     -14.157  31.286   1.996  1.00  0.00    -0.504 OA
ATOM     22  H   UNL     1     -14.249  30.690   1.183  1.00  0.00     0.293 HD
ENDBRANCH  18  21
ENDBRANCH   3  13
BRANCH  10  23
ATOM     23  O   UNL     1     -16.855  39.921  -1.995  1.00  0.00    -0.507 OA
ATOM     24  H   UNL     1     -16.337  40.777  -2.112  1.00  0.00     0.293 HD
ENDBRANCH  10  23
BRANCH  11  25
ATOM     25  O   UNL     1     -19.110  39.703   2.219  1.00  0.00    -0.508 OA
ATOM     26  H   UNL     1     -18.879  40.381   2.936  1.00  0.00     0.293 HD
ENDBRANCH  11  25
ENDBRANCH   1   2
BRANCH   1  27
ATOM     27  C   UNL     1     -12.090  36.078  -1.483  1.00  0.00     0.339 C 
ATOM     28  C   UNL     1     -11.266  34.779  -1.583  1.00  0.00     0.214 C 
ATOM     29  O   UNL     1     -11.743  37.029  -2.484  1.00  0.00    -0.332 OA
ATOM     30  C   UNL     1     -11.356  34.191  -3.002  1.00  0.00     0.180 C 
ATOM     31  C   UNL     1     -11.833  36.550  -3.824  1.00  0.00     0.179 C 
ATOM     32  C   UNL     1     -11.033  35.249  -4.074  1.00  0.00     0.177 C 
BRANCH  28  33
ATOM     33  O   UNL     1      -9.931  34.980  -1.179  1.00  0.00    -0.384 OA
ATOM     34  H   UNL     1      -9.628  34.181  -0.678  1.00  0.00     0.211 HD
ENDBRANCH  28  33
BRANCH  30  35
ATOM     35  O   UNL     1     -10.562  33.038  -3.147  1.00  0.00    -0.387 OA
ATOM     36  H   UNL     1      -9.616  33.320  -3.248  1.00  0.00     0.211 HD
ENDBRANCH  30  35
BRANCH  31  37
ATOM     37  C   UNL     1     -13.282  36.477  -4.341  1.00  0.00     0.191 C 
BRANCH  37  38
ATOM     38  O   UNL     1     -13.573  37.608  -5.115  1.00  0.00    -0.394 OA
ATOM     39  H   UNL     1     -13.367  38.393  -4.544  1.00  0.00     0.210 HD
ENDBRANCH  37  38
ENDBRANCH  31  37
BRANCH  32  40
ATOM     40  O   UNL     1      -9.659  35.553  -4.080  1.00  0.00    -0.387 OA
ATOM     41  H   UNL     1      -9.409  35.768  -5.015  1.00  0.00     0.211 HD
ENDBRANCH  32  40
ENDBRANCH   1  27
TORSDOF 12
ENDMDL
MODEL 6
REMARK VINA RESULT:    -5.651      2.659      6.696
REMARK INTER + INTRA:         -10.096
REMARK INTER:                  -8.692
REMARK INTRA:                  -1.404
REMARK UNBOUND:                -1.802
REMARK SMILES O=c1c(O[C@@H]2O[C@H](CO)[C@@H](O)[C@@H](O)[C@H]2O)c(-c2ccc(O)c(O)c2)oc2cc(O)cc(O)c12
REMARK SMILES IDX 4 1 3 2 16 3 25 4 2 5 26 6 1 7 33 8 27 9 31 10 28 11 30 12
REMARK SMILES IDX 17 13 18 14 19 15 20 16 24 17 22 18 21 19 23 21 32 23 29 25
REMARK SMILES IDX 5 27 14 28 6 29 12 30 7 31 10 32 15 33 13 35 8 37 9 38 11 40
REMARK H PARENT 21 20 23 22 32 24 29 26 15 34 13 36 9 39 11 41
REMARK Flexibility Score: inf
ROOT
ATOM      1  O   UNL     1     -13.877  35.150  -2.228  1.00  0.00    -0.454 OA
ENDROOT
BRANCH   1   2
ATOM      2  C   UNL     1     -14.713  36.024  -1.507  1.00  0.00     0.214 A 
ATOM      3  C   UNL     1     -14.687  35.973  -0.101  1.00  0.00     0.180 A 
ATOM      4  O   UNL     1     -15.444  36.800   0.608  1.00  0.00    -0.452 OA
ATOM      5  C   UNL     1     -15.567  36.958  -2.131  1.00  0.00     0.239 A 
ATOM      6  C   UNL     1     -16.245  37.706   0.066  1.00  0.00     0.146 A 
ATOM      7  O   UNL     1     -15.689  36.945  -3.382  1.00  0.00    -0.285 OA
ATOM      8  C   UNL     1     -16.322  37.860  -1.341  1.00  0.00     0.111 A 
ATOM      9  C   UNL     1     -17.023  38.502   0.912  1.00  0.00     0.094 A 
ATOM     10  C   UNL     1     -17.170  38.881  -1.868  1.00  0.00     0.134 A 
ATOM     11  C   UNL     1     -17.895  39.453   0.383  1.00  0.00     0.123 A 
ATOM     12  C   UNL     1     -17.967  39.634  -0.997  1.00  0.00     0.093 A 
BRANCH   3  13
ATOM     13  C   UNL     1     -13.804  35.039   0.632  1.00  0.00     0.025 A 
ATOM     14  C   UNL     1     -12.524  35.461   1.018  1.00  0.00     0.016 A 
ATOM     15  C   UNL     1     -11.672  34.595   1.709  1.00  0.00     0.051 A 
ATOM     16  C   UNL     1     -12.092  33.302   2.036  1.00  0.00     0.157 A 
ATOM     17  C   UNL     1     -14.234  33.749   0.985  1.00  0.00     0.062 A 
ATOM     18  C   UNL     1     -13.381  32.876   1.674  1.00  0.00     0.158 A 
BRANCH  16  19
ATOM     19  O   UNL     1     -11.218  32.457   2.719  1.00  0.00    -0.504 OA
ATOM     20  H   UNL     1     -11.262  31.449   2.627  1.00  0.00     0.293 HD
ENDBRANCH  16  19
BRANCH  18  21
ATOM     21  O   UNL     1     -13.812  31.592   2.004  1.00  0.00    -0.504 OA
ATOM     22  H   UNL     1     -13.772  31.247   2.956  1.00  0.00     0.293 HD
ENDBRANCH  18  21
ENDBRANCH   3  13
BRANCH  10  23
ATOM     23  O   UNL     1     -17.240  39.213  -3.223  1.00  0.00    -0.507 OA
ATOM     24  H   UNL     1     -17.975  38.920  -3.848  1.00  0.00     0.293 HD
ENDBRANCH  10  23
BRANCH  11  25
ATOM     25  O   UNL     1     -18.689  40.232   1.221  1.00  0.00    -0.508 OA
ATOM     26  H   UNL     1     -18.690  40.099   2.226  1.00  0.00     0.293 HD
ENDBRANCH  11  25
ENDBRANCH   1   2
BRANCH   1  27
ATOM     27  C   UNL     1     -13.095  35.489  -3.377  1.00  0.00     0.339 C 
ATOM     28  C   UNL     1     -12.194  36.699  -3.061  1.00  0.00     0.214 C 
ATOM     29  O   UNL     1     -12.364  34.372  -3.873  1.00  0.00    -0.332 OA
ATOM     30  C   UNL     1     -11.049  36.287  -2.119  1.00  0.00     0.180 C 
ATOM     31  C   UNL     1     -11.304  33.926  -3.029  1.00  0.00     0.179 C 
ATOM     32  C   UNL     1     -10.306  35.043  -2.643  1.00  0.00     0.177 C 
BRANCH  28  33
ATOM     33  O   UNL     1     -11.716  37.310  -4.237  1.00  0.00    -0.384 OA
ATOM     34  H   UNL     1     -10.959  36.775  -4.585  1.00  0.00     0.211 HD
ENDBRANCH  28  33
BRANCH  30  35
ATOM     35  O   UNL     1     -10.169  37.354  -1.861  1.00  0.00    -0.387 OA
ATOM     36  H   UNL     1      -9.251  37.070  -2.106  1.00  0.00     0.211 HD
ENDBRANCH  30  35
BRANCH  31  37
ATOM     37  C   UNL     1     -11.801  33.113  -1.819  1.00  0.00     0.191 C 
BRANCH  37  38
ATOM     38  O   UNL     1     -12.953  32.395  -2.164  1.00  0.00    -0.394 OA
ATOM     39  H   UNL     1     -12.816  31.473  -1.823  1.00  0.00     0.210 HD
ENDBRANCH  37  38
ENDBRANCH  31  37
BRANCH  32  40
ATOM     40  O   UNL     1      -9.524  35.364  -3.767  1.00  0.00    -0.387 OA
ATOM     41  H   UNL     1      -8.905  36.092  -3.498  1.00  0.00     0.211 HD
ENDBRANCH  32  40
ENDBRANCH   1  27
TORSDOF 12
ENDMDL
MODEL 7
REMARK VINA RESULT:    -5.645      2.205      5.342
REMARK INTER + INTRA:         -10.088
REMARK INTER:                  -8.665
REMARK INTRA:                  -1.422
REMARK UNBOUND:                -1.802
REMARK SMILES O=c1c(O[C@@H]2O[C@H](CO)[C@@H](O)[C@@H](O)[C@H]2O)c(-c2ccc(O)c(O)c2)oc2cc(O)cc(O)c12
REMARK SMILES IDX 4 1 3 2 16 3 25 4 2 5 26 6 1 7 33 8 27 9 31 10 28 11 30 12
REMARK SMILES IDX 17 13 18 14 19 15 20 16 24 17 22 18 21 19 23 21 32 23 29 25
REMARK SMILES IDX 5 27 14 28 6 29 12 30 7 31 10 32 15 33 13 35 8 37 9 38 11 40
REMARK H PARENT 21 20 23 22 32 24 29 26 15 34 13 36 9 39 11 41
REMARK Flexibility Score: inf
ROOT
ATOM      1  O   UNL     1     -14.069  38.000  -1.869  1.00  0.00    -0.454 OA
ENDROOT
BRANCH   1   2
ATOM      2  C   UNL     1     -15.030  37.476  -0.984  1.00  0.00     0.214 A 
ATOM      3  C   UNL     1     -14.911  36.133  -0.579  1.00  0.00     0.180 A 
ATOM      4  O   UNL     1     -15.785  35.616   0.275  1.00  0.00    -0.452 OA
ATOM      5  C   UNL     1     -16.102  38.239  -0.474  1.00  0.00     0.239 A 
ATOM      6  C   UNL     1     -16.795  36.301   0.794  1.00  0.00     0.146 A 
ATOM      7  O   UNL     1     -16.290  39.404  -0.907  1.00  0.00    -0.285 OA
ATOM      8  C   UNL     1     -16.985  37.669   0.475  1.00  0.00     0.111 A 
ATOM      9  C   UNL     1     -17.675  35.642   1.657  1.00  0.00     0.094 A 
ATOM     10  C   UNL     1     -18.064  38.368   1.097  1.00  0.00     0.134 A 
ATOM     11  C   UNL     1     -18.761  36.320   2.210  1.00  0.00     0.123 A 
ATOM     12  C   UNL     1     -18.952  37.670   1.925  1.00  0.00     0.093 A 
BRANCH   3  13
ATOM     13  C   UNL     1     -13.806  35.269  -1.048  1.00  0.00     0.025 A 
ATOM     14  C   UNL     1     -14.072  34.251  -1.975  1.00  0.00     0.016 A 
ATOM     15  C   UNL     1     -13.043  33.421  -2.429  1.00  0.00     0.051 A 
ATOM     16  C   UNL     1     -11.733  33.606  -1.975  1.00  0.00     0.157 A 
ATOM     17  C   UNL     1     -12.485  35.471  -0.615  1.00  0.00     0.062 A 
ATOM     18  C   UNL     1     -11.451  34.638  -1.065  1.00  0.00     0.158 A 
BRANCH  16  19
ATOM     19  O   UNL     1     -10.727  32.759  -2.440  1.00  0.00    -0.504 OA
ATOM     20  H   UNL     1      -9.802  32.745  -2.028  1.00  0.00     0.293 HD
ENDBRANCH  16  19
BRANCH  18  21
ATOM     21  O   UNL     1     -10.146  34.837  -0.614  1.00  0.00    -0.504 OA
ATOM     22  H   UNL     1      -9.520  34.059  -0.443  1.00  0.00     0.293 HD
ENDBRANCH  18  21
ENDBRANCH   3  13
BRANCH  10  23
ATOM     23  O   UNL     1     -18.284  39.741   0.962  1.00  0.00    -0.507 OA
ATOM     24  H   UNL     1     -18.140  40.264   0.112  1.00  0.00     0.293 HD
ENDBRANCH  10  23
BRANCH  11  25
ATOM     25  O   UNL     1     -19.655  35.662   3.052  1.00  0.00    -0.508 OA
ATOM     26  H   UNL     1     -20.649  35.638   2.855  1.00  0.00     0.293 HD
ENDBRANCH  11  25
ENDBRANCH   1   2
BRANCH   1  27
ATOM     27  C   UNL     1     -13.997  37.752  -3.276  1.00  0.00     0.339 C 
ATOM     28  C   UNL     1     -14.435  39.009  -4.054  1.00  0.00     0.214 C 
ATOM     29  O   UNL     1     -12.712  37.280  -3.670  1.00  0.00    -0.332 OA
ATOM     30  C   UNL     1     -13.357  40.104  -3.960  1.00  0.00     0.180 C 
ATOM     31  C   UNL     1     -11.665  38.244  -3.578  1.00  0.00     0.179 C 
ATOM     32  C   UNL     1     -11.965  39.561  -4.334  1.00  0.00     0.177 C 
BRANCH  28  33
ATOM     33  O   UNL     1     -14.761  38.704  -5.390  1.00  0.00    -0.384 OA
ATOM     34  H   UNL     1     -15.034  37.752  -5.439  1.00  0.00     0.211 HD
ENDBRANCH  28  33
BRANCH  30  35
ATOM     35  O   UNL     1     -13.696  41.243  -4.714  1.00  0.00    -0.387 OA
ATOM     36  H   UNL     1     -14.627  41.501  -4.491  1.00  0.00     0.211 HD
ENDBRANCH  30  35
BRANCH  31  37
ATOM     37  C   UNL     1     -11.182  38.472  -2.134  1.00  0.00     0.191 C 
BRANCH  37  38
ATOM     38  O   UNL     1     -10.047  37.692  -1.879  1.00  0.00    -0.394 OA
ATOM     39  H   UNL     1     -10.382  36.819  -1.545  1.00  0.00     0.210 HD
ENDBRANCH  37  38
ENDBRANCH  31  37
BRANCH  32  40
ATOM     40  O   UNL     1     -11.876  39.322  -5.718  1.00  0.00    -0.387 OA
ATOM     41  H   UNL     1     -10.912  39.256  -5.944  1.00  0.00     0.211 HD
ENDBRANCH  32  40
ENDBRANCH   1  27
TORSDOF 12
ENDMDL
MODEL 8
REMARK VINA RESULT:    -5.640      2.697      7.978
REMARK INTER + INTRA:         -10.080
REMARK INTER:                  -8.293
REMARK INTRA:                  -1.787
REMARK UNBOUND:                -1.802
REMARK SMILES O=c1c(O[C@@H]2O[C@H](CO)[C@@H](O)[C@@H](O)[C@H]2O)c(-c2ccc(O)c(O)c2)oc2cc(O)cc(O)c12
REMARK SMILES IDX 4 1 3 2 16 3 25 4 2 5 26 6 1 7 33 8 27 9 31 10 28 11 30 12
REMARK SMILES IDX 17 13 18 14 19 15 20 16 24 17 22 18 21 19 23 21 32 23 29 25
REMARK SMILES IDX 5 27 14 28 6 29 12 30 7 31 10 32 15 33 13 35 8 37 9 38 11 40
REMARK H PARENT 21 20 23 22 32 24 29 26 15 34 13 36 9 39 11 41
REMARK Flexibility Score: inf
ROOT
ATOM      1  O   UNL     1     -13.625  37.852  -2.519  1.00  0.00    -0.454 OA
ENDROOT
BRANCH   1   2
ATOM      2  C   UNL     1     -12.806  38.554  -3.424  1.00  0.00     0.214 A 
ATOM      3  C   UNL     1     -11.611  37.951  -3.858  1.00  0.00     0.180 A 
ATOM      4  O   UNL     1     -10.830  38.574  -4.731  1.00  0.00    -0.452 OA
ATOM      5  C   UNL     1     -13.136  39.831  -3.927  1.00  0.00     0.239 A 
ATOM      6  C   UNL     1     -11.109  39.764  -5.244  1.00  0.00     0.146 A 
ATOM      7  O   UNL     1     -14.140  40.434  -3.470  1.00  0.00    -0.285 OA
ATOM      8  C   UNL     1     -12.304  40.443  -4.896  1.00  0.00     0.111 A 
ATOM      9  C   UNL     1     -10.195  40.341  -6.129  1.00  0.00     0.094 A 
ATOM     10  C   UNL     1     -12.574  41.702  -5.513  1.00  0.00     0.134 A 
ATOM     11  C   UNL     1     -10.440  41.600  -6.677  1.00  0.00     0.123 A 
ATOM     12  C   UNL     1     -11.619  42.273  -6.364  1.00  0.00     0.093 A 
BRANCH   3  13
ATOM     13  C   UNL     1     -11.201  36.606  -3.398  1.00  0.00     0.025 A 
ATOM     14  C   UNL     1     -11.360  35.506  -4.254  1.00  0.00     0.016 A 
ATOM     15  C   UNL     1     -10.982  34.226  -3.840  1.00  0.00     0.051 A 
ATOM     16  C   UNL     1     -10.429  34.029  -2.570  1.00  0.00     0.157 A 
ATOM     17  C   UNL     1     -10.620  36.409  -2.134  1.00  0.00     0.062 A 
ATOM     18  C   UNL     1     -10.244  35.126  -1.713  1.00  0.00     0.158 A 
BRANCH  16  19
ATOM     19  O   UNL     1     -10.068  32.739  -2.180  1.00  0.00    -0.504 OA
ATOM     20  H   UNL     1     -10.488  31.915  -2.591  1.00  0.00     0.293 HD
ENDBRANCH  16  19
BRANCH  18  21
ATOM     21  O   UNL     1      -9.684  34.940  -0.450  1.00  0.00    -0.504 OA
ATOM     22  H   UNL     1      -9.629  34.023  -0.024  1.00  0.00     0.293 HD
ENDBRANCH  18  21
ENDBRANCH   3  13
BRANCH  10  23
ATOM     23  O   UNL     1     -13.767  42.411  -5.349  1.00  0.00    -0.507 OA
ATOM     24  H   UNL     1     -14.634  42.190  -5.813  1.00  0.00     0.293 HD
ENDBRANCH  10  23
BRANCH  11  25
ATOM     25  O   UNL     1      -9.520  42.190  -7.541  1.00  0.00    -0.508 OA
ATOM     26  H   UNL     1      -9.020  41.646  -8.235  1.00  0.00     0.293 HD
ENDBRANCH  11  25
ENDBRANCH   1   2
BRANCH   1  27
ATOM     27  C   UNL     1     -14.691  36.963  -2.862  1.00  0.00     0.339 C 
ATOM     28  C   UNL     1     -14.444  35.579  -2.229  1.00  0.00     0.214 C 
ATOM     29  O   UNL     1     -15.965  37.503  -2.528  1.00  0.00    -0.332 OA
ATOM     30  C   UNL     1     -14.674  35.633  -0.708  1.00  0.00     0.180 C 
ATOM     31  C   UNL     1     -16.226  37.603  -1.130  1.00  0.00     0.179 C 
ATOM     32  C   UNL     1     -16.033  36.273  -0.364  1.00  0.00     0.177 C 
BRANCH  28  33
ATOM     33  O   UNL     1     -15.226  34.581  -2.845  1.00  0.00    -0.384 OA
ATOM     34  H   UNL     1     -14.740  33.719  -2.787  1.00  0.00     0.211 HD
ENDBRANCH  28  33
BRANCH  30  35
ATOM     35  O   UNL     1     -14.521  34.371  -0.106  1.00  0.00    -0.387 OA
ATOM     36  H   UNL     1     -13.712  33.939  -0.484  1.00  0.00     0.211 HD
ENDBRANCH  30  35
BRANCH  31  37
ATOM     37  C   UNL     1     -15.505  38.793  -0.467  1.00  0.00     0.191 C 
BRANCH  37  38
ATOM     38  O   UNL     1     -15.644  39.939  -1.260  1.00  0.00    -0.394 OA
ATOM     39  H   UNL     1     -15.303  39.695  -2.160  1.00  0.00     0.210 HD
ENDBRANCH  37  38
ENDBRANCH  31  37
BRANCH  32  40
ATOM     40  O   UNL     1     -17.091  35.404  -0.687  1.00  0.00    -0.387 OA
ATOM     41  H   UNL     1     -16.787  34.481  -0.483  1.00  0.00     0.211 HD
ENDBRANCH  32  40
ENDBRANCH   1  27
TORSDOF 12
ENDMDL
MODEL 9
REMARK VINA RESULT:    -5.584      2.347      5.977
REMARK INTER + INTRA:          -9.997
REMARK INTER:                  -8.250
REMARK INTRA:                  -1.747
REMARK UNBOUND:                -1.802
REMARK SMILES O=c1c(O[C@@H]2O[C@H](CO)[C@@H](O)[C@@H](O)[C@H]2O)c(-c2ccc(O)c(O)c2)oc2cc(O)cc(O)c12
REMARK SMILES IDX 4 1 3 2 16 3 25 4 2 5 26 6 1 7 33 8 27 9 31 10 28 11 30 12
REMARK SMILES IDX 17 13 18 14 19 15 20 16 24 17 22 18 21 19 23 21 32 23 29 25
REMARK SMILES IDX 5 27 14 28 6 29 12 30 7 31 10 32 15 33 13 35 8 37 9 38 11 40
REMARK H PARENT 21 20 23 22 32 24 29 26 15 34 13 36 9 39 11 41
REMARK Flexibility Score: inf
ROOT
ATOM      1  O   UNL     1     -13.229  36.116  -1.258  1.00  0.00    -0.454 OA
ENDROOT
BRANCH   1   2
ATOM      2  C   UNL     1     -14.337  36.770  -0.685  1.00  0.00     0.214 A 
ATOM      3  C   UNL     1     -14.655  38.068  -1.127  1.00  0.00     0.180 A 
ATOM      4  O   UNL     1     -15.708  38.701  -0.625  1.00  0.00    -0.452 OA
ATOM      5  C   UNL     1     -15.150  36.178   0.305  1.00  0.00     0.239 A 
ATOM      6  C   UNL     1     -16.511  38.177   0.290  1.00  0.00     0.146 A 
ATOM      7  O   UNL     1     -14.819  35.068   0.793  1.00  0.00    -0.285 OA
ATOM      8  C   UNL     1     -16.295  36.864   0.780  1.00  0.00     0.111 A 
ATOM      9  C   UNL     1     -17.570  38.950   0.772  1.00  0.00     0.094 A 
ATOM     10  C   UNL     1     -17.216  36.335   1.734  1.00  0.00     0.134 A 
ATOM     11  C   UNL     1     -18.426  38.445   1.750  1.00  0.00     0.123 A 
ATOM     12  C   UNL     1     -18.244  37.149   2.227  1.00  0.00     0.093 A 
BRANCH   3  13
ATOM     13  C   UNL     1     -13.869  38.752  -2.176  1.00  0.00     0.025 A 
ATOM     14  C   UNL     1     -12.760  39.529  -1.811  1.00  0.00     0.016 A 
ATOM     15  C   UNL     1     -12.004  40.186  -2.786  1.00  0.00     0.051 A 
ATOM     16  C   UNL     1     -12.338  40.066  -4.139  1.00  0.00     0.157 A 
ATOM     17  C   UNL     1     -14.186  38.611  -3.537  1.00  0.00     0.062 A 
ATOM     18  C   UNL     1     -13.433  39.272  -4.518  1.00  0.00     0.158 A 
BRANCH  16  19
ATOM     19  O   UNL     1     -11.572  40.739  -5.090  1.00  0.00    -0.504 OA
ATOM     20  H   UNL     1     -11.464  40.395  -6.036  1.00  0.00     0.293 HD
ENDBRANCH  16  19
BRANCH  18  21
ATOM     21  O   UNL     1     -13.767  39.138  -5.865  1.00  0.00    -0.504 OA
ATOM     22  H   UNL     1     -13.595  39.882  -6.530  1.00  0.00     0.293 HD
ENDBRANCH  18  21
ENDBRANCH   3  13
BRANCH  10  23
ATOM     23  O   UNL     1     -17.185  35.017   2.200  1.00  0.00    -0.507 OA
ATOM     24  H   UNL     1     -17.270  34.750   3.168  1.00  0.00     0.293 HD
ENDBRANCH  10  23
BRANCH  11  25
ATOM     25  O   UNL     1     -19.470  39.221   2.250  1.00  0.00    -0.508 OA
ATOM     26  H   UNL     1     -20.065  38.889   3.001  1.00  0.00     0.293 HD
ENDBRANCH  11  25
ENDBRANCH   1   2
BRANCH   1  27
ATOM     27  C   UNL     1     -13.279  35.089  -2.252  1.00  0.00     0.339 C 
ATOM     28  C   UNL     1     -12.323  35.434  -3.411  1.00  0.00     0.214 C 
ATOM     29  O   UNL     1     -13.034  33.800  -1.700  1.00  0.00    -0.332 OA
ATOM     30  C   UNL     1     -10.858  35.256  -2.973  1.00  0.00     0.180 C 
ATOM     31  C   UNL     1     -11.697  33.584  -1.250  1.00  0.00     0.179 C 
ATOM     32  C   UNL     1     -10.625  33.877  -2.326  1.00  0.00     0.177 C 
BRANCH  28  33
ATOM     33  O   UNL     1     -12.622  34.687  -4.568  1.00  0.00    -0.384 OA
ATOM     34  H   UNL     1     -12.467  35.259  -5.363  1.00  0.00     0.211 HD
ENDBRANCH  28  33
BRANCH  30  35
ATOM     35  O   UNL     1      -9.959  35.499  -4.028  1.00  0.00    -0.387 OA
ATOM     36  H   UNL     1      -9.221  34.839  -3.970  1.00  0.00     0.211 HD
ENDBRANCH  30  35
BRANCH  31  37
ATOM     37  C   UNL     1     -11.400  34.262   0.100  1.00  0.00     0.191 C 
BRANCH  37  38
ATOM     38  O   UNL     1     -12.385  33.920   1.036  1.00  0.00    -0.394 OA
ATOM     39  H   UNL     1     -12.603  34.756   1.525  1.00  0.00     0.210 HD
ENDBRANCH  37  38
ENDBRANCH  31  37
BRANCH  32  40
ATOM     40  O   UNL     1     -10.660  32.857  -3.295  1.00  0.00    -0.387 OA
ATOM     41  H   UNL     1     -10.585  31.992  -2.815  1.00  0.00     0.211 HD
ENDBRANCH  32  40
ENDBRANCH   1  27
TORSDOF 12
ENDMDL
