MODEL 1
REMARK VINA RESULT:    -5.697      0.000      0.000
REMARK INTER + INTRA:          -6.823
REMARK INTER:                  -6.696
REMARK INTRA:                  -0.127
REMARK UNBOUND:                -0.127
REMARK SMILES O=C([O-])C=Cc1ccc(O)c(O)c1
REMARK SMILES IDX 6 1 13 2 7 3 11 4 8 5 9 6 5 7 4 8 2 9 1 10 3 11 12 12 10 14
REMARK H PARENT 12 13 10 15
REMARK Flexibility Score: inf
ROOT
ATOM      1  C   UNL     1       8.393  15.650 -21.633  1.00  0.00    -0.022 A 
ATOM      2  C   UNL     1       8.152  16.931 -21.114  1.00  0.00     0.058 A 
ATOM      3  C   UNL     1       8.552  14.576 -20.739  1.00  0.00     0.012 A 
ATOM      4  C   UNL     1       8.042  17.146 -19.734  1.00  0.00     0.157 A 
ATOM      5  C   UNL     1       8.443  14.781 -19.362  1.00  0.00     0.051 A 
ATOM      6  C   UNL     1       8.186  16.055 -18.846  1.00  0.00     0.157 A 
ENDROOT
BRANCH   1   7
ATOM      7  C   UNL     1       8.509  15.489 -23.104  1.00  0.00     0.010 C 
ATOM      8  C   UNL     1       9.580  15.870 -23.813  1.00  0.00     0.025 C 
BRANCH   8   9
ATOM      9  C   UNL     1       9.657  15.680 -25.270  1.00  0.00     0.064 C 
ATOM     10  O   UNL     1      10.768  15.435 -25.807  1.00  0.00    -0.545 OA
ATOM     11  O   UNL     1       8.520  15.769 -26.066  1.00  0.00    -0.545 OA
ENDBRANCH   8   9
ENDBRANCH   1   7
BRANCH   4  12
ATOM     12  O   UNL     1       7.791  18.448 -19.294  1.00  0.00    -0.504 OA
ATOM     13  H   UNL     1       7.030  19.020 -19.629  1.00  0.00     0.293 HD
ENDBRANCH   4  12
BRANCH   6  14
ATOM     14  O   UNL     1       8.087  16.190 -17.461  1.00  0.00    -0.504 OA
ATOM     15  H   UNL     1       8.548  15.583 -16.798  1.00  0.00     0.293 HD
ENDBRANCH   6  14
TORSDOF 4
ENDMDL
MODEL 2
REMARK VINA RESULT:    -5.669      0.922      1.980
REMARK INTER + INTRA:          -6.790
REMARK INTER:                  -6.662
REMARK INTRA:                  -0.128
REMARK UNBOUND:                -0.127
REMARK SMILES O=C([O-])C=Cc1ccc(O)c(O)c1
REMARK SMILES IDX 6 1 13 2 7 3 11 4 8 5 9 6 5 7 4 8 2 9 1 10 3 11 12 12 10 14
REMARK H PARENT 12 13 10 15
REMARK Flexibility Score: inf
ROOT
ATOM      1  C   UNL     1       8.431  15.686 -21.710  1.00  0.00    -0.022 A 
ATOM      2  C   UNL     1       8.570  14.515 -20.950  1.00  0.00     0.058 A 
ATOM      3  C   UNL     1       8.228  16.907 -21.041  1.00  0.00     0.012 A 
ATOM      4  C   UNL     1       8.536  14.550 -19.549  1.00  0.00     0.157 A 
ATOM      5  C   UNL     1       8.192  16.951 -19.646  1.00  0.00     0.051 A 
ATOM      6  C   UNL     1       8.348  15.786 -18.889  1.00  0.00     0.157 A 
ENDROOT
BRANCH   1   7
ATOM      7  C   UNL     1       8.467  15.582 -23.190  1.00  0.00     0.010 C 
ATOM      8  C   UNL     1       9.555  15.837 -23.929  1.00  0.00     0.025 C 
BRANCH   8   9
ATOM      9  C   UNL     1       9.547  15.709 -25.395  1.00  0.00     0.064 C 
ATOM     10  O   UNL     1      10.630  15.520 -26.007  1.00  0.00    -0.545 OA
ATOM     11  O   UNL     1       8.361  15.795 -26.117  1.00  0.00    -0.545 OA
ENDBRANCH   8   9
ENDBRANCH   1   7
BRANCH   4  12
ATOM     12  O   UNL     1       8.691  13.344 -18.863  1.00  0.00    -0.504 OA
ATOM     13  H   UNL     1       9.430  12.681 -19.047  1.00  0.00     0.293 HD
ENDBRANCH   4  12
BRANCH   6  14
ATOM     14  O   UNL     1       8.305  15.900 -17.499  1.00  0.00    -0.504 OA
ATOM     15  H   UNL     1       9.118  16.049 -16.918  1.00  0.00     0.293 HD
ENDBRANCH   6  14
TORSDOF 4
ENDMDL
MODEL 3
REMARK VINA RESULT:    -5.208     10.448     14.014
REMARK INTER + INTRA:          -6.249
REMARK INTER:                  -6.121
REMARK INTRA:                  -0.128
REMARK UNBOUND:                -0.127
REMARK SMILES O=C([O-])C=Cc1ccc(O)c(O)c1
REMARK SMILES IDX 6 1 13 2 7 3 11 4 8 5 9 6 5 7 4 8 2 9 1 10 3 11 12 12 10 14
REMARK H PARENT 12 13 10 15
REMARK Flexibility Score: inf
ROOT
ATOM      1  C   UNL     1       6.732   8.568 -12.031  1.00  0.00    -0.022 A 
ATOM      2  C   UNL     1       6.407   7.337 -12.620  1.00  0.00     0.058 A 
ATOM      3  C   UNL     1       7.284   9.580 -12.837  1.00  0.00     0.012 A 
ATOM      4  C   UNL     1       6.597   7.116 -13.991  1.00  0.00     0.157 A 
ATOM      5  C   UNL     1       7.476   9.368 -14.204  1.00  0.00     0.051 A 
ATOM      6  C   UNL     1       7.136   8.147 -14.794  1.00  0.00     0.157 A 
ENDROOT
BRANCH   1   7
ATOM      7  C   UNL     1       6.517   8.737 -10.572  1.00  0.00     0.010 C 
ATOM      8  C   UNL     1       7.292   8.176  -9.634  1.00  0.00     0.025 C 
BRANCH   8   9
ATOM      9  C   UNL     1       7.048   8.382  -8.198  1.00  0.00     0.064 C 
ATOM     10  O   UNL     1       5.875   8.298  -7.750  1.00  0.00    -0.545 OA
ATOM     11  O   UNL     1       8.093   8.671  -7.326  1.00  0.00    -0.545 OA
ENDBRANCH   8   9
ENDBRANCH   1   7
BRANCH   4  12
ATOM     12  O   UNL     1       6.240   5.868 -14.506  1.00  0.00    -0.504 OA
ATOM     13  H   UNL     1       5.899   5.721 -15.445  1.00  0.00     0.293 HD
ENDBRANCH   4  12
BRANCH   6  14
ATOM     14  O   UNL     1       7.351   8.001 -16.165  1.00  0.00    -0.504 OA
ATOM     15  H   UNL     1       7.958   7.304 -16.571  1.00  0.00     0.293 HD
ENDBRANCH   6  14
TORSDOF 4
ENDMDL
MODEL 4
REMARK VINA RESULT:    -5.171      2.754      5.732
REMARK INTER + INTRA:          -6.204
REMARK INTER:                  -6.075
REMARK INTRA:                  -0.129
REMARK UNBOUND:                -0.127
REMARK SMILES O=C([O-])C=Cc1ccc(O)c(O)c1
REMARK SMILES IDX 6 1 13 2 7 3 11 4 8 5 9 6 5 7 4 8 2 9 1 10 3 11 12 12 10 14
REMARK H PARENT 12 13 10 15
REMARK Flexibility Score: inf
ROOT
ATOM      1  C   UNL     1       8.808  16.693 -19.202  1.00  0.00    -0.022 A 
ATOM      2  C   UNL     1       8.393  16.549 -20.535  1.00  0.00     0.058 A 
ATOM      3  C   UNL     1       9.132  15.540 -18.465  1.00  0.00     0.012 A 
ATOM      4  C   UNL     1       8.323  15.288 -21.140  1.00  0.00     0.157 A 
ATOM      5  C   UNL     1       9.065  14.279 -19.061  1.00  0.00     0.051 A 
ATOM      6  C   UNL     1       8.667  14.137 -20.394  1.00  0.00     0.157 A 
ENDROOT
BRANCH   1   7
ATOM      7  C   UNL     1       8.852  18.056 -18.615  1.00  0.00     0.010 C 
ATOM      8  C   UNL     1       7.763  18.743 -18.243  1.00  0.00     0.025 C 
BRANCH   8   9
ATOM      9  C   UNL     1       7.855  20.087 -17.653  1.00  0.00     0.064 C 
ATOM     10  O   UNL     1       8.851  20.812 -17.912  1.00  0.00    -0.545 OA
ATOM     11  O   UNL     1       6.860  20.571 -16.810  1.00  0.00    -0.545 OA
ENDBRANCH   8   9
ENDBRANCH   1   7
BRANCH   4  12
ATOM     12  O   UNL     1       7.910  15.226 -22.473  1.00  0.00    -0.504 OA
ATOM     13  H   UNL     1       7.038  14.816 -22.776  1.00  0.00     0.293 HD
ENDBRANCH   4  12
BRANCH   6  14
ATOM     14  O   UNL     1       8.624  12.849 -20.930  1.00  0.00    -0.504 OA
ATOM     15  H   UNL     1       7.776  12.388 -21.226  1.00  0.00     0.293 HD
ENDBRANCH   6  14
TORSDOF 4
ENDMDL
MODEL 5
REMARK VINA RESULT:    -4.997      2.937      4.067
REMARK INTER + INTRA:          -6.001
REMARK INTER:                  -5.873
REMARK INTRA:                  -0.127
REMARK UNBOUND:                -0.127
REMARK SMILES O=C([O-])C=Cc1ccc(O)c(O)c1
REMARK SMILES IDX 6 1 13 2 7 3 11 4 8 5 9 6 5 7 4 8 2 9 1 10 3 11 12 12 10 14
REMARK H PARENT 12 13 10 15
REMARK Flexibility Score: inf
ROOT
ATOM      1  C   UNL     1       7.764  17.810 -18.685  1.00  0.00    -0.022 A 
ATOM      2  C   UNL     1       8.470  19.022 -18.659  1.00  0.00     0.058 A 
ATOM      3  C   UNL     1       6.659  17.651 -17.829  1.00  0.00     0.012 A 
ATOM      4  C   UNL     1       8.077  20.073 -17.820  1.00  0.00     0.157 A 
ATOM      5  C   UNL     1       6.260  18.694 -16.990  1.00  0.00     0.051 A 
ATOM      6  C   UNL     1       6.954  19.908 -16.976  1.00  0.00     0.157 A 
ENDROOT
BRANCH   1   7
ATOM      7  C   UNL     1       8.236  16.731 -19.589  1.00  0.00     0.010 C 
ATOM      8  C   UNL     1       8.155  16.790 -20.925  1.00  0.00     0.025 C 
BRANCH   8   9
ATOM      9  C   UNL     1       8.648  15.700 -21.782  1.00  0.00     0.064 C 
ATOM     10  O   UNL     1       8.475  14.505 -21.428  1.00  0.00    -0.545 OA
ATOM     11  O   UNL     1       9.305  15.969 -22.978  1.00  0.00    -0.545 OA
ENDBRANCH   8   9
ENDBRANCH   1   7
BRANCH   4  12
ATOM     12  O   UNL     1       8.824  21.253 -17.858  1.00  0.00    -0.504 OA
ATOM     13  H   UNL     1       8.836  21.937 -17.116  1.00  0.00     0.293 HD
ENDBRANCH   4  12
BRANCH   6  14
ATOM     14  O   UNL     1       6.502  20.909 -16.117  1.00  0.00    -0.504 OA
ATOM     15  H   UNL     1       7.106  21.465 -15.529  1.00  0.00     0.293 HD
ENDBRANCH   6  14
TORSDOF 4
ENDMDL
MODEL 6
REMARK VINA RESULT:    -4.928      3.141      5.904
REMARK INTER + INTRA:          -5.920
REMARK INTER:                  -5.788
REMARK INTRA:                  -0.132
REMARK UNBOUND:                -0.127
REMARK SMILES O=C([O-])C=Cc1ccc(O)c(O)c1
REMARK SMILES IDX 6 1 13 2 7 3 11 4 8 5 9 6 5 7 4 8 2 9 1 10 3 11 12 12 10 14
REMARK H PARENT 12 13 10 15
REMARK Flexibility Score: inf
ROOT
ATOM      1  C   UNL     1       8.768  16.708 -19.173  1.00  0.00    -0.022 A 
ATOM      2  C   UNL     1       9.064  15.586 -18.383  1.00  0.00     0.058 A 
ATOM      3  C   UNL     1       8.441  16.515 -20.528  1.00  0.00     0.012 A 
ATOM      4  C   UNL     1       9.012  14.291 -18.914  1.00  0.00     0.157 A 
ATOM      5  C   UNL     1       8.387  15.227 -21.065  1.00  0.00     0.051 A 
ATOM      6  C   UNL     1       8.666  14.109 -20.273  1.00  0.00     0.157 A 
ENDROOT
BRANCH   1   7
ATOM      7  C   UNL     1       8.850  18.055 -18.555  1.00  0.00     0.010 C 
ATOM      8  C   UNL     1       7.780  18.808 -18.266  1.00  0.00     0.025 C 
BRANCH   8   9
ATOM      9  C   UNL     1       7.909  20.135 -17.642  1.00  0.00     0.064 C 
ATOM     10  O   UNL     1       8.913  20.847 -17.900  1.00  0.00    -0.545 OA
ATOM     11  O   UNL     1       6.940  20.613 -16.767  1.00  0.00    -0.545 OA
ENDBRANCH   8   9
ENDBRANCH   1   7
BRANCH   4  12
ATOM     12  O   UNL     1       9.310  13.225 -18.062  1.00  0.00    -0.504 OA
ATOM     13  H   UNL     1       9.948  13.286 -17.283  1.00  0.00     0.293 HD
ENDBRANCH   4  12
BRANCH   6  14
ATOM     14  O   UNL     1       8.591  12.850 -20.870  1.00  0.00    -0.504 OA
ATOM     15  H   UNL     1       8.251  12.022 -20.404  1.00  0.00     0.293 HD
ENDBRANCH   6  14
TORSDOF 4
ENDMDL
MODEL 7
REMARK VINA RESULT:    -4.857      9.099     10.827
REMARK INTER + INTRA:          -5.836
REMARK INTER:                  -5.702
REMARK INTRA:                  -0.134
REMARK UNBOUND:                -0.127
REMARK SMILES O=C([O-])C=Cc1ccc(O)c(O)c1
REMARK SMILES IDX 6 1 13 2 7 3 11 4 8 5 9 6 5 7 4 8 2 9 1 10 3 11 12 12 10 14
REMARK H PARENT 12 13 10 15
REMARK Flexibility Score: inf
ROOT
ATOM      1  C   UNL     1       7.334   9.120 -14.372  1.00  0.00    -0.022 A 
ATOM      2  C   UNL     1       8.239  10.065 -14.879  1.00  0.00     0.058 A 
ATOM      3  C   UNL     1       6.711   9.375 -13.136  1.00  0.00     0.012 A 
ATOM      4  C   UNL     1       8.506  11.256 -14.192  1.00  0.00     0.157 A 
ATOM      5  C   UNL     1       6.972  10.560 -12.445  1.00  0.00     0.051 A 
ATOM      6  C   UNL     1       7.861  11.508 -12.960  1.00  0.00     0.157 A 
ENDROOT
BRANCH   1   7
ATOM      7  C   UNL     1       7.100   7.873 -15.142  1.00  0.00     0.010 C 
ATOM      8  C   UNL     1       7.384   6.648 -14.679  1.00  0.00     0.025 C 
BRANCH   8   9
ATOM      9  C   UNL     1       7.124   5.437 -15.474  1.00  0.00     0.064 C 
ATOM     10  O   UNL     1       6.722   5.548 -16.661  1.00  0.00    -0.545 OA
ATOM     11  O   UNL     1       7.313   4.169 -14.934  1.00  0.00    -0.545 OA
ENDBRANCH   8   9
ENDBRANCH   1   7
BRANCH   4  12
ATOM     12  O   UNL     1       9.412  12.151 -14.766  1.00  0.00    -0.504 OA
ATOM     13  H   UNL     1       9.384  12.440 -15.734  1.00  0.00     0.293 HD
ENDBRANCH   4  12
BRANCH   6  14
ATOM     14  O   UNL     1       8.075  12.672 -12.220  1.00  0.00    -0.504 OA
ATOM     15  H   UNL     1       7.771  13.591 -12.511  1.00  0.00     0.293 HD
ENDBRANCH   6  14
TORSDOF 4
ENDMDL
MODEL 8
REMARK VINA RESULT:    -4.806      2.452      3.618
REMARK INTER + INTRA:          -5.776
REMARK INTER:                  -5.642
REMARK INTRA:                  -0.134
REMARK UNBOUND:                -0.127
REMARK SMILES O=C([O-])C=Cc1ccc(O)c(O)c1
REMARK SMILES IDX 6 1 13 2 7 3 11 4 8 5 9 6 5 7 4 8 2 9 1 10 3 11 12 12 10 14
REMARK H PARENT 12 13 10 15
REMARK Flexibility Score: inf
ROOT
ATOM      1  C   UNL     1       9.278  15.476 -19.297  1.00  0.00    -0.022 A 
ATOM      2  C   UNL     1       8.837  14.159 -19.099  1.00  0.00     0.058 A 
ATOM      3  C   UNL     1      10.034  16.096 -18.285  1.00  0.00     0.012 A 
ATOM      4  C   UNL     1       9.159  13.453 -17.933  1.00  0.00     0.157 A 
ATOM      5  C   UNL     1      10.359  15.400 -17.119  1.00  0.00     0.051 A 
ATOM      6  C   UNL     1       9.934  14.081 -16.930  1.00  0.00     0.157 A 
ENDROOT
BRANCH   1   7
ATOM      7  C   UNL     1       8.895  16.174 -20.549  1.00  0.00     0.010 C 
ATOM      8  C   UNL     1       8.675  15.548 -21.714  1.00  0.00     0.025 C 
BRANCH   8   9
ATOM      9  C   UNL     1       8.286  16.281 -22.929  1.00  0.00     0.064 C 
ATOM     10  O   UNL     1       7.865  17.462 -22.833  1.00  0.00    -0.545 OA
ATOM     11  O   UNL     1       8.373  15.687 -24.184  1.00  0.00    -0.545 OA
ENDBRANCH   8   9
ENDBRANCH   1   7
BRANCH   4  12
ATOM     12  O   UNL     1       8.692  12.142 -17.814  1.00  0.00    -0.504 OA
ATOM     13  H   UNL     1       8.673  11.478 -18.574  1.00  0.00     0.293 HD
ENDBRANCH   4  12
BRANCH   6  14
ATOM     14  O   UNL     1      10.296  13.441 -15.744  1.00  0.00    -0.504 OA
ATOM     15  H   UNL     1      11.022  12.743 -15.678  1.00  0.00     0.293 HD
ENDBRANCH   6  14
TORSDOF 4
ENDMDL
MODEL 9
REMARK VINA RESULT:    -4.793      2.091      2.960
REMARK INTER + INTRA:          -5.761
REMARK INTER:                  -5.635
REMARK INTRA:                  -0.126
REMARK UNBOUND:                -0.127
REMARK SMILES O=C([O-])C=Cc1ccc(O)c(O)c1
REMARK SMILES IDX 6 1 13 2 7 3 11 4 8 5 9 6 5 7 4 8 2 9 1 10 3 11 12 12 10 14
REMARK H PARENT 12 13 10 15
REMARK Flexibility Score: inf
ROOT
ATOM      1  C   UNL     1       8.790  15.955 -19.435  1.00  0.00    -0.022 A 
ATOM      2  C   UNL     1       9.967  15.763 -18.695  1.00  0.00     0.058 A 
ATOM      3  C   UNL     1       7.551  15.798 -18.788  1.00  0.00     0.012 A 
ATOM      4  C   UNL     1       9.923  15.448 -17.331  1.00  0.00     0.157 A 
ATOM      5  C   UNL     1       7.498  15.484 -17.429  1.00  0.00     0.051 A 
ATOM      6  C   UNL     1       8.671  15.310 -16.688  1.00  0.00     0.157 A 
ENDROOT
BRANCH   1   7
ATOM      7  C   UNL     1       8.903  16.277 -20.880  1.00  0.00     0.010 C 
ATOM      8  C   UNL     1       8.708  15.384 -21.860  1.00  0.00     0.025 C 
BRANCH   8   9
ATOM      9  C   UNL     1       8.818  15.752 -23.280  1.00  0.00     0.064 C 
ATOM     10  O   UNL     1       7.780  15.812 -23.988  1.00  0.00    -0.545 OA
ATOM     11  O   UNL     1      10.053  16.033 -23.855  1.00  0.00    -0.545 OA
ENDBRANCH   8   9
ENDBRANCH   1   7
BRANCH   4  12
ATOM     12  O   UNL     1      11.137  15.282 -16.660  1.00  0.00    -0.504 OA
ATOM     13  H   UNL     1      11.417  14.427 -16.202  1.00  0.00     0.293 HD
ENDBRANCH   4  12
BRANCH   6  14
ATOM     14  O   UNL     1       8.548  15.001 -15.333  1.00  0.00    -0.504 OA
ATOM     15  H   UNL     1       8.262  14.098 -14.983  1.00  0.00     0.293 HD
ENDBRANCH   6  14
TORSDOF 4
ENDMDL
