MODEL 1
REMARK VINA RESULT:    -3.284      0.000      0.000
REMARK INTER + INTRA:         -11.658
REMARK INTER:                  -7.508
REMARK INTRA:                  -4.151
REMARK UNBOUND:                -4.151
REMARK SMILES CCCCCCCCCCCCCCCCCCCCCCCC(=O)[O-]
REMARK SMILES IDX 13 1 14 2 15 3 16 4 17 5 18 6 19 7 20 8 21 9 22 10 23 11
REMARK SMILES IDX 24 12 25 13 26 14 12 15 11 16 10 17 9 18 8 19 7 20 6 21 5 22
REMARK SMILES IDX 4 23 3 24 2 25 1 26
REMARK H PARENT
REMARK Flexibility Score: inf
ROOT
ATOM      1  C   UNL     1     164.032 154.348 161.862  1.00  0.00     0.000 C 
ENDROOT
BRANCH   1   2
ATOM      2  C   UNL     1     164.306 152.834 161.880  1.00  0.00     0.000 C 
BRANCH   2   3
ATOM      3  C   UNL     1     164.672 152.317 163.281  1.00  0.00     0.000 C 
BRANCH   3   4
ATOM      4  C   UNL     1     163.436 151.973 164.129  1.00  0.00     0.000 C 
BRANCH   4   5
ATOM      5  C   UNL     1     162.300 151.363 163.291  1.00  0.00     0.000 C 
BRANCH   5   6
ATOM      6  C   UNL     1     161.342 150.504 164.136  1.00  0.00     0.000 C 
BRANCH   6   7
ATOM      7  C   UNL     1     159.863 150.823 163.862  1.00  0.00     0.000 C 
BRANCH   7   8
ATOM      8  C   UNL     1     159.669 151.668 162.591  1.00  0.00     0.000 C 
BRANCH   8   9
ATOM      9  C   UNL     1     158.446 152.594 162.676  1.00  0.00     0.000 C 
BRANCH   9  10
ATOM     10  C   UNL     1     158.176 153.092 164.107  1.00  0.00     0.006 C 
BRANCH  10  11
ATOM     11  C   UNL     1     156.858 152.544 164.672  1.00  0.00     0.053 C 
BRANCH  11  12
ATOM     12  C   UNL     1     155.669 153.245 164.089  1.00  0.00     0.041 C 
ATOM     13  O   UNL     1     155.692 154.491 163.909  1.00  0.00    -0.550 OA
ATOM     14  O   UNL     1     154.548 152.516 163.714  1.00  0.00    -0.550 OA
ENDBRANCH  11  12
ENDBRANCH  10  11
ENDBRANCH   9  10
ENDBRANCH   8   9
ENDBRANCH   7   8
ENDBRANCH   6   7
ENDBRANCH   5   6
ENDBRANCH   4   5
ENDBRANCH   3   4
ENDBRANCH   2   3
ENDBRANCH   1   2
BRANCH   1  15
ATOM     15  C   UNL     1     162.543 154.674 161.668  1.00  0.00     0.000 C 
BRANCH  15  16
ATOM     16  C   UNL     1     161.995 155.616 162.754  1.00  0.00     0.000 C 
BRANCH  16  17
ATOM     17  C   UNL     1     161.193 154.872 163.832  1.00  0.00     0.000 C 
BRANCH  17  18
ATOM     18  C   UNL     1     161.654 155.218 165.256  1.00  0.00    -0.000 C 
BRANCH  18  19
ATOM     19  C   UNL     1     162.893 156.126 165.227  1.00  0.00    -0.000 C 
BRANCH  19  20
ATOM     20  C   UNL     1     164.045 155.584 166.088  1.00  0.00    -0.000 C 
BRANCH  20  21
ATOM     21  C   UNL     1     165.292 155.234 165.260  1.00  0.00    -0.000 C 
BRANCH  21  22
ATOM     22  C   UNL     1     165.762 156.443 164.437  1.00  0.00    -0.000 C 
BRANCH  22  23
ATOM     23  C   UNL     1     167.151 156.228 163.814  1.00  0.00    -0.000 C 
BRANCH  23  24
ATOM     24  C   UNL     1     167.492 154.740 163.628  1.00  0.00    -0.000 C 
BRANCH  24  25
ATOM     25  C   UNL     1     167.965 154.418 162.202  1.00  0.00    -0.003 C 
ATOM     26  C   UNL     1     167.489 155.447 161.177  1.00  0.00     0.004 C 
ENDBRANCH  24  25
ENDBRANCH  23  24
ENDBRANCH  22  23
ENDBRANCH  21  22
ENDBRANCH  20  21
ENDBRANCH  19  20
ENDBRANCH  18  19
ENDBRANCH  17  18
ENDBRANCH  16  17
ENDBRANCH  15  16
ENDBRANCH   1  15
TORSDOF 22
ENDMDL
MODEL 2
REMARK VINA RESULT:    -3.218     10.287     13.605
REMARK INTER + INTRA:         -11.507
REMARK INTER:                  -9.116
REMARK INTRA:                  -2.391
REMARK UNBOUND:                -4.151
REMARK SMILES CCCCCCCCCCCCCCCCCCCCCCCC(=O)[O-]
REMARK SMILES IDX 13 1 14 2 15 3 16 4 17 5 18 6 19 7 20 8 21 9 22 10 23 11
REMARK SMILES IDX 24 12 25 13 26 14 12 15 11 16 10 17 9 18 8 19 7 20 6 21 5 22
REMARK SMILES IDX 4 23 3 24 2 25 1 26
REMARK H PARENT
REMARK Flexibility Score: inf
ROOT
ATOM      1  C   UNL     1     159.008 158.985 150.472  1.00  0.00     0.000 C 
ENDROOT
BRANCH   1   2
ATOM      2  C   UNL     1     159.830 157.746 150.072  1.00  0.00     0.000 C 
BRANCH   2   3
ATOM      3  C   UNL     1     161.180 157.672 150.804  1.00  0.00     0.000 C 
BRANCH   3   4
ATOM      4  C   UNL     1     161.773 159.060 151.097  1.00  0.00     0.000 C 
BRANCH   4   5
ATOM      5  C   UNL     1     163.215 159.203 150.583  1.00  0.00     0.000 C 
BRANCH   5   6
ATOM      6  C   UNL     1     164.260 158.982 151.691  1.00  0.00     0.000 C 
BRANCH   6   7
ATOM      7  C   UNL     1     165.339 160.077 151.715  1.00  0.00     0.000 C 
BRANCH   7   8
ATOM      8  C   UNL     1     166.392 159.842 152.812  1.00  0.00     0.000 C 
BRANCH   8   9
ATOM      9  C   UNL     1     166.511 158.363 153.210  1.00  0.00     0.000 C 
BRANCH   9  10
ATOM     10  C   UNL     1     166.276 158.131 154.714  1.00  0.00     0.006 C 
BRANCH  10  11
ATOM     11  C   UNL     1     166.955 156.849 155.214  1.00  0.00     0.053 C 
BRANCH  11  12
ATOM     12  C   UNL     1     166.024 155.676 155.177  1.00  0.00     0.041 C 
ATOM     13  O   UNL     1     166.403 154.579 154.688  1.00  0.00    -0.550 OA
ATOM     14  O   UNL     1     164.746 155.785 155.714  1.00  0.00    -0.550 OA
ENDBRANCH  11  12
ENDBRANCH  10  11
ENDBRANCH   9  10
ENDBRANCH   8   9
ENDBRANCH   7   8
ENDBRANCH   6   7
ENDBRANCH   5   6
ENDBRANCH   4   5
ENDBRANCH   3   4
ENDBRANCH   2   3
ENDBRANCH   1   2
BRANCH   1  15
ATOM     15  C   UNL     1     157.609 158.620 150.991  1.00  0.00     0.000 C 
BRANCH  15  16
ATOM     16  C   UNL     1     157.097 157.282 150.428  1.00  0.00     0.000 C 
BRANCH  16  17
ATOM     17  C   UNL     1     156.824 156.244 151.527  1.00  0.00     0.000 C 
BRANCH  17  18
ATOM     18  C   UNL     1     157.527 156.584 152.850  1.00  0.00    -0.000 C 
BRANCH  18  19
ATOM     19  C   UNL     1     158.209 155.343 153.445  1.00  0.00    -0.000 C 
BRANCH  19  20
ATOM     20  C   UNL     1     159.672 155.198 153.000  1.00  0.00    -0.000 C 
BRANCH  20  21
ATOM     21  C   UNL     1     159.863 154.111 151.930  1.00  0.00    -0.000 C 
BRANCH  21  22
ATOM     22  C   UNL     1     160.942 153.105 152.356  1.00  0.00    -0.000 C 
BRANCH  22  23
ATOM     23  C   UNL     1     161.042 152.956 153.882  1.00  0.00    -0.000 C 
BRANCH  23  24
ATOM     24  C   UNL     1     161.073 151.485 154.332  1.00  0.00    -0.000 C 
BRANCH  24  25
ATOM     25  C   UNL     1     159.741 151.028 154.947  1.00  0.00    -0.003 C 
ATOM     26  C   UNL     1     158.835 152.199 155.327  1.00  0.00     0.004 C 
ENDBRANCH  24  25
ENDBRANCH  23  24
ENDBRANCH  22  23
ENDBRANCH  21  22
ENDBRANCH  20  21
ENDBRANCH  19  20
ENDBRANCH  18  19
ENDBRANCH  17  18
ENDBRANCH  16  17
ENDBRANCH  15  16
ENDBRANCH   1  15
TORSDOF 22
ENDMDL
MODEL 3
REMARK VINA RESULT:    -3.197      2.678      5.761
REMARK INTER + INTRA:         -11.460
REMARK INTER:                  -7.605
REMARK INTRA:                  -3.855
REMARK UNBOUND:                -4.151
REMARK SMILES CCCCCCCCCCCCCCCCCCCCCCCC(=O)[O-]
REMARK SMILES IDX 13 1 14 2 15 3 16 4 17 5 18 6 19 7 20 8 21 9 22 10 23 11
REMARK SMILES IDX 24 12 25 13 26 14 12 15 11 16 10 17 9 18 8 19 7 20 6 21 5 22
REMARK SMILES IDX 4 23 3 24 2 25 1 26
REMARK H PARENT
REMARK Flexibility Score: inf
ROOT
ATOM      1  C   UNL     1     164.984 153.760 159.336  1.00  0.00     0.000 C 
ENDROOT
BRANCH   1   2
ATOM      2  C   UNL     1     165.911 154.862 159.880  1.00  0.00     0.000 C 
BRANCH   2   3
ATOM      3  C   UNL     1     167.298 154.327 160.269  1.00  0.00     0.000 C 
BRANCH   3   4
ATOM      4  C   UNL     1     167.602 154.497 161.767  1.00  0.00     0.000 C 
BRANCH   4   5
ATOM      5  C   UNL     1     166.376 154.971 162.565  1.00  0.00     0.000 C 
BRANCH   5   6
ATOM      6  C   UNL     1     166.610 154.927 164.086  1.00  0.00     0.000 C 
BRANCH   6   7
ATOM      7  C   UNL     1     165.793 155.987 164.842  1.00  0.00     0.000 C 
BRANCH   7   8
ATOM      8  C   UNL     1     164.620 155.375 165.628  1.00  0.00     0.000 C 
BRANCH   8   9
ATOM      9  C   UNL     1     163.528 156.405 165.957  1.00  0.00     0.000 C 
BRANCH   9  10
ATOM     10  C   UNL     1     163.313 157.426 164.827  1.00  0.00     0.006 C 
BRANCH  10  11
ATOM     11  C   UNL     1     162.598 158.692 165.319  1.00  0.00     0.053 C 
BRANCH  11  12
ATOM     12  C   UNL     1     161.161 158.719 164.895  1.00  0.00     0.041 C 
ATOM     13  O   UNL     1     160.692 157.792 164.183  1.00  0.00    -0.550 OA
ATOM     14  O   UNL     1     160.332 159.752 165.314  1.00  0.00    -0.550 OA
ENDBRANCH  11  12
ENDBRANCH  10  11
ENDBRANCH   9  10
ENDBRANCH   8   9
ENDBRANCH   7   8
ENDBRANCH   6   7
ENDBRANCH   5   6
ENDBRANCH   4   5
ENDBRANCH   3   4
ENDBRANCH   2   3
ENDBRANCH   1   2
BRANCH   1  15
ATOM     15  C   UNL     1     163.854 153.408 160.315  1.00  0.00     0.000 C 
BRANCH  15  16
ATOM     16  C   UNL     1     162.492 153.979 159.881  1.00  0.00     0.000 C 
BRANCH  16  17
ATOM     17  C   UNL     1     161.747 154.670 161.033  1.00  0.00     0.000 C 
BRANCH  17  18
ATOM     18  C   UNL     1     162.585 154.746 162.318  1.00  0.00    -0.000 C 
BRANCH  18  19
ATOM     19  C   UNL     1     161.766 154.291 163.536  1.00  0.00    -0.000 C 
BRANCH  19  20
ATOM     20  C   UNL     1     160.682 153.266 163.172  1.00  0.00    -0.000 C 
BRANCH  20  21
ATOM     21  C   UNL     1     160.964 151.871 163.753  1.00  0.00    -0.000 C 
BRANCH  21  22
ATOM     22  C   UNL     1     162.180 151.227 163.070  1.00  0.00    -0.000 C 
BRANCH  22  23
ATOM     23  C   UNL     1     163.300 150.880 164.063  1.00  0.00    -0.000 C 
BRANCH  23  24
ATOM     24  C   UNL     1     164.440 151.913 164.054  1.00  0.00    -0.000 C 
BRANCH  24  25
ATOM     25  C   UNL     1     165.492 151.639 165.141  1.00  0.00    -0.003 C 
ATOM     26  C   UNL     1     166.843 151.219 164.562  1.00  0.00     0.004 C 
ENDBRANCH  24  25
ENDBRANCH  23  24
ENDBRANCH  22  23
ENDBRANCH  21  22
ENDBRANCH  20  21
ENDBRANCH  19  20
ENDBRANCH  18  19
ENDBRANCH  17  18
ENDBRANCH  16  17
ENDBRANCH  15  16
ENDBRANCH   1  15
TORSDOF 22
ENDMDL
MODEL 4
REMARK VINA RESULT:    -3.167      3.519      6.038
REMARK INTER + INTRA:         -11.392
REMARK INTER:                  -7.368
REMARK INTRA:                  -4.024
REMARK UNBOUND:                -4.151
REMARK SMILES CCCCCCCCCCCCCCCCCCCCCCCC(=O)[O-]
REMARK SMILES IDX 13 1 14 2 15 3 16 4 17 5 18 6 19 7 20 8 21 9 22 10 23 11
REMARK SMILES IDX 24 12 25 13 26 14 12 15 11 16 10 17 9 18 8 19 7 20 6 21 5 22
REMARK SMILES IDX 4 23 3 24 2 25 1 26
REMARK H PARENT
REMARK Flexibility Score: inf
ROOT
ATOM      1  C   UNL     1     161.096 150.476 163.952  1.00  0.00     0.000 C 
ENDROOT
BRANCH   1   2
ATOM      2  C   UNL     1     160.778 151.509 162.856  1.00  0.00     0.000 C 
BRANCH   2   3
ATOM      3  C   UNL     1     159.958 152.697 163.385  1.00  0.00     0.000 C 
BRANCH   3   4
ATOM      4  C   UNL     1     160.834 153.784 164.029  1.00  0.00     0.000 C 
BRANCH   4   5
ATOM      5  C   UNL     1     162.134 154.032 163.246  1.00  0.00     0.000 C 
BRANCH   5   6
ATOM      6  C   UNL     1     162.035 155.252 162.313  1.00  0.00     0.000 C 
BRANCH   6   7
ATOM      7  C   UNL     1     162.272 154.891 160.838  1.00  0.00     0.000 C 
BRANCH   7   8
ATOM      8  C   UNL     1     163.273 153.734 160.669  1.00  0.00     0.000 C 
BRANCH   8   9
ATOM      9  C   UNL     1     162.723 152.600 159.789  1.00  0.00     0.000 C 
BRANCH   9  10
ATOM     10  C   UNL     1     163.108 152.756 158.308  1.00  0.00     0.006 C 
BRANCH  10  11
ATOM     11  C   UNL     1     161.974 153.372 157.477  1.00  0.00     0.053 C 
BRANCH  11  12
ATOM     12  C   UNL     1     162.408 154.632 156.792  1.00  0.00     0.041 C 
ATOM     13  O   UNL     1     163.104 155.482 157.407  1.00  0.00    -0.550 OA
ATOM     14  O   UNL     1     162.071 154.852 155.462  1.00  0.00    -0.550 OA
ENDBRANCH  11  12
ENDBRANCH  10  11
ENDBRANCH   9  10
ENDBRANCH   8   9
ENDBRANCH   7   8
ENDBRANCH   6   7
ENDBRANCH   5   6
ENDBRANCH   4   5
ENDBRANCH   3   4
ENDBRANCH   2   3
ENDBRANCH   1   2
BRANCH   1  15
ATOM     15  C   UNL     1     162.606 150.254 164.129  1.00  0.00     0.000 C 
BRANCH  15  16
ATOM     16  C   UNL     1     163.409 150.590 162.860  1.00  0.00     0.000 C 
BRANCH  16  17
ATOM     17  C   UNL     1     164.696 151.371 163.164  1.00  0.00     0.000 C 
BRANCH  17  18
ATOM     18  C   UNL     1     164.847 151.704 164.656  1.00  0.00    -0.000 C 
BRANCH  18  19
ATOM     19  C   UNL     1     165.785 152.905 164.859  1.00  0.00    -0.000 C 
BRANCH  19  20
ATOM     20  C   UNL     1     165.755 153.887 163.678  1.00  0.00    -0.000 C 
BRANCH  20  21
ATOM     21  C   UNL     1     165.434 155.326 164.111  1.00  0.00    -0.000 C 
BRANCH  21  22
ATOM     22  C   UNL     1     164.956 155.368 165.570  1.00  0.00    -0.000 C 
BRANCH  22  23
ATOM     23  C   UNL     1     163.594 156.062 165.726  1.00  0.00    -0.000 C 
BRANCH  23  24
ATOM     24  C   UNL     1     163.538 157.422 165.008  1.00  0.00    -0.000 C 
BRANCH  24  25
ATOM     25  C   UNL     1     162.302 158.245 165.404  1.00  0.00    -0.003 C 
ATOM     26  C   UNL     1     162.566 159.751 165.385  1.00  0.00     0.004 C 
ENDBRANCH  24  25
ENDBRANCH  23  24
ENDBRANCH  22  23
ENDBRANCH  21  22
ENDBRANCH  20  21
ENDBRANCH  19  20
ENDBRANCH  18  19
ENDBRANCH  17  18
ENDBRANCH  16  17
ENDBRANCH  15  16
ENDBRANCH   1  15
TORSDOF 22
ENDMDL
MODEL 5
REMARK VINA RESULT:    -3.163      3.346      6.302
REMARK INTER + INTRA:         -11.382
REMARK INTER:                  -7.904
REMARK INTRA:                  -3.479
REMARK UNBOUND:                -4.151
REMARK SMILES CCCCCCCCCCCCCCCCCCCCCCCC(=O)[O-]
REMARK SMILES IDX 13 1 14 2 15 3 16 4 17 5 18 6 19 7 20 8 21 9 22 10 23 11
REMARK SMILES IDX 24 12 25 13 26 14 12 15 11 16 10 17 9 18 8 19 7 20 6 21 5 22
REMARK SMILES IDX 4 23 3 24 2 25 1 26
REMARK H PARENT
REMARK Flexibility Score: inf
ROOT
ATOM      1  C   UNL     1     165.693 154.181 160.411  1.00  0.00     0.000 C 
ENDROOT
BRANCH   1   2
ATOM      2  C   UNL     1     166.880 155.136 160.631  1.00  0.00     0.000 C 
BRANCH   2   3
ATOM      3  C   UNL     1     167.673 154.809 161.907  1.00  0.00     0.000 C 
BRANCH   3   4
ATOM      4  C   UNL     1     167.761 156.002 162.873  1.00  0.00     0.000 C 
BRANCH   4   5
ATOM      5  C   UNL     1     167.214 155.668 164.271  1.00  0.00     0.000 C 
BRANCH   5   6
ATOM      6  C   UNL     1     165.806 156.245 164.506  1.00  0.00     0.000 C 
BRANCH   6   7
ATOM      7  C   UNL     1     164.694 155.215 164.249  1.00  0.00     0.000 C 
BRANCH   7   8
ATOM      8  C   UNL     1     165.101 153.792 164.670  1.00  0.00     0.000 C 
BRANCH   8   9
ATOM      9  C   UNL     1     164.958 152.774 163.527  1.00  0.00     0.000 C 
BRANCH   9  10
ATOM     10  C   UNL     1     163.827 151.760 163.773  1.00  0.00     0.006 C 
BRANCH  10  11
ATOM     11  C   UNL     1     164.364 150.349 164.051  1.00  0.00     0.053 C 
BRANCH  11  12
ATOM     12  C   UNL     1     164.386 150.042 165.517  1.00  0.00     0.041 C 
ATOM     13  O   UNL     1     163.593 149.191 166.000  1.00  0.00    -0.550 OA
ATOM     14  O   UNL     1     165.307 150.672 166.346  1.00  0.00    -0.550 OA
ENDBRANCH  11  12
ENDBRANCH  10  11
ENDBRANCH   9  10
ENDBRANCH   8   9
ENDBRANCH   7   8
ENDBRANCH   6   7
ENDBRANCH   5   6
ENDBRANCH   4   5
ENDBRANCH   3   4
ENDBRANCH   2   3
ENDBRANCH   1   2
BRANCH   1  15
ATOM     15  C   UNL     1     164.336 154.888 160.552  1.00  0.00     0.000 C 
BRANCH  15  16
ATOM     16  C   UNL     1     163.407 154.636 159.351  1.00  0.00     0.000 C 
BRANCH  16  17
ATOM     17  C   UNL     1     161.988 154.230 159.777  1.00  0.00     0.000 C 
BRANCH  17  18
ATOM     18  C   UNL     1     161.759 154.380 161.289  1.00  0.00    -0.000 C 
BRANCH  18  19
ATOM     19  C   UNL     1     160.874 153.244 161.826  1.00  0.00    -0.000 C 
BRANCH  19  20
ATOM     20  C   UNL     1     160.482 153.443 163.298  1.00  0.00    -0.000 C 
BRANCH  20  21
ATOM     21  C   UNL     1     161.458 154.358 164.054  1.00  0.00    -0.000 C 
BRANCH  21  22
ATOM     22  C   UNL     1     160.747 155.622 164.560  1.00  0.00    -0.000 C 
BRANCH  22  23
ATOM     23  C   UNL     1     161.416 156.914 164.064  1.00  0.00    -0.000 C 
BRANCH  23  24
ATOM     24  C   UNL     1     161.781 157.869 165.213  1.00  0.00    -0.000 C 
BRANCH  24  25
ATOM     25  C   UNL     1     163.010 158.735 164.891  1.00  0.00    -0.003 C 
ATOM     26  C   UNL     1     162.957 160.107 165.561  1.00  0.00     0.004 C 
ENDBRANCH  24  25
ENDBRANCH  23  24
ENDBRANCH  22  23
ENDBRANCH  21  22
ENDBRANCH  20  21
ENDBRANCH  19  20
ENDBRANCH  18  19
ENDBRANCH  17  18
ENDBRANCH  16  17
ENDBRANCH  15  16
ENDBRANCH   1  15
TORSDOF 22
ENDMDL
MODEL 6
REMARK VINA RESULT:    -3.149      3.493      6.402
REMARK INTER + INTRA:         -11.349
REMARK INTER:                  -7.558
REMARK INTRA:                  -3.791
REMARK UNBOUND:                -4.151
REMARK SMILES CCCCCCCCCCCCCCCCCCCCCCCC(=O)[O-]
REMARK SMILES IDX 13 1 14 2 15 3 16 4 17 5 18 6 19 7 20 8 21 9 22 10 23 11
REMARK SMILES IDX 24 12 25 13 26 14 12 15 11 16 10 17 9 18 8 19 7 20 6 21 5 22
REMARK SMILES IDX 4 23 3 24 2 25 1 26
REMARK H PARENT
REMARK Flexibility Score: inf
ROOT
ATOM      1  C   UNL     1     162.162 156.041 166.304  1.00  0.00     0.000 C 
ENDROOT
BRANCH   1   2
ATOM      2  C   UNL     1     163.634 156.023 166.754  1.00  0.00     0.000 C 
BRANCH   2   3
ATOM      3  C   UNL     1     164.520 155.160 165.840  1.00  0.00     0.000 C 
BRANCH   3   4
ATOM      4  C   UNL     1     165.273 155.989 164.787  1.00  0.00     0.000 C 
BRANCH   4   5
ATOM      5  C   UNL     1     165.666 155.157 163.556  1.00  0.00     0.000 C 
BRANCH   5   6
ATOM      6  C   UNL     1     167.173 154.844 163.514  1.00  0.00     0.000 C 
BRANCH   6   7
ATOM      7  C   UNL     1     167.723 154.769 162.081  1.00  0.00     0.000 C 
BRANCH   7   8
ATOM      8  C   UNL     1     166.664 155.132 161.024  1.00  0.00     0.000 C 
BRANCH   8   9
ATOM      9  C   UNL     1     166.969 154.522 159.647  1.00  0.00     0.000 C 
BRANCH   9  10
ATOM     10  C   UNL     1     165.746 154.522 158.713  1.00  0.00     0.006 C 
BRANCH  10  11
ATOM     11  C   UNL     1     164.458 154.926 159.446  1.00  0.00     0.053 C 
BRANCH  11  12
ATOM     12  C   UNL     1     163.240 154.366 158.779  1.00  0.00     0.041 C 
ATOM     13  O   UNL     1     162.461 155.122 158.140  1.00  0.00    -0.550 OA
ATOM     14  O   UNL     1     162.981 153.002 158.835  1.00  0.00    -0.550 OA
ENDBRANCH  11  12
ENDBRANCH  10  11
ENDBRANCH   9  10
ENDBRANCH   8   9
ENDBRANCH   7   8
ENDBRANCH   6   7
ENDBRANCH   5   6
ENDBRANCH   4   5
ENDBRANCH   3   4
ENDBRANCH   2   3
ENDBRANCH   1   2
BRANCH   1  15
ATOM     15  C   UNL     1     161.810 157.300 165.496  1.00  0.00     0.000 C 
BRANCH  15  16
ATOM     16  C   UNL     1     161.732 157.031 163.983  1.00  0.00     0.000 C 
BRANCH  16  17
ATOM     17  C   UNL     1     161.442 155.558 163.658  1.00  0.00     0.000 C 
BRANCH  17  18
ATOM     18  C   UNL     1     162.122 155.094 162.360  1.00  0.00    -0.000 C 
BRANCH  18  19
ATOM     19  C   UNL     1     162.292 153.567 162.345  1.00  0.00    -0.000 C 
BRANCH  19  20
ATOM     20  C   UNL     1     162.571 152.987 163.740  1.00  0.00    -0.000 C 
BRANCH  20  21
ATOM     21  C   UNL     1     162.355 151.467 163.804  1.00  0.00    -0.000 C 
BRANCH  21  22
ATOM     22  C   UNL     1     163.647 150.746 164.220  1.00  0.00    -0.000 C 
BRANCH  22  23
ATOM     23  C   UNL     1     164.859 151.689 164.271  1.00  0.00    -0.000 C 
BRANCH  23  24
ATOM     24  C   UNL     1     165.608 151.616 165.613  1.00  0.00    -0.000 C 
BRANCH  24  25
ATOM     25  C   UNL     1     166.932 150.843 165.506  1.00  0.00    -0.003 C 
ATOM     26  C   UNL     1     167.880 151.437 164.465  1.00  0.00     0.004 C 
ENDBRANCH  24  25
ENDBRANCH  23  24
ENDBRANCH  22  23
ENDBRANCH  21  22
ENDBRANCH  20  21
ENDBRANCH  19  20
ENDBRANCH  18  19
ENDBRANCH  17  18
ENDBRANCH  16  17
ENDBRANCH  15  16
ENDBRANCH   1  15
TORSDOF 22
ENDMDL
MODEL 7
REMARK VINA RESULT:    -3.145      3.752      6.327
REMARK INTER + INTRA:         -11.341
REMARK INTER:                  -7.493
REMARK INTRA:                  -3.848
REMARK UNBOUND:                -4.151
REMARK SMILES CCCCCCCCCCCCCCCCCCCCCCCC(=O)[O-]
REMARK SMILES IDX 13 1 14 2 15 3 16 4 17 5 18 6 19 7 20 8 21 9 22 10 23 11
REMARK SMILES IDX 24 12 25 13 26 14 12 15 11 16 10 17 9 18 8 19 7 20 6 21 5 22
REMARK SMILES IDX 4 23 3 24 2 25 1 26
REMARK H PARENT
REMARK Flexibility Score: inf
ROOT
ATOM      1  C   UNL     1     164.726 155.130 165.790  1.00  0.00     0.000 C 
ENDROOT
BRANCH   1   2
ATOM      2  C   UNL     1     163.841 156.376 165.611  1.00  0.00     0.000 C 
BRANCH   2   3
ATOM      3  C   UNL     1     162.429 156.185 166.188  1.00  0.00     0.000 C 
BRANCH   3   4
ATOM      4  C   UNL     1     161.344 156.133 165.099  1.00  0.00     0.000 C 
BRANCH   4   5
ATOM      5  C   UNL     1     161.906 156.415 163.696  1.00  0.00     0.000 C 
BRANCH   5   6
ATOM      6  C   UNL     1     161.733 155.220 162.741  1.00  0.00     0.000 C 
BRANCH   6   7
ATOM      7  C   UNL     1     161.490 153.897 163.486  1.00  0.00     0.000 C 
BRANCH   7   8
ATOM      8  C   UNL     1     162.790 153.109 163.725  1.00  0.00     0.000 C 
BRANCH   8   9
ATOM      9  C   UNL     1     162.580 151.588 163.661  1.00  0.00     0.000 C 
BRANCH   9  10
ATOM     10  C   UNL     1     163.825 150.837 163.157  1.00  0.00     0.006 C 
BRANCH  10  11
ATOM     11  C   UNL     1     164.652 150.251 164.309  1.00  0.00     0.053 C 
BRANCH  11  12
ATOM     12  C   UNL     1     165.715 151.201 164.770  1.00  0.00     0.041 C 
ATOM     13  O   UNL     1     166.593 151.610 163.965  1.00  0.00    -0.550 OA
ATOM     14  O   UNL     1     165.716 151.661 166.081  1.00  0.00    -0.550 OA
ENDBRANCH  11  12
ENDBRANCH  10  11
ENDBRANCH   9  10
ENDBRANCH   8   9
ENDBRANCH   7   8
ENDBRANCH   6   7
ENDBRANCH   5   6
ENDBRANCH   4   5
ENDBRANCH   3   4
ENDBRANCH   2   3
ENDBRANCH   1   2
BRANCH   1  15
ATOM     15  C   UNL     1     165.797 155.008 164.695  1.00  0.00     0.000 C 
BRANCH  15  16
ATOM     16  C   UNL     1     166.242 156.374 164.144  1.00  0.00     0.000 C 
BRANCH  16  17
ATOM     17  C   UNL     1     167.720 156.390 163.726  1.00  0.00     0.000 C 
BRANCH  17  18
ATOM     18  C   UNL     1     168.073 155.251 162.758  1.00  0.00    -0.000 C 
BRANCH  18  19
ATOM     19  C   UNL     1     168.037 155.736 161.301  1.00  0.00    -0.000 C 
BRANCH  19  20
ATOM     20  C   UNL     1     167.201 154.822 160.391  1.00  0.00    -0.000 C 
BRANCH  20  21
ATOM     21  C   UNL     1     166.320 153.843 161.182  1.00  0.00    -0.000 C 
BRANCH  21  22
ATOM     22  C   UNL     1     164.845 154.272 161.137  1.00  0.00    -0.000 C 
BRANCH  22  23
ATOM     23  C   UNL     1     164.097 153.686 159.928  1.00  0.00    -0.000 C 
BRANCH  23  24
ATOM     24  C   UNL     1     163.073 154.669 159.334  1.00  0.00    -0.000 C 
BRANCH  24  25
ATOM     25  C   UNL     1     163.431 155.099 157.903  1.00  0.00    -0.003 C 
ATOM     26  C   UNL     1     164.803 154.592 157.461  1.00  0.00     0.004 C 
ENDBRANCH  24  25
ENDBRANCH  23  24
ENDBRANCH  22  23
ENDBRANCH  21  22
ENDBRANCH  20  21
ENDBRANCH  19  20
ENDBRANCH  18  19
ENDBRANCH  17  18
ENDBRANCH  16  17
ENDBRANCH  15  16
ENDBRANCH   1  15
TORSDOF 22
ENDMDL
MODEL 8
REMARK VINA RESULT:    -3.122     10.296     12.960
REMARK INTER + INTRA:         -11.288
REMARK INTER:                  -7.118
REMARK INTRA:                  -4.170
REMARK UNBOUND:                -4.151
REMARK SMILES CCCCCCCCCCCCCCCCCCCCCCCC(=O)[O-]
REMARK SMILES IDX 13 1 14 2 15 3 16 4 17 5 18 6 19 7 20 8 21 9 22 10 23 11
REMARK SMILES IDX 24 12 25 13 26 14 12 15 11 16 10 17 9 18 8 19 7 20 6 21 5 22
REMARK SMILES IDX 4 23 3 24 2 25 1 26
REMARK H PARENT
REMARK Flexibility Score: inf
ROOT
ATOM      1  C   UNL     1     160.151 156.763 150.918  1.00  0.00     0.000 C 
ENDROOT
BRANCH   1   2
ATOM      2  C   UNL     1     159.665 155.303 150.899  1.00  0.00     0.000 C 
BRANCH   2   3
ATOM      3  C   UNL     1     159.481 154.723 152.311  1.00  0.00     0.000 C 
BRANCH   3   4
ATOM      4  C   UNL     1     158.612 155.617 153.211  1.00  0.00     0.000 C 
BRANCH   4   5
ATOM      5  C   UNL     1     157.601 154.810 154.041  1.00  0.00     0.000 C 
BRANCH   5   6
ATOM      6  C   UNL     1     158.021 153.339 154.213  1.00  0.00     0.000 C 
BRANCH   6   7
ATOM      7  C   UNL     1     158.815 153.097 155.507  1.00  0.00     0.000 C 
BRANCH   7   8
ATOM      8  C   UNL     1     159.930 152.053 155.327  1.00  0.00     0.000 C 
BRANCH   8   9
ATOM      9  C   UNL     1     161.318 152.692 155.165  1.00  0.00     0.000 C 
BRANCH   9  10
ATOM     10  C   UNL     1     161.310 154.207 155.434  1.00  0.00     0.006 C 
BRANCH  10  11
ATOM     11  C   UNL     1     162.611 154.685 156.094  1.00  0.00     0.053 C 
BRANCH  11  12
ATOM     12  C   UNL     1     162.488 154.747 157.585  1.00  0.00     0.041 C 
ATOM     13  O   UNL     1     161.464 154.287 158.157  1.00  0.00    -0.550 OA
ATOM     14  O   UNL     1     163.519 155.284 158.347  1.00  0.00    -0.550 OA
ENDBRANCH  11  12
ENDBRANCH  10  11
ENDBRANCH   9  10
ENDBRANCH   8   9
ENDBRANCH   7   8
ENDBRANCH   6   7
ENDBRANCH   5   6
ENDBRANCH   4   5
ENDBRANCH   3   4
ENDBRANCH   2   3
ENDBRANCH   1   2
BRANCH   1  15
ATOM     15  C   UNL     1     159.434 157.635 149.876  1.00  0.00     0.000 C 
BRANCH  15  16
ATOM     16  C   UNL     1     158.596 158.756 150.515  1.00  0.00     0.000 C 
BRANCH  16  17
ATOM     17  C   UNL     1     157.308 158.233 151.168  1.00  0.00     0.000 C 
BRANCH  17  18
ATOM     18  C   UNL     1     156.511 157.302 150.241  1.00  0.00    -0.000 C 
BRANCH  18  19
ATOM     19  C   UNL     1     155.801 156.202 151.045  1.00  0.00    -0.000 C 
BRANCH  19  20
ATOM     20  C   UNL     1     156.045 154.797 150.473  1.00  0.00    -0.000 C 
BRANCH  20  21
ATOM     21  C   UNL     1     155.282 153.704 151.237  1.00  0.00    -0.000 C 
BRANCH  21  22
ATOM     22  C   UNL     1     156.001 152.351 151.124  1.00  0.00    -0.000 C 
BRANCH  22  23
ATOM     23  C   UNL     1     157.353 152.459 150.402  1.00  0.00    -0.000 C 
BRANCH  23  24
ATOM     24  C   UNL     1     158.169 151.156 150.476  1.00  0.00    -0.000 C 
BRANCH  24  25
ATOM     25  C   UNL     1     158.954 151.027 151.791  1.00  0.00    -0.003 C 
ATOM     26  C   UNL     1     159.408 149.594 152.068  1.00  0.00     0.004 C 
ENDBRANCH  24  25
ENDBRANCH  23  24
ENDBRANCH  22  23
ENDBRANCH  21  22
ENDBRANCH  20  21
ENDBRANCH  19  20
ENDBRANCH  18  19
ENDBRANCH  17  18
ENDBRANCH  16  17
ENDBRANCH  15  16
ENDBRANCH   1  15
TORSDOF 22
ENDMDL
MODEL 9
REMARK VINA RESULT:    -3.100      2.889      6.173
REMARK INTER + INTRA:         -11.237
REMARK INTER:                  -7.475
REMARK INTRA:                  -3.762
REMARK UNBOUND:                -4.151
REMARK SMILES CCCCCCCCCCCCCCCCCCCCCCCC(=O)[O-]
REMARK SMILES IDX 13 1 14 2 15 3 16 4 17 5 18 6 19 7 20 8 21 9 22 10 23 11
REMARK SMILES IDX 24 12 25 13 26 14 12 15 11 16 10 17 9 18 8 19 7 20 6 21 5 22
REMARK SMILES IDX 4 23 3 24 2 25 1 26
REMARK H PARENT
REMARK Flexibility Score: inf
ROOT
ATOM      1  C   UNL     1     167.064 154.758 162.860  1.00  0.00     0.000 C 
ENDROOT
BRANCH   1   2
ATOM      2  C   UNL     1     167.144 155.473 161.500  1.00  0.00     0.000 C 
BRANCH   2   3
ATOM      3  C   UNL     1     166.260 154.810 160.431  1.00  0.00     0.000 C 
BRANCH   3   4
ATOM      4  C   UNL     1     165.130 153.961 161.038  1.00  0.00     0.000 C 
BRANCH   4   5
ATOM      5  C   UNL     1     163.735 154.453 160.620  1.00  0.00     0.000 C 
BRANCH   5   6
ATOM      6  C   UNL     1     162.623 153.920 161.541  1.00  0.00     0.000 C 
BRANCH   6   7
ATOM      7  C   UNL     1     161.994 155.021 162.410  1.00  0.00     0.000 C 
BRANCH   7   8
ATOM      8  C   UNL     1     161.912 154.623 163.894  1.00  0.00     0.000 C 
BRANCH   8   9
ATOM      9  C   UNL     1     161.787 155.839 164.826  1.00  0.00     0.000 C 
BRANCH   9  10
ATOM     10  C   UNL     1     162.107 157.167 164.117  1.00  0.00     0.006 C 
BRANCH  10  11
ATOM     11  C   UNL     1     163.012 158.072 164.965  1.00  0.00     0.053 C 
BRANCH  11  12
ATOM     12  C   UNL     1     162.238 159.173 165.623  1.00  0.00     0.041 C 
ATOM     13  O   UNL     1     160.985 159.224 165.508  1.00  0.00    -0.550 OA
ATOM     14  O   UNL     1     162.898 160.124 166.392  1.00  0.00    -0.550 OA
ENDBRANCH  11  12
ENDBRANCH  10  11
ENDBRANCH   9  10
ENDBRANCH   8   9
ENDBRANCH   7   8
ENDBRANCH   6   7
ENDBRANCH   5   6
ENDBRANCH   4   5
ENDBRANCH   3   4
ENDBRANCH   2   3
ENDBRANCH   1   2
BRANCH   1  15
ATOM     15  C   UNL     1     166.517 155.666 163.971  1.00  0.00     0.000 C 
BRANCH  15  16
ATOM     16  C   UNL     1     165.476 154.959 164.858  1.00  0.00     0.000 C 
BRANCH  16  17
ATOM     17  C   UNL     1     165.219 153.508 164.425  1.00  0.00     0.000 C 
BRANCH  17  18
ATOM     18  C   UNL     1     165.497 152.497 165.548  1.00  0.00    -0.000 C 
BRANCH  18  19
ATOM     19  C   UNL     1     166.594 151.504 165.135  1.00  0.00    -0.000 C 
BRANCH  19  20
ATOM     20  C   UNL     1     166.138 150.041 165.235  1.00  0.00    -0.000 C 
BRANCH  20  21
ATOM     21  C   UNL     1     164.643 149.862 164.926  1.00  0.00    -0.000 C 
BRANCH  21  22
ATOM     22  C   UNL     1     164.410 149.680 163.419  1.00  0.00    -0.000 C 
BRANCH  22  23
ATOM     23  C   UNL     1     163.223 150.507 162.901  1.00  0.00    -0.000 C 
BRANCH  23  24
ATOM     24  C   UNL     1     162.342 151.054 164.038  1.00  0.00    -0.000 C 
BRANCH  24  25
ATOM     25  C   UNL     1     160.869 150.641 163.893  1.00  0.00    -0.003 C 
ATOM     26  C   UNL     1     160.104 151.521 162.905  1.00  0.00     0.004 C 
ENDBRANCH  24  25
ENDBRANCH  23  24
ENDBRANCH  22  23
ENDBRANCH  21  22
ENDBRANCH  20  21
ENDBRANCH  19  20
ENDBRANCH  18  19
ENDBRANCH  17  18
ENDBRANCH  16  17
ENDBRANCH  15  16
ENDBRANCH   1  15
TORSDOF 22
ENDMDL
