MODEL 1
REMARK VINA RESULT:    -6.945      0.000      0.000
REMARK INTER + INTRA:          -7.699
REMARK INTER:                  -7.554
REMARK INTRA:                  -0.144
REMARK UNBOUND:                -0.144
REMARK SMILES CC1(C)CC[C@@]2(C(=O)[O-])CC[C@@]3(C)C(=CC[C@H]4[C@@]5(C)CC[C@H](O)C(C)(C)[C@H]5CC[C@]43C)[C@H]2C1
REMARK SMILES IDX 6 1 5 2 10 3 32 4 4 5 11 6 14 7 33 8 2 9 12 10 15 11 1 12
REMARK SMILES IDX 3 13 13 14 30 15 16 16 17 17 29 18 31 19 18 20 28 21 27 22
REMARK SMILES IDX 20 23 19 24 24 25 21 26 22 27 25 28 26 29 7 30 8 31 9 32
REMARK SMILES IDX 23 33
REMARK H PARENT 23 34
REMARK Flexibility Score: inf
ROOT
ATOM      1  C   UNL     1     106.389  48.433 139.965  1.00  0.00     0.017 C 
ATOM      2  C   UNL     1     106.043  49.893 140.427  1.00  0.00     0.014 C 
ATOM      3  C   UNL     1     106.032  47.468 141.117  1.00  0.00     0.014 C 
ATOM      4  C   UNL     1     105.571  48.048 138.684  1.00  0.00     0.028 C 
ATOM      5  C   UNL     1     105.585  50.785 139.265  1.00  0.00     0.007 C 
ATOM      6  C   UNL     1     106.285  46.001 140.755  1.00  0.00     0.013 C 
ATOM      7  C   UNL     1     105.496  46.543 138.399  1.00  0.00    -0.064 C 
ATOM      8  C   UNL     1     104.172  48.703 138.690  1.00  0.00     0.015 C 
ATOM      9  C   UNL     1     104.266  50.262 138.611  1.00  0.00    -0.035 C 
ATOM     10  C   UNL     1     105.485  45.481 139.507  1.00  0.00    -0.006 C 
ATOM     11  C   UNL     1     105.280  46.186 137.121  1.00  0.00    -0.027 C 
ATOM     12  C   UNL     1     103.047  50.877 139.333  1.00  0.00     0.011 C 
ATOM     13  C   UNL     1     104.227  50.712 137.135  1.00  0.00     0.011 C 
ATOM     14  C   UNL     1     103.996  45.313 139.938  1.00  0.00     0.017 C 
ATOM     15  C   UNL     1     106.092  44.082 138.964  1.00  0.00    -0.020 C 
ATOM     16  C   UNL     1     105.390  44.792 136.593  1.00  0.00     0.032 C 
ATOM     17  C   UNL     1     105.357  43.634 137.636  1.00  0.00     0.006 C 
ATOM     18  C   UNL     1     107.617  44.215 138.650  1.00  0.00     0.008 C 
ATOM     19  C   UNL     1     105.926  43.006 140.085  1.00  0.00     0.012 C 
ATOM     20  C   UNL     1     105.852  42.220 137.027  1.00  0.00    -0.025 C 
ATOM     21  C   UNL     1     108.175  43.318 137.518  1.00  0.00     0.005 C 
ATOM     22  C   UNL     1     107.411  41.985 137.258  1.00  0.00     0.003 C 
ATOM     23  C   UNL     1     105.462  42.065 135.501  1.00  0.00     0.010 C 
ATOM     24  C   UNL     1     105.044  41.081 137.745  1.00  0.00     0.012 C 
ATOM     25  C   UNL     1     108.116  41.101 136.140  1.00  0.00    -0.006 C 
ATOM     26  C   UNL     1     106.550  42.418 134.476  1.00  0.00     0.033 C 
ATOM     27  C   UNL     1     107.925  41.745 134.725  1.00  0.00     0.120 C 
ATOM     28  C   UNL     1     107.582  39.638 136.180  1.00  0.00     0.014 C 
ATOM     29  C   UNL     1     109.645  40.977 136.412  1.00  0.00     0.014 C 
ENDROOT
BRANCH   1  30
ATOM     30  C   UNL     1     107.893  48.353 139.706  1.00  0.00     0.048 C 
ATOM     31  O   UNL     1     108.728  48.850 140.509  1.00  0.00    -0.550 OA
ATOM     32  O   UNL     1     108.364  47.741 138.549  1.00  0.00    -0.550 OA
ENDBRANCH   1  30
BRANCH  27  33
ATOM     33  O   UNL     1     108.247  40.838 133.697  1.00  0.00    -0.393 OA
ATOM     34  H   UNL     1     107.589  40.096 133.722  1.00  0.00     0.210 HD
ENDBRANCH  27  33
TORSDOF 2
ENDMDL
MODEL 2
REMARK VINA RESULT:    -6.935      2.822      7.727
REMARK INTER + INTRA:          -7.687
REMARK INTER:                  -7.550
REMARK INTRA:                  -0.137
REMARK UNBOUND:                -0.144
REMARK SMILES CC1(C)CC[C@@]2(C(=O)[O-])CC[C@@]3(C)C(=CC[C@H]4[C@@]5(C)CC[C@H](O)C(C)(C)[C@H]5CC[C@]43C)[C@H]2C1
REMARK SMILES IDX 6 1 5 2 10 3 32 4 4 5 11 6 14 7 33 8 2 9 12 10 15 11 1 12
REMARK SMILES IDX 3 13 13 14 30 15 16 16 17 17 29 18 31 19 18 20 28 21 27 22
REMARK SMILES IDX 20 23 19 24 24 25 21 26 22 27 25 28 26 29 7 30 8 31 9 32
REMARK SMILES IDX 23 33
REMARK H PARENT 23 34
REMARK Flexibility Score: inf
ROOT
ATOM      1  C   UNL     1     107.329  41.168 136.251  1.00  0.00     0.017 C 
ATOM      2  C   UNL     1     108.460  40.129 136.574  1.00  0.00     0.014 C 
ATOM      3  C   UNL     1     106.008  40.393 136.050  1.00  0.00     0.014 C 
ATOM      4  C   UNL     1     107.163  42.191 137.428  1.00  0.00     0.028 C 
ATOM      5  C   UNL     1     109.526  40.693 137.524  1.00  0.00     0.007 C 
ATOM      6  C   UNL     1     104.819  41.318 135.776  1.00  0.00     0.013 C 
ATOM      7  C   UNL     1     105.839  42.964 137.425  1.00  0.00    -0.064 C 
ATOM      8  C   UNL     1     107.440  41.527 138.796  1.00  0.00     0.015 C 
ATOM      9  C   UNL     1     108.928  41.061 138.919  1.00  0.00    -0.035 C 
ATOM     10  C   UNL     1     104.523  42.367 136.909  1.00  0.00    -0.006 C 
ATOM     11  C   UNL     1     105.840  44.154 138.049  1.00  0.00    -0.027 C 
ATOM     12  C   UNL     1     108.995  39.834 139.855  1.00  0.00     0.011 C 
ATOM     13  C   UNL     1     109.776  42.190 139.545  1.00  0.00     0.011 C 
ATOM     14  C   UNL     1     103.890  41.597 138.108  1.00  0.00     0.017 C 
ATOM     15  C   UNL     1     103.533  43.533 136.382  1.00  0.00    -0.020 C 
ATOM     16  C   UNL     1     104.733  45.157 137.976  1.00  0.00     0.032 C 
ATOM     17  C   UNL     1     103.344  44.646 137.492  1.00  0.00     0.006 C 
ATOM     18  C   UNL     1     104.109  44.223 135.102  1.00  0.00     0.008 C 
ATOM     19  C   UNL     1     102.165  42.884 136.002  1.00  0.00     0.012 C 
ATOM     20  C   UNL     1     102.333  45.844 137.091  1.00  0.00    -0.025 C 
ATOM     21  C   UNL     1     103.747  45.714 134.894  1.00  0.00     0.005 C 
ATOM     22  C   UNL     1     102.412  46.195 135.538  1.00  0.00     0.003 C 
ATOM     23  C   UNL     1     102.554  47.128 137.989  1.00  0.00     0.010 C 
ATOM     24  C   UNL     1     100.875  45.378 137.444  1.00  0.00     0.012 C 
ATOM     25  C   UNL     1     102.094  47.713 135.191  1.00  0.00    -0.006 C 
ATOM     26  C   UNL     1     103.442  48.233 137.397  1.00  0.00     0.033 C 
ATOM     27  C   UNL     1     103.067  48.671 135.958  1.00  0.00     0.120 C 
ATOM     28  C   UNL     1     100.603  48.046 135.499  1.00  0.00     0.014 C 
ATOM     29  C   UNL     1     102.257  47.979 133.665  1.00  0.00     0.014 C 
ENDROOT
BRANCH   1  30
ATOM     30  C   UNL     1     107.686  41.880 134.946  1.00  0.00     0.048 C 
ATOM     31  O   UNL     1     108.121  41.246 133.947  1.00  0.00    -0.550 OA
ATOM     32  O   UNL     1     107.552  43.261 134.853  1.00  0.00    -0.550 OA
ENDBRANCH   1  30
BRANCH  27  33
ATOM     33  O   UNL     1     102.612  50.003 135.928  1.00  0.00    -0.393 OA
ATOM     34  H   UNL     1     101.874  50.092 136.587  1.00  0.00     0.210 HD
ENDBRANCH  27  33
TORSDOF 2
ENDMDL
MODEL 3
REMARK VINA RESULT:    -6.722      3.221      4.482
REMARK INTER + INTRA:          -7.456
REMARK INTER:                  -7.221
REMARK INTRA:                  -0.235
REMARK UNBOUND:                -0.144
REMARK SMILES CC1(C)CC[C@@]2(C(=O)[O-])CC[C@@]3(C)C(=CC[C@H]4[C@@]5(C)CC[C@H](O)C(C)(C)[C@H]5CC[C@]43C)[C@H]2C1
REMARK SMILES IDX 6 1 5 2 10 3 32 4 4 5 11 6 14 7 33 8 2 9 12 10 15 11 1 12
REMARK SMILES IDX 3 13 13 14 30 15 16 16 17 17 29 18 31 19 18 20 28 21 27 22
REMARK SMILES IDX 20 23 19 24 24 25 21 26 22 27 25 28 26 29 7 30 8 31 9 32
REMARK SMILES IDX 23 33
REMARK H PARENT 23 34
REMARK Flexibility Score: inf
ROOT
ATOM      1  C   UNL     1     101.898  46.176 136.915  1.00  0.00     0.017 C 
ATOM      2  C   UNL     1     100.821  47.237 136.493  1.00  0.00     0.014 C 
ATOM      3  C   UNL     1     101.194  45.081 137.745  1.00  0.00     0.014 C 
ATOM      4  C   UNL     1     102.564  45.529 135.651  1.00  0.00     0.028 C 
ATOM      5  C   UNL     1     101.118  47.867 135.125  1.00  0.00     0.007 C 
ATOM      6  C   UNL     1     102.148  43.961 138.171  1.00  0.00     0.013 C 
ATOM      7  C   UNL     1     103.297  44.208 135.916  1.00  0.00    -0.064 C 
ATOM      8  C   UNL     1     101.558  45.406 134.484  1.00  0.00     0.015 C 
ATOM      9  C   UNL     1     101.090  46.809 133.976  1.00  0.00    -0.035 C 
ATOM     10  C   UNL     1     102.849  43.204 136.986  1.00  0.00    -0.006 C 
ATOM     11  C   UNL     1     104.275  43.883 135.053  1.00  0.00    -0.027 C 
ATOM     12  C   UNL     1      99.657  46.688 133.413  1.00  0.00     0.011 C 
ATOM     13  C   UNL     1     102.016  47.285 132.836  1.00  0.00     0.011 C 
ATOM     14  C   UNL     1     101.779  42.292 136.311  1.00  0.00     0.017 C 
ATOM     15  C   UNL     1     104.106  42.329 137.511  1.00  0.00    -0.020 C 
ATOM     16  C   UNL     1     105.250  42.767 135.249  1.00  0.00     0.032 C 
ATOM     17  C   UNL     1     104.876  41.673 136.294  1.00  0.00     0.006 C 
ATOM     18  C   UNL     1     105.120  43.221 138.299  1.00  0.00     0.008 C 
ATOM     19  C   UNL     1     103.570  41.236 138.489  1.00  0.00     0.012 C 
ATOM     20  C   UNL     1     106.127  40.735 136.705  1.00  0.00    -0.025 C 
ATOM     21  C   UNL     1     106.609  42.799 138.239  1.00  0.00     0.005 C 
ATOM     22  C   UNL     1     106.885  41.285 137.995  1.00  0.00     0.003 C 
ATOM     23  C   UNL     1     107.124  40.517 135.495  1.00  0.00     0.010 C 
ATOM     24  C   UNL     1     105.570  39.298 137.005  1.00  0.00     0.012 C 
ATOM     25  C   UNL     1     108.438  40.947 138.039  1.00  0.00    -0.006 C 
ATOM     26  C   UNL     1     108.356  41.434 135.448  1.00  0.00     0.033 C 
ATOM     27  C   UNL     1     109.163  41.512 136.770  1.00  0.00     0.120 C 
ATOM     28  C   UNL     1     108.661  39.413 138.191  1.00  0.00     0.014 C 
ATOM     29  C   UNL     1     109.108  41.576 139.298  1.00  0.00     0.014 C 
ENDROOT
BRANCH   1  30
ATOM     30  C   UNL     1     102.939  46.868 137.794  1.00  0.00     0.048 C 
ATOM     31  O   UNL     1     102.648  47.305 138.940  1.00  0.00    -0.550 OA
ATOM     32  O   UNL     1     104.235  47.046 137.322  1.00  0.00    -0.550 OA
ENDBRANCH   1  30
BRANCH  27  33
ATOM     33  O   UNL     1     110.449  40.958 136.620  1.00  0.00    -0.393 OA
ATOM     34  H   UNL     1     111.071  41.687 136.360  1.00  0.00     0.210 HD
ENDBRANCH  27  33
TORSDOF 2
ENDMDL
MODEL 4
REMARK VINA RESULT:    -6.717      5.512      7.796
REMARK INTER + INTRA:          -7.451
REMARK INTER:                  -7.238
REMARK INTRA:                  -0.213
REMARK UNBOUND:                -0.144
REMARK SMILES CC1(C)CC[C@@]2(C(=O)[O-])CC[C@@]3(C)C(=CC[C@H]4[C@@]5(C)CC[C@H](O)C(C)(C)[C@H]5CC[C@]43C)[C@H]2C1
REMARK SMILES IDX 6 1 5 2 10 3 32 4 4 5 11 6 14 7 33 8 2 9 12 10 15 11 1 12
REMARK SMILES IDX 3 13 13 14 30 15 16 16 17 17 29 18 31 19 18 20 28 21 27 22
REMARK SMILES IDX 20 23 19 24 24 25 21 26 22 27 25 28 26 29 7 30 8 31 9 32
REMARK SMILES IDX 23 33
REMARK H PARENT 23 34
REMARK Flexibility Score: inf
ROOT
ATOM      1  C   UNL     1      99.290  50.245 133.423  1.00  0.00     0.017 C 
ATOM      2  C   UNL     1      98.790  51.432 132.525  1.00  0.00     0.014 C 
ATOM      3  C   UNL     1      98.459  48.993 133.069  1.00  0.00     0.014 C 
ATOM      4  C   UNL     1     100.809  49.958 133.166  1.00  0.00     0.028 C 
ATOM      5  C   UNL     1      99.914  52.413 132.165  1.00  0.00     0.007 C 
ATOM      6  C   UNL     1      98.898  47.754 133.856  1.00  0.00     0.013 C 
ATOM      7  C   UNL     1     101.293  48.583 133.645  1.00  0.00    -0.064 C 
ATOM      8  C   UNL     1     101.192  50.221 131.692  1.00  0.00     0.015 C 
ATOM      9  C   UNL     1     101.035  51.731 131.317  1.00  0.00    -0.035 C 
ATOM     10  C   UNL     1     100.398  47.337 133.648  1.00  0.00    -0.006 C 
ATOM     11  C   UNL     1     102.603  48.474 133.923  1.00  0.00    -0.027 C 
ATOM     12  C   UNL     1     100.694  51.844 129.815  1.00  0.00     0.011 C 
ATOM     13  C   UNL     1     102.368  52.470 131.564  1.00  0.00     0.011 C 
ATOM     14  C   UNL     1     100.518  46.708 132.226  1.00  0.00     0.017 C 
ATOM     15  C   UNL     1     100.878  46.290 134.785  1.00  0.00    -0.020 C 
ATOM     16  C   UNL     1     103.236  47.303 134.606  1.00  0.00     0.032 C 
ATOM     17  C   UNL     1     102.422  45.975 134.637  1.00  0.00     0.006 C 
ATOM     18  C   UNL     1     100.641  46.871 136.218  1.00  0.00     0.008 C 
ATOM     19  C   UNL     1     100.026  44.989 134.649  1.00  0.00     0.012 C 
ATOM     20  C   UNL     1     103.004  44.901 135.697  1.00  0.00    -0.025 C 
ATOM     21  C   UNL     1     101.623  46.414 137.324  1.00  0.00     0.005 C 
ATOM     22  C   UNL     1     102.292  45.023 137.118  1.00  0.00     0.003 C 
ATOM     23  C   UNL     1     104.579  44.992 135.827  1.00  0.00     0.010 C 
ATOM     24  C   UNL     1     102.751  43.466 135.112  1.00  0.00     0.012 C 
ATOM     25  C   UNL     1     103.210  44.614 138.350  1.00  0.00    -0.006 C 
ATOM     26  C   UNL     1     105.122  45.825 136.997  1.00  0.00     0.033 C 
ATOM     27  C   UNL     1     104.513  45.483 138.381  1.00  0.00     0.120 C 
ATOM     28  C   UNL     1     103.540  43.091 138.307  1.00  0.00     0.014 C 
ATOM     29  C   UNL     1     102.458  44.823 139.698  1.00  0.00     0.014 C 
ENDROOT
BRANCH   1  30
ATOM     30  C   UNL     1      99.035  50.607 134.886  1.00  0.00     0.048 C 
ATOM     31  O   UNL     1      97.883  50.904 135.301  1.00  0.00    -0.550 OA
ATOM     32  O   UNL     1     100.096  50.636 135.786  1.00  0.00    -0.550 OA
ENDBRANCH   1  30
BRANCH  27  33
ATOM     33  O   UNL     1     105.479  44.936 139.247  1.00  0.00    -0.393 OA
ATOM     34  H   UNL     1     105.882  44.146 138.801  1.00  0.00     0.210 HD
ENDBRANCH  27  33
TORSDOF 2
ENDMDL
MODEL 5
REMARK VINA RESULT:    -6.518      5.770      9.345
REMARK INTER + INTRA:          -7.234
REMARK INTER:                  -7.022
REMARK INTRA:                  -0.212
REMARK UNBOUND:                -0.144
REMARK SMILES CC1(C)CC[C@@]2(C(=O)[O-])CC[C@@]3(C)C(=CC[C@H]4[C@@]5(C)CC[C@H](O)C(C)(C)[C@H]5CC[C@]43C)[C@H]2C1
REMARK SMILES IDX 6 1 5 2 10 3 32 4 4 5 11 6 14 7 33 8 2 9 12 10 15 11 1 12
REMARK SMILES IDX 3 13 13 14 30 15 16 16 17 17 29 18 31 19 18 20 28 21 27 22
REMARK SMILES IDX 20 23 19 24 24 25 21 26 22 27 25 28 26 29 7 30 8 31 9 32
REMARK SMILES IDX 23 33
REMARK H PARENT 23 34
REMARK Flexibility Score: inf
ROOT
ATOM      1  C   UNL     1      99.964  50.183 133.042  1.00  0.00     0.017 C 
ATOM      2  C   UNL     1      99.240  49.763 131.714  1.00  0.00     0.014 C 
ATOM      3  C   UNL     1      98.909  50.225 134.170  1.00  0.00     0.014 C 
ATOM      4  C   UNL     1     101.087  49.154 133.411  1.00  0.00     0.028 C 
ATOM      5  C   UNL     1     100.145  48.941 130.784  1.00  0.00     0.007 C 
ATOM      6  C   UNL     1      99.518  50.579 135.531  1.00  0.00     0.013 C 
ATOM      7  C   UNL     1     101.558  49.213 134.869  1.00  0.00    -0.064 C 
ATOM      8  C   UNL     1     100.698  47.718 132.989  1.00  0.00     0.015 C 
ATOM      9  C   UNL     1     100.575  47.588 131.436  1.00  0.00    -0.035 C 
ATOM     10  C   UNL     1     100.632  49.592 136.033  1.00  0.00    -0.006 C 
ATOM     11  C   UNL     1     102.800  48.760 135.116  1.00  0.00    -0.027 C 
ATOM     12  C   UNL     1      99.537  46.495 131.103  1.00  0.00     0.011 C 
ATOM     13  C   UNL     1     101.934  47.157 130.841  1.00  0.00     0.011 C 
ATOM     14  C   UNL     1      99.927  48.274 136.479  1.00  0.00     0.017 C 
ATOM     15  C   UNL     1     101.479  50.237 137.252  1.00  0.00    -0.020 C 
ATOM     16  C   UNL     1     103.529  48.929 136.410  1.00  0.00     0.032 C 
ATOM     17  C   UNL     1     102.675  49.285 137.664  1.00  0.00     0.006 C 
ATOM     18  C   UNL     1     102.083  51.620 136.845  1.00  0.00     0.008 C 
ATOM     19  C   UNL     1     100.511  50.471 138.455  1.00  0.00     0.012 C 
ATOM     20  C   UNL     1     103.566  49.809 138.908  1.00  0.00    -0.025 C 
ATOM     21  C   UNL     1     103.420  52.019 137.517  1.00  0.00     0.005 C 
ATOM     22  C   UNL     1     103.699  51.397 138.917  1.00  0.00     0.003 C 
ATOM     23  C   UNL     1     104.983  49.107 138.957  1.00  0.00     0.010 C 
ATOM     24  C   UNL     1     102.861  49.341 140.231  1.00  0.00     0.012 C 
ATOM     25  C   UNL     1     105.052  51.940 139.553  1.00  0.00    -0.006 C 
ATOM     26  C   UNL     1     106.152  49.879 138.328  1.00  0.00     0.033 C 
ATOM     27  C   UNL     1     106.292  51.350 138.798  1.00  0.00     0.120 C 
ATOM     28  C   UNL     1     105.107  51.624 141.078  1.00  0.00     0.014 C 
ATOM     29  C   UNL     1     105.125  53.493 139.462  1.00  0.00     0.014 C 
ENDROOT
BRANCH   1  30
ATOM     30  C   UNL     1     100.540  51.586 132.854  1.00  0.00     0.048 C 
ATOM     31  O   UNL     1      99.809  52.561 132.531  1.00  0.00    -0.550 OA
ATOM     32  O   UNL     1     101.904  51.801 133.019  1.00  0.00    -0.550 OA
ENDBRANCH   1  30
BRANCH  27  33
ATOM     33  O   UNL     1     107.481  51.546 139.526  1.00  0.00    -0.393 OA
ATOM     34  H   UNL     1     107.777  52.483 139.389  1.00  0.00     0.210 HD
ENDBRANCH  27  33
TORSDOF 2
ENDMDL
MODEL 6
REMARK VINA RESULT:    -6.479      4.484      7.417
REMARK INTER + INTRA:          -7.192
REMARK INTER:                  -6.953
REMARK INTRA:                  -0.239
REMARK UNBOUND:                -0.144
REMARK SMILES CC1(C)CC[C@@]2(C(=O)[O-])CC[C@@]3(C)C(=CC[C@H]4[C@@]5(C)CC[C@H](O)C(C)(C)[C@H]5CC[C@]43C)[C@H]2C1
REMARK SMILES IDX 6 1 5 2 10 3 32 4 4 5 11 6 14 7 33 8 2 9 12 10 15 11 1 12
REMARK SMILES IDX 3 13 13 14 30 15 16 16 17 17 29 18 31 19 18 20 28 21 27 22
REMARK SMILES IDX 20 23 19 24 24 25 21 26 22 27 25 28 26 29 7 30 8 31 9 32
REMARK SMILES IDX 23 33
REMARK H PARENT 23 34
REMARK Flexibility Score: inf
ROOT
ATOM      1  C   UNL     1     105.861  43.581 137.163  1.00  0.00     0.017 C 
ATOM      2  C   UNL     1     107.176  43.112 137.880  1.00  0.00     0.014 C 
ATOM      3  C   UNL     1     104.675  43.323 138.118  1.00  0.00     0.014 C 
ATOM      4  C   UNL     1     105.933  45.109 136.817  1.00  0.00     0.028 C 
ATOM      5  C   UNL     1     108.395  43.961 137.492  1.00  0.00     0.007 C 
ATOM      6  C   UNL     1     103.338  43.792 137.535  1.00  0.00     0.013 C 
ATOM      7  C   UNL     1     104.580  45.765 136.518  1.00  0.00    -0.064 C 
ATOM      8  C   UNL     1     106.729  45.893 137.886  1.00  0.00     0.015 C 
ATOM      9  C   UNL     1     108.229  45.453 137.924  1.00  0.00    -0.035 C 
ATOM     10  C   UNL     1     103.271  45.322 137.185  1.00  0.00    -0.006 C 
ATOM     11  C   UNL     1     104.606  46.866 135.749  1.00  0.00    -0.027 C 
ATOM     12  C   UNL     1     108.773  45.644 139.357  1.00  0.00     0.011 C 
ATOM     13  C   UNL     1     109.057  46.344 136.973  1.00  0.00     0.011 C 
ATOM     14  C   UNL     1     103.176  46.108 138.528  1.00  0.00     0.017 C 
ATOM     15  C   UNL     1     102.004  45.650 136.233  1.00  0.00    -0.020 C 
ATOM     16  C   UNL     1     103.400  47.526 135.160  1.00  0.00     0.032 C 
ATOM     17  C   UNL     1     102.019  47.169 135.788  1.00  0.00     0.006 C 
ATOM     18  C   UNL     1     102.030  44.769 134.941  1.00  0.00     0.008 C 
ATOM     19  C   UNL     1     100.697  45.310 137.017  1.00  0.00     0.012 C 
ATOM     20  C   UNL     1     100.769  47.622 134.867  1.00  0.00    -0.025 C 
ATOM     21  C   UNL     1     101.405  45.387 133.666  1.00  0.00     0.005 C 
ATOM     22  C   UNL     1     100.293  46.454 133.892  1.00  0.00     0.003 C 
ATOM     23  C   UNL     1     101.075  48.954 134.070  1.00  0.00     0.010 C 
ATOM     24  C   UNL     1      99.587  48.012 135.824  1.00  0.00     0.012 C 
ATOM     25  C   UNL     1      99.660  46.956 132.523  1.00  0.00    -0.006 C 
ATOM     26  C   UNL     1     101.554  48.790 132.620  1.00  0.00     0.033 C 
ATOM     27  C   UNL     1     100.676  47.859 131.744  1.00  0.00     0.120 C 
ATOM     28  C   UNL     1      98.316  47.700 132.781  1.00  0.00     0.014 C 
ATOM     29  C   UNL     1      99.284  45.752 131.610  1.00  0.00     0.014 C 
ENDROOT
BRANCH   1  30
ATOM     30  C   UNL     1     105.672  42.738 135.903  1.00  0.00     0.048 C 
ATOM     31  O   UNL     1     105.793  43.236 134.751  1.00  0.00    -0.550 OA
ATOM     32  O   UNL     1     105.335  41.393 136.015  1.00  0.00    -0.550 OA
ENDBRANCH   1  30
BRANCH  27  33
ATOM     33  O   UNL     1     100.045  48.573 130.707  1.00  0.00    -0.393 OA
ATOM     34  H   UNL     1      99.689  47.917 130.052  1.00  0.00     0.210 HD
ENDBRANCH  27  33
TORSDOF 2
ENDMDL
MODEL 7
REMARK VINA RESULT:    -6.440      4.231      8.197
REMARK INTER + INTRA:          -7.149
REMARK INTER:                  -7.062
REMARK INTRA:                  -0.087
REMARK UNBOUND:                -0.144
REMARK SMILES CC1(C)CC[C@@]2(C(=O)[O-])CC[C@@]3(C)C(=CC[C@H]4[C@@]5(C)CC[C@H](O)C(C)(C)[C@H]5CC[C@]43C)[C@H]2C1
REMARK SMILES IDX 6 1 5 2 10 3 32 4 4 5 11 6 14 7 33 8 2 9 12 10 15 11 1 12
REMARK SMILES IDX 3 13 13 14 30 15 16 16 17 17 29 18 31 19 18 20 28 21 27 22
REMARK SMILES IDX 20 23 19 24 24 25 21 26 22 27 25 28 26 29 7 30 8 31 9 32
REMARK SMILES IDX 23 33
REMARK H PARENT 23 34
REMARK Flexibility Score: inf
ROOT
ATOM      1  C   UNL     1     105.458  40.372 136.972  1.00  0.00     0.017 C 
ATOM      2  C   UNL     1     106.717  39.487 137.285  1.00  0.00     0.014 C 
ATOM      3  C   UNL     1     104.738  40.671 138.305  1.00  0.00     0.014 C 
ATOM      4  C   UNL     1     105.883  41.719 136.291  1.00  0.00     0.028 C 
ATOM      5  C   UNL     1     107.884  39.763 136.327  1.00  0.00     0.007 C 
ATOM      6  C   UNL     1     103.514  41.574 138.123  1.00  0.00     0.013 C 
ATOM      7  C   UNL     1     104.819  42.822 136.332  1.00  0.00    -0.064 C 
ATOM      8  C   UNL     1     107.247  42.214 136.822  1.00  0.00     0.015 C 
ATOM      9  C   UNL     1     108.403  41.231 136.446  1.00  0.00    -0.035 C 
ATOM     10  C   UNL     1     103.818  42.977 137.485  1.00  0.00    -0.006 C 
ATOM     11  C   UNL     1     104.895  43.763 135.375  1.00  0.00    -0.027 C 
ATOM     12  C   UNL     1     109.503  41.310 137.528  1.00  0.00     0.011 C 
ATOM     13  C   UNL     1     109.025  41.652 135.097  1.00  0.00     0.011 C 
ATOM     14  C   UNL     1     104.530  43.842 138.569  1.00  0.00     0.017 C 
ATOM     15  C   UNL     1     102.461  43.694 136.972  1.00  0.00    -0.020 C 
ATOM     16  C   UNL     1     103.843  44.789 135.100  1.00  0.00     0.032 C 
ATOM     17  C   UNL     1     102.794  45.047 136.222  1.00  0.00     0.006 C 
ATOM     18  C   UNL     1     101.680  42.772 135.979  1.00  0.00     0.008 C 
ATOM     19  C   UNL     1     101.543  43.951 138.209  1.00  0.00     0.012 C 
ATOM     20  C   UNL     1     101.505  45.875 135.705  1.00  0.00    -0.025 C 
ATOM     21  C   UNL     1     100.839  43.481 134.889  1.00  0.00     0.005 C 
ATOM     22  C   UNL     1     100.326  44.910 135.237  1.00  0.00     0.003 C 
ATOM     23  C   UNL     1     101.886  46.917 134.576  1.00  0.00     0.010 C 
ATOM     24  C   UNL     1     101.001  46.769 136.894  1.00  0.00     0.012 C 
ATOM     25  C   UNL     1      99.403  45.508 134.089  1.00  0.00    -0.006 C 
ATOM     26  C   UNL     1     101.664  46.465 133.125  1.00  0.00     0.033 C 
ATOM     27  C   UNL     1     100.258  45.881 132.830  1.00  0.00     0.120 C 
ATOM     28  C   UNL     1      98.597  46.734 134.616  1.00  0.00     0.014 C 
ATOM     29  C   UNL     1      98.322  44.476 133.650  1.00  0.00     0.014 C 
ENDROOT
BRANCH   1  30
ATOM     30  C   UNL     1     104.517  39.570 136.073  1.00  0.00     0.048 C 
ATOM     31  O   UNL     1     103.890  40.114 135.125  1.00  0.00    -0.550 OA
ATOM     32  O   UNL     1     104.322  38.214 136.311  1.00  0.00    -0.550 OA
ENDBRANCH   1  30
BRANCH  27  33
ATOM     33  O   UNL     1      99.538  46.699 131.939  1.00  0.00    -0.393 OA
ATOM     34  H   UNL     1      99.167  46.122 131.221  1.00  0.00     0.210 HD
ENDBRANCH  27  33
TORSDOF 2
ENDMDL
MODEL 8
REMARK VINA RESULT:    -6.127      3.234      4.856
REMARK INTER + INTRA:          -6.809
REMARK INTER:                  -6.607
REMARK INTRA:                  -0.201
REMARK UNBOUND:                -0.144
REMARK SMILES CC1(C)CC[C@@]2(C(=O)[O-])CC[C@@]3(C)C(=CC[C@H]4[C@@]5(C)CC[C@H](O)C(C)(C)[C@H]5CC[C@]43C)[C@H]2C1
REMARK SMILES IDX 6 1 5 2 10 3 32 4 4 5 11 6 14 7 33 8 2 9 12 10 15 11 1 12
REMARK SMILES IDX 3 13 13 14 30 15 16 16 17 17 29 18 31 19 18 20 28 21 27 22
REMARK SMILES IDX 20 23 19 24 24 25 21 26 22 27 25 28 26 29 7 30 8 31 9 32
REMARK SMILES IDX 23 33
REMARK H PARENT 23 34
REMARK Flexibility Score: inf
ROOT
ATOM      1  C   UNL     1     102.046  46.657 135.699  1.00  0.00     0.017 C 
ATOM      2  C   UNL     1     100.782  47.588 135.685  1.00  0.00     0.014 C 
ATOM      3  C   UNL     1     103.292  47.535 135.448  1.00  0.00     0.014 C 
ATOM      4  C   UNL     1     102.185  45.932 137.082  1.00  0.00     0.028 C 
ATOM      5  C   UNL     1      99.682  47.104 136.639  1.00  0.00     0.007 C 
ATOM      6  C   UNL     1     104.595  46.731 135.489  1.00  0.00     0.013 C 
ATOM      7  C   UNL     1     103.575  45.351 137.366  1.00  0.00    -0.064 C 
ATOM      8  C   UNL     1     101.687  46.827 138.241  1.00  0.00     0.015 C 
ATOM      9  C   UNL     1     100.155  47.115 138.128  1.00  0.00    -0.035 C 
ATOM     10  C   UNL     1     104.870  45.989 136.847  1.00  0.00    -0.006 C 
ATOM     11  C   UNL     1     103.630  44.327 138.235  1.00  0.00    -0.027 C 
ATOM     12  C   UNL     1      99.853  48.491 138.761  1.00  0.00     0.011 C 
ATOM     13  C   UNL     1      99.366  46.043 138.911  1.00  0.00     0.011 C 
ATOM     14  C   UNL     1     105.280  47.067 137.897  1.00  0.00     0.017 C 
ATOM     15  C   UNL     1     106.031  44.874 136.679  1.00  0.00    -0.020 C 
ATOM     16  C   UNL     1     104.837  43.480 138.482  1.00  0.00     0.032 C 
ATOM     17  C   UNL     1     106.211  44.051 138.020  1.00  0.00     0.006 C 
ATOM     18  C   UNL     1     105.679  43.864 135.538  1.00  0.00     0.008 C 
ATOM     19  C   UNL     1     107.358  45.598 136.286  1.00  0.00     0.012 C 
ATOM     20  C   UNL     1     107.380  42.935 137.983  1.00  0.00    -0.025 C 
ATOM     21  C   UNL     1     106.218  42.421 135.696  1.00  0.00     0.005 C 
ATOM     22  C   UNL     1     107.514  42.260 136.545  1.00  0.00     0.003 C 
ATOM     23  C   UNL     1     107.197  41.849 139.119  1.00  0.00     0.010 C 
ATOM     24  C   UNL     1     108.732  43.646 138.349  1.00  0.00     0.012 C 
ATOM     25  C   UNL     1     108.028  40.755 136.570  1.00  0.00    -0.006 C 
ATOM     26  C   UNL     1     106.502  40.541 138.710  1.00  0.00     0.033 C 
ATOM     27  C   UNL     1     107.081  39.863 137.442  1.00  0.00     0.120 C 
ATOM     28  C   UNL     1     109.501  40.687 137.072  1.00  0.00     0.014 C 
ATOM     29  C   UNL     1     108.067  40.158 135.132  1.00  0.00     0.014 C 
ENDROOT
BRANCH   1  30
ATOM     30  C   UNL     1     101.916  45.649 134.558  1.00  0.00     0.048 C 
ATOM     31  O   UNL     1     101.993  44.408 134.762  1.00  0.00    -0.550 OA
ATOM     32  O   UNL     1     101.730  46.100 133.255  1.00  0.00    -0.550 OA
ENDBRANCH   1  30
BRANCH  27  33
ATOM     33  O   UNL     1     107.675  38.623 137.747  1.00  0.00    -0.393 OA
ATOM     34  H   UNL     1     108.564  38.590 137.306  1.00  0.00     0.210 HD
ENDBRANCH  27  33
TORSDOF 2
ENDMDL
MODEL 9
REMARK VINA RESULT:    -6.087      3.090      4.610
REMARK INTER + INTRA:          -6.765
REMARK INTER:                  -6.526
REMARK INTRA:                  -0.239
REMARK UNBOUND:                -0.144
REMARK SMILES CC1(C)CC[C@@]2(C(=O)[O-])CC[C@@]3(C)C(=CC[C@H]4[C@@]5(C)CC[C@H](O)C(C)(C)[C@H]5CC[C@]43C)[C@H]2C1
REMARK SMILES IDX 6 1 5 2 10 3 32 4 4 5 11 6 14 7 33 8 2 9 12 10 15 11 1 12
REMARK SMILES IDX 3 13 13 14 30 15 16 16 17 17 29 18 31 19 18 20 28 21 27 22
REMARK SMILES IDX 20 23 19 24 24 25 21 26 22 27 25 28 26 29 7 30 8 31 9 32
REMARK SMILES IDX 23 33
REMARK H PARENT 23 34
REMARK Flexibility Score: inf
ROOT
ATOM      1  C   UNL     1     101.241  46.225 138.019  1.00  0.00     0.017 C 
ATOM      2  C   UNL     1     100.038  47.221 138.172  1.00  0.00     0.014 C 
ATOM      3  C   UNL     1     101.153  45.577 136.620  1.00  0.00     0.014 C 
ATOM      4  C   UNL     1     102.608  46.980 138.162  1.00  0.00     0.028 C 
ATOM      5  C   UNL     1     100.386  48.437 139.041  1.00  0.00     0.007 C 
ATOM      6  C   UNL     1     102.314  44.616 136.342  1.00  0.00     0.013 C 
ATOM      7  C   UNL     1     103.822  46.220 137.616  1.00  0.00    -0.064 C 
ATOM      8  C   UNL     1     102.522  48.415 137.593  1.00  0.00     0.015 C 
ATOM      9  C   UNL     1     101.525  49.300 138.409  1.00  0.00    -0.035 C 
ATOM     10  C   UNL     1     103.742  45.268 136.415  1.00  0.00    -0.006 C 
ATOM     11  C   UNL     1     105.016  46.543 138.141  1.00  0.00    -0.027 C 
ATOM     12  C   UNL     1     100.914  50.365 137.473  1.00  0.00     0.011 C 
ATOM     13  C   UNL     1     102.283  50.031 139.539  1.00  0.00     0.011 C 
ATOM     14  C   UNL     1     103.921  46.152 135.142  1.00  0.00     0.017 C 
ATOM     15  C   UNL     1     104.897  44.138 136.502  1.00  0.00    -0.020 C 
ATOM     16  C   UNL     1     106.283  45.782 137.915  1.00  0.00     0.032 C 
ATOM     17  C   UNL     1     106.318  44.808 136.699  1.00  0.00     0.006 C 
ATOM     18  C   UNL     1     104.649  43.173 137.706  1.00  0.00     0.008 C 
ATOM     19  C   UNL     1     104.856  43.290 135.191  1.00  0.00     0.012 C 
ATOM     20  C   UNL     1     107.558  43.772 136.753  1.00  0.00    -0.025 C 
ATOM     21  C   UNL     1     105.902  42.552 138.370  1.00  0.00     0.005 C 
ATOM     22  C   UNL     1     107.158  42.400 137.460  1.00  0.00     0.003 C 
ATOM     23  C   UNL     1     108.839  44.418 137.423  1.00  0.00     0.010 C 
ATOM     24  C   UNL     1     108.005  43.482 135.276  1.00  0.00     0.012 C 
ATOM     25  C   UNL     1     108.356  41.674 138.212  1.00  0.00    -0.006 C 
ATOM     26  C   UNL     1     109.057  44.118 138.913  1.00  0.00     0.033 C 
ATOM     27  C   UNL     1     108.981  42.617 139.296  1.00  0.00     0.120 C 
ATOM     28  C   UNL     1     109.428  41.185 137.192  1.00  0.00     0.014 C 
ATOM     29  C   UNL     1     107.862  40.380 138.924  1.00  0.00     0.014 C 
ENDROOT
BRANCH   1  30
ATOM     30  C   UNL     1     101.100  45.132 139.078  1.00  0.00     0.048 C 
ATOM     31  O   UNL     1     101.909  45.038 140.040  1.00  0.00    -0.550 OA
ATOM     32  O   UNL     1     100.073  44.199 138.976  1.00  0.00    -0.550 OA
ENDBRANCH   1  30
BRANCH  27  33
ATOM     33  O   UNL     1     110.226  42.136 139.743  1.00  0.00    -0.393 OA
ATOM     34  H   UNL     1     110.743  42.905 140.101  1.00  0.00     0.210 HD
ENDBRANCH  27  33
TORSDOF 2
ENDMDL
