MODEL 1
REMARK VINA RESULT:    -3.471      0.000      0.000
REMARK INTER + INTRA:          -9.483
REMARK INTER:                  -6.718
REMARK INTRA:                  -2.766
REMARK UNBOUND:                -2.766
REMARK SMILES CCCCCCCCCCCCCCCCCC(=O)[O-]
REMARK SMILES IDX 10 1 11 2 12 3 13 4 14 5 15 6 16 7 17 8 18 9 19 10 20 11
REMARK SMILES IDX 9 12 8 13 7 14 6 15 5 16 4 17 3 18 2 19 1 20
REMARK H PARENT
REMARK Flexibility Score: inf
ROOT
ATOM      1  C   UNL     1      20.967   1.124  24.442  1.00  0.00     0.000 C 
ENDROOT
BRANCH   1   2
ATOM      2  C   UNL     1      20.638   1.529  25.890  1.00  0.00     0.000 C 
BRANCH   2   3
ATOM      3  C   UNL     1      19.125   1.602  26.154  1.00  0.00     0.000 C 
BRANCH   3   4
ATOM      4  C   UNL     1      18.764   2.641  27.230  1.00  0.00     0.000 C 
BRANCH   4   5
ATOM      5  C   UNL     1      19.999   3.346  27.820  1.00  0.00     0.000 C 
BRANCH   5   6
ATOM      6  C   UNL     1      19.942   4.885  27.810  1.00  0.00     0.000 C 
BRANCH   6   7
ATOM      7  C   UNL     1      21.327   5.537  27.709  1.00  0.00     0.006 C 
BRANCH   7   8
ATOM      8  C   UNL     1      22.438   4.491  27.831  1.00  0.00     0.053 C 
BRANCH   8   9
ATOM      9  C   UNL     1      23.710   5.005  27.233  1.00  0.00     0.041 C 
ATOM     10  O   UNL     1      24.482   4.224  26.619  1.00  0.00    -0.550 OA
ATOM     11  O   UNL     1      24.013   6.359  27.304  1.00  0.00    -0.550 OA
ENDBRANCH   8   9
ENDBRANCH   7   8
ENDBRANCH   6   7
ENDBRANCH   5   6
ENDBRANCH   4   5
ENDBRANCH   3   4
ENDBRANCH   2   3
ENDBRANCH   1   2
BRANCH   1  12
ATOM     12  C   UNL     1      21.456   2.312  23.594  1.00  0.00     0.000 C 
BRANCH  12  13
ATOM     13  C   UNL     1      21.732   3.567  24.440  1.00  0.00    -0.000 C 
BRANCH  13  14
ATOM     14  C   UNL     1      20.958   4.796  23.935  1.00  0.00    -0.000 C 
BRANCH  14  15
ATOM     15  C   UNL     1      19.474   4.772  24.342  1.00  0.00    -0.000 C 
BRANCH  15  16
ATOM     16  C   UNL     1      18.740   6.077  23.968  1.00  0.00    -0.000 C 
BRANCH  16  17
ATOM     17  C   UNL     1      18.372   6.954  25.180  1.00  0.00    -0.000 C 
BRANCH  17  18
ATOM     18  C   UNL     1      19.147   8.281  25.283  1.00  0.00    -0.000 C 
BRANCH  18  19
ATOM     19  C   UNL     1      20.444   8.337  24.457  1.00  0.00    -0.003 C 
ATOM     20  C   UNL     1      20.343   9.271  23.252  1.00  0.00     0.004 C 
ENDBRANCH  18  19
ENDBRANCH  17  18
ENDBRANCH  16  17
ENDBRANCH  15  16
ENDBRANCH  14  15
ENDBRANCH  13  14
ENDBRANCH  12  13
ENDBRANCH   1  12
TORSDOF 16
ENDMDL
MODEL 2
REMARK VINA RESULT:    -3.461      2.581      5.139
REMARK INTER + INTRA:          -9.463
REMARK INTER:                  -6.846
REMARK INTRA:                  -2.617
REMARK UNBOUND:                -2.766
REMARK SMILES CCCCCCCCCCCCCCCCCC(=O)[O-]
REMARK SMILES IDX 10 1 11 2 12 3 13 4 14 5 15 6 16 7 17 8 18 9 19 10 20 11
REMARK SMILES IDX 9 12 8 13 7 14 6 15 5 16 4 17 3 18 2 19 1 20
REMARK H PARENT
REMARK Flexibility Score: inf
ROOT
ATOM      1  C   UNL     1      21.013   1.154  24.545  1.00  0.00     0.000 C 
ENDROOT
BRANCH   1   2
ATOM      2  C   UNL     1      21.918   2.396  24.633  1.00  0.00     0.000 C 
BRANCH   2   3
ATOM      3  C   UNL     1      21.527   3.485  23.620  1.00  0.00     0.000 C 
BRANCH   3   4
ATOM      4  C   UNL     1      20.978   4.752  24.299  1.00  0.00     0.000 C 
BRANCH   4   5
ATOM      5  C   UNL     1      19.445   4.862  24.209  1.00  0.00     0.000 C 
BRANCH   5   6
ATOM      6  C   UNL     1      18.899   6.296  24.071  1.00  0.00     0.000 C 
BRANCH   6   7
ATOM      7  C   UNL     1      19.703   7.326  24.876  1.00  0.00     0.006 C 
BRANCH   7   8
ATOM      8  C   UNL     1      20.517   8.233  23.950  1.00  0.00     0.053 C 
BRANCH   8   9
ATOM      9  C   UNL     1      19.656   9.325  23.396  1.00  0.00     0.041 C 
ATOM     10  O   UNL     1      19.649   9.561  22.160  1.00  0.00    -0.550 OA
ATOM     11  O   UNL     1      18.817  10.043  24.240  1.00  0.00    -0.550 OA
ENDBRANCH   8   9
ENDBRANCH   7   8
ENDBRANCH   6   7
ENDBRANCH   5   6
ENDBRANCH   4   5
ENDBRANCH   3   4
ENDBRANCH   2   3
ENDBRANCH   1   2
BRANCH   1  12
ATOM     12  C   UNL     1      19.685   1.337  25.300  1.00  0.00     0.000 C 
BRANCH  12  13
ATOM     13  C   UNL     1      19.892   1.693  26.783  1.00  0.00    -0.000 C 
BRANCH  13  14
ATOM     14  C   UNL     1      18.907   2.767  27.271  1.00  0.00    -0.000 C 
BRANCH  14  15
ATOM     15  C   UNL     1      19.609   4.065  27.708  1.00  0.00    -0.000 C 
BRANCH  15  16
ATOM     16  C   UNL     1      21.132   3.881  27.879  1.00  0.00    -0.000 C 
BRANCH  16  17
ATOM     17  C   UNL     1      21.927   5.201  27.847  1.00  0.00    -0.000 C 
BRANCH  17  18
ATOM     18  C   UNL     1      23.294   5.121  27.144  1.00  0.00    -0.000 C 
BRANCH  18  19
ATOM     19  C   UNL     1      24.166   3.923  27.563  1.00  0.00    -0.003 C 
ATOM     20  C   UNL     1      25.083   3.433  26.442  1.00  0.00     0.004 C 
ENDBRANCH  18  19
ENDBRANCH  17  18
ENDBRANCH  16  17
ENDBRANCH  15  16
ENDBRANCH  14  15
ENDBRANCH  13  14
ENDBRANCH  12  13
ENDBRANCH   1  12
TORSDOF 16
ENDMDL
MODEL 3
REMARK VINA RESULT:    -3.374      1.535      3.524
REMARK INTER + INTRA:          -9.296
REMARK INTER:                  -6.465
REMARK INTRA:                  -2.831
REMARK UNBOUND:                -2.766
REMARK SMILES CCCCCCCCCCCCCCCCCC(=O)[O-]
REMARK SMILES IDX 10 1 11 2 12 3 13 4 14 5 15 6 16 7 17 8 18 9 19 10 20 11
REMARK SMILES IDX 9 12 8 13 7 14 6 15 5 16 4 17 3 18 2 19 1 20
REMARK H PARENT
REMARK Flexibility Score: inf
ROOT
ATOM      1  C   UNL     1      19.003   5.237  24.552  1.00  0.00     0.000 C 
ENDROOT
BRANCH   1   2
ATOM      2  C   UNL     1      19.022   5.170  26.089  1.00  0.00     0.000 C 
BRANCH   2   3
ATOM      3  C   UNL     1      19.263   3.744  26.615  1.00  0.00     0.000 C 
BRANCH   3   4
ATOM      4  C   UNL     1      19.109   2.677  25.516  1.00  0.00     0.000 C 
BRANCH   4   5
ATOM      5  C   UNL     1      20.414   1.906  25.244  1.00  0.00     0.000 C 
BRANCH   5   6
ATOM      6  C   UNL     1      21.233   2.410  24.042  1.00  0.00     0.000 C 
BRANCH   6   7
ATOM      7  C   UNL     1      22.635   2.900  24.431  1.00  0.00     0.006 C 
BRANCH   7   8
ATOM      8  C   UNL     1      22.840   2.828  25.946  1.00  0.00     0.053 C 
BRANCH   8   9
ATOM      9  C   UNL     1      23.341   4.137  26.470  1.00  0.00     0.041 C 
ATOM     10  O   UNL     1      22.528   5.035  26.813  1.00  0.00    -0.550 OA
ATOM     11  O   UNL     1      24.705   4.343  26.636  1.00  0.00    -0.550 OA
ENDBRANCH   8   9
ENDBRANCH   7   8
ENDBRANCH   6   7
ENDBRANCH   5   6
ENDBRANCH   4   5
ENDBRANCH   3   4
ENDBRANCH   2   3
ENDBRANCH   1   2
BRANCH   1  12
ATOM     12  C   UNL     1      20.031   6.236  23.993  1.00  0.00     0.000 C 
BRANCH  12  13
ATOM     13  C   UNL     1      20.481   7.269  25.040  1.00  0.00    -0.000 C 
BRANCH  13  14
ATOM     14  C   UNL     1      20.446   8.707  24.498  1.00  0.00    -0.000 C 
BRANCH  14  15
ATOM     15  C   UNL     1      20.051   8.773  23.012  1.00  0.00    -0.000 C 
BRANCH  15  16
ATOM     16  C   UNL     1      18.869   9.734  22.760  1.00  0.00    -0.000 C 
BRANCH  16  17
ATOM     17  C   UNL     1      17.742   9.622  23.805  1.00  0.00    -0.000 C 
BRANCH  17  18
ATOM     18  C   UNL     1      16.900   8.335  23.718  1.00  0.00    -0.000 C 
BRANCH  18  19
ATOM     19  C   UNL     1      16.397   7.801  25.071  1.00  0.00    -0.003 C 
ATOM     20  C   UNL     1      17.145   8.399  26.263  1.00  0.00     0.004 C 
ENDBRANCH  18  19
ENDBRANCH  17  18
ENDBRANCH  16  17
ENDBRANCH  15  16
ENDBRANCH  14  15
ENDBRANCH  13  14
ENDBRANCH  12  13
ENDBRANCH   1  12
TORSDOF 16
ENDMDL
MODEL 4
REMARK VINA RESULT:    -3.357      1.237      5.064
REMARK INTER + INTRA:          -9.262
REMARK INTER:                  -6.813
REMARK INTRA:                  -2.449
REMARK UNBOUND:                -2.766
REMARK SMILES CCCCCCCCCCCCCCCCCC(=O)[O-]
REMARK SMILES IDX 10 1 11 2 12 3 13 4 14 5 15 6 16 7 17 8 18 9 19 10 20 11
REMARK SMILES IDX 9 12 8 13 7 14 6 15 5 16 4 17 3 18 2 19 1 20
REMARK H PARENT
REMARK Flexibility Score: inf
ROOT
ATOM      1  C   UNL     1      19.717   7.700  23.738  1.00  0.00     0.000 C 
ENDROOT
BRANCH   1   2
ATOM      2  C   UNL     1      20.624   8.772  24.367  1.00  0.00     0.000 C 
BRANCH   2   3
ATOM      3  C   UNL     1      20.754   8.615  25.892  1.00  0.00     0.000 C 
BRANCH   3   4
ATOM      4  C   UNL     1      22.215   8.692  26.370  1.00  0.00     0.000 C 
BRANCH   4   5
ATOM      5  C   UNL     1      22.554   7.633  27.434  1.00  0.00     0.000 C 
BRANCH   5   6
ATOM      6  C   UNL     1      21.692   6.358  27.387  1.00  0.00     0.000 C 
BRANCH   6   7
ATOM      7  C   UNL     1      22.472   5.089  27.757  1.00  0.00     0.006 C 
BRANCH   7   8
ATOM      8  C   UNL     1      23.868   5.099  27.129  1.00  0.00     0.053 C 
BRANCH   8   9
ATOM      9  C   UNL     1      24.341   3.702  26.879  1.00  0.00     0.041 C 
ATOM     10  O   UNL     1      23.604   2.722  27.167  1.00  0.00    -0.550 OA
ATOM     11  O   UNL     1      25.571   3.483  26.272  1.00  0.00    -0.550 OA
ENDBRANCH   8   9
ENDBRANCH   7   8
ENDBRANCH   6   7
ENDBRANCH   5   6
ENDBRANCH   4   5
ENDBRANCH   3   4
ENDBRANCH   2   3
ENDBRANCH   1   2
BRANCH   1  12
ATOM     12  C   UNL     1      19.008   6.834  24.793  1.00  0.00     0.000 C 
BRANCH  12  13
ATOM     13  C   UNL     1      19.334   5.337  24.646  1.00  0.00    -0.000 C 
BRANCH  13  14
ATOM     14  C   UNL     1      20.680   5.097  23.943  1.00  0.00    -0.000 C 
BRANCH  14  15
ATOM     15  C   UNL     1      21.454   3.904  24.532  1.00  0.00    -0.000 C 
BRANCH  15  16
ATOM     16  C   UNL     1      21.344   2.640  23.653  1.00  0.00    -0.000 C 
BRANCH  16  17
ATOM     17  C   UNL     1      21.171   1.337  24.456  1.00  0.00    -0.000 C 
BRANCH  17  18
ATOM     18  C   UNL     1      20.606   1.518  25.877  1.00  0.00    -0.000 C 
BRANCH  18  19
ATOM     19  C   UNL     1      19.074   1.650  25.951  1.00  0.00    -0.003 C 
ATOM     20  C   UNL     1      18.610   2.592  27.061  1.00  0.00     0.004 C 
ENDBRANCH  18  19
ENDBRANCH  17  18
ENDBRANCH  16  17
ENDBRANCH  15  16
ENDBRANCH  14  15
ENDBRANCH  13  14
ENDBRANCH  12  13
ENDBRANCH   1  12
TORSDOF 16
ENDMDL
MODEL 5
REMARK VINA RESULT:    -3.352      2.179      4.228
REMARK INTER + INTRA:          -9.253
REMARK INTER:                  -6.070
REMARK INTRA:                  -3.182
REMARK UNBOUND:                -2.766
REMARK SMILES CCCCCCCCCCCCCCCCCC(=O)[O-]
REMARK SMILES IDX 10 1 11 2 12 3 13 4 14 5 15 6 16 7 17 8 18 9 19 10 20 11
REMARK SMILES IDX 9 12 8 13 7 14 6 15 5 16 4 17 3 18 2 19 1 20
REMARK H PARENT
REMARK Flexibility Score: inf
ROOT
ATOM      1  C   UNL     1      20.333   5.125  27.164  1.00  0.00     0.000 C 
ENDROOT
BRANCH   1   2
ATOM      2  C   UNL     1      21.558   5.108  26.232  1.00  0.00     0.000 C 
BRANCH   2   3
ATOM      3  C   UNL     1      22.660   4.154  26.723  1.00  0.00     0.000 C 
BRANCH   3   4
ATOM      4  C   UNL     1      23.102   3.156  25.638  1.00  0.00     0.000 C 
BRANCH   4   5
ATOM      5  C   UNL     1      22.377   3.369  24.297  1.00  0.00     0.000 C 
BRANCH   5   6
ATOM      6  C   UNL     1      21.483   2.200  23.843  1.00  0.00     0.000 C 
BRANCH   6   7
ATOM      7  C   UNL     1      21.131   1.234  24.983  1.00  0.00     0.006 C 
BRANCH   7   8
ATOM      8  C   UNL     1      19.711   1.484  25.496  1.00  0.00     0.053 C 
BRANCH   8   9
ATOM      9  C   UNL     1      19.706   1.599  26.988  1.00  0.00     0.041 C 
ATOM     10  O   UNL     1      20.749   1.351  27.647  1.00  0.00    -0.550 OA
ATOM     11  O   UNL     1      18.564   2.039  27.646  1.00  0.00    -0.550 OA
ENDBRANCH   8   9
ENDBRANCH   7   8
ENDBRANCH   6   7
ENDBRANCH   5   6
ENDBRANCH   4   5
ENDBRANCH   3   4
ENDBRANCH   2   3
ENDBRANCH   1   2
BRANCH   1  12
ATOM     12  C   UNL     1      19.018   5.373  26.405  1.00  0.00     0.000 C 
BRANCH  12  13
ATOM     13  C   UNL     1      19.099   4.951  24.928  1.00  0.00    -0.000 C 
BRANCH  13  14
ATOM     14  C   UNL     1      18.690   6.083  23.971  1.00  0.00    -0.000 C 
BRANCH  14  15
ATOM     15  C   UNL     1      19.866   7.005  23.603  1.00  0.00    -0.000 C 
BRANCH  15  16
ATOM     16  C   UNL     1      19.434   8.480  23.464  1.00  0.00    -0.000 C 
BRANCH  16  17
ATOM     17  C   UNL     1      20.049   9.411  24.527  1.00  0.00    -0.000 C 
BRANCH  17  18
ATOM     18  C   UNL     1      21.100   8.752  25.440  1.00  0.00    -0.000 C 
BRANCH  18  19
ATOM     19  C   UNL     1      20.788   8.832  26.945  1.00  0.00    -0.003 C 
ATOM     20  C   UNL     1      19.292   8.939  27.238  1.00  0.00     0.004 C 
ENDBRANCH  18  19
ENDBRANCH  17  18
ENDBRANCH  16  17
ENDBRANCH  15  16
ENDBRANCH  14  15
ENDBRANCH  13  14
ENDBRANCH  12  13
ENDBRANCH   1  12
TORSDOF 16
ENDMDL
MODEL 6
REMARK VINA RESULT:    -3.343      2.455      5.805
REMARK INTER + INTRA:          -9.235
REMARK INTER:                  -6.715
REMARK INTRA:                  -2.519
REMARK UNBOUND:                -2.766
REMARK SMILES CCCCCCCCCCCCCCCCCC(=O)[O-]
REMARK SMILES IDX 10 1 11 2 12 3 13 4 14 5 15 6 16 7 17 8 18 9 19 10 20 11
REMARK SMILES IDX 9 12 8 13 7 14 6 15 5 16 4 17 3 18 2 19 1 20
REMARK H PARENT
REMARK Flexibility Score: inf
ROOT
ATOM      1  C   UNL     1      21.052   5.790  27.115  1.00  0.00     0.000 C 
ENDROOT
BRANCH   1   2
ATOM      2  C   UNL     1      20.629   6.769  26.006  1.00  0.00     0.000 C 
BRANCH   2   3
ATOM      3  C   UNL     1      20.381   6.066  24.661  1.00  0.00     0.000 C 
BRANCH   3   4
ATOM      4  C   UNL     1      18.935   6.242  24.162  1.00  0.00     0.000 C 
BRANCH   4   5
ATOM      5  C   UNL     1      18.029   6.946  25.188  1.00  0.00     0.000 C 
BRANCH   5   6
ATOM      6  C   UNL     1      17.121   8.048  24.613  1.00  0.00     0.000 C 
BRANCH   6   7
ATOM      7  C   UNL     1      17.673   8.669  23.322  1.00  0.00     0.006 C 
BRANCH   7   8
ATOM      8  C   UNL     1      18.672   9.787  23.633  1.00  0.00     0.053 C 
BRANCH   8   9
ATOM      9  C   UNL     1      19.961   9.552  22.911  1.00  0.00     0.041 C 
ATOM     10  O   UNL     1      19.986   9.516  21.653  1.00  0.00    -0.550 OA
ATOM     11  O   UNL     1      21.146   9.435  23.627  1.00  0.00    -0.550 OA
ENDBRANCH   8   9
ENDBRANCH   7   8
ENDBRANCH   6   7
ENDBRANCH   5   6
ENDBRANCH   4   5
ENDBRANCH   3   4
ENDBRANCH   2   3
ENDBRANCH   1   2
BRANCH   1  12
ATOM     12  C   UNL     1      22.542   5.915  27.476  1.00  0.00     0.000 C 
BRANCH  12  13
ATOM     13  C   UNL     1      23.407   4.836  26.800  1.00  0.00    -0.000 C 
BRANCH  13  14
ATOM     14  C   UNL     1      22.612   3.557  26.491  1.00  0.00    -0.000 C 
BRANCH  14  15
ATOM     15  C   UNL     1      22.889   3.012  25.078  1.00  0.00    -0.000 C 
BRANCH  15  16
ATOM     16  C   UNL     1      21.592   2.757  24.282  1.00  0.00    -0.000 C 
BRANCH  16  17
ATOM     17  C   UNL     1      20.951   1.383  24.558  1.00  0.00    -0.000 C 
BRANCH  17  18
ATOM     18  C   UNL     1      19.707   1.416  25.466  1.00  0.00    -0.000 C 
BRANCH  18  19
ATOM     19  C   UNL     1      19.050   2.800  25.610  1.00  0.00    -0.003 C 
ATOM     20  C   UNL     1      18.561   3.083  27.030  1.00  0.00     0.004 C 
ENDBRANCH  18  19
ENDBRANCH  17  18
ENDBRANCH  16  17
ENDBRANCH  15  16
ENDBRANCH  14  15
ENDBRANCH  13  14
ENDBRANCH  12  13
ENDBRANCH   1  12
TORSDOF 16
ENDMDL
MODEL 7
REMARK VINA RESULT:    -3.333      2.605      5.390
REMARK INTER + INTRA:          -9.217
REMARK INTER:                  -6.495
REMARK INTRA:                  -2.722
REMARK UNBOUND:                -2.766
REMARK SMILES CCCCCCCCCCCCCCCCCC(=O)[O-]
REMARK SMILES IDX 10 1 11 2 12 3 13 4 14 5 15 6 16 7 17 8 18 9 19 10 20 11
REMARK SMILES IDX 9 12 8 13 7 14 6 15 5 16 4 17 3 18 2 19 1 20
REMARK H PARENT
REMARK Flexibility Score: inf
ROOT
ATOM      1  C   UNL     1      22.429   3.775  28.121  1.00  0.00     0.000 C 
ENDROOT
BRANCH   1   2
ATOM      2  C   UNL     1      23.501   4.175  27.091  1.00  0.00     0.000 C 
BRANCH   2   3
ATOM      3  C   UNL     1      23.791   5.686  27.098  1.00  0.00     0.000 C 
BRANCH   3   4
ATOM      4  C   UNL     1      22.691   6.494  27.811  1.00  0.00     0.000 C 
BRANCH   4   5
ATOM      5  C   UNL     1      22.200   7.696  26.984  1.00  0.00     0.000 C 
BRANCH   5   6
ATOM      6  C   UNL     1      20.734   7.616  26.519  1.00  0.00     0.000 C 
BRANCH   6   7
ATOM      7  C   UNL     1      20.563   7.895  25.019  1.00  0.00     0.006 C 
BRANCH   7   8
ATOM      8  C   UNL     1      19.536   9.005  24.781  1.00  0.00     0.053 C 
BRANCH   8   9
ATOM      9  C   UNL     1      19.568   9.450  23.353  1.00  0.00     0.041 C 
ATOM     10  O   UNL     1      20.654   9.461  22.716  1.00  0.00    -0.550 OA
ATOM     11  O   UNL     1      18.387   9.796  22.707  1.00  0.00    -0.550 OA
ENDBRANCH   8   9
ENDBRANCH   7   8
ENDBRANCH   6   7
ENDBRANCH   5   6
ENDBRANCH   4   5
ENDBRANCH   3   4
ENDBRANCH   2   3
ENDBRANCH   1   2
BRANCH   1  12
ATOM     12  C   UNL     1      21.972   2.315  27.959  1.00  0.00     0.000 C 
BRANCH  12  13
ATOM     13  C   UNL     1      20.483   2.199  27.592  1.00  0.00    -0.000 C 
BRANCH  13  14
ATOM     14  C   UNL     1      19.877   3.546  27.168  1.00  0.00    -0.000 C 
BRANCH  14  15
ATOM     15  C   UNL     1      18.910   3.415  25.977  1.00  0.00    -0.000 C 
BRANCH  15  16
ATOM     16  C   UNL     1      19.316   4.314  24.789  1.00  0.00    -0.000 C 
BRANCH  16  17
ATOM     17  C   UNL     1      20.839   4.404  24.569  1.00  0.00    -0.000 C 
BRANCH  17  18
ATOM     18  C   UNL     1      21.415   3.378  23.575  1.00  0.00    -0.000 C 
BRANCH  18  19
ATOM     19  C   UNL     1      22.048   2.135  24.225  1.00  0.00    -0.003 C 
ATOM     20  C   UNL     1      21.124   0.918  24.208  1.00  0.00     0.004 C 
ENDBRANCH  18  19
ENDBRANCH  17  18
ENDBRANCH  16  17
ENDBRANCH  15  16
ENDBRANCH  14  15
ENDBRANCH  13  14
ENDBRANCH  12  13
ENDBRANCH   1  12
TORSDOF 16
ENDMDL
MODEL 8
REMARK VINA RESULT:    -3.326      1.139      2.001
REMARK INTER + INTRA:          -9.203
REMARK INTER:                  -7.080
REMARK INTRA:                  -2.123
REMARK UNBOUND:                -2.766
REMARK SMILES CCCCCCCCCCCCCCCCCC(=O)[O-]
REMARK SMILES IDX 10 1 11 2 12 3 13 4 14 5 15 6 16 7 17 8 18 9 19 10 20 11
REMARK SMILES IDX 9 12 8 13 7 14 6 15 5 16 4 17 3 18 2 19 1 20
REMARK H PARENT
REMARK Flexibility Score: inf
ROOT
ATOM      1  C   UNL     1      21.462   3.351  23.569  1.00  0.00     0.000 C 
ENDROOT
BRANCH   1   2
ATOM      2  C   UNL     1      21.908   2.219  24.511  1.00  0.00     0.000 C 
BRANCH   2   3
ATOM      3  C   UNL     1      20.805   1.171  24.739  1.00  0.00     0.000 C 
BRANCH   3   4
ATOM      4  C   UNL     1      19.968   1.461  25.997  1.00  0.00     0.000 C 
BRANCH   4   5
ATOM      5  C   UNL     1      20.823   1.904  27.197  1.00  0.00     0.000 C 
BRANCH   5   6
ATOM      6  C   UNL     1      20.456   3.276  27.793  1.00  0.00     0.000 C 
BRANCH   6   7
ATOM      7  C   UNL     1      21.666   4.208  27.949  1.00  0.00     0.006 C 
BRANCH   7   8
ATOM      8  C   UNL     1      22.978   3.423  27.871  1.00  0.00     0.053 C 
BRANCH   8   9
ATOM      9  C   UNL     1      23.979   4.156  27.034  1.00  0.00     0.041 C 
ATOM     10  O   UNL     1      24.728   3.525  26.243  1.00  0.00    -0.550 OA
ATOM     11  O   UNL     1      24.042   5.543  27.084  1.00  0.00    -0.550 OA
ENDBRANCH   8   9
ENDBRANCH   7   8
ENDBRANCH   6   7
ENDBRANCH   5   6
ENDBRANCH   4   5
ENDBRANCH   3   4
ENDBRANCH   2   3
ENDBRANCH   1   2
BRANCH   1  12
ATOM     12  C   UNL     1      20.970   4.593  24.332  1.00  0.00     0.000 C 
BRANCH  12  13
ATOM     13  C   UNL     1      19.435   4.688  24.380  1.00  0.00    -0.000 C 
BRANCH  13  14
ATOM     14  C   UNL     1      18.942   6.131  24.572  1.00  0.00    -0.000 C 
BRANCH  14  15
ATOM     15  C   UNL     1      17.691   6.449  23.735  1.00  0.00    -0.000 C 
BRANCH  15  16
ATOM     16  C   UNL     1      17.130   7.857  24.027  1.00  0.00    -0.000 C 
BRANCH  16  17
ATOM     17  C   UNL     1      17.699   8.957  23.110  1.00  0.00    -0.000 C 
BRANCH  17  18
ATOM     18  C   UNL     1      18.846   9.785  23.720  1.00  0.00    -0.000 C 
BRANCH  18  19
ATOM     19  C   UNL     1      20.257   9.346  23.291  1.00  0.00    -0.003 C 
ATOM     20  C   UNL     1      21.244   9.291  24.457  1.00  0.00     0.004 C 
ENDBRANCH  18  19
ENDBRANCH  17  18
ENDBRANCH  16  17
ENDBRANCH  15  16
ENDBRANCH  14  15
ENDBRANCH  13  14
ENDBRANCH  12  13
ENDBRANCH   1  12
TORSDOF 16
ENDMDL
MODEL 9
REMARK VINA RESULT:    -3.293      1.250      2.738
REMARK INTER + INTRA:          -9.139
REMARK INTER:                  -6.675
REMARK INTRA:                  -2.464
REMARK UNBOUND:                -2.766
REMARK SMILES CCCCCCCCCCCCCCCCCC(=O)[O-]
REMARK SMILES IDX 10 1 11 2 12 3 13 4 14 5 15 6 16 7 17 8 18 9 19 10 20 11
REMARK SMILES IDX 9 12 8 13 7 14 6 15 5 16 4 17 3 18 2 19 1 20
REMARK H PARENT
REMARK Flexibility Score: inf
ROOT
ATOM      1  C   UNL     1      19.267   2.138  25.908  1.00  0.00     0.000 C 
ENDROOT
BRANCH   1   2
ATOM      2  C   UNL     1      20.665   1.508  25.773  1.00  0.00     0.000 C 
BRANCH   2   3
ATOM      3  C   UNL     1      21.128   1.409  24.310  1.00  0.00     0.000 C 
BRANCH   3   4
ATOM      4  C   UNL     1      22.357   2.289  24.020  1.00  0.00     0.000 C 
BRANCH   4   5
ATOM      5  C   UNL     1      22.550   3.409  25.059  1.00  0.00     0.000 C 
BRANCH   5   6
ATOM      6  C   UNL     1      23.861   3.336  25.864  1.00  0.00     0.000 C 
BRANCH   6   7
ATOM      7  C   UNL     1      23.726   3.896  27.287  1.00  0.00     0.006 C 
BRANCH   7   8
ATOM      8  C   UNL     1      22.548   4.868  27.385  1.00  0.00     0.053 C 
BRANCH   8   9
ATOM      9  C   UNL     1      23.039   6.276  27.506  1.00  0.00     0.041 C 
ATOM     10  O   UNL     1      22.264   7.186  27.900  1.00  0.00    -0.550 OA
ATOM     11  O   UNL     1      24.370   6.572  27.240  1.00  0.00    -0.550 OA
ENDBRANCH   8   9
ENDBRANCH   7   8
ENDBRANCH   6   7
ENDBRANCH   5   6
ENDBRANCH   4   5
ENDBRANCH   3   4
ENDBRANCH   2   3
ENDBRANCH   1   2
BRANCH   1  12
ATOM     12  C   UNL     1      19.247   3.325  26.887  1.00  0.00     0.000 C 
BRANCH  12  13
ATOM     13  C   UNL     1      18.990   4.668  26.182  1.00  0.00    -0.000 C 
BRANCH  13  14
ATOM     14  C   UNL     1      19.083   4.554  24.652  1.00  0.00    -0.000 C 
BRANCH  14  15
ATOM     15  C   UNL     1      19.827   5.739  24.011  1.00  0.00    -0.000 C 
BRANCH  15  16
ATOM     16  C   UNL     1      20.217   6.817  25.044  1.00  0.00    -0.000 C 
BRANCH  16  17
ATOM     17  C   UNL     1      19.301   8.056  25.026  1.00  0.00    -0.000 C 
BRANCH  17  18
ATOM     18  C   UNL     1      18.373   8.162  23.801  1.00  0.00    -0.000 C 
BRANCH  18  19
ATOM     19  C   UNL     1      18.591   9.412  22.931  1.00  0.00    -0.003 C 
ATOM     20  C   UNL     1      19.947   9.417  22.225  1.00  0.00     0.004 C 
ENDBRANCH  18  19
ENDBRANCH  17  18
ENDBRANCH  16  17
ENDBRANCH  15  16
ENDBRANCH  14  15
ENDBRANCH  13  14
ENDBRANCH  12  13
ENDBRANCH   1  12
TORSDOF 16
ENDMDL
